# generated using pymatgen
data_ZnH10C24N5O8
_symmetry_space_group_name_H-M   'P 1'
_cell_length_a   13.89940000
_cell_length_b   15.25180000
_cell_length_c   19.46450000
_cell_angle_alpha   89.53770000
_cell_angle_beta   89.98530000
_cell_angle_gamma   89.94800000
_symmetry_Int_Tables_number   1
_chemical_formula_structural   ZnH10C24N5O8
_chemical_formula_sum   'Zn2 H20 C48 N10 O16'
_cell_volume   4126.16012372
_cell_formula_units_Z   2
loop_
 _symmetry_equiv_pos_site_id
 _symmetry_equiv_pos_as_xyz
  1  'x, y, z'
loop_
 _atom_site_type_symbol
 _atom_site_label
 _atom_site_symmetry_multiplicity
 _atom_site_fract_x
 _atom_site_fract_y
 _atom_site_fract_z
 _atom_site_occupancy
  Zn  Zn0  1  0.39796000  0.50001000  0.50018000  1.0
  Zn  Zn1  1  0.60204000  0.49999000  0.49983000  1.0
  H  H2  1  0.34515000  0.49845000  0.27864000  1.0
  H  H3  1  0.65485000  0.50155000  0.72136000  1.0
  H  H4  1  0.34518000  0.49773000  0.72148000  1.0
  H  H5  1  0.65482000  0.50227000  0.27852000  1.0
  H  H6  1  0.34667000  0.77760000  0.51253000  1.0
  H  H7  1  0.65333000  0.22240000  0.48747000  1.0
  H  H8  1  0.25692000  0.91877000  0.52125000  1.0
  H  H9  1  0.74307000  0.08123000  0.47875000  1.0
  H  H10  1  0.25688000  0.08103000  0.52125000  1.0
  H  H11  1  0.74312000  0.91897000  0.47875000  1.0
  H  H12  1  0.24681000  0.59631000  0.42438000  1.0
  H  H13  1  0.75319000  0.40369000  0.57562000  1.0
  H  H14  1  0.24702000  0.40378000  0.57559000  1.0
  H  H15  1  0.75298000  0.59622000  0.42441000  1.0
  H  H16  1  0.08914000  0.34238000  0.62498000  1.0
  H  H17  1  0.91086000  0.65763000  0.37502000  1.0
  H  H18  1  0.08889000  0.65757000  0.37496000  1.0
  H  H19  1  0.91112000  0.34243000  0.62504000  1.0
  H  H20  1  0.65339000  0.77774000  0.48716000  1.0
  H  H21  1  0.34662000  0.22226000  0.51284000  1.0
  C  C22  1  0.49998000  0.32927000  0.50101000  1.0
  C  C23  1  0.50002000  0.67073000  0.49899000  1.0
  C  C24  1  0.50014000  0.50119000  0.36474000  1.0
  C  C25  1  0.49986000  0.49881000  0.63526000  1.0
  C  C26  1  0.41330000  0.49961000  0.25118000  1.0
  C  C27  1  0.58670000  0.50038000  0.74882000  1.0
  C  C28  1  0.41335000  0.49838000  0.74891000  1.0
  C  C29  1  0.58665000  0.50162000  0.25109000  1.0
  C  C30  1  0.41453000  0.49798000  0.17981000  1.0
  C  C31  1  0.58547000  0.50202000  0.82020000  1.0
  C  C32  1  0.41468000  0.49671000  0.82029000  1.0
  C  C33  1  0.58533000  0.50328000  0.17971000  1.0
  C  C34  1  0.49991000  0.50056000  0.14141000  1.0
  C  C35  1  0.50010000  0.49943000  0.85859000  1.0
  C  C36  1  0.49999000  0.50074000  0.28731000  1.0
  C  C37  1  0.50002000  0.49925000  0.71269000  1.0
  C  C38  1  0.50005000  0.49967000  0.93477000  1.0
  C  C39  1  0.49995000  0.50033000  0.06523000  1.0
  C  C40  1  0.58667000  0.81469000  0.49241000  1.0
  C  C41  1  0.41333000  0.18531000  0.50759000  1.0
  C  C42  1  0.49996000  0.76894000  0.49934000  1.0
  C  C43  1  0.50004000  0.23106000  0.50066000  1.0
  C  C44  1  0.41329000  0.81461000  0.50683000  1.0
  C  C45  1  0.58671000  0.18539000  0.49317000  1.0
  C  C46  1  0.41158000  0.90649000  0.50748000  1.0
  C  C47  1  0.58841000  0.09351000  0.49252000  1.0
  C  C48  1  0.49999000  0.95345000  0.49991000  1.0
  C  C49  1  0.50001000  0.04655000  0.50010000  1.0
  C  C50  1  0.58840000  0.90656000  0.49224000  1.0
  C  C51  1  0.41160000  0.09344000  0.50776000  1.0
  C  C52  1  0.32399000  0.95519000  0.51528000  1.0
  C  C53  1  0.67600000  0.04481000  0.48472000  1.0
  C  C54  1  0.32400000  0.04468000  0.51534000  1.0
  C  C55  1  0.67600000  0.95532000  0.48466000  1.0
  C  C56  1  0.20264000  0.55433000  0.45729000  1.0
  C  C57  1  0.79736000  0.44567000  0.54271000  1.0
  C  C58  1  0.20272000  0.44572000  0.54269000  1.0
  C  C59  1  0.79728000  0.55428000  0.45731000  1.0
  C  C60  1  0.10199000  0.44273000  0.54511000  1.0
  C  C61  1  0.89801000  0.55727000  0.45488000  1.0
  C  C62  1  0.10190000  0.55726000  0.45486000  1.0
  C  C63  1  0.89810000  0.44274000  0.54514000  1.0
  C  C64  1  0.05091000  0.50000000  0.49999000  1.0
  C  C65  1  0.94909000  0.50000000  0.50001000  1.0
  C  C66  1  0.04928000  0.38566000  0.59033000  1.0
  C  C67  1  0.95072000  0.61434000  0.40967000  1.0
  C  C68  1  0.04909000  0.61432000  0.40963000  1.0
  C  C69  1  0.95091000  0.38568000  0.59037000  1.0
  N  N70  1  0.54613000  0.43351000  0.03450000  1.0
  N  N71  1  0.45387000  0.56649000  0.96549000  1.0
  N  N72  1  0.54621000  0.43315000  0.96671000  1.0
  N  N73  1  0.45379000  0.56684000  0.03329000  1.0
  N  N74  1  0.25037000  0.50004000  0.50000000  1.0
  N  N75  1  0.74963000  0.49996000  0.50000000  1.0
  N  N76  1  0.32055000  0.48903000  0.14476000  1.0
  N  N77  1  0.67945000  0.51097000  0.85524000  1.0
  N  N78  1  0.32076000  0.48694000  0.85548000  1.0
  N  N79  1  0.67925000  0.51306000  0.14452000  1.0
  O  O80  1  0.41836000  0.36754000  0.50180000  1.0
  O  O81  1  0.58165000  0.63247000  0.49821000  1.0
  O  O82  1  0.41845000  0.63247000  0.49959000  1.0
  O  O83  1  0.58155000  0.36753000  0.50041000  1.0
  O  O84  1  0.41836000  0.50094000  0.39386000  1.0
  O  O85  1  0.58164000  0.49905000  0.60614000  1.0
  O  O86  1  0.41791000  0.49825000  0.60648000  1.0
  O  O87  1  0.58210000  0.50174000  0.39352000  1.0
  O  O88  1  0.31801000  0.44297000  0.09274000  1.0
  O  O89  1  0.25120000  0.52656000  0.17144000  1.0
  O  O90  1  0.68199000  0.55703000  0.90726000  1.0
  O  O91  1  0.74880000  0.47344000  0.82855000  1.0
  O  O92  1  0.31895000  0.44117000  0.90828000  1.0
  O  O93  1  0.25075000  0.52312000  0.82815000  1.0
  O  O94  1  0.68106000  0.55883000  0.09172000  1.0
  O  O95  1  0.74925000  0.47688000  0.17185000  1.0
