# generated using pymatgen
data_CaVP2H14(C4O3)3
_symmetry_space_group_name_H-M   'P 1'
_cell_length_a   7.03015000
_cell_length_b   8.84898000
_cell_length_c   14.79794256
_cell_angle_alpha   72.59983121
_cell_angle_beta   86.30832160
_cell_angle_gamma   77.59810000
_symmetry_Int_Tables_number   1
_chemical_formula_structural   CaVP2H14(C4O3)3
_chemical_formula_sum   'Ca2 V2 P4 H28 C24 O18'
_cell_volume   857.95042922
_cell_formula_units_Z   2
loop_
 _symmetry_equiv_pos_site_id
 _symmetry_equiv_pos_as_xyz
  1  'x, y, z'
loop_
 _atom_site_type_symbol
 _atom_site_label
 _atom_site_symmetry_multiplicity
 _atom_site_fract_x
 _atom_site_fract_y
 _atom_site_fract_z
 _atom_site_occupancy
  Ca  Ca0  1  0.92885000  0.76698000  0.95689000  1.0
  Ca  Ca1  1  0.42878000  0.72390000  0.04317000  1.0
  V  V2  1  0.70651000  0.24900000  0.99140000  1.0
  V  V3  1  0.20650000  0.24044000  0.00857000  1.0
  P  P4  1  0.49389000  0.05923000  0.88001000  1.0
  P  P5  1  0.99374000  0.93929000  0.11999000  1.0
  P  P6  1  0.35909000  0.55029000  0.87970000  1.0
  P  P7  1  0.85897000  0.42996000  0.12030000  1.0
  H  H8  1  0.87169000  0.09893000  0.84885000  1.0
  H  H9  1  0.37164000  0.94784000  0.15119000  1.0
  H  H10  1  0.09587000  0.04653000  0.87005000  1.0
  H  H11  1  0.59582000  0.91670000  0.12992000  1.0
  H  H12  1  0.75571000  0.57856000  0.86926000  1.0
  H  H13  1  0.25572000  0.44769000  0.13071000  1.0
  H  H14  1  0.98239000  0.53400000  0.85639000  1.0
  H  H15  1  0.48240000  0.39029000  0.14356000  1.0
  H  H16  1  0.69954000  0.92205000  0.73610000  1.0
  H  H17  1  0.19930000  0.65817000  0.26376000  1.0
  H  H18  1  0.66811000  0.00977000  0.56104000  1.0
  H  H19  1  0.16824000  0.57071000  0.43883000  1.0
  H  H20  1  0.40130000  0.23801000  0.48177000  1.0
  H  H21  1  0.90167000  0.71963000  0.51828000  1.0
  H  H22  1  0.16602000  0.37871000  0.57847000  1.0
  H  H23  1  0.66628000  0.95704000  0.42173000  1.0
  H  H24  1  0.20521000  0.29830000  0.75318000  1.0
  H  H25  1  0.70512000  0.05144000  0.24701000  1.0
  H  H26  1  0.64267000  0.44092000  0.74924000  1.0
  H  H27  1  0.14244000  0.19026000  0.25082000  1.0
  H  H28  1  0.66827000  0.53152000  0.57396000  1.0
  H  H29  1  0.16787000  0.10575000  0.42610000  1.0
  H  H30  1  0.42177000  0.76190000  0.47920000  1.0
  H  H31  1  0.92127000  0.24151000  0.52078000  1.0
  H  H32  1  0.15573000  0.90665000  0.56103000  1.0
  H  H33  1  0.65537000  0.46809000  0.43887000  1.0
  H  H34  1  0.13728000  0.82343000  0.73642000  1.0
  H  H35  1  0.63711000  0.56007000  0.26348000  1.0
  C  C36  1  0.45453000  0.10552000  0.75532000  1.0
  C  C37  1  0.95440000  0.86087000  0.24469000  1.0
  C  C38  1  0.58468000  0.02364000  0.70130000  1.0
  C  C39  1  0.08456000  0.72490000  0.29863000  1.0
  C  C40  1  0.56565000  0.07239000  0.60301000  1.0
  C  C41  1  0.06572000  0.67532000  0.39693000  1.0
  C  C42  1  0.41566000  0.20010000  0.55866000  1.0
  C  C43  1  0.91585000  0.75864000  0.44138000  1.0
  C  C44  1  0.28376000  0.27941000  0.61272000  1.0
  C  C45  1  0.78393000  0.89205000  0.38740000  1.0
  C  C46  1  0.30382000  0.23356000  0.71086000  1.0
  C  C47  1  0.80372000  0.94434000  0.28925000  1.0
  C  C48  1  0.38857000  0.62613000  0.75388000  1.0
  C  C49  1  0.88834000  0.38017000  0.24610000  1.0
  C  C50  1  0.53858000  0.54487000  0.70784000  1.0
  C  C51  1  0.03828000  0.25284000  0.29219000  1.0
  C  C52  1  0.55130000  0.59516000  0.60931000  1.0
  C  C53  1  0.05096000  0.20473000  0.39071000  1.0
  C  C54  1  0.41303000  0.72444000  0.55631000  1.0
  C  C55  1  0.91264000  0.28109000  0.44367000  1.0
  C  C56  1  0.26364000  0.80552000  0.60214000  1.0
  C  C57  1  0.76330000  0.40798000  0.39780000  1.0
  C  C58  1  0.25174000  0.75792000  0.70076000  1.0
  C  C59  1  0.75147000  0.45891000  0.29919000  1.0
  O  O60  1  0.59961000  0.88323000  0.92066000  1.0
  O  O61  1  0.09951000  0.80390000  0.07936000  1.0
  O  O62  1  0.61903000  0.17938000  0.88806000  1.0
  O  O63  1  0.11889000  0.06749000  0.11192000  1.0
  O  O64  1  0.29220000  0.08624000  0.92966000  1.0
  O  O65  1  0.79208000  0.01597000  0.07034000  1.0
  O  O66  1  0.92673000  0.26964000  0.94961000  1.0
  O  O67  1  0.42672000  0.21932000  0.05032000  1.0
  O  O68  1  0.98613000  0.01272000  0.84825000  1.0
  O  O69  1  0.48610000  0.86106000  0.15177000  1.0
  O  O70  1  0.87204000  0.62663000  0.85033000  1.0
  O  O71  1  0.37204000  0.47683000  0.14964000  1.0
  O  O72  1  0.25816000  0.68700000  0.92038000  1.0
  O  O73  1  0.75803000  0.60734000  0.07961000  1.0
  O  O74  1  0.56388000  0.47595000  0.92590000  1.0
  O  O75  1  0.06380000  0.40188000  0.07410000  1.0
  O  O76  1  0.23271000  0.42100000  0.89290000  1.0
  O  O77  1  0.73274000  0.31380000  0.10710000  1.0
