# generated using pymatgen
data_AgH8C16SN2O4F3
_symmetry_space_group_name_H-M   'P 1'
_cell_length_a   8.65084000
_cell_length_b   10.31760000
_cell_length_c   10.84410000
_cell_angle_alpha   82.02410000
_cell_angle_beta   69.26350000
_cell_angle_gamma   67.51490000
_symmetry_Int_Tables_number   1
_chemical_formula_structural   AgH8C16SN2O4F3
_chemical_formula_sum   'Ag2 H16 C32 S2 N4 O8 F6'
_cell_volume   836.37780891
_cell_formula_units_Z   2
loop_
 _symmetry_equiv_pos_site_id
 _symmetry_equiv_pos_as_xyz
  1  'x, y, z'
loop_
 _atom_site_type_symbol
 _atom_site_label
 _atom_site_symmetry_multiplicity
 _atom_site_fract_x
 _atom_site_fract_y
 _atom_site_fract_z
 _atom_site_occupancy
  Ag  Ag0  1  0.46964000  0.32568000  0.52949000  1.0
  Ag  Ag1  1  0.53035000  0.67432000  0.47051000  1.0
  H  H2  1  0.34151000  0.19601000  0.24935000  1.0
  H  H3  1  0.65849000  0.80399000  0.75065000  1.0
  H  H4  1  0.30753000  0.26723000  0.03156000  1.0
  H  H5  1  0.69247000  0.73277000  0.96845000  1.0
  H  H6  1  0.86373000  0.02093000  0.84454000  1.0
  H  H7  1  0.13627000  0.97907000  0.15546000  1.0
  H  H8  1  0.89359000  0.94981000  0.06352000  1.0
  H  H9  1  0.10641000  0.05019000  0.93648000  1.0
  H  H10  1  0.78041000  0.77548000  0.19192000  1.0
  H  H11  1  0.21959000  0.22452000  0.80808000  1.0
  H  H12  1  0.00851000  0.56349000  0.24385000  1.0
  H  H13  1  0.99148000  0.43651000  0.75616000  1.0
  H  H14  1  0.04762000  0.80418000  0.52024000  1.0
  H  H15  1  0.95238000  0.19583000  0.47976000  1.0
  H  H16  1  0.80582000  0.01362000  0.47532000  1.0
  H  H17  1  0.19417000  0.98638000  0.52468000  1.0
  C  C18  1  0.63501000  0.03569000  0.30628000  1.0
  C  C19  1  0.36499000  0.96431000  0.69372000  1.0
  C  C20  1  0.61934000  0.06787000  0.17150000  1.0
  C  C21  1  0.38067000  0.93213000  0.82850000  1.0
  C  C22  1  0.45508000  0.15761000  0.16060000  1.0
  C  C23  1  0.54492000  0.84239000  0.83940000  1.0
  C  C24  1  0.43617000  0.19863000  0.03774000  1.0
  C  C25  1  0.56383000  0.80138000  0.96226000  1.0
  C  C26  1  0.58485000  0.15155000  0.92331000  1.0
  C  C27  1  0.41515000  0.84845000  0.07669000  1.0
  C  C28  1  0.74989000  0.06074000  0.93275000  1.0
  C  C29  1  0.25011000  0.93926000  0.06724000  1.0
  C  C30  1  0.76536000  0.01901000  0.05666000  1.0
  C  C31  1  0.23464000  0.98098000  0.94334000  1.0
  C  C32  1  0.56880000  0.19556000  0.79675000  1.0
  C  C33  1  0.43121000  0.80444000  0.20325000  1.0
  C  C34  1  0.78024000  0.90888000  0.32928000  1.0
  C  C35  1  0.21976000  0.09112000  0.67072000  1.0
  C  C36  1  0.83789000  0.78229000  0.26403000  1.0
  C  C37  1  0.16211000  0.21771000  0.73596000  1.0
  C  C38  1  0.96762000  0.66318000  0.29122000  1.0
  C  C39  1  0.03237000  0.33681000  0.70878000  1.0
  C  C40  1  0.04415000  0.67237000  0.38256000  1.0
  C  C41  1  0.95585000  0.32763000  0.61744000  1.0
  C  C42  1  0.98709000  0.79899000  0.44948000  1.0
  C  C43  1  0.01291000  0.20102000  0.55053000  1.0
  C  C44  1  0.85370000  0.91517000  0.42400000  1.0
  C  C45  1  0.14630000  0.08483000  0.57600000  1.0
  C  C46  1  0.17896000  0.55089000  0.40757000  1.0
  C  C47  1  0.82104000  0.44911000  0.59243000  1.0
  C  C48  1  0.78823000  0.39971000  0.11157000  1.0
  C  C49  1  0.21178000  0.60028000  0.88843000  1.0
  S  S50  1  0.87065000  0.31297000  0.25032000  1.0
  S  S51  1  0.12935000  0.68703000  0.74968000  1.0
  N  N52  1  0.55406000  0.23247000  0.69345000  1.0
  N  N53  1  0.44594000  0.76754000  0.30655000  1.0
  N  N54  1  0.28821000  0.45007000  0.42802000  1.0
  N  N55  1  0.71178000  0.54994000  0.57198000  1.0
  O  O56  1  0.52610000  0.11428000  0.39907000  1.0
  O  O57  1  0.47390000  0.88572000  0.60092000  1.0
  O  O58  1  0.72371000  0.38601000  0.36573000  1.0
  O  O59  1  0.27628000  0.61399000  0.63427000  1.0
  O  O60  1  0.03121000  0.34288000  0.22241000  1.0
  O  O61  1  0.96878000  0.65712000  0.77759000  1.0
  O  O62  1  0.89694000  0.16612000  0.24089000  1.0
  O  O63  1  0.10306000  0.83387000  0.75912000  1.0
  F  F64  1  0.78385000  0.53435000  0.09636000  1.0
  F  F65  1  0.21619000  0.46563000  0.90362000  1.0
  F  F66  1  0.89714000  0.33105000  0.99654000  1.0
  F  F67  1  0.10285000  0.66892000  0.00346000  1.0
  F  F68  1  0.62289000  0.40334000  0.13153000  1.0
  F  F69  1  0.37711000  0.59667000  0.86847000  1.0
