# generated using pymatgen
data_VH4C8O5
_symmetry_space_group_name_H-M   'P 1'
_cell_length_a   6.78554000
_cell_length_b   13.74450000
_cell_length_c   16.32780000
_cell_angle_alpha   90.00010000
_cell_angle_beta   89.99970000
_cell_angle_gamma   89.99990000
_symmetry_Int_Tables_number   1
_chemical_formula_structural   VH4C8O5
_chemical_formula_sum   'V4 H16 C32 O20'
_cell_volume   1522.79356397
_cell_formula_units_Z   4
loop_
 _symmetry_equiv_pos_site_id
 _symmetry_equiv_pos_as_xyz
  1  'x, y, z'
loop_
 _atom_site_type_symbol
 _atom_site_label
 _atom_site_symmetry_multiplicity
 _atom_site_fract_x
 _atom_site_fract_y
 _atom_site_fract_z
 _atom_site_occupancy
  V  V0  1  0.17761000  0.23358000  0.25000000  1.0
  V  V1  1  0.32223000  0.73364000  0.75001000  1.0
  V  V2  1  0.82226000  0.76636000  0.75001000  1.0
  V  V3  1  0.67756000  0.26643000  0.25000000  1.0
  H  H4  1  0.78829000  0.09890000  0.45597000  1.0
  H  H5  1  0.71181000  0.59936000  0.54395000  1.0
  H  H6  1  0.21193000  0.90052000  0.95614000  1.0
  H  H7  1  0.28838000  0.40124000  0.04412000  1.0
  H  H8  1  0.21194000  0.90051000  0.54386000  1.0
  H  H9  1  0.28837000  0.40123000  0.45588000  1.0
  H  H10  1  0.78831000  0.09889000  0.04403000  1.0
  H  H11  1  0.71180000  0.59936000  0.95604000  1.0
  H  H12  1  0.18166000  0.01548000  0.42513000  1.0
  H  H13  1  0.31853000  0.51616000  0.57464000  1.0
  H  H14  1  0.81846000  0.98394000  0.92527000  1.0
  H  H15  1  0.68153000  0.48441000  0.07479000  1.0
  H  H16  1  0.81846000  0.98396000  0.57473000  1.0
  H  H17  1  0.68154000  0.48442000  0.42520000  1.0
  H  H18  1  0.18167000  0.01548000  0.07487000  1.0
  H  H19  1  0.31853000  0.51617000  0.92536000  1.0
  C  C20  1  0.46697000  0.13206000  0.36373000  1.0
  C  C21  1  0.03295000  0.63226000  0.63624000  1.0
  C  C22  1  0.53289000  0.86775000  0.86375000  1.0
  C  C23  1  0.96693000  0.36795000  0.13628000  1.0
  C  C24  1  0.53290000  0.86775000  0.63625000  1.0
  C  C25  1  0.96693000  0.36795000  0.36372000  1.0
  C  C26  1  0.46697000  0.13205000  0.13626000  1.0
  C  C27  1  0.03296000  0.63226000  0.86376000  1.0
  C  C28  1  0.48326000  0.06380000  0.43386000  1.0
  C  C29  1  0.01674000  0.56422000  0.56600000  1.0
  C  C30  1  0.51679000  0.93578000  0.93400000  1.0
  C  C31  1  0.98330000  0.43621000  0.06614000  1.0
  C  C32  1  0.51680000  0.93578000  0.56600000  1.0
  C  C33  1  0.98330000  0.43621000  0.43385000  1.0
  C  C34  1  0.48328000  0.06379000  0.06614000  1.0
  C  C35  1  0.01675000  0.56422000  0.93400000  1.0
  C  C36  1  0.66341000  0.05493000  0.47568000  1.0
  C  C37  1  0.83667000  0.55539000  0.52418000  1.0
  C  C38  1  0.33673000  0.94455000  0.97586000  1.0
  C  C39  1  0.16344000  0.44516000  0.02439000  1.0
  C  C40  1  0.33674000  0.94455000  0.52415000  1.0
  C  C41  1  0.16345000  0.44516000  0.47561000  1.0
  C  C42  1  0.66343000  0.05492000  0.02432000  1.0
  C  C43  1  0.83668000  0.55538000  0.97581000  1.0
  C  C44  1  0.31997000  0.00830000  0.45850000  1.0
  C  C45  1  0.18022000  0.50891000  0.54127000  1.0
  C  C46  1  0.68018000  0.99114000  0.95868000  1.0
  C  C47  1  0.81989000  0.49162000  0.04145000  1.0
  C  C48  1  0.68019000  0.99115000  0.54132000  1.0
  C  C49  1  0.81989000  0.49162000  0.45854000  1.0
  C  C50  1  0.31998000  0.00831000  0.04151000  1.0
  C  C51  1  0.18024000  0.50890000  0.95873000  1.0
  O  O52  1  0.29526000  0.14884000  0.33467000  1.0
  O  O53  1  0.20459000  0.64904000  0.66531000  1.0
  O  O54  1  0.70460000  0.85096000  0.83471000  1.0
  O  O55  1  0.79526000  0.35116000  0.16532000  1.0
  O  O56  1  0.70462000  0.85097000  0.66530000  1.0
  O  O57  1  0.79527000  0.35117000  0.33467000  1.0
  O  O58  1  0.29526000  0.14885000  0.16533000  1.0
  O  O59  1  0.20458000  0.64905000  0.83469000  1.0
  O  O60  1  0.44955000  0.30641000  0.25000000  1.0
  O  O61  1  0.05033000  0.80651000  0.75000000  1.0
  O  O62  1  0.55029000  0.69348000  0.75000000  1.0
  O  O63  1  0.94957000  0.19358000  0.25000000  1.0
  O  O64  1  0.62722000  0.16971000  0.33732000  1.0
  O  O65  1  0.87254000  0.66974000  0.66272000  1.0
  O  O66  1  0.37256000  0.83025000  0.83728000  1.0
  O  O67  1  0.12723000  0.33029000  0.16269000  1.0
  O  O68  1  0.37256000  0.83025000  0.66272000  1.0
  O  O69  1  0.12723000  0.33029000  0.33731000  1.0
  O  O70  1  0.62722000  0.16970000  0.16268000  1.0
  O  O71  1  0.87255000  0.66974000  0.83728000  1.0
