# generated using pymatgen
data_CaVH8C2NO9
_symmetry_space_group_name_H-M   'P 1'
_cell_length_a   8.57348000
_cell_length_b   8.95193000
_cell_length_c   12.56940000
_cell_angle_alpha   106.91800000
_cell_angle_beta   90.00000000
_cell_angle_gamma   89.99980000
_symmetry_Int_Tables_number   1
_chemical_formula_structural   CaVH8C2NO9
_chemical_formula_sum   'Ca4 V4 H32 C8 N4 O36'
_cell_volume   922.94159656
_cell_formula_units_Z   4
loop_
 _symmetry_equiv_pos_site_id
 _symmetry_equiv_pos_as_xyz
  1  'x, y, z'
loop_
 _atom_site_type_symbol
 _atom_site_label
 _atom_site_symmetry_multiplicity
 _atom_site_fract_x
 _atom_site_fract_y
 _atom_site_fract_z
 _atom_site_occupancy
  Ca  Ca0  1  0.71177000  0.41190000  0.71477000  1.0
  Ca  Ca1  1  0.21177000  0.58810000  0.78523000  1.0
  Ca  Ca2  1  0.28823000  0.58811000  0.28523000  1.0
  Ca  Ca3  1  0.78823000  0.41189000  0.21477000  1.0
  V  V4  1  0.52888000  0.73879000  0.90581000  1.0
  V  V5  1  0.02888000  0.26121000  0.59420000  1.0
  V  V6  1  0.47112000  0.26121000  0.09420000  1.0
  V  V7  1  0.97112000  0.73879000  0.40580000  1.0
  H  H8  1  0.81310000  0.01523000  0.95408000  1.0
  H  H9  1  0.31310000  0.98478000  0.54592000  1.0
  H  H10  1  0.18690000  0.98477000  0.04593000  1.0
  H  H11  1  0.68690000  0.01523000  0.45408000  1.0
  H  H12  1  0.84619000  0.99500000  0.81143000  1.0
  H  H13  1  0.34620000  0.00500000  0.68856000  1.0
  H  H14  1  0.15381000  0.00500000  0.18857000  1.0
  H  H15  1  0.65380000  0.99500000  0.31144000  1.0
  H  H16  1  0.56177000  0.02453000  0.89317000  1.0
  H  H17  1  0.06178000  0.97546000  0.60682000  1.0
  H  H18  1  0.43823000  0.97546000  0.10682000  1.0
  H  H19  1  0.93823000  0.02454000  0.39318000  1.0
  H  H20  1  0.59550000  0.90253000  0.76903000  1.0
  H  H21  1  0.09551000  0.09747000  0.73097000  1.0
  H  H22  1  0.40449000  0.09747000  0.23097000  1.0
  H  H23  1  0.90449000  0.90253000  0.26903000  1.0
  H  H24  1  0.58744000  0.57303000  0.56121000  1.0
  H  H25  1  0.08744000  0.42697000  0.93878000  1.0
  H  H26  1  0.41256000  0.42697000  0.43879000  1.0
  H  H27  1  0.91257000  0.57303000  0.06122000  1.0
  H  H28  1  0.76933000  0.58001000  0.54105000  1.0
  H  H29  1  0.26933000  0.42000000  0.95894000  1.0
  H  H30  1  0.23066000  0.42000000  0.45895000  1.0
  H  H31  1  0.73067000  0.58000000  0.04106000  1.0
  H  H32  1  0.77218000  0.35074000  0.92270000  1.0
  H  H33  1  0.27218000  0.64926000  0.57730000  1.0
  H  H34  1  0.22782000  0.64926000  0.07730000  1.0
  H  H35  1  0.72781000  0.35074000  0.42270000  1.0
  H  H36  1  0.60409000  0.29331000  0.88860000  1.0
  H  H37  1  0.10409000  0.70670000  0.61141000  1.0
  H  H38  1  0.39591000  0.70669000  0.11140000  1.0
  H  H39  1  0.89590000  0.29330000  0.38860000  1.0
  C  C40  1  0.86588000  0.78118000  0.85705000  1.0
  C  C41  1  0.36586000  0.21882000  0.64295000  1.0
  C  C42  1  0.13411000  0.21881000  0.14295000  1.0
  C  C43  1  0.63411000  0.78118000  0.35706000  1.0
  C  C44  1  0.79143000  0.93982000  0.86936000  1.0
  C  C45  1  0.29144000  0.06017000  0.63064000  1.0
  C  C46  1  0.20857000  0.06017000  0.13064000  1.0
  C  C47  1  0.70857000  0.93983000  0.36936000  1.0
  N  N48  1  0.62131000  0.92430000  0.85155000  1.0
  N  N49  1  0.12132000  0.07571000  0.64844000  1.0
  N  N50  1  0.37869000  0.07571000  0.14844000  1.0
  N  N51  1  0.87868000  0.92430000  0.35156000  1.0
  O  O52  1  0.35075000  0.80659000  0.92353000  1.0
  O  O53  1  0.85075000  0.19340000  0.57647000  1.0
  O  O54  1  0.64925000  0.19340000  0.07647000  1.0
  O  O55  1  0.14925000  0.80660000  0.42353000  1.0
  O  O56  1  0.49440000  0.61862000  0.74845000  1.0
  O  O57  1  0.99440000  0.38138000  0.75156000  1.0
  O  O58  1  0.50560000  0.38139000  0.25156000  1.0
  O  O59  1  0.00560000  0.61862000  0.24845000  1.0
  O  O60  1  0.48278000  0.52681000  0.82814000  1.0
  O  O61  1  0.98278000  0.47319000  0.67186000  1.0
  O  O62  1  0.51722000  0.47319000  0.17187000  1.0
  O  O63  1  0.01722000  0.52681000  0.32814000  1.0
  O  O64  1  0.57275000  0.68387000  0.03837000  1.0
  O  O65  1  0.07275000  0.31613000  0.46163000  1.0
  O  O66  1  0.42725000  0.31613000  0.96163000  1.0
  O  O67  1  0.92725000  0.68387000  0.53837000  1.0
  O  O68  1  0.62373000  0.84156000  0.04460000  1.0
  O  O69  1  0.12373000  0.15843000  0.45539000  1.0
  O  O70  1  0.37627000  0.15843000  0.95539000  1.0
  O  O71  1  0.87627000  0.84157000  0.54461000  1.0
  O  O72  1  0.77061000  0.66709000  0.85032000  1.0
  O  O73  1  0.27061000  0.33289000  0.64968000  1.0
  O  O74  1  0.22939000  0.33290000  0.14967000  1.0
  O  O75  1  0.72939000  0.66710000  0.35033000  1.0
  O  O76  1  0.01144000  0.77122000  0.85561000  1.0
  O  O77  1  0.51146000  0.22879000  0.64439000  1.0
  O  O78  1  0.98856000  0.22878000  0.14439000  1.0
  O  O79  1  0.48856000  0.77122000  0.35562000  1.0
  O  O80  1  0.68131000  0.50915000  0.54939000  1.0
  O  O81  1  0.18131000  0.49085000  0.95061000  1.0
  O  O82  1  0.31869000  0.49085000  0.45061000  1.0
  O  O83  1  0.81869000  0.50915000  0.04939000  1.0
  O  O84  1  0.71168000  0.28859000  0.85821000  1.0
  O  O85  1  0.21168000  0.71141000  0.64179000  1.0
  O  O86  1  0.28832000  0.71141000  0.14179000  1.0
  O  O87  1  0.78831000  0.28860000  0.35821000  1.0
