# generated using pymatgen
data_HgH7C9Br2N
_symmetry_space_group_name_H-M   'P 1'
_cell_length_a   7.51826000
_cell_length_b   7.64821000
_cell_length_c   10.05220000
_cell_angle_alpha   93.72290000
_cell_angle_beta   111.91200000
_cell_angle_gamma   93.08370000
_symmetry_Int_Tables_number   1
_chemical_formula_structural   HgH7C9Br2N
_chemical_formula_sum   'Hg2 H14 C18 Br4 N2'
_cell_volume   533.22153819
_cell_formula_units_Z   2
loop_
 _symmetry_equiv_pos_site_id
 _symmetry_equiv_pos_as_xyz
  1  'x, y, z'
loop_
 _atom_site_type_symbol
 _atom_site_label
 _atom_site_symmetry_multiplicity
 _atom_site_fract_x
 _atom_site_fract_y
 _atom_site_fract_z
 _atom_site_occupancy
  Hg  Hg0  1  0.52213000  0.25762000  0.05661000  1.0
  Hg  Hg1  1  0.47786000  0.74234000  0.94337000  1.0
  H  H2  1  0.16940000  0.37124000  0.11599000  1.0
  H  H3  1  0.83060000  0.62874000  0.88401000  1.0
  H  H4  1  0.77945000  0.18368000  0.32429000  1.0
  H  H5  1  0.22055000  0.81632000  0.67572000  1.0
  H  H6  1  0.53553000  0.22218000  0.72388000  1.0
  H  H7  1  0.46448000  0.77784000  0.27612000  1.0
  H  H8  1  0.03440000  0.40494000  0.30710000  1.0
  H  H9  1  0.96559000  0.59504000  0.69288000  1.0
  H  H10  1  0.86264000  0.12905000  0.76780000  1.0
  H  H11  1  0.13736000  0.87098000  0.23220000  1.0
  H  H12  1  0.98435000  0.11362000  0.56974000  1.0
  H  H13  1  0.01567000  0.88642000  0.43027000  1.0
  H  H14  1  0.23334000  0.33062000  0.55807000  1.0
  H  H15  1  0.76665000  0.66940000  0.44192000  1.0
  C  C16  1  0.54093000  0.24824000  0.38493000  1.0
  C  C17  1  0.45909000  0.75178000  0.61506000  1.0
  C  C18  1  0.47145000  0.26012000  0.49976000  1.0
  C  C19  1  0.52855000  0.73989000  0.50025000  1.0
  C  C20  1  0.25270000  0.34142000  0.22568000  1.0
  C  C21  1  0.74730000  0.65857000  0.77432000  1.0
  C  C22  1  0.72728000  0.19415000  0.41210000  1.0
  C  C23  1  0.27273000  0.80586000  0.58790000  1.0
  C  C24  1  0.59027000  0.21460000  0.63752000  1.0
  C  C25  1  0.40974000  0.78542000  0.36249000  1.0
  C  C26  1  0.17685000  0.35850000  0.33403000  1.0
  C  C27  1  0.82314000  0.64148000  0.66595000  1.0
  C  C28  1  0.77151000  0.16275000  0.66149000  1.0
  C  C29  1  0.22851000  0.83726000  0.33851000  1.0
  C  C30  1  0.84000000  0.15361000  0.54828000  1.0
  C  C31  1  0.16000000  0.84642000  0.45174000  1.0
  C  C32  1  0.28588000  0.31787000  0.47052000  1.0
  C  C33  1  0.71411000  0.68215000  0.52947000  1.0
  Br  Br34  1  0.24979000  0.39644000  0.84828000  1.0
  Br  Br35  1  0.75020000  0.60353000  0.15172000  1.0
  Br  Br36  1  0.78627000  0.07845000  0.03030000  1.0
  Br  Br37  1  0.21371000  0.92149000  0.96972000  1.0
  N  N38  1  0.42678000  0.28903000  0.25012000  1.0
  N  N39  1  0.57322000  0.71096000  0.74988000  1.0
