# generated using pymatgen
data_ZnH18C14S(NO)4
_symmetry_space_group_name_H-M   'P 1'
_cell_length_a   6.55537000
_cell_length_b   9.42270000
_cell_length_c   9.42281000
_cell_angle_alpha   81.45730000
_cell_angle_beta   87.77020000
_cell_angle_gamma   87.77000000
_symmetry_Int_Tables_number   1
_chemical_formula_structural   ZnH18C14S(NO)4
_chemical_formula_sum   'Zn1 H18 C14 S1 N4 O4'
_cell_volume   574.82355844
_cell_formula_units_Z   1
loop_
 _symmetry_equiv_pos_site_id
 _symmetry_equiv_pos_as_xyz
  1  'x, y, z'
loop_
 _atom_site_type_symbol
 _atom_site_label
 _atom_site_symmetry_multiplicity
 _atom_site_fract_x
 _atom_site_fract_y
 _atom_site_fract_z
 _atom_site_occupancy
  Zn  Zn0  1  0.50000000  0.55831000  0.44170000  1.0
  H  H1  1  0.49557000  0.78080000  0.04737000  1.0
  H  H2  1  0.50446000  0.95262000  0.21920000  1.0
  H  H3  1  0.71287000  0.74156000  0.15569000  1.0
  H  H4  1  0.28715000  0.84432000  0.25842000  1.0
  H  H5  1  0.53088000  0.38034000  0.18112000  1.0
  H  H6  1  0.46913000  0.81890000  0.61965000  1.0
  H  H7  1  0.75077000  0.48602000  0.15610000  1.0
  H  H8  1  0.24924000  0.84390000  0.51397000  1.0
  H  H9  1  0.87058000  0.43285000  0.92570000  1.0
  H  H10  1  0.12938000  0.07431000  0.56713000  1.0
  H  H11  1  0.82080000  0.46547000  0.65928000  1.0
  H  H12  1  0.17919000  0.34074000  0.53450000  1.0
  H  H13  1  0.21985000  0.60076000  0.70801000  1.0
  H  H14  1  0.78013000  0.29200000  0.39923000  1.0
  H  H15  1  0.24297000  0.57945000  0.97632000  1.0
  H  H16  1  0.75701000  0.02369000  0.42055000  1.0
  H  H17  1  0.32315000  0.59102000  0.20040000  1.0
  H  H18  1  0.67685000  0.79961000  0.40898000  1.0
  C  C19  1  0.54482000  0.74188000  0.15754000  1.0
  C  C20  1  0.45518000  0.84247000  0.25811000  1.0
  C  C21  1  0.58726000  0.48611000  0.13370000  1.0
  C  C22  1  0.41275000  0.86631000  0.51388000  1.0
  C  C23  1  0.72306000  0.47052000  0.88213000  1.0
  C  C24  1  0.27694000  0.11787000  0.52946000  1.0
  C  C25  1  0.69733000  0.48734000  0.73482000  1.0
  C  C26  1  0.30265000  0.26520000  0.51264000  1.0
  C  C27  1  0.36095000  0.56491000  0.76216000  1.0
  C  C28  1  0.63905000  0.23785000  0.43509000  1.0
  C  C29  1  0.37518000  0.55157000  0.91052000  1.0
  C  C30  1  0.62481000  0.08951000  0.44842000  1.0
  C  C31  1  0.56066000  0.50394000  0.97349000  1.0
  C  C32  1  0.43935000  0.02652000  0.49605000  1.0
  S  S33  1  0.00000000  0.62560000  0.37440000  1.0
  N  N34  1  0.51959000  0.53472000  0.67496000  1.0
  N  N35  1  0.48043000  0.32506000  0.46525000  1.0
  N  N36  1  0.48059000  0.59427000  0.20815000  1.0
  N  N37  1  0.51941000  0.79186000  0.40573000  1.0
  O  O38  1  0.17413000  0.57524000  0.47044000  1.0
  O  O39  1  0.82586000  0.52959000  0.42479000  1.0
  O  O40  1  0.05503000  0.61071000  0.22263000  1.0
  O  O41  1  0.94499000  0.77739000  0.38920000  1.0
