# generated using pymatgen
data_ZnH16C17(NO2)2
_symmetry_space_group_name_H-M   'P 1'
_cell_length_a   7.79145000
_cell_length_b   10.29100000
_cell_length_c   10.42870000
_cell_angle_alpha   92.51880000
_cell_angle_beta   107.40900000
_cell_angle_gamma   106.59800000
_symmetry_Int_Tables_number   1
_chemical_formula_structural   ZnH16C17(NO2)2
_chemical_formula_sum   'Zn2 H32 C34 N4 O8'
_cell_volume   756.94686935
_cell_formula_units_Z   2
loop_
 _symmetry_equiv_pos_site_id
 _symmetry_equiv_pos_as_xyz
  1  'x, y, z'
loop_
 _atom_site_type_symbol
 _atom_site_label
 _atom_site_symmetry_multiplicity
 _atom_site_fract_x
 _atom_site_fract_y
 _atom_site_fract_z
 _atom_site_occupancy
  Zn  Zn0  1  0.89567000  0.85663000  0.47397000  1.0
  Zn  Zn1  1  0.10433000  0.14338000  0.52603000  1.0
  H  H2  1  0.88937000  0.97533000  0.91183000  1.0
  H  H3  1  0.11063000  0.02466000  0.08817000  1.0
  H  H4  1  0.81211000  0.83032000  0.08411000  1.0
  H  H5  1  0.18788000  0.16968000  0.91589000  1.0
  H  H6  1  0.47416000  0.73092000  0.07297000  1.0
  H  H7  1  0.52584000  0.26908000  0.92703000  1.0
  H  H8  1  0.22134000  0.77872000  0.88898000  1.0
  H  H9  1  0.77865000  0.22128000  0.11102000  1.0
  H  H10  1  0.72972000  0.17236000  0.77670000  1.0
  H  H11  1  0.27028000  0.82764000  0.22330000  1.0
  H  H12  1  0.53908000  0.07328000  0.63628000  1.0
  H  H13  1  0.46092000  0.92672000  0.36372000  1.0
  H  H14  1  0.48308000  0.72483000  0.36509000  1.0
  H  H15  1  0.51692000  0.27517000  0.63492000  1.0
  H  H16  1  0.37917000  0.28914000  0.29215000  1.0
  H  H17  1  0.62084000  0.71086000  0.70785000  1.0
  H  H18  1  0.73179000  0.33726000  0.36230000  1.0
  H  H19  1  0.26821000  0.66274000  0.63770000  1.0
  H  H20  1  0.94229000  0.58135000  0.43478000  1.0
  H  H21  1  0.05771000  0.41865000  0.56522000  1.0
  H  H22  1  0.11101000  0.38416000  0.28186000  1.0
  H  H23  1  0.88899000  0.61584000  0.71814000  1.0
  H  H24  1  0.16984000  0.56127000  0.34136000  1.0
  H  H25  1  0.83016000  0.43873000  0.65864000  1.0
  H  H26  1  0.02587000  0.31662000  0.03988000  1.0
  H  H27  1  0.97413000  0.68337000  0.96011000  1.0
  H  H28  1  0.26368000  0.40783000  0.05442000  1.0
  H  H29  1  0.73632000  0.59216000  0.94558000  1.0
  H  H30  1  0.95941000  0.63045000  0.18266000  1.0
  H  H31  1  0.04060000  0.36955000  0.81734000  1.0
  H  H32  1  0.83650000  0.45366000  0.11874000  1.0
  H  H33  1  0.16350000  0.54634000  0.88126000  1.0
  C  C34  1  0.41256000  0.90927000  0.80271000  1.0
  C  C35  1  0.58744000  0.09073000  0.19729000  1.0
  C  C36  1  0.60257000  0.96807000  0.80966000  1.0
  C  C37  1  0.39743000  0.03193000  0.19034000  1.0
  C  C38  1  0.74277000  0.93401000  0.90930000  1.0
  C  C39  1  0.25723000  0.06599000  0.09070000  1.0
  C  C40  1  0.69947000  0.85039000  0.00408000  1.0
  C  C41  1  0.30053000  0.14961000  0.99592000  1.0
  C  C42  1  0.51083000  0.79443000  0.99811000  1.0
  C  C43  1  0.48917000  0.20557000  0.00189000  1.0
  C  C44  1  0.36935000  0.82224000  0.89625000  1.0
  C  C45  1  0.63065000  0.17776000  0.10375000  1.0
  C  C46  1  0.66319000  0.06872000  0.71873000  1.0
  C  C47  1  0.33681000  0.93128000  0.28127000  1.0
  C  C48  1  0.79679000  0.03872000  0.64953000  1.0
  C  C49  1  0.20321000  0.96128000  0.35047000  1.0
  C  C50  1  0.25071000  0.93468000  0.69731000  1.0
  C  C51  1  0.74929000  0.06532000  0.30269000  1.0
  C  C52  1  0.53163000  0.63585000  0.36210000  1.0
  C  C53  1  0.46837000  0.36415000  0.63790000  1.0
  C  C54  1  0.40226000  0.50428000  0.31872000  1.0
  C  C55  1  0.59774000  0.49572000  0.68128000  1.0
  C  C56  1  0.47430000  0.39434000  0.32063000  1.0
  C  C57  1  0.52570000  0.60567000  0.67937000  1.0
  C  C58  1  0.67054000  0.42024000  0.36159000  1.0
  C  C59  1  0.32946000  0.57976000  0.63841000  1.0
  C  C60  1  0.78843000  0.55471000  0.40191000  1.0
  C  C61  1  0.21157000  0.44529000  0.59810000  1.0
  C  C62  1  0.19395000  0.48887000  0.27316000  1.0
  C  C63  1  0.80605000  0.51113000  0.72684000  1.0
  C  C64  1  0.12168000  0.41813000  0.03401000  1.0
  C  C65  1  0.87832000  0.58187000  0.96599000  1.0
  C  C66  1  0.94489000  0.54565000  0.10804000  1.0
  C  C67  1  0.05511000  0.45435000  0.89196000  1.0
  N  N68  1  0.71998000  0.66087000  0.40381000  1.0
  N  N69  1  0.28002000  0.33913000  0.59619000  1.0
  N  N70  1  0.12953000  0.52370000  0.13599000  1.0
  N  N71  1  0.87047000  0.47630000  0.86401000  1.0
  O  O72  1  0.76472000  0.91483000  0.60224000  1.0
  O  O73  1  0.23528000  0.08518000  0.39776000  1.0
  O  O74  1  0.92576000  0.14207000  0.63840000  1.0
  O  O75  1  0.07423000  0.85794000  0.36160000  1.0
  O  O76  1  0.26799000  0.05698000  0.67319000  1.0
  O  O77  1  0.73201000  0.94303000  0.32681000  1.0
  O  O78  1  0.10594000  0.83038000  0.63894000  1.0
  O  O79  1  0.89406000  0.16962000  0.36106000  1.0
