# generated using pymatgen
data_DyAgH8C14(NO4)2
_symmetry_space_group_name_H-M   'P 1'
_cell_length_a   9.45078000
_cell_length_b   11.99520000
_cell_length_c   16.78300000
_cell_angle_alpha   96.04730000
_cell_angle_beta   90.00000000
_cell_angle_gamma   113.20000000
_symmetry_Int_Tables_number   1
_chemical_formula_structural   DyAgH8C14(NO4)2
_chemical_formula_sum   'Dy4 Ag4 H32 C56 N8 O32'
_cell_volume   1737.21102445
_cell_formula_units_Z   4
loop_
 _symmetry_equiv_pos_site_id
 _symmetry_equiv_pos_as_xyz
  1  'x, y, z'
loop_
 _atom_site_type_symbol
 _atom_site_label
 _atom_site_symmetry_multiplicity
 _atom_site_fract_x
 _atom_site_fract_y
 _atom_site_fract_z
 _atom_site_occupancy
  Dy  Dy0  1  0.30203000  0.01019000  0.93227000  1.0
  Dy  Dy1  1  0.29185000  0.98983000  0.56776000  1.0
  Dy  Dy2  1  0.69797000  0.98981000  0.06773000  1.0
  Dy  Dy3  1  0.70815000  0.01017000  0.43224000  1.0
  Ag  Ag4  1  0.72122000  0.67996000  0.91596000  1.0
  Ag  Ag5  1  0.04113000  0.31993000  0.58394000  1.0
  Ag  Ag6  1  0.27879000  0.32004000  0.08404000  1.0
  Ag  Ag7  1  0.95888000  0.68007000  0.41606000  1.0
  H  H8  1  0.40379000  0.81065000  0.22001000  1.0
  H  H9  1  0.59296000  0.18925000  0.28003000  1.0
  H  H10  1  0.59621000  0.18936000  0.77999000  1.0
  H  H11  1  0.40704000  0.81075000  0.71997000  1.0
  H  H12  1  0.02581000  0.91003000  0.16497000  1.0
  H  H13  1  0.11554000  0.08979000  0.33502000  1.0
  H  H14  1  0.97418000  0.08997000  0.83503000  1.0
  H  H15  1  0.88446000  0.91020000  0.66498000  1.0
  H  H16  1  0.42886000  0.58854000  0.04798000  1.0
  H  H17  1  0.84024000  0.41153000  0.45200000  1.0
  H  H18  1  0.57114000  0.41146000  0.95202000  1.0
  H  H19  1  0.15976000  0.58847000  0.54800000  1.0
  H  H20  1  0.12819000  0.64310000  0.87844000  1.0
  H  H21  1  0.48495000  0.35664000  0.62150000  1.0
  H  H22  1  0.87180000  0.35690000  0.12155000  1.0
  H  H23  1  0.51504000  0.64336000  0.37850000  1.0
  H  H24  1  0.88800000  0.79870000  0.27831000  1.0
  H  H25  1  0.08915000  0.20120000  0.22170000  1.0
  H  H26  1  0.11200000  0.20129000  0.72169000  1.0
  H  H27  1  0.91085000  0.79880000  0.77830000  1.0
  H  H28  1  0.24850000  0.69707000  0.32771000  1.0
  H  H29  1  0.55131000  0.30293000  0.17234000  1.0
  H  H30  1  0.75151000  0.30294000  0.67229000  1.0
  H  H31  1  0.44870000  0.69708000  0.82766000  1.0
  H  H32  1  0.05109000  0.28577000  0.94723000  1.0
  H  H33  1  0.76502000  0.71412000  0.55288000  1.0
  H  H34  1  0.94892000  0.71422000  0.05277000  1.0
  H  H35  1  0.23497000  0.28588000  0.44712000  1.0
  H  H36  1  0.97163000  0.41355000  0.86310000  1.0
  H  H37  1  0.55783000  0.58622000  0.63697000  1.0
  H  H38  1  0.02837000  0.58645000  0.13689000  1.0
  H  H39  1  0.44217000  0.41378000  0.36303000  1.0
  C  C40  1  0.28940000  0.80903000  0.23064000  1.0
  C  C41  1  0.48025000  0.19097000  0.26943000  1.0
  C  C42  1  0.71060000  0.19097000  0.76936000  1.0
  C  C43  1  0.51976000  0.80904000  0.73057000  1.0
  C  C44  1  0.22807000  0.87187000  0.18498000  1.0
  C  C45  1  0.35606000  0.12813000  0.31509000  1.0
  C  C46  1  0.77194000  0.12813000  0.81502000  1.0
  C  C47  1  0.64394000  0.87187000  0.68491000  1.0
  C  C48  1  0.38786000  0.76490000  0.97573000  1.0
  C  C49  1  0.62330000  0.23509000  0.52428000  1.0
  C  C50  1  0.61213000  0.23510000  0.02427000  1.0
  C  C51  1  0.37669000  0.76491000  0.47573000  1.0
  C  C52  1  0.32250000  0.94515000  0.12134000  1.0
  C  C53  1  0.37739000  0.05475000  0.37864000  1.0
  C  C54  1  0.67750000  0.05484000  0.87866000  1.0
  C  C55  1  0.62261000  0.94525000  0.62136000  1.0
  C  C56  1  0.29059000  0.63019000  0.96323000  1.0
  C  C57  1  0.66043000  0.36975000  0.53675000  1.0
  C  C58  1  0.70941000  0.36980000  0.03677000  1.0
  C  C59  1  0.33958000  0.63025000  0.46325000  1.0
  C  C60  1  0.96456000  0.93027000  0.98865000  1.0
  C  C61  1  0.03433000  0.06973000  0.51129000  1.0
  C  C62  1  0.03544000  0.06973000  0.01135000  1.0
  C  C63  1  0.96567000  0.93026000  0.48870000  1.0
  C  C64  1  0.07958000  0.86510000  0.20042000  1.0
  C  C65  1  0.21430000  0.13480000  0.29963000  1.0
  C  C66  1  0.92042000  0.13490000  0.79958000  1.0
  C  C67  1  0.78570000  0.86519000  0.70037000  1.0
  C  C68  1  0.32783000  0.55187000  0.00673000  1.0
  C  C69  1  0.77592000  0.44816000  0.49328000  1.0
  C  C70  1  0.67217000  0.44813000  0.99327000  1.0
  C  C71  1  0.22408000  0.55184000  0.50673000  1.0
  C  C72  1  0.15946000  0.58162000  0.91129000  1.0
  C  C73  1  0.57772000  0.41818000  0.58870000  1.0
  C  C74  1  0.84053000  0.41838000  0.08871000  1.0
  C  C75  1  0.42228000  0.58182000  0.41130000  1.0
  C  C76  1  0.00168000  0.80233000  0.26285000  1.0
  C  C77  1  0.19920000  0.19757000  0.23718000  1.0
  C  C78  1  0.99832000  0.19767000  0.73715000  1.0
  C  C79  1  0.80080000  0.80242000  0.76282000  1.0
  C  C80  1  0.20358000  0.74637000  0.29097000  1.0
  C  C81  1  0.45710000  0.25363000  0.20910000  1.0
  C  C82  1  0.79642000  0.25363000  0.70904000  1.0
  C  C83  1  0.54290000  0.74638000  0.79090000  1.0
  C  C84  1  0.11659000  0.38388000  0.94994000  1.0
  C  C85  1  0.73246000  0.61601000  0.55011000  1.0
  C  C86  1  0.88340000  0.61612000  0.05006000  1.0
  C  C87  1  0.26754000  0.38399000  0.44989000  1.0
  C  C88  1  0.07333000  0.45606000  0.90362000  1.0
  C  C89  1  0.61704000  0.54375000  0.59642000  1.0
  C  C90  1  0.92667000  0.54393000  0.09638000  1.0
  C  C91  1  0.38296000  0.45625000  0.40357000  1.0
  C  C92  1  0.22063000  0.92912000  0.74518000  1.0
  C  C93  1  0.29139000  0.07083000  0.75487000  1.0
  C  C94  1  0.77937000  0.07087000  0.25482000  1.0
  C  C95  1  0.70861000  0.92916000  0.24513000  1.0
  N  N96  1  0.06335000  0.74470000  0.30839000  1.0
  N  N97  1  0.31852000  0.25523000  0.19166000  1.0
  N  N98  1  0.93665000  0.25530000  0.69162000  1.0
  N  N99  1  0.68149000  0.74477000  0.80834000  1.0
  N  N100  1  0.24101000  0.43114000  0.00146000  1.0
  N  N101  1  0.80971000  0.56887000  0.49856000  1.0
  N  N102  1  0.75898000  0.56886000  0.99853000  1.0
  N  N103  1  0.19030000  0.43113000  0.50144000  1.0
  O  O104  1  0.03506000  0.88465000  0.94030000  1.0
  O  O105  1  0.15047000  0.11538000  0.55963000  1.0
  O  O106  1  0.96492000  0.11535000  0.05970000  1.0
  O  O107  1  0.84951000  0.88461000  0.44036000  1.0
  O  O108  1  0.52287000  0.79804000  0.00646000  1.0
  O  O109  1  0.72528000  0.20212000  0.49349000  1.0
  O  O110  1  0.47713000  0.20197000  0.99354000  1.0
  O  O111  1  0.27473000  0.79787000  0.50651000  1.0
  O  O112  1  0.21077000  0.87866000  0.80859000  1.0
  O  O113  1  0.33200000  0.12128000  0.69145000  1.0
  O  O114  1  0.78923000  0.12134000  0.19142000  1.0
  O  O115  1  0.66800000  0.87871000  0.30855000  1.0
  O  O116  1  0.25490000  0.98442000  0.07312000  1.0
  O  O117  1  0.27055000  0.01520000  0.42684000  1.0
  O  O118  1  0.74510000  0.01557000  0.92688000  1.0
  O  O119  1  0.72946000  0.98480000  0.57316000  1.0
  O  O120  1  0.32549000  0.83367000  0.95499000  1.0
  O  O121  1  0.49221000  0.16616000  0.54499000  1.0
  O  O122  1  0.67451000  0.16632000  0.04501000  1.0
  O  O123  1  0.50780000  0.83384000  0.45500000  1.0
  O  O124  1  0.17950000  0.87577000  0.67453000  1.0
  O  O125  1  0.30353000  0.12421000  0.82550000  1.0
  O  O126  1  0.82051000  0.12423000  0.32547000  1.0
  O  O127  1  0.69647000  0.87579000  0.17450000  1.0
  O  O128  1  0.46297000  0.96058000  0.12153000  1.0
  O  O129  1  0.50261000  0.03958000  0.37838000  1.0
  O  O130  1  0.53704000  0.03942000  0.87847000  1.0
  O  O131  1  0.49740000  0.96042000  0.62161000  1.0
  O  O132  1  0.83899000  0.87124000  0.02033000  1.0
  O  O133  1  0.96790000  0.12873000  0.47948000  1.0
  O  O134  1  0.16100000  0.12876000  0.97967000  1.0
  O  O135  1  0.03209000  0.87127000  0.52052000  1.0
