# generated using pymatgen
data_CuH12C10S2(NO4)2
_symmetry_space_group_name_H-M   'P 1'
_cell_length_a   8.95326000
_cell_length_b   8.96013000
_cell_length_c   9.56761000
_cell_angle_alpha   89.99960000
_cell_angle_beta   114.93700000
_cell_angle_gamma   89.99950000
_symmetry_Int_Tables_number   1
_chemical_formula_structural   CuH12C10S2(NO4)2
_chemical_formula_sum   'Cu2 H24 C20 S4 N4 O16'
_cell_volume   695.98044904
_cell_formula_units_Z   2
loop_
 _symmetry_equiv_pos_site_id
 _symmetry_equiv_pos_as_xyz
  1  'x, y, z'
loop_
 _atom_site_type_symbol
 _atom_site_label
 _atom_site_symmetry_multiplicity
 _atom_site_fract_x
 _atom_site_fract_y
 _atom_site_fract_z
 _atom_site_occupancy
  Cu  Cu0  1  0.00000000  0.50000000  0.50000000  1.0
  Cu  Cu1  1  0.50000000  0.00000000  0.00000000  1.0
  H  H2  1  0.74765000  0.35520000  0.21412000  1.0
  H  H3  1  0.75234000  0.85520000  0.28588000  1.0
  H  H4  1  0.25235000  0.64479000  0.78588000  1.0
  H  H5  1  0.24766000  0.14479000  0.71413000  1.0
  H  H6  1  0.76998000  0.60769000  0.83847000  1.0
  H  H7  1  0.73003000  0.10768000  0.66154000  1.0
  H  H8  1  0.23002000  0.39231000  0.16153000  1.0
  H  H9  1  0.26997000  0.89232000  0.33846000  1.0
  H  H10  1  0.97427000  0.77619000  0.03365000  1.0
  H  H11  1  0.52573000  0.27619000  0.46636000  1.0
  H  H12  1  0.02573000  0.22381000  0.96635000  1.0
  H  H13  1  0.47427000  0.72381000  0.53364000  1.0
  H  H14  1  0.05734000  0.72322000  0.31430000  1.0
  H  H15  1  0.44266000  0.22322000  0.18570000  1.0
  H  H16  1  0.94266000  0.27679000  0.68570000  1.0
  H  H17  1  0.55734000  0.77678000  0.81430000  1.0
  H  H18  1  0.68069000  0.51954000  0.40196000  1.0
  H  H19  1  0.81930000  0.01953000  0.09803000  1.0
  H  H20  1  0.31931000  0.48046000  0.59804000  1.0
  H  H21  1  0.18070000  0.98046000  0.90197000  1.0
  H  H22  1  0.78156000  0.58649000  0.56914000  1.0
  H  H23  1  0.71845000  0.08649000  0.93086000  1.0
  H  H24  1  0.21844000  0.41351000  0.43086000  1.0
  H  H25  1  0.28155000  0.91351000  0.06914000  1.0
  C  C26  1  0.79512000  0.44660000  0.16968000  1.0
  C  C27  1  0.70488000  0.94660000  0.33032000  1.0
  C  C28  1  0.20488000  0.55340000  0.83032000  1.0
  C  C29  1  0.29512000  0.05340000  0.66968000  1.0
  C  C30  1  0.74246000  0.47024000  0.01235000  1.0
  C  C31  1  0.75754000  0.97023000  0.48766000  1.0
  C  C32  1  0.25754000  0.52976000  0.98765000  1.0
  C  C33  1  0.24246000  0.02977000  0.51234000  1.0
  C  C34  1  0.80780000  0.58816000  0.96088000  1.0
  C  C35  1  0.69220000  0.08816000  0.53911000  1.0
  C  C36  1  0.19220000  0.41184000  0.03912000  1.0
  C  C37  1  0.30780000  0.91185000  0.46089000  1.0
  C  C38  1  0.92188000  0.68200000  0.06912000  1.0
  C  C39  1  0.57812000  0.18199000  0.43088000  1.0
  C  C40  1  0.07812000  0.31800000  0.93087000  1.0
  C  C41  1  0.42188000  0.81801000  0.56912000  1.0
  C  C42  1  0.96867000  0.65352000  0.22473000  1.0
  C  C43  1  0.53133000  0.15352000  0.27526000  1.0
  C  C44  1  0.03133000  0.34648000  0.77526000  1.0
  C  C45  1  0.46867000  0.84648000  0.72474000  1.0
  S  S46  1  0.59266000  0.35164000  0.87408000  1.0
  S  S47  1  0.90734000  0.85162000  0.62590000  1.0
  S  S48  1  0.40734000  0.64836000  0.12592000  1.0
  S  S49  1  0.09266000  0.14838000  0.37410000  1.0
  N  N50  1  0.90740000  0.53724000  0.27337000  1.0
  N  N51  1  0.59260000  0.03724000  0.22663000  1.0
  N  N52  1  0.09260000  0.46276000  0.72663000  1.0
  N  N53  1  0.40740000  0.96276000  0.77337000  1.0
  O  O54  1  0.49778000  0.28373000  0.95023000  1.0
  O  O55  1  0.00222000  0.78372000  0.54977000  1.0
  O  O56  1  0.50223000  0.71627000  0.04977000  1.0
  O  O57  1  0.99778000  0.21628000  0.45023000  1.0
  O  O58  1  0.68873000  0.24079000  0.83119000  1.0
  O  O59  1  0.81127000  0.74078000  0.66881000  1.0
  O  O60  1  0.31127000  0.75921000  0.16881000  1.0
  O  O61  1  0.18873000  0.25922000  0.33119000  1.0
  O  O62  1  0.49881000  0.45168000  0.74557000  1.0
  O  O63  1  0.00120000  0.95168000  0.75444000  1.0
  O  O64  1  0.50119000  0.54832000  0.25444000  1.0
  O  O65  1  0.99881000  0.04832000  0.24556000  1.0
  O  O66  1  0.77672000  0.49853000  0.50197000  1.0
  O  O67  1  0.72329000  0.99851000  0.99803000  1.0
  O  O68  1  0.22328000  0.50147000  0.49803000  1.0
  O  O69  1  0.27671000  0.00149000  0.00197000  1.0
