# generated using pymatgen
data_BaH10C6(N2O3)4
_symmetry_space_group_name_H-M   'P 1'
_cell_length_a   6.44264000
_cell_length_b   9.24506605
_cell_length_c   14.83800000
_cell_angle_alpha   97.33001378
_cell_angle_beta   102.51130000
_cell_angle_gamma   110.38409658
_symmetry_Int_Tables_number   1
_chemical_formula_structural   BaH10C6(N2O3)4
_chemical_formula_sum   'Ba2 H20 C12 N16 O24'
_cell_volume   788.61526162
_cell_formula_units_Z   2
loop_
 _symmetry_equiv_pos_site_id
 _symmetry_equiv_pos_as_xyz
  1  'x, y, z'
loop_
 _atom_site_type_symbol
 _atom_site_label
 _atom_site_symmetry_multiplicity
 _atom_site_fract_x
 _atom_site_fract_y
 _atom_site_fract_z
 _atom_site_occupancy
  Ba  Ba0  1  0.41905000  0.74997000  0.75001000  1.0
  Ba  Ba1  1  0.58095000  0.25003000  0.24999000  1.0
  H  H2  1  0.27895000  0.99620000  0.89814000  1.0
  H  H3  1  0.88463000  0.50387000  0.60204000  1.0
  H  H4  1  0.72105000  0.00380000  0.10186000  1.0
  H  H5  1  0.11536000  0.49613000  0.39796000  1.0
  H  H6  1  0.06176000  0.83684000  0.85226000  1.0
  H  H7  1  0.87264000  0.66331000  0.64789000  1.0
  H  H8  1  0.93824000  0.16316000  0.14775000  1.0
  H  H9  1  0.12737000  0.33669000  0.35210000  1.0
  H  H10  1  0.81195000  0.64356000  0.90391000  1.0
  H  H11  1  0.76454000  0.85647000  0.59606000  1.0
  H  H12  1  0.18805000  0.35644000  0.09609000  1.0
  H  H13  1  0.23545000  0.14353000  0.40394000  1.0
  H  H14  1  0.80154000  0.59085000  0.79660000  1.0
  H  H15  1  0.91402000  0.90925000  0.70336000  1.0
  H  H16  1  0.19845000  0.40915000  0.20340000  1.0
  H  H17  1  0.08598000  0.09075000  0.29664000  1.0
  H  H18  1  0.98621000  0.32741000  0.74475000  1.0
  H  H19  1  0.41432000  0.17248000  0.75535000  1.0
  H  H20  1  0.01378000  0.67258000  0.25525000  1.0
  H  H21  1  0.58568000  0.82752000  0.24465000  1.0
  C  C22  1  0.26487000  0.53686000  0.95133000  1.0
  C  C23  1  0.27621000  0.96303000  0.54867000  1.0
  C  C24  1  0.73511000  0.46313000  0.04867000  1.0
  C  C25  1  0.72379000  0.03697000  0.45133000  1.0
  C  C26  1  0.03518000  0.30292000  0.89675000  1.0
  C  C27  1  0.33572000  0.19709000  0.60339000  1.0
  C  C28  1  0.96482000  0.69708000  0.10325000  1.0
  C  C29  1  0.66428000  0.80291000  0.39661000  1.0
  C  C30  1  0.06506000  0.37620000  0.82005000  1.0
  C  C31  1  0.36892000  0.12369000  0.68004000  1.0
  C  C32  1  0.93494000  0.62380000  0.17996000  1.0
  C  C33  1  0.63107000  0.87631000  0.31996000  1.0
  N  N34  1  0.21371000  0.52700000  0.85639000  1.0
  N  N35  1  0.33003000  0.97283000  0.64360000  1.0
  N  N36  1  0.78630000  0.47300000  0.14361000  1.0
  N  N37  1  0.66997000  0.02717000  0.35640000  1.0
  N  N38  1  0.16215000  0.40562000  0.98053000  1.0
  N  N39  1  0.27581000  0.09437000  0.51955000  1.0
  N  N40  1  0.83785000  0.59438000  0.01947000  1.0
  N  N41  1  0.72419000  0.90563000  0.48044000  1.0
  N  N42  1  0.88853000  0.14513000  0.89195000  1.0
  N  N43  1  0.35149000  0.35487000  0.60826000  1.0
  N  N44  1  0.11147000  0.85487000  0.10805000  1.0
  N  N45  1  0.64851000  0.64513000  0.39174000  1.0
  N  N46  1  0.41863000  0.68132000  0.01662000  1.0
  N  N47  1  0.22029000  0.81857000  0.48334000  1.0
  N  N48  1  0.58137000  0.31868000  0.98338000  1.0
  N  N49  1  0.77971000  0.18143000  0.51666000  1.0
  O  O50  1  0.78237000  0.05917000  0.81020000  1.0
  O  O51  1  0.41344000  0.44084000  0.69005000  1.0
  O  O52  1  0.21764000  0.94083000  0.18980000  1.0
  O  O53  1  0.58656000  0.55916000  0.30995000  1.0
  O  O54  1  0.86816000  0.09992000  0.96582000  1.0
  O  O55  1  0.30180000  0.40007000  0.53446000  1.0
  O  O56  1  0.13184000  0.90008000  0.03418000  1.0
  O  O57  1  0.69822000  0.59994000  0.46554000  1.0
  O  O58  1  0.44595000  0.68488000  0.10273000  1.0
  O  O59  1  0.15781000  0.81505000  0.39724000  1.0
  O  O60  1  0.55405000  0.31512000  0.89727000  1.0
  O  O61  1  0.84219000  0.18495000  0.60276000  1.0
  O  O62  1  0.51817000  0.79697000  0.98439000  1.0
  O  O63  1  0.23686000  0.70297000  0.51550000  1.0
  O  O64  1  0.48182000  0.20302000  0.01561000  1.0
  O  O65  1  0.76314000  0.29703000  0.48450000  1.0
  O  O66  1  0.19518000  0.91679000  0.83877000  1.0
  O  O67  1  0.93973000  0.58342000  0.66137000  1.0
  O  O68  1  0.80482000  0.08321000  0.16123000  1.0
  O  O69  1  0.06028000  0.41658000  0.33863000  1.0
  O  O70  1  0.80266000  0.67762000  0.84225000  1.0
  O  O71  1  0.78280000  0.82246000  0.65774000  1.0
  O  O72  1  0.19734000  0.32238000  0.15775000  1.0
  O  O73  1  0.21720000  0.17754000  0.34226000  1.0
