# generated using pymatgen
data_NaH10C5N11O
_symmetry_space_group_name_H-M   'P 1'
_cell_length_a   6.81739000
_cell_length_b   8.35415000
_cell_length_c   20.97250000
_cell_angle_alpha   90.00000000
_cell_angle_beta   97.42740000
_cell_angle_gamma   89.99970000
_symmetry_Int_Tables_number   1
_chemical_formula_structural   NaH10C5N11O
_chemical_formula_sum   'Na4 H40 C20 N44 O4'
_cell_volume   1184.43510509
_cell_formula_units_Z   4
loop_
 _symmetry_equiv_pos_site_id
 _symmetry_equiv_pos_as_xyz
  1  'x, y, z'
loop_
 _atom_site_type_symbol
 _atom_site_label
 _atom_site_symmetry_multiplicity
 _atom_site_fract_x
 _atom_site_fract_y
 _atom_site_fract_z
 _atom_site_occupancy
  Na  Na0  1  0.01137000  0.12750000  0.60474000  1.0
  Na  Na1  1  0.98863000  0.62749000  0.89526000  1.0
  Na  Na2  1  0.98863000  0.87251000  0.39526000  1.0
  Na  Na3  1  0.01137000  0.37250000  0.10475000  1.0
  H  H4  1  0.54676000  0.54462000  0.81356000  1.0
  H  H5  1  0.45324000  0.04462000  0.68643000  1.0
  H  H6  1  0.45324000  0.45538000  0.18644000  1.0
  H  H7  1  0.54675000  0.95538000  0.31357000  1.0
  H  H8  1  0.49466000  0.56584000  0.72775000  1.0
  H  H9  1  0.50534000  0.06584000  0.77225000  1.0
  H  H10  1  0.50534000  0.43416000  0.27225000  1.0
  H  H11  1  0.49466000  0.93416000  0.22775000  1.0
  H  H12  1  0.67307000  0.69486000  0.77241000  1.0
  H  H13  1  0.32694000  0.19486000  0.72759000  1.0
  H  H14  1  0.32694000  0.30514000  0.22759000  1.0
  H  H15  1  0.67306000  0.80514000  0.27242000  1.0
  H  H16  1  0.21038000  0.25991000  0.46055000  1.0
  H  H17  1  0.78961000  0.75990000  0.03944000  1.0
  H  H18  1  0.78961000  0.74009000  0.53944000  1.0
  H  H19  1  0.21039000  0.24009000  0.96056000  1.0
  H  H20  1  0.26082000  0.23141000  0.37906000  1.0
  H  H21  1  0.73919000  0.73140000  0.12093000  1.0
  H  H22  1  0.73918000  0.76859000  0.62094000  1.0
  H  H23  1  0.26082000  0.26859000  0.87907000  1.0
  H  H24  1  0.34985000  0.40616000  0.42299000  1.0
  H  H25  1  0.65016000  0.90615000  0.07700000  1.0
  H  H26  1  0.65015000  0.59384000  0.57701000  1.0
  H  H27  1  0.34985000  0.09385000  0.92299000  1.0
  H  H28  1  0.02106000  0.52483000  0.62127000  1.0
  H  H29  1  0.97894000  0.02483000  0.87873000  1.0
  H  H30  1  0.97895000  0.47517000  0.37874000  1.0
  H  H31  1  0.02105000  0.97517000  0.12127000  1.0
  H  H32  1  0.12155000  0.59428000  0.55178000  1.0
  H  H33  1  0.87844000  0.09427000  0.94822000  1.0
  H  H34  1  0.87845000  0.40573000  0.44822000  1.0
  H  H35  1  0.12155000  0.90573000  0.05178000  1.0
  H  H36  1  0.28003000  0.56023000  0.62592000  1.0
  H  H37  1  0.71996000  0.06023000  0.87409000  1.0
  H  H38  1  0.71997000  0.43977000  0.37409000  1.0
  H  H39  1  0.28003000  0.93977000  0.12591000  1.0
  H  H40  1  0.31281000  0.33782000  0.56895000  1.0
  H  H41  1  0.68719000  0.83782000  0.93105000  1.0
  H  H42  1  0.68720000  0.66219000  0.43105000  1.0
  H  H43  1  0.31280000  0.16218000  0.06895000  1.0
  C  C44  1  0.60887000  0.57431000  0.76940000  1.0
  C  C45  1  0.39113000  0.07431000  0.73060000  1.0
  C  C46  1  0.39113000  0.42569000  0.23060000  1.0
  C  C47  1  0.60887000  0.92569000  0.26940000  1.0
  C  C48  1  0.61014000  0.19833000  0.50798000  1.0
  C  C49  1  0.38985000  0.69834000  0.99202000  1.0
  C  C50  1  0.38985000  0.80167000  0.49202000  1.0
  C  C51  1  0.61015000  0.30166000  0.00798000  1.0
  C  C52  1  0.78198000  0.36794000  0.70757000  1.0
  C  C53  1  0.21802000  0.86794000  0.79243000  1.0
  C  C54  1  0.21802000  0.63206000  0.29243000  1.0
  C  C55  1  0.78198000  0.13205000  0.20757000  1.0
  C  C56  1  0.31796000  0.27812000  0.42666000  1.0
  C  C57  1  0.68205000  0.77811000  0.07334000  1.0
  C  C58  1  0.68204000  0.72188000  0.57334000  1.0
  C  C59  1  0.31795000  0.22188000  0.92666000  1.0
  C  C60  1  0.14884000  0.51670000  0.59458000  1.0
  C  C61  1  0.85115000  0.01670000  0.90542000  1.0
  C  C62  1  0.85116000  0.48330000  0.40543000  1.0
  C  C63  1  0.14884000  0.98330000  0.09458000  1.0
  N  N64  1  0.49963000  0.19380000  0.44931000  1.0
  N  N65  1  0.50037000  0.69380000  0.05069000  1.0
  N  N66  1  0.50037000  0.80620000  0.55070000  1.0
  N  N67  1  0.49963000  0.30620000  0.94931000  1.0
  N  N68  1  0.68940000  0.28408000  0.60814000  1.0
  N  N69  1  0.31059000  0.78408000  0.89186000  1.0
  N  N70  1  0.31060000  0.71592000  0.39186000  1.0
  N  N71  1  0.68940000  0.21592000  0.10814000  1.0
  N  N72  1  0.64051000  0.37170000  0.65485000  1.0
  N  N73  1  0.35950000  0.87170000  0.84515000  1.0
  N  N74  1  0.35950000  0.62830000  0.34515000  1.0
  N  N75  1  0.64050000  0.12829000  0.15485000  1.0
  N  N76  1  0.76193000  0.45889000  0.76002000  1.0
  N  N77  1  0.23808000  0.95890000  0.73998000  1.0
  N  N78  1  0.23808000  0.54111000  0.23998000  1.0
  N  N79  1  0.76192000  0.04110000  0.26002000  1.0
  N  N80  1  0.55650000  0.28964000  0.55694000  1.0
  N  N81  1  0.44350000  0.78964000  0.94306000  1.0
  N  N82  1  0.44350000  0.71036000  0.44306000  1.0
  N  N83  1  0.55650000  0.21035000  0.05694000  1.0
  N  N84  1  0.95196000  0.28511000  0.71983000  1.0
  N  N85  1  0.04804000  0.78511000  0.78017000  1.0
  N  N86  1  0.04804000  0.71489000  0.28017000  1.0
  N  N87  1  0.95196000  0.21488000  0.21983000  1.0
  N  N88  1  0.58993000  0.09643000  0.41075000  1.0
  N  N89  1  0.41007000  0.59642000  0.08925000  1.0
  N  N90  1  0.41007000  0.90358000  0.58925000  1.0
  N  N91  1  0.58993000  0.40358000  0.91075000  1.0
  N  N92  1  0.03141000  0.32753000  0.77987000  1.0
  N  N93  1  0.96859000  0.82754000  0.72013000  1.0
  N  N94  1  0.96859000  0.67247000  0.22013000  1.0
  N  N95  1  0.03141000  0.17247000  0.27987000  1.0
  N  N96  1  0.74917000  0.04307000  0.44536000  1.0
  N  N97  1  0.25083000  0.54307000  0.05464000  1.0
  N  N98  1  0.25083000  0.95693000  0.55464000  1.0
  N  N99  1  0.74917000  0.45693000  0.94536000  1.0
  N  N100  1  0.91988000  0.43169000  0.80467000  1.0
  N  N101  1  0.08012000  0.93169000  0.69533000  1.0
  N  N102  1  0.08012000  0.56831000  0.19533000  1.0
  N  N103  1  0.91988000  0.06831000  0.30467000  1.0
  N  N104  1  0.76758000  0.10225000  0.50586000  1.0
  N  N105  1  0.23241000  0.60225000  0.99414000  1.0
  N  N106  1  0.23242000  0.89775000  0.49414000  1.0
  N  N107  1  0.76759000  0.39775000  0.00586000  1.0
  O  O108  1  0.17264000  0.35358000  0.57709000  1.0
  O  O109  1  0.82735000  0.85358000  0.92291000  1.0
  O  O110  1  0.82736000  0.64643000  0.42292000  1.0
  O  O111  1  0.17264000  0.14643000  0.07709000  1.0
