# generated using pymatgen
data_AgH8C4S2NO2
_symmetry_space_group_name_H-M   'P 1'
_cell_length_a   7.42678000
_cell_length_b   9.60505000
_cell_length_c   10.95260000
_cell_angle_alpha   103.25000000
_cell_angle_beta   90.00000000
_cell_angle_gamma   89.99990000
_symmetry_Int_Tables_number   1
_chemical_formula_structural   AgH8C4S2NO2
_chemical_formula_sum   'Ag4 H32 C16 S8 N4 O8'
_cell_volume   760.50050009
_cell_formula_units_Z   4
loop_
 _symmetry_equiv_pos_site_id
 _symmetry_equiv_pos_as_xyz
  1  'x, y, z'
loop_
 _atom_site_type_symbol
 _atom_site_label
 _atom_site_symmetry_multiplicity
 _atom_site_fract_x
 _atom_site_fract_y
 _atom_site_fract_z
 _atom_site_occupancy
  Ag  Ag0  1  0.12354000  0.35099000  0.71741000  1.0
  Ag  Ag1  1  0.37646000  0.85099000  0.71742000  1.0
  Ag  Ag2  1  0.87646000  0.64901000  0.28258000  1.0
  Ag  Ag3  1  0.62354000  0.14902000  0.28259000  1.0
  H  H4  1  0.19753000  0.29667000  0.36580000  1.0
  H  H5  1  0.30247000  0.79667000  0.36580000  1.0
  H  H6  1  0.80247000  0.70333000  0.63419000  1.0
  H  H7  1  0.69753000  0.20333000  0.63420000  1.0
  H  H8  1  0.01026000  0.38432000  0.31668000  1.0
  H  H9  1  0.48974000  0.88432000  0.31668000  1.0
  H  H10  1  0.98974000  0.61568000  0.68332000  1.0
  H  H11  1  0.51026000  0.11568000  0.68332000  1.0
  H  H12  1  0.72526000  0.47787000  0.47188000  1.0
  H  H13  1  0.77474000  0.97787000  0.47188000  1.0
  H  H14  1  0.27474000  0.52213000  0.52811000  1.0
  H  H15  1  0.22526000  0.02213000  0.52811000  1.0
  H  H16  1  0.71967000  0.45250000  0.62829000  1.0
  H  H17  1  0.78033000  0.95250000  0.62830000  1.0
  H  H18  1  0.28033000  0.54750000  0.37170000  1.0
  H  H19  1  0.21967000  0.04750000  0.37170000  1.0
  H  H20  1  0.74928000  0.58161000  0.86476000  1.0
  H  H21  1  0.75072000  0.08162000  0.86476000  1.0
  H  H22  1  0.25072000  0.41839000  0.13524000  1.0
  H  H23  1  0.24928000  0.91839000  0.13524000  1.0
  H  H24  1  0.73458000  0.56604000  0.02252000  1.0
  H  H25  1  0.76541000  0.06604000  0.02253000  1.0
  H  H26  1  0.26542000  0.43396000  0.97747000  1.0
  H  H27  1  0.23458000  0.93397000  0.97748000  1.0
  H  H28  1  0.92026000  0.35278000  0.10281000  1.0
  H  H29  1  0.57974000  0.85278000  0.10281000  1.0
  H  H30  1  0.07974000  0.64722000  0.89719000  1.0
  H  H31  1  0.42026000  0.14722000  0.89719000  1.0
  H  H32  1  0.06203000  0.23214000  0.99797000  1.0
  H  H33  1  0.43796000  0.73214000  0.99797000  1.0
  H  H34  1  0.93796000  0.76786000  0.00203000  1.0
  H  H35  1  0.56204000  0.26787000  0.00203000  1.0
  C  C36  1  0.09822000  0.38203000  0.39677000  1.0
  C  C37  1  0.40178000  0.88203000  0.39676000  1.0
  C  C38  1  0.90178000  0.61796000  0.60324000  1.0
  C  C39  1  0.59822000  0.11796000  0.60324000  1.0
  C  C40  1  0.80758000  0.47610000  0.55481000  1.0
  C  C41  1  0.69242000  0.97610000  0.55481000  1.0
  C  C42  1  0.19241000  0.52390000  0.44519000  1.0
  C  C43  1  0.30759000  0.02390000  0.44519000  1.0
  C  C44  1  0.82674000  0.55629000  0.94234000  1.0
  C  C45  1  0.67326000  0.05629000  0.94234000  1.0
  C  C46  1  0.17326000  0.44371000  0.05766000  1.0
  C  C47  1  0.32674000  0.94371000  0.05766000  1.0
  C  C48  1  0.01443000  0.34322000  0.02380000  1.0
  C  C49  1  0.48556000  0.84322000  0.02381000  1.0
  C  C50  1  0.98556000  0.65677000  0.97619000  1.0
  C  C51  1  0.51444000  0.15678000  0.97620000  1.0
  S  S52  1  0.96066000  0.32464000  0.51340000  1.0
  S  S53  1  0.53934000  0.82464000  0.51340000  1.0
  S  S54  1  0.03934000  0.67535000  0.48660000  1.0
  S  S55  1  0.46066000  0.17535000  0.48660000  1.0
  S  S56  1  0.88723000  0.36919000  0.88920000  1.0
  S  S57  1  0.61277000  0.86919000  0.88921000  1.0
  S  S58  1  0.11277000  0.63081000  0.11079000  1.0
  S  S59  1  0.38723000  0.13081000  0.11080000  1.0
  N  N60  1  0.45328000  0.53437000  0.77113000  1.0
  N  N61  1  0.04672000  0.03437000  0.77113000  1.0
  N  N62  1  0.54671000  0.46563000  0.22887000  1.0
  N  N63  1  0.95330000  0.96562000  0.22887000  1.0
  O  O64  1  0.43258000  0.40473000  0.77566000  1.0
  O  O65  1  0.06742000  0.90473000  0.77566000  1.0
  O  O66  1  0.56742000  0.59529000  0.22433000  1.0
  O  O67  1  0.93259000  0.09529000  0.22434000  1.0
  O  O68  1  0.31158000  0.59581000  0.74396000  1.0
  O  O69  1  0.18842000  0.09581000  0.74396000  1.0
  O  O70  1  0.68842000  0.40420000  0.25604000  1.0
  O  O71  1  0.81157000  0.90419000  0.25605000  1.0
