# generated using pymatgen
data_ZnH10C10N3O5
_symmetry_space_group_name_H-M   'P 1'
_cell_length_a   8.33255000
_cell_length_b   20.42050000
_cell_length_c   22.51830000
_cell_angle_alpha   90.00030000
_cell_angle_beta   90.00020000
_cell_angle_gamma   98.74350000
_symmetry_Int_Tables_number   1
_chemical_formula_structural   ZnH10C10N3O5
_chemical_formula_sum   'Zn12 H120 C120 N36 O60'
_cell_volume   3787.06976349
_cell_formula_units_Z   12
loop_
 _symmetry_equiv_pos_site_id
 _symmetry_equiv_pos_as_xyz
  1  'x, y, z'
loop_
 _atom_site_type_symbol
 _atom_site_label
 _atom_site_symmetry_multiplicity
 _atom_site_fract_x
 _atom_site_fract_y
 _atom_site_fract_z
 _atom_site_occupancy
  Zn  Zn0  1  0.42886000  0.27301000  0.63478000  1.0
  Zn  Zn1  1  0.57113000  0.22699000  0.13478000  1.0
  Zn  Zn2  1  0.57113000  0.72699000  0.36522000  1.0
  Zn  Zn3  1  0.42887000  0.77301000  0.86522000  1.0
  Zn  Zn4  1  0.47813000  0.35479000  0.74892000  1.0
  Zn  Zn5  1  0.52186000  0.14521000  0.24893000  1.0
  Zn  Zn6  1  0.52186000  0.64521000  0.25108000  1.0
  Zn  Zn7  1  0.47815000  0.85479000  0.75108000  1.0
  Zn  Zn8  1  0.40361000  0.32327000  0.96722000  1.0
  Zn  Zn9  1  0.59639000  0.17673000  0.46722000  1.0
  Zn  Zn10  1  0.59634000  0.67673000  0.03278000  1.0
  Zn  Zn11  1  0.40367000  0.82327000  0.53278000  1.0
  H  H12  1  0.58510000  0.39312000  0.60371000  1.0
  H  H13  1  0.41489000  0.10689000  0.10370000  1.0
  H  H14  1  0.41491000  0.60688000  0.39629000  1.0
  H  H15  1  0.58510000  0.89312000  0.89630000  1.0
  H  H16  1  0.72010000  0.34229000  0.61652000  1.0
  H  H17  1  0.27990000  0.15772000  0.11651000  1.0
  H  H18  1  0.27991000  0.65771000  0.38348000  1.0
  H  H19  1  0.72009000  0.84228000  0.88348000  1.0
  H  H20  1  0.30776000  0.33646000  0.55176000  1.0
  H  H21  1  0.69225000  0.16355000  0.05176000  1.0
  H  H22  1  0.69227000  0.66354000  0.44823000  1.0
  H  H23  1  0.30774000  0.83646000  0.94823000  1.0
  H  H24  1  0.39033000  0.27884000  0.52012000  1.0
  H  H25  1  0.60966000  0.22116000  0.02012000  1.0
  H  H26  1  0.60968000  0.72115000  0.47988000  1.0
  H  H27  1  0.39032000  0.77884000  0.97988000  1.0
  H  H28  1  0.17314000  0.23266000  0.94478000  1.0
  H  H29  1  0.82686000  0.26733000  0.44478000  1.0
  H  H30  1  0.82682000  0.76733000  0.05521000  1.0
  H  H31  1  0.17318000  0.73267000  0.55521000  1.0
  H  H32  1  0.11565000  0.24656000  0.00994000  1.0
  H  H33  1  0.88434000  0.25344000  0.50994000  1.0
  H  H34  1  0.88427000  0.75345000  0.99005000  1.0
  H  H35  1  0.11572000  0.74656000  0.49005000  1.0
  H  H36  1  0.09173000  0.41709000  0.83972000  1.0
  H  H37  1  0.90828000  0.08292000  0.33972000  1.0
  H  H38  1  0.90825000  0.58292000  0.16028000  1.0
  H  H39  1  0.09175000  0.91706000  0.66027000  1.0
  H  H40  1  0.25387000  0.48307000  0.85131000  1.0
  H  H41  1  0.74616000  0.01693000  0.35132000  1.0
  H  H42  1  0.74613000  0.51694000  0.14868000  1.0
  H  H43  1  0.25387000  0.98305000  0.64867000  1.0
  H  H44  1  0.06792000  0.44115000  0.69664000  1.0
  H  H45  1  0.93209000  0.05886000  0.19664000  1.0
  H  H46  1  0.93210000  0.55885000  0.30335000  1.0
  H  H47  1  0.06790000  0.94115000  0.80335000  1.0
  H  H48  1  0.01387000  0.38313000  0.75488000  1.0
  H  H49  1  0.98612000  0.11687000  0.25488000  1.0
  H  H50  1  0.98612000  0.61687000  0.24512000  1.0
  H  H51  1  0.01389000  0.88313000  0.74512000  1.0
  H  H52  1  0.76991000  0.60519000  0.85942000  1.0
  H  H53  1  0.23009000  0.89480000  0.35942000  1.0
  H  H54  1  0.23008000  0.39480000  0.14057000  1.0
  H  H55  1  0.76992000  0.10520000  0.64058000  1.0
  H  H56  1  0.56750000  0.56475000  0.86155000  1.0
  H  H57  1  0.43250000  0.93525000  0.36155000  1.0
  H  H58  1  0.43248000  0.43525000  0.13844000  1.0
  H  H59  1  0.56751000  0.06475000  0.63844000  1.0
  H  H60  1  0.79594000  0.66864000  0.73357000  1.0
  H  H61  1  0.20407000  0.83136000  0.23357000  1.0
  H  H62  1  0.20408000  0.33137000  0.26643000  1.0
  H  H63  1  0.79591000  0.16863000  0.76643000  1.0
  H  H64  1  0.82024000  0.70620000  0.80496000  1.0
  H  H65  1  0.17977000  0.79380000  0.30495000  1.0
  H  H66  1  0.17976000  0.29380000  0.19505000  1.0
  H  H67  1  0.82023000  0.20620000  0.69505000  1.0
  H  H68  1  0.34634000  0.54628000  0.52245000  1.0
  H  H69  1  0.65367000  0.95372000  0.02245000  1.0
  H  H70  1  0.65369000  0.45372000  0.47755000  1.0
  H  H71  1  0.34632000  0.04628000  0.97755000  1.0
  H  H72  1  0.20810000  0.51905000  0.58051000  1.0
  H  H73  1  0.79190000  0.98095000  0.08051000  1.0
  H  H74  1  0.79192000  0.48094000  0.41949000  1.0
  H  H75  1  0.20808000  0.01906000  0.91949000  1.0
  H  H76  1  0.57746000  0.62255000  0.53980000  1.0
  H  H77  1  0.42253000  0.87745000  0.03980000  1.0
  H  H78  1  0.42256000  0.37745000  0.46020000  1.0
  H  H79  1  0.57745000  0.12255000  0.96019000  1.0
  H  H80  1  0.62086000  0.65405000  0.61247000  1.0
  H  H81  1  0.37914000  0.84595000  0.11247000  1.0
  H  H82  1  0.37915000  0.34594000  0.38753000  1.0
  H  H83  1  0.62085000  0.15405000  0.88753000  1.0
  H  H84  1  0.20512000  0.17012000  0.57927000  1.0
  H  H85  1  0.79487000  0.32988000  0.07927000  1.0
  H  H86  1  0.79488000  0.82988000  0.42074000  1.0
  H  H87  1  0.20512000  0.67012000  0.92074000  1.0
  H  H88  1  0.00326000  0.07249000  0.60536000  1.0
  H  H89  1  0.99673000  0.42751000  0.10535000  1.0
  H  H90  1  0.99675000  0.92751000  0.39465000  1.0
  H  H91  1  0.00326000  0.57249000  0.89466000  1.0
  H  H92  1  0.10727000  0.11984000  0.79069000  1.0
  H  H93  1  0.89274000  0.38017000  0.29068000  1.0
  H  H94  1  0.89274000  0.88016000  0.20932000  1.0
  H  H95  1  0.10724000  0.61984000  0.70933000  1.0
  H  H96  1  0.30642000  0.21384000  0.75596000  1.0
  H  H97  1  0.69357000  0.28617000  0.25596000  1.0
  H  H98  1  0.69359000  0.78617000  0.24404000  1.0
  H  H99  1  0.30641000  0.71383000  0.74405000  1.0
  H  H100  1  0.69156000  0.89130000  0.65967000  1.0
  H  H101  1  0.30847000  0.60870000  0.15967000  1.0
  H  H102  1  0.30847000  0.10870000  0.34033000  1.0
  H  H103  1  0.69153000  0.39129000  0.84034000  1.0
  H  H104  1  0.91044000  0.98179000  0.63163000  1.0
  H  H105  1  0.08958000  0.51821000  0.13162000  1.0
  H  H106  1  0.08959000  0.01821000  0.36838000  1.0
  H  H107  1  0.91041000  0.48179000  0.86839000  1.0
  H  H108  1  0.87369000  0.06258000  0.80828000  1.0
  H  H109  1  0.12631000  0.43742000  0.30828000  1.0
  H  H110  1  0.12629000  0.93742000  0.19172000  1.0
  H  H111  1  0.87370000  0.56257000  0.69173000  1.0
  H  H112  1  0.65051000  0.97058000  0.82798000  1.0
  H  H113  1  0.34949000  0.52943000  0.32798000  1.0
  H  H114  1  0.34947000  0.02943000  0.17202000  1.0
  H  H115  1  0.65052000  0.47057000  0.67203000  1.0
  H  H116  1  0.79725000  0.31318000  0.95791000  1.0
  H  H117  1  0.20273000  0.18681000  0.45791000  1.0
  H  H118  1  0.20267000  0.68685000  0.04208000  1.0
  H  H119  1  0.79731000  0.81315000  0.54208000  1.0
  H  H120  1  0.04903000  0.38841000  0.98084000  1.0
  H  H121  1  0.95095000  0.11159000  0.48085000  1.0
  H  H122  1  0.95090000  0.61162000  0.01914000  1.0
  H  H123  1  0.04910000  0.88838000  0.51914000  1.0
  H  H124  1  0.75807000  0.54808000  0.98941000  1.0
  H  H125  1  0.24194000  0.95192000  0.48941000  1.0
  H  H126  1  0.24187000  0.45194000  0.01062000  1.0
  H  H127  1  0.75814000  0.04806000  0.51062000  1.0
  H  H128  1  0.52308000  0.46597000  0.96264000  1.0
  H  H129  1  0.47691000  0.03403000  0.46263000  1.0
  H  H130  1  0.47682000  0.53405000  0.03739000  1.0
  H  H131  1  0.52319000  0.96596000  0.53739000  1.0
  C  C132  1  0.33312000  0.50038000  0.74426000  1.0
  C  C133  1  0.66689000  0.99963000  0.24426000  1.0
  C  C134  1  0.66689000  0.49963000  0.25574000  1.0
  C  C135  1  0.33310000  0.00037000  0.75573000  1.0
  C  C136  1  0.51405000  0.59390000  0.75920000  1.0
  C  C137  1  0.48595000  0.90610000  0.25920000  1.0
  C  C138  1  0.48595000  0.40610000  0.24080000  1.0
  C  C139  1  0.51405000  0.09390000  0.74080000  1.0
  C  C140  1  0.42461000  0.56536000  0.66622000  1.0
  C  C141  1  0.57539000  0.93464000  0.16622000  1.0
  C  C142  1  0.57541000  0.43464000  0.33377000  1.0
  C  C143  1  0.42459000  0.06536000  0.83377000  1.0
  C  C144  1  0.21983000  0.43500000  0.82931000  1.0
  C  C145  1  0.78019000  0.06500000  0.32931000  1.0
  C  C146  1  0.78016000  0.56501000  0.17068000  1.0
  C  C147  1  0.21984000  0.93498000  0.67068000  1.0
  C  C148  1  0.31438000  0.38626000  0.85975000  1.0
  C  C149  1  0.68564000  0.11374000  0.35975000  1.0
  C  C150  1  0.68560000  0.61374000  0.14025000  1.0
  C  C151  1  0.31440000  0.88625000  0.64025000  1.0
  C  C152  1  0.11498000  0.40656000  0.72709000  1.0
  C  C153  1  0.88503000  0.09343000  0.22709000  1.0
  C  C154  1  0.88503000  0.59343000  0.27290000  1.0
  C  C155  1  0.11497000  0.90657000  0.77290000  1.0
  C  C156  1  0.16087000  0.35156000  0.68693000  1.0
  C  C157  1  0.83913000  0.14844000  0.18694000  1.0
  C  C158  1  0.83913000  0.64844000  0.31306000  1.0
  C  C159  1  0.16087000  0.85157000  0.81306000  1.0
  C  C160  1  0.64259000  0.61317000  0.85539000  1.0
  C  C161  1  0.35741000  0.88683000  0.35538000  1.0
  C  C162  1  0.35740000  0.38683000  0.14461000  1.0
  C  C163  1  0.64259000  0.11317000  0.64461000  1.0
  C  C164  1  0.61501000  0.65619000  0.90825000  1.0
  C  C165  1  0.38501000  0.84381000  0.40826000  1.0
  C  C166  1  0.38499000  0.34381000  0.09174000  1.0
  C  C167  1  0.61500000  0.15619000  0.59173000  1.0
  C  C168  1  0.73104000  0.68838000  0.77029000  1.0
  C  C169  1  0.26895000  0.81162000  0.27030000  1.0
  C  C170  1  0.26896000  0.31162000  0.22970000  1.0
  C  C171  1  0.73104000  0.18838000  0.72970000  1.0
  C  C172  1  0.67229000  0.75090000  0.74614000  1.0
  C  C173  1  0.32770000  0.74910000  0.24613000  1.0
  C  C174  1  0.32772000  0.24910000  0.25387000  1.0
  C  C175  1  0.67229000  0.25090000  0.75387000  1.0
  C  C176  1  0.33681000  0.52674000  0.56800000  1.0
  C  C177  1  0.66320000  0.97326000  0.06800000  1.0
  C  C178  1  0.66322000  0.47325000  0.43199000  1.0
  C  C179  1  0.33679000  0.02674000  0.93199000  1.0
  C  C180  1  0.39396000  0.45850000  0.56675000  1.0
  C  C181  1  0.60604000  0.04150000  0.06675000  1.0
  C  C182  1  0.60606000  0.54150000  0.43324000  1.0
  C  C183  1  0.39395000  0.95850000  0.93325000  1.0
  C  C184  1  0.52204000  0.63442000  0.58202000  1.0
  C  C185  1  0.47795000  0.86558000  0.08202000  1.0
  C  C186  1  0.47797000  0.36557000  0.41798000  1.0
  C  C187  1  0.52203000  0.13442000  0.91798000  1.0
  C  C188  1  0.41944000  0.68961000  0.57264000  1.0
  C  C189  1  0.58054000  0.81039000  0.07264000  1.0
  C  C190  1  0.58057000  0.31038000  0.42736000  1.0
  C  C191  1  0.41943000  0.18962000  0.92736000  1.0
  C  C192  1  0.18074000  0.15598000  0.62541000  1.0
  C  C193  1  0.81924000  0.34402000  0.12541000  1.0
  C  C194  1  0.81926000  0.84402000  0.37459000  1.0
  C  C195  1  0.18074000  0.65598000  0.87460000  1.0
  C  C196  1  0.06794000  0.10174000  0.64068000  1.0
  C  C197  1  0.93206000  0.39827000  0.14068000  1.0
  C  C198  1  0.93206000  0.89826000  0.35932000  1.0
  C  C199  1  0.06792000  0.60174000  0.85933000  1.0
  C  C200  1  0.03626000  0.08693000  0.70085000  1.0
  C  C201  1  0.96373000  0.41308000  0.20085000  1.0
  C  C202  1  0.96374000  0.91308000  0.29915000  1.0
  C  C203  1  0.03625000  0.58693000  0.79916000  1.0
  C  C204  1  0.12251000  0.12852000  0.74316000  1.0
  C  C205  1  0.87749000  0.37149000  0.24316000  1.0
  C  C206  1  0.87749000  0.87149000  0.25684000  1.0
  C  C207  1  0.12248000  0.62851000  0.75686000  1.0
  C  C208  1  0.23462000  0.18164000  0.72423000  1.0
  C  C209  1  0.76537000  0.31836000  0.22423000  1.0
  C  C210  1  0.76538000  0.81836000  0.27577000  1.0
  C  C211  1  0.23462000  0.68164000  0.77578000  1.0
  C  C212  1  0.73454000  0.93119000  0.69046000  1.0
  C  C213  1  0.26546000  0.56881000  0.19045000  1.0
  C  C214  1  0.26548000  0.06881000  0.30954000  1.0
  C  C215  1  0.73453000  0.43119000  0.80955000  1.0
  C  C216  1  0.85759000  0.98164000  0.67573000  1.0
  C  C217  1  0.14243000  0.51836000  0.17572000  1.0
  C  C218  1  0.14243000  0.01836000  0.32428000  1.0
  C  C219  1  0.85757000  0.48164000  0.82429000  1.0
  C  C220  1  0.91214000  0.03097000  0.71753000  1.0
  C  C221  1  0.08787000  0.46903000  0.21752000  1.0
  C  C222  1  0.08787000  0.96903000  0.28247000  1.0
  C  C223  1  0.91212000  0.53097000  0.78249000  1.0
  C  C224  1  0.83898000  0.02586000  0.77374000  1.0
  C  C225  1  0.16102000  0.47414000  0.27374000  1.0
  C  C226  1  0.16101000  0.97415000  0.22626000  1.0
  C  C227  1  0.83899000  0.52586000  0.72627000  1.0
  C  C228  1  0.71330000  0.97451000  0.78529000  1.0
  C  C229  1  0.28670000  0.52549000  0.28529000  1.0
  C  C230  1  0.28670000  0.02549000  0.21471000  1.0
  C  C231  1  0.71330000  0.47451000  0.71471000  1.0
  C  C232  1  0.79397000  0.36571000  0.96561000  1.0
  C  C233  1  0.20602000  0.13429000  0.46561000  1.0
  C  C234  1  0.20599000  0.63431000  0.03439000  1.0
  C  C235  1  0.79401000  0.86569000  0.53439000  1.0
  C  C236  1  0.93563000  0.40881000  0.97940000  1.0
  C  C237  1  0.06436000  0.09119000  0.47940000  1.0
  C  C238  1  0.06430000  0.59120000  0.02060000  1.0
  C  C239  1  0.93569000  0.90879000  0.52060000  1.0
  C  C240  1  0.92784000  0.47611000  0.99098000  1.0
  C  C241  1  0.07216000  0.02388000  0.49098000  1.0
  C  C242  1  0.07212000  0.52388000  0.00904000  1.0
  C  C243  1  0.92789000  0.97611000  0.50904000  1.0
  C  C244  1  0.77572000  0.49676000  0.98393000  1.0
  C  C245  1  0.22428000  0.00324000  0.48392000  1.0
  C  C246  1  0.22423000  0.50326000  0.01610000  1.0
  C  C247  1  0.77577000  0.99674000  0.51610000  1.0
  C  C248  1  0.64163000  0.45072000  0.96891000  1.0
  C  C249  1  0.35837000  0.04928000  0.46891000  1.0
  C  C250  1  0.35831000  0.54929000  0.03111000  1.0
  C  C251  1  0.64169000  0.95071000  0.53112000  1.0
  N  N252  1  0.42441000  0.53949000  0.78365000  1.0
  N  N253  1  0.57559000  0.96051000  0.28365000  1.0
  N  N254  1  0.57558000  0.46051000  0.21635000  1.0
  N  N255  1  0.42441000  0.03948000  0.71634000  1.0
  N  N256  1  0.32684000  0.51042000  0.68574000  1.0
  N  N257  1  0.67316000  0.98958000  0.18574000  1.0
  N  N258  1  0.67318000  0.48957000  0.31426000  1.0
  N  N259  1  0.32682000  0.01043000  0.81425000  1.0
  N  N260  1  0.51775000  0.60977000  0.70144000  1.0
  N  N261  1  0.48224000  0.89023000  0.20143000  1.0
  N  N262  1  0.48225000  0.39023000  0.29856000  1.0
  N  N263  1  0.51775000  0.10977000  0.79856000  1.0
  N  N264  1  0.23828000  0.44343000  0.76572000  1.0
  N  N265  1  0.76173000  0.05658000  0.26572000  1.0
  N  N266  1  0.76172000  0.55658000  0.23427000  1.0
  N  N267  1  0.23827000  0.94342000  0.73427000  1.0
  N  N268  1  0.43092000  0.57496000  0.60686000  1.0
  N  N269  1  0.56909000  0.92504000  0.10686000  1.0
  N  N270  1  0.56911000  0.42503000  0.39314000  1.0
  N  N271  1  0.43090000  0.07496000  0.89314000  1.0
  N  N272  1  0.61205000  0.63631000  0.79634000  1.0
  N  N273  1  0.38796000  0.86369000  0.29634000  1.0
  N  N274  1  0.38796000  0.36369000  0.20365000  1.0
  N  N275  1  0.61204000  0.13631000  0.70365000  1.0
  N  N276  1  0.26376000  0.19501000  0.66642000  1.0
  N  N277  1  0.73623000  0.30500000  0.16641000  1.0
  N  N278  1  0.73623000  0.80500000  0.33359000  1.0
  N  N279  1  0.26376000  0.69501000  0.83360000  1.0
  N  N280  1  0.66185000  0.92838000  0.74402000  1.0
  N  N281  1  0.33815000  0.57163000  0.24402000  1.0
  N  N282  1  0.33815000  0.07163000  0.25598000  1.0
  N  N283  1  0.66185000  0.42837000  0.75599000  1.0
  N  N284  1  0.64748000  0.38570000  0.96154000  1.0
  N  N285  1  0.35251000  0.11430000  0.46153000  1.0
  N  N286  1  0.35247000  0.61431000  0.03848000  1.0
  N  N287  1  0.64752000  0.88569000  0.53848000  1.0
  O  O288  1  0.30349000  0.38703000  0.91605000  1.0
  O  O289  1  0.69652000  0.11297000  0.41605000  1.0
  O  O290  1  0.69645000  0.61297000  0.08395000  1.0
  O  O291  1  0.30355000  0.88702000  0.58395000  1.0
  O  O292  1  0.39232000  0.34735000  0.83172000  1.0
  O  O293  1  0.60769000  0.15265000  0.33172000  1.0
  O  O294  1  0.60768000  0.65266000  0.16828000  1.0
  O  O295  1  0.39233000  0.84733000  0.66828000  1.0
  O  O296  1  0.31406000  0.34263000  0.68610000  1.0
  O  O297  1  0.68594000  0.15737000  0.18610000  1.0
  O  O298  1  0.68594000  0.65737000  0.31390000  1.0
  O  O299  1  0.31406000  0.84263000  0.81391000  1.0
  O  O300  1  0.05276000  0.31937000  0.65700000  1.0
  O  O301  1  0.94724000  0.18063000  0.15701000  1.0
  O  O302  1  0.94725000  0.68063000  0.34299000  1.0
  O  O303  1  0.05276000  0.81938000  0.84300000  1.0
  O  O304  1  0.63259000  0.62743000  0.95794000  1.0
  O  O305  1  0.36740000  0.87257000  0.45794000  1.0
  O  O306  1  0.36728000  0.37257000  0.04205000  1.0
  O  O307  1  0.63273000  0.12743000  0.54205000  1.0
  O  O308  1  0.58536000  0.71462000  0.90431000  1.0
  O  O309  1  0.41467000  0.78538000  0.40432000  1.0
  O  O310  1  0.41473000  0.28541000  0.09566000  1.0
  O  O311  1  0.58524000  0.21459000  0.59566000  1.0
  O  O312  1  0.54223000  0.76766000  0.77077000  1.0
  O  O313  1  0.45776000  0.73234000  0.27077000  1.0
  O  O314  1  0.45776000  0.23234000  0.22923000  1.0
  O  O315  1  0.54224000  0.26767000  0.72923000  1.0
  O  O316  1  0.75358000  0.78344000  0.70716000  1.0
  O  O317  1  0.24641000  0.71656000  0.20716000  1.0
  O  O318  1  0.24644000  0.21658000  0.29285000  1.0
  O  O319  1  0.75357000  0.28343000  0.79285000  1.0
  O  O320  1  0.29086000  0.41126000  0.54793000  1.0
  O  O321  1  0.70914000  0.08874000  0.04792000  1.0
  O  O322  1  0.70917000  0.58874000  0.45206000  1.0
  O  O323  1  0.29085000  0.91126000  0.95207000  1.0
  O  O324  1  0.54014000  0.45561000  0.58241000  1.0
  O  O325  1  0.45988000  0.04439000  0.08241000  1.0
  O  O326  1  0.45989000  0.54439000  0.41758000  1.0
  O  O327  1  0.54012000  0.95562000  0.91759000  1.0
  O  O328  1  0.27915000  0.68503000  0.59333000  1.0
  O  O329  1  0.72084000  0.81496000  0.09333000  1.0
  O  O330  1  0.72086000  0.31496000  0.40667000  1.0
  O  O331  1  0.27914000  0.18504000  0.90667000  1.0
  O  O332  1  0.49357000  0.73971000  0.54225000  1.0
  O  O333  1  0.50643000  0.76028000  0.04225000  1.0
  O  O334  1  0.50645000  0.26028000  0.45775000  1.0
  O  O335  1  0.49355000  0.23972000  0.95775000  1.0
  O  O336  1  0.61406000  0.35245000  0.62798000  1.0
  O  O337  1  0.38593000  0.14755000  0.12798000  1.0
  O  O338  1  0.38594000  0.64754000  0.37202000  1.0
  O  O339  1  0.61406000  0.85246000  0.87202000  1.0
  O  O340  1  0.32111000  0.28721000  0.55430000  1.0
  O  O341  1  0.67889000  0.21279000  0.05430000  1.0
  O  O342  1  0.67890000  0.71279000  0.44569000  1.0
  O  O343  1  0.32111000  0.78721000  0.94570000  1.0
  O  O344  1  0.14549000  0.26846000  0.97222000  1.0
  O  O345  1  0.85451000  0.23154000  0.47223000  1.0
  O  O346  1  0.85446000  0.73154000  0.02776000  1.0
  O  O347  1  0.14555000  0.76846000  0.52776000  1.0
