# generated using pymatgen
data_Zn2H14C26S(NO5)2
_symmetry_space_group_name_H-M   'P 1'
_cell_length_a   11.13410000
_cell_length_b   11.60120000
_cell_length_c   21.22400000
_cell_angle_alpha   90.00000000
_cell_angle_beta   90.00000000
_cell_angle_gamma   94.78380000
_symmetry_Int_Tables_number   1
_chemical_formula_structural   Zn2H14C26S(NO5)2
_chemical_formula_sum   'Zn8 H56 C104 S4 N8 O40'
_cell_volume   2731.93116972
_cell_formula_units_Z   4
loop_
 _symmetry_equiv_pos_site_id
 _symmetry_equiv_pos_as_xyz
  1  'x, y, z'
loop_
 _atom_site_type_symbol
 _atom_site_label
 _atom_site_symmetry_multiplicity
 _atom_site_fract_x
 _atom_site_fract_y
 _atom_site_fract_z
 _atom_site_occupancy
  Zn  Zn0  1  0.35352000  0.00397000  0.98279000  1.0
  Zn  Zn1  1  0.64649000  0.49603000  0.48279000  1.0
  Zn  Zn2  1  0.64648000  0.99602000  0.01721000  1.0
  Zn  Zn3  1  0.35352000  0.50397000  0.51721000  1.0
  Zn  Zn4  1  0.03437000  0.20005000  0.04351000  1.0
  Zn  Zn5  1  0.96563000  0.29995000  0.54351000  1.0
  Zn  Zn6  1  0.96563000  0.79995000  0.95649000  1.0
  Zn  Zn7  1  0.03437000  0.70005000  0.45649000  1.0
  H  H8  1  0.24349000  0.44381000  0.95463000  1.0
  H  H9  1  0.75651000  0.05619000  0.45463000  1.0
  H  H10  1  0.75651000  0.55618000  0.04537000  1.0
  H  H11  1  0.24349000  0.94381000  0.54537000  1.0
  H  H12  1  0.38459000  0.58097000  0.89375000  1.0
  H  H13  1  0.61541000  0.91903000  0.39375000  1.0
  H  H14  1  0.61541000  0.41902000  0.10625000  1.0
  H  H15  1  0.38459000  0.08098000  0.60625000  1.0
  H  H16  1  0.59701000  0.53100000  0.87611000  1.0
  H  H17  1  0.40299000  0.96901000  0.37611000  1.0
  H  H18  1  0.40299000  0.46901000  0.12389000  1.0
  H  H19  1  0.59701000  0.03100000  0.62389000  1.0
  H  H20  1  0.74423000  0.96712000  0.76053000  1.0
  H  H21  1  0.25577000  0.53288000  0.26053000  1.0
  H  H22  1  0.25577000  0.03288000  0.23947000  1.0
  H  H23  1  0.74423000  0.46712000  0.73947000  1.0
  H  H24  1  0.64499000  0.14400000  0.72519000  1.0
  H  H25  1  0.35501000  0.35600000  0.22519000  1.0
  H  H26  1  0.35501000  0.85600000  0.27481000  1.0
  H  H27  1  0.64499000  0.64401000  0.77481000  1.0
  H  H28  1  0.63715000  0.30911000  0.79950000  1.0
  H  H29  1  0.36285000  0.19089000  0.29950000  1.0
  H  H30  1  0.36285000  0.69089000  0.20050000  1.0
  H  H31  1  0.63715000  0.80911000  0.70050000  1.0
  H  H32  1  0.13264000  0.05723000  0.92909000  1.0
  H  H33  1  0.86736000  0.44276000  0.42909000  1.0
  H  H34  1  0.86736000  0.94277000  0.07091000  1.0
  H  H35  1  0.13264000  0.55723000  0.57091000  1.0
  H  H36  1  0.04700000  0.11236000  0.82775000  1.0
  H  H37  1  0.95300000  0.38763000  0.32774000  1.0
  H  H38  1  0.95300000  0.88763000  0.17226000  1.0
  H  H39  1  0.04700000  0.61237000  0.67226000  1.0
  H  H40  1  0.39604000  0.07642000  0.74303000  1.0
  H  H41  1  0.60397000  0.42359000  0.24303000  1.0
  H  H42  1  0.60396000  0.92358000  0.25697000  1.0
  H  H43  1  0.39604000  0.57642000  0.75697000  1.0
  H  H44  1  0.47054000  0.02857000  0.85028000  1.0
  H  H45  1  0.52946000  0.47144000  0.35028000  1.0
  H  H46  1  0.52945000  0.97143000  0.14972000  1.0
  H  H47  1  0.47054000  0.52857000  0.64972000  1.0
  H  H48  1  0.32422000  0.23019000  0.68066000  1.0
  H  H49  1  0.67578000  0.26981000  0.18066000  1.0
  H  H50  1  0.67578000  0.76980000  0.31934000  1.0
  H  H51  1  0.32422000  0.73020000  0.81934000  1.0
  H  H52  1  0.22379000  0.29319000  0.58395000  1.0
  H  H53  1  0.77621000  0.20681000  0.08395000  1.0
  H  H54  1  0.77621000  0.70681000  0.41605000  1.0
  H  H55  1  0.22379000  0.79319000  0.91605000  1.0
  H  H56  1  0.89806000  0.11707000  0.63377000  1.0
  H  H57  1  0.10194000  0.38293000  0.13377000  1.0
  H  H58  1  0.10194000  0.88293000  0.36623000  1.0
  H  H59  1  0.89806000  0.61707000  0.86623000  1.0
  H  H60  1  0.98614000  0.03928000  0.73086000  1.0
  H  H61  1  0.01386000  0.46072000  0.23086000  1.0
  H  H62  1  0.01385000  0.96072000  0.26914000  1.0
  H  H63  1  0.98615000  0.53928000  0.76914000  1.0
  C  C64  1  0.57312000  0.37381000  0.92921000  1.0
  C  C65  1  0.42688000  0.12619000  0.42920000  1.0
  C  C66  1  0.42688000  0.62619000  0.07079000  1.0
  C  C67  1  0.57312000  0.87381000  0.57080000  1.0
  C  C68  1  0.49685000  0.29890000  0.96665000  1.0
  C  C69  1  0.50315000  0.20110000  0.46665000  1.0
  C  C70  1  0.50315000  0.70110000  0.03335000  1.0
  C  C71  1  0.49685000  0.79890000  0.53335000  1.0
  C  C72  1  0.37628000  0.32502000  0.97373000  1.0
  C  C73  1  0.62372000  0.17498000  0.47373000  1.0
  C  C74  1  0.62372000  0.67498000  0.02627000  1.0
  C  C75  1  0.37628000  0.82502000  0.52627000  1.0
  C  C76  1  0.33648000  0.42523000  0.94645000  1.0
  C  C77  1  0.66352000  0.07477000  0.44645000  1.0
  C  C78  1  0.66352000  0.57477000  0.05355000  1.0
  C  C79  1  0.33648000  0.92523000  0.55356000  1.0
  C  C80  1  0.41442000  0.50024000  0.91167000  1.0
  C  C81  1  0.58558000  0.99976000  0.41167000  1.0
  C  C82  1  0.58558000  0.49976000  0.08833000  1.0
  C  C83  1  0.41442000  0.00024000  0.58833000  1.0
  C  C84  1  0.53273000  0.47353000  0.90234000  1.0
  C  C85  1  0.46727000  0.02647000  0.40233000  1.0
  C  C86  1  0.46727000  0.52647000  0.09767000  1.0
  C  C87  1  0.53273000  0.97353000  0.59767000  1.0
  C  C88  1  0.73705000  0.22916000  0.87211000  1.0
  C  C89  1  0.26295000  0.27084000  0.37211000  1.0
  C  C90  1  0.26295000  0.77084000  0.12789000  1.0
  C  C91  1  0.73705000  0.72916000  0.62789000  1.0
  C  C92  1  0.79848000  0.13404000  0.89114000  1.0
  C  C93  1  0.20152000  0.36596000  0.39114000  1.0
  C  C94  1  0.20152000  0.86596000  0.10886000  1.0
  C  C95  1  0.79848000  0.63404000  0.60886000  1.0
  C  C96  1  0.79815000  0.03908000  0.84965000  1.0
  C  C97  1  0.20185000  0.46092000  0.34964000  1.0
  C  C98  1  0.20186000  0.96091000  0.15035000  1.0
  C  C99  1  0.79815000  0.53909000  0.65035000  1.0
  C  C100  1  0.74102000  0.04254000  0.79096000  1.0
  C  C101  1  0.25898000  0.45746000  0.29096000  1.0
  C  C102  1  0.25898000  0.95746000  0.20903000  1.0
  C  C103  1  0.74102000  0.54254000  0.70904000  1.0
  C  C104  1  0.68443000  0.13940000  0.77203000  1.0
  C  C105  1  0.31557000  0.36060000  0.27202000  1.0
  C  C106  1  0.31557000  0.86060000  0.22797000  1.0
  C  C107  1  0.68443000  0.63940000  0.72797000  1.0
  C  C108  1  0.68136000  0.23255000  0.81314000  1.0
  C  C109  1  0.31864000  0.26745000  0.31314000  1.0
  C  C110  1  0.31864000  0.76745000  0.18686000  1.0
  C  C111  1  0.68136000  0.73255000  0.68686000  1.0
  C  C112  1  0.54304000  0.19872000  0.00238000  1.0
  C  C113  1  0.45697000  0.30128000  0.50238000  1.0
  C  C114  1  0.45697000  0.80128000  0.99762000  1.0
  C  C115  1  0.54303000  0.69872000  0.49762000  1.0
  C  C116  1  0.28628000  0.24860000  0.01056000  1.0
  C  C117  1  0.71372000  0.25140000  0.51056000  1.0
  C  C118  1  0.71372000  0.75140000  0.98944000  1.0
  C  C119  1  0.28628000  0.74860000  0.48945000  1.0
  C  C120  1  0.86299000  0.13353000  0.95393000  1.0
  C  C121  1  0.13701000  0.36647000  0.45393000  1.0
  C  C122  1  0.13701000  0.86647000  0.04607000  1.0
  C  C123  1  0.86299000  0.63353000  0.54607000  1.0
  C  C124  1  0.85715000  0.93079000  0.86699000  1.0
  C  C125  1  0.14285000  0.56921000  0.36699000  1.0
  C  C126  1  0.14286000  0.06921000  0.13301000  1.0
  C  C127  1  0.85714000  0.43079000  0.63301000  1.0
  C  C128  1  0.18869000  0.06339000  0.88711000  1.0
  C  C129  1  0.81131000  0.43661000  0.38711000  1.0
  C  C130  1  0.81131000  0.93661000  0.11289000  1.0
  C  C131  1  0.18869000  0.56339000  0.61289000  1.0
  C  C132  1  0.14060000  0.09218000  0.82966000  1.0
  C  C133  1  0.85940000  0.40781000  0.32966000  1.0
  C  C134  1  0.85939000  0.90781000  0.17034000  1.0
  C  C135  1  0.14061000  0.59219000  0.67034000  1.0
  C  C136  1  0.21390000  0.09768000  0.77597000  1.0
  C  C137  1  0.78610000  0.40232000  0.27597000  1.0
  C  C138  1  0.78610000  0.90232000  0.22403000  1.0
  C  C139  1  0.21390000  0.59769000  0.72403000  1.0
  C  C140  1  0.33500000  0.07431000  0.78324000  1.0
  C  C141  1  0.66500000  0.42569000  0.28324000  1.0
  C  C142  1  0.66500000  0.92568000  0.21676000  1.0
  C  C143  1  0.33500000  0.57432000  0.71676000  1.0
  C  C144  1  0.37714000  0.04640000  0.84246000  1.0
  C  C145  1  0.62286000  0.45360000  0.34246000  1.0
  C  C146  1  0.62285000  0.95359000  0.15754000  1.0
  C  C147  1  0.37714000  0.54641000  0.65754000  1.0
  C  C148  1  0.16259000  0.13079000  0.71526000  1.0
  C  C149  1  0.83740000  0.36921000  0.21526000  1.0
  C  C150  1  0.83740000  0.86921000  0.28474000  1.0
  C  C151  1  0.16260000  0.63079000  0.78474000  1.0
  C  C152  1  0.23005000  0.20103000  0.67216000  1.0
  C  C153  1  0.76995000  0.29897000  0.17216000  1.0
  C  C154  1  0.76994000  0.79896000  0.32784000  1.0
  C  C155  1  0.23005000  0.70104000  0.82784000  1.0
  C  C156  1  0.17433000  0.23859000  0.61831000  1.0
  C  C157  1  0.82567000  0.26142000  0.11831000  1.0
  C  C158  1  0.82567000  0.76141000  0.38169000  1.0
  C  C159  1  0.17433000  0.73859000  0.88169000  1.0
  C  C160  1  0.99196000  0.13927000  0.64603000  1.0
  C  C161  1  0.00804000  0.36073000  0.14603000  1.0
  C  C162  1  0.00804000  0.86073000  0.35397000  1.0
  C  C163  1  0.99196000  0.63927000  0.85397000  1.0
  C  C164  1  0.04195000  0.09715000  0.70037000  1.0
  C  C165  1  0.95805000  0.40285000  0.20037000  1.0
  C  C166  1  0.95805000  0.90285000  0.29963000  1.0
  C  C167  1  0.04195000  0.59716000  0.79963000  1.0
  S  S168  1  0.73080000  0.35724000  0.91871000  1.0
  S  S169  1  0.26920000  0.14276000  0.41871000  1.0
  S  S170  1  0.26920000  0.64276000  0.08129000  1.0
  S  S171  1  0.73080000  0.85724000  0.58129000  1.0
  N  N172  1  0.30483000  0.04065000  0.89350000  1.0
  N  N173  1  0.69517000  0.45935000  0.39350000  1.0
  N  N174  1  0.69517000  0.95934000  0.10650000  1.0
  N  N175  1  0.30483000  0.54065000  0.60650000  1.0
  N  N176  1  0.05689000  0.21020000  0.60623000  1.0
  N  N177  1  0.94311000  0.28980000  0.10623000  1.0
  N  N178  1  0.94311000  0.78980000  0.39377000  1.0
  N  N179  1  0.05689000  0.71020000  0.89377000  1.0
  O  O180  1  0.78286000  0.34120000  0.98022000  1.0
  O  O181  1  0.21714000  0.15880000  0.48022000  1.0
  O  O182  1  0.21714000  0.65880000  0.01978000  1.0
  O  O183  1  0.78286000  0.84121000  0.51978000  1.0
  O  O184  1  0.77775000  0.45230000  0.87885000  1.0
  O  O185  1  0.22225000  0.04770000  0.37885000  1.0
  O  O186  1  0.22225000  0.54770000  0.12115000  1.0
  O  O187  1  0.77775000  0.95230000  0.62115000  1.0
  O  O188  1  0.54717000  0.10252000  0.96978000  1.0
  O  O189  1  0.45283000  0.39748000  0.46978000  1.0
  O  O190  1  0.45283000  0.89748000  0.03022000  1.0
  O  O191  1  0.54717000  0.60252000  0.53022000  1.0
  O  O192  1  0.57548000  0.21057000  0.05786000  1.0
  O  O193  1  0.42452000  0.28943000  0.55786000  1.0
  O  O194  1  0.42452000  0.78943000  0.94214000  1.0
  O  O195  1  0.57548000  0.71057000  0.44214000  1.0
  O  O196  1  0.30998000  0.14734000  0.02691000  1.0
  O  O197  1  0.69002000  0.35266000  0.52691000  1.0
  O  O198  1  0.69002000  0.85266000  0.97309000  1.0
  O  O199  1  0.30998000  0.64734000  0.47309000  1.0
  O  O200  1  0.18790000  0.29228000  0.02324000  1.0
  O  O201  1  0.81210000  0.20771000  0.52324000  1.0
  O  O202  1  0.81210000  0.70771000  0.97676000  1.0
  O  O203  1  0.18790000  0.79228000  0.47676000  1.0
  O  O204  1  0.80931000  0.08950000  0.00199000  1.0
  O  O205  1  0.19069000  0.41050000  0.50199000  1.0
  O  O206  1  0.19069000  0.91050000  0.99801000  1.0
  O  O207  1  0.80931000  0.58950000  0.49801000  1.0
  O  O208  1  0.96870000  0.18464000  0.95612000  1.0
  O  O209  1  0.03130000  0.31537000  0.45612000  1.0
  O  O210  1  0.03130000  0.81536000  0.04388000  1.0
  O  O211  1  0.96870000  0.68464000  0.54388000  1.0
  O  O212  1  0.93066000  0.94399000  0.91468000  1.0
  O  O213  1  0.06933000  0.55601000  0.41468000  1.0
  O  O214  1  0.06934000  0.05601000  0.08532000  1.0
  O  O215  1  0.93066000  0.44399000  0.58532000  1.0
  O  O216  1  0.83331000  0.84050000  0.83638000  1.0
  O  O217  1  0.16669000  0.65950000  0.33638000  1.0
  O  O218  1  0.16669000  0.15950000  0.16362000  1.0
  O  O219  1  0.83331000  0.34050000  0.66362000  1.0
