# generated using pymatgen
data_AgH23C31SN8O5
_symmetry_space_group_name_H-M   'P 1'
_cell_length_a   12.46360000
_cell_length_b   12.46360000
_cell_length_c   12.71375931
_cell_angle_alpha   115.33187985
_cell_angle_beta   117.30088415
_cell_angle_gamma   95.49040000
_symmetry_Int_Tables_number   1
_chemical_formula_structural   AgH23C31SN8O5
_chemical_formula_sum   'Ag2 H46 C62 S2 N16 O10'
_cell_volume   1477.74356638
_cell_formula_units_Z   2
loop_
 _symmetry_equiv_pos_site_id
 _symmetry_equiv_pos_as_xyz
  1  'x, y, z'
loop_
 _atom_site_type_symbol
 _atom_site_label
 _atom_site_symmetry_multiplicity
 _atom_site_fract_x
 _atom_site_fract_y
 _atom_site_fract_z
 _atom_site_occupancy
  Ag  Ag0  1  0.25493000  0.45019000  0.07216000  1.0
  Ag  Ag1  1  0.12197000  0.81724000  0.57216000  1.0
  H  H2  1  0.57662000  0.08929000  0.14792000  1.0
  H  H3  1  0.55863000  0.57129000  0.64792000  1.0
  H  H4  1  0.58768000  0.34541000  0.42071000  1.0
  H  H5  1  0.57530000  0.83303000  0.92071000  1.0
  H  H6  1  0.24901000  0.81567000  0.98916000  1.0
  H  H7  1  0.67349000  0.74015000  0.48916000  1.0
  H  H8  1  0.31046000  0.15568000  0.91912000  1.0
  H  H9  1  0.26344000  0.60865000  0.41912000  1.0
  H  H10  1  0.13443000  0.02057000  0.84910000  1.0
  H  H11  1  0.32853000  0.71467000  0.34910000  1.0
  H  H12  1  0.92870000  0.90273000  0.75875000  1.0
  H  H13  1  0.35603000  0.83006000  0.25876000  1.0
  H  H14  1  0.98363000  0.55773000  0.47225000  1.0
  H  H15  1  0.41451000  0.48862000  0.97225000  1.0
  H  H16  1  0.67693000  0.33820000  0.96465000  1.0
  H  H17  1  0.12645000  0.28771000  0.46465000  1.0
  H  H18  1  0.99676000  0.44399000  0.59382000  1.0
  H  H19  1  0.64984000  0.59706000  0.09382000  1.0
  H  H20  1  0.45375000  0.25642000  0.89871000  1.0
  H  H21  1  0.14229000  0.44496000  0.39871000  1.0
  H  H22  1  0.77173000  0.56403000  0.32009000  1.0
  H  H23  1  0.25606000  0.54837000  0.82009000  1.0
  H  H24  1  0.77546000  0.72616000  0.71809000  1.0
  H  H25  1  0.49193000  0.94263000  0.21809000  1.0
  H  H26  1  0.85545000  0.29859000  0.12713000  1.0
  H  H27  1  0.32854000  0.27168000  0.62714000  1.0
  H  H28  1  0.90131000  0.32554000  0.64235000  1.0
  H  H29  1  0.81682000  0.74104000  0.14236000  1.0
  H  H30  1  0.85637000  0.58978000  0.81154000  1.0
  H  H31  1  0.72176000  0.95517000  0.31154000  1.0
  H  H32  1  0.86602000  0.22233000  0.71288000  1.0
  H  H33  1  0.99055000  0.84685000  0.21288000  1.0
  H  H34  1  0.51410000  0.13040000  0.58344000  1.0
  H  H35  1  0.95305000  0.06935000  0.08344000  1.0
  H  H36  1  0.78964000  0.96438000  0.85849000  1.0
  H  H37  1  0.39411000  0.06885000  0.35849000  1.0
  H  H38  1  0.88408000  0.10164000  0.80288000  1.0
  H  H39  1  0.20125000  0.91880000  0.30288000  1.0
  H  H40  1  0.55839000  0.90854000  0.77616000  1.0
  H  H41  1  0.36762000  0.21777000  0.27616000  1.0
  H  H42  1  0.13943000  0.06522000  0.57905000  1.0
  H  H43  1  0.01384000  0.43962000  0.07905000  1.0
  H  H44  1  0.12030000  0.20686000  0.57910000  1.0
  H  H45  1  0.87224000  0.45879000  0.07910000  1.0
  H  H46  1  0.98111000  0.07575000  0.50148000  1.0
  H  H47  1  0.92573000  0.52038000  0.00148000  1.0
  C  C48  1  0.49864000  0.16468000  0.01595000  1.0
  C  C49  1  0.35126000  0.51731000  0.51595000  1.0
  C  C50  1  0.31457000  0.01812000  0.97281000  1.0
  C  C51  1  0.45469000  0.65824000  0.47281000  1.0
  C  C52  1  0.59792000  0.14305000  0.10736000  1.0
  C  C53  1  0.46431000  0.50944000  0.60737000  1.0
  C  C54  1  0.10030000  0.87377000  0.87913000  1.0
  C  C55  1  0.50536000  0.77883000  0.37913000  1.0
  C  C56  1  0.67384000  0.39123000  0.43169000  1.0
  C  C57  1  0.54046000  0.75785000  0.93169000  1.0
  C  C58  1  0.14608000  0.79701000  0.93056000  1.0
  C  C59  1  0.63355000  0.78448000  0.43056000  1.0
  C  C60  1  0.79289000  0.38592000  0.51496000  1.0
  C  C61  1  0.62904000  0.72207000  0.01496000  1.0
  C  C62  1  0.66815000  0.45530000  0.36231000  1.0
  C  C63  1  0.40700000  0.69416000  0.86231000  1.0
  C  C64  1  0.96541000  0.84521000  0.80157000  1.0
  C  C65  1  0.45636000  0.83616000  0.30157000  1.0
  C  C66  1  0.89675000  0.51194000  0.46091000  1.0
  C  C67  1  0.44897000  0.56416000  0.96091000  1.0
  C  C68  1  0.54600000  0.45528000  0.27353000  1.0
  C  C69  1  0.31825000  0.72754000  0.77353000  1.0
  C  C70  1  0.05750000  0.69552000  0.90479000  1.0
  C  C71  1  0.70927000  0.84730000  0.40479000  1.0
  C  C72  1  0.65714000  0.28535000  0.00742000  1.0
  C  C73  1  0.22208000  0.35028000  0.50742000  1.0
  C  C74  1  0.72515000  0.19222000  0.14656000  1.0
  C  C75  1  0.45434000  0.42141000  0.64656000  1.0
  C  C76  1  0.82326000  0.17188000  0.24366000  1.0
  C  C77  1  0.57178000  0.42041000  0.74367000  1.0
  C  C78  1  0.90398000  0.44802000  0.52915000  1.0
  C  C79  1  0.58113000  0.62518000  0.02916000  1.0
  C  C80  1  0.53051000  0.23820000  0.96840000  1.0
  C  C81  1  0.23020000  0.43790000  0.46841000  1.0
  C  C82  1  0.77858000  0.51597000  0.37567000  1.0
  C  C83  1  0.35971000  0.59709000  0.87567000  1.0
  C  C84  1  0.87899000  0.74524000  0.77855000  1.0
  C  C85  1  0.53331000  0.89956000  0.27855000  1.0
  C  C86  1  0.75613000  0.26253000  0.09620000  1.0
  C  C87  1  0.33367000  0.34006000  0.59620000  1.0
  C  C88  1  0.71404000  0.24818000  0.57997000  1.0
  C  C89  1  0.83179000  0.86593000  0.07997000  1.0
  C  C90  1  0.11149000  0.61880000  0.95448000  1.0
  C  C91  1  0.83568000  0.84299000  0.45449000  1.0
  C  C92  1  0.92334000  0.66884000  0.83010000  1.0
  C  C93  1  0.66126000  0.90677000  0.33011000  1.0
  C  C94  1  0.57446000  0.09400000  0.64257000  1.0
  C  C95  1  0.04857000  0.06810000  0.14256000  1.0
  C  C96  1  0.72995000  0.00069000  0.79826000  1.0
  C  C97  1  0.29757000  0.06831000  0.29826000  1.0
  C  C98  1  0.78232000  0.07774000  0.76774000  1.0
  C  C99  1  0.18999000  0.98542000  0.26774000  1.0
  C  C100  1  0.70558000  0.12484000  0.68914000  1.0
  C  C101  1  0.06430000  0.98356000  0.18914000  1.0
  C  C102  1  0.39182000  0.98478000  0.63119000  1.0
  C  C103  1  0.14640000  0.23937000  0.13118000  1.0
  C  C104  1  0.52372000  0.01640000  0.67525000  1.0
  C  C105  1  0.15885000  0.15153000  0.17525000  1.0
  C  C106  1  0.60003000  0.96877000  0.75261000  1.0
  C  C107  1  0.28383000  0.15257000  0.25260000  1.0
  C  C108  1  0.08383000  0.12793000  0.58520000  1.0
  C  C109  1  0.95727000  0.50136000  0.08519000  1.0
  S  S110  1  0.10202000  0.19492000  0.74906000  1.0
  S  S111  1  0.05414000  0.64704000  0.24905000  1.0
  N  N112  1  0.36889000  0.11782000  0.96957000  1.0
  N  N113  1  0.35175000  0.60068000  0.46957000  1.0
  N  N114  1  0.18079000  0.97588000  0.89863000  1.0
  N  N115  1  0.42275000  0.71783000  0.39863000  1.0
  N  N116  1  0.90207000  0.15624000  0.32589000  1.0
  N  N117  1  0.66966000  0.42382000  0.82590000  1.0
  N  N118  1  0.44559000  0.45343000  0.19837000  1.0
  N  N119  1  0.24494000  0.75277000  0.69837000  1.0
  N  N120  1  0.80938000  0.32368000  0.58654000  1.0
  N  N121  1  0.76286000  0.77716000  0.08654000  1.0
  N  N122  1  0.76774000  0.20133000  0.66486000  1.0
  N  N123  1  0.96353000  0.89712000  0.16486000  1.0
  N  N124  1  0.28422000  0.95593000  0.59817000  1.0
  N  N125  1  0.14225000  0.31396000  0.09817000  1.0
  N  N126  1  0.16288000  0.55907000  0.99573000  1.0
  N  N127  1  0.93666000  0.83285000  0.49573000  1.0
  O  O128  1  0.37990000  0.97073000  0.03490000  1.0
  O  O129  1  0.56417000  0.65499000  0.53490000  1.0
  O  O130  1  0.59694000  0.22626000  0.50729000  1.0
  O  O131  1  0.78104000  0.91035000  0.00729000  1.0
  O  O132  1  0.04704000  0.09073000  0.75679000  1.0
  O  O133  1  0.16606000  0.70975000  0.25679000  1.0
  O  O134  1  0.24309000  0.26240000  0.85640000  1.0
  O  O135  1  0.09400000  0.61331000  0.35640000  1.0
  O  O136  1  0.03151000  0.28394000  0.75422000  1.0
  O  O137  1  0.97028000  0.72271000  0.25422000  1.0
