# generated using pymatgen
data_DyH13C21(N3O10)2
_symmetry_space_group_name_H-M   'P 1'
_cell_length_a   9.22420000
_cell_length_b   11.52570000
_cell_length_c   13.72070000
_cell_angle_alpha   107.54200000
_cell_angle_beta   90.49190000
_cell_angle_gamma   93.59040000
_symmetry_Int_Tables_number   1
_chemical_formula_structural   DyH13C21(N3O10)2
_chemical_formula_sum   'Dy2 H26 C42 N12 O40'
_cell_volume   1387.57716420
_cell_formula_units_Z   2
loop_
 _symmetry_equiv_pos_site_id
 _symmetry_equiv_pos_as_xyz
  1  'x, y, z'
loop_
 _atom_site_type_symbol
 _atom_site_label
 _atom_site_symmetry_multiplicity
 _atom_site_fract_x
 _atom_site_fract_y
 _atom_site_fract_z
 _atom_site_occupancy
  Dy  Dy0  1  0.26785000  0.98826000  0.00661000  1.0
  Dy  Dy1  1  0.73215000  0.01174000  0.99339000  1.0
  H  H2  1  0.76794000  0.23605000  0.22153000  1.0
  H  H3  1  0.23206000  0.76395000  0.77847000  1.0
  H  H4  1  0.25890000  0.30803000  0.05337000  1.0
  H  H5  1  0.74110000  0.69197000  0.94663000  1.0
  H  H6  1  0.22682000  0.34275000  0.26122000  1.0
  H  H7  1  0.77318000  0.65725000  0.73878000  1.0
  H  H8  1  0.91860000  0.58532000  0.43355000  1.0
  H  H9  1  0.08140000  0.41468000  0.56645000  1.0
  H  H10  1  0.70759000  0.44186000  0.11773000  1.0
  H  H11  1  0.29241000  0.55814000  0.88227000  1.0
  H  H12  1  0.37128000  0.69662000  0.17150000  1.0
  H  H13  1  0.62872000  0.30338000  0.82850000  1.0
  H  H14  1  0.71184000  0.87509000  0.69143000  1.0
  H  H15  1  0.28816000  0.12492000  0.30858000  1.0
  H  H16  1  0.26576000  0.95127000  0.65375000  1.0
  H  H17  1  0.73424000  0.04873000  0.34625000  1.0
  H  H18  1  0.51970000  0.79899000  0.38859000  1.0
  H  H19  1  0.48030000  0.20101000  0.61141000  1.0
  H  H20  1  0.22594000  0.14077000  0.87114000  1.0
  H  H21  1  0.77406000  0.85923000  0.12886000  1.0
  H  H22  1  0.06574000  0.12463000  0.90826000  1.0
  H  H23  1  0.93426000  0.87537000  0.09175000  1.0
  H  H24  1  0.16550000  0.90967000  0.18329000  1.0
  H  H25  1  0.83450000  0.09033000  0.81671000  1.0
  H  H26  1  0.13808000  0.78813000  0.09587000  1.0
  H  H27  1  0.86192000  0.21187000  0.90413000  1.0
  C  C28  1  0.03293000  0.16451000  0.14830000  1.0
  C  C29  1  0.96707000  0.83549000  0.85170000  1.0
  C  C30  1  0.85701000  0.30195000  0.25769000  1.0
  C  C31  1  0.14299000  0.69805000  0.74231000  1.0
  C  C32  1  0.53571000  0.23328000  0.04872000  1.0
  C  C33  1  0.46429000  0.76672000  0.95128000  1.0
  C  C34  1  0.00074000  0.27766000  0.23184000  1.0
  C  C35  1  0.99926000  0.72234000  0.76816000  1.0
  C  C36  1  0.48800000  0.36139000  0.08412000  1.0
  C  C37  1  0.51200000  0.63861000  0.91588000  1.0
  C  C38  1  0.34085000  0.38364000  0.08171000  1.0
  C  C39  1  0.65915000  0.61636000  0.91829000  1.0
  C  C40  1  0.83017000  0.41083000  0.33153000  1.0
  C  C41  1  0.16983000  0.58917000  0.66847000  1.0
  C  C42  1  0.08167000  0.47179000  0.34939000  1.0
  C  C43  1  0.91833000  0.52821000  0.65061000  1.0
  C  C44  1  0.11457000  0.36189000  0.27943000  1.0
  C  C45  1  0.88543000  0.63811000  0.72057000  1.0
  C  C46  1  0.94039000  0.49870000  0.37813000  1.0
  C  C47  1  0.05961000  0.50129000  0.62187000  1.0
  C  C48  1  0.59283000  0.45878000  0.11754000  1.0
  C  C49  1  0.40717000  0.54122000  0.88246000  1.0
  C  C50  1  0.54866000  0.57737000  0.14852000  1.0
  C  C51  1  0.45134000  0.42263000  0.85148000  1.0
  C  C52  1  0.30213000  0.50412000  0.11258000  1.0
  C  C53  1  0.69787000  0.49588000  0.88742000  1.0
  C  C54  1  0.40345000  0.60330000  0.14729000  1.0
  C  C55  1  0.59655000  0.39670000  0.85272000  1.0
  C  C56  1  0.48190000  0.96480000  0.80016000  1.0
  C  C57  1  0.51810000  0.03521000  0.19984000  1.0
  C  C58  1  0.48818000  0.91896000  0.68520000  1.0
  C  C59  1  0.51182000  0.08104000  0.31480000  1.0
  C  C60  1  0.61868000  0.87552000  0.64227000  1.0
  C  C61  1  0.38132000  0.12448000  0.35773000  1.0
  C  C62  1  0.36838000  0.91835000  0.62180000  1.0
  C  C63  1  0.63162000  0.08164000  0.37820000  1.0
  C  C64  1  0.38317000  0.87657000  0.51596000  1.0
  C  C65  1  0.61683000  0.12343000  0.48404000  1.0
  C  C66  1  0.62699000  0.83158000  0.53643000  1.0
  C  C67  1  0.37301000  0.16842000  0.46357000  1.0
  C  C68  1  0.51089000  0.83162000  0.47108000  1.0
  C  C69  1  0.48911000  0.16837000  0.52891000  1.0
  N  N70  1  0.67886000  0.43419000  0.36176000  1.0
  N  N71  1  0.32114000  0.56581000  0.63824000  1.0
  N  N72  1  0.20051000  0.56440000  0.39388000  1.0
  N  N73  1  0.79949000  0.43560000  0.60612000  1.0
  N  N74  1  0.14764000  0.52809000  0.10672000  1.0
  N  N75  1  0.85236000  0.47191000  0.89328000  1.0
  N  N76  1  0.66129000  0.67876000  0.17652000  1.0
  N  N77  1  0.33871000  0.32124000  0.82348000  1.0
  N  N78  1  0.26074000  0.88330000  0.44815000  1.0
  N  N79  1  0.73925000  0.11670000  0.55185000  1.0
  N  N80  1  0.76432000  0.78483000  0.49178000  1.0
  N  N81  1  0.23568000  0.21517000  0.50822000  1.0
  O  O82  1  0.93010000  0.11069000  0.08636000  1.0
  O  O83  1  0.06990000  0.88930000  0.91364000  1.0
  O  O84  1  0.16220000  0.13155000  0.14285000  1.0
  O  O85  1  0.83779000  0.86845000  0.85715000  1.0
  O  O86  1  0.31870000  0.55333000  0.35096000  1.0
  O  O87  1  0.68130000  0.44667000  0.64904000  1.0
  O  O88  1  0.58124000  0.36010000  0.31269000  1.0
  O  O89  1  0.41876000  0.63990000  0.68731000  1.0
  O  O90  1  0.17433000  0.64859000  0.47129000  1.0
  O  O91  1  0.82567000  0.35141000  0.52871000  1.0
  O  O92  1  0.16987000  0.13267000  0.92944000  1.0
  O  O93  1  0.83013000  0.86733000  0.07056000  1.0
  O  O94  1  0.67042000  0.21953000  0.03641000  1.0
  O  O95  1  0.32958000  0.78047000  0.96359000  1.0
  O  O96  1  0.43930000  0.14608000  0.03339000  1.0
  O  O97  1  0.56070000  0.85392000  0.96661000  1.0
  O  O98  1  0.12217000  0.87549000  0.11446000  1.0
  O  O99  1  0.87783000  0.12451000  0.88554000  1.0
  O  O100  1  0.65859000  0.52585000  0.43414000  1.0
  O  O101  1  0.34141000  0.47415000  0.56586000  1.0
  O  O102  1  0.36099000  0.95144000  0.84023000  1.0
  O  O103  1  0.63901000  0.04856000  0.15977000  1.0
  O  O104  1  0.05777000  0.43948000  0.08094000  1.0
  O  O105  1  0.94223000  0.56052000  0.91906000  1.0
  O  O106  1  0.78940000  0.65386000  0.17528000  1.0
  O  O107  1  0.21060000  0.34614000  0.82472000  1.0
  O  O108  1  0.62043000  0.78447000  0.19578000  1.0
  O  O109  1  0.37957000  0.21553000  0.80422000  1.0
  O  O110  1  0.11645000  0.63614000  0.12885000  1.0
  O  O111  1  0.88355000  0.36386000  0.87115000  1.0
  O  O112  1  0.15257000  0.93332000  0.48867000  1.0
  O  O113  1  0.84743000  0.06669000  0.51133000  1.0
  O  O114  1  0.85952000  0.77087000  0.55085000  1.0
  O  O115  1  0.14048000  0.22913000  0.44915000  1.0
  O  O116  1  0.27545000  0.84081000  0.35422000  1.0
  O  O117  1  0.72455000  0.15919000  0.64578000  1.0
  O  O118  1  0.77614000  0.76112000  0.39814000  1.0
  O  O119  1  0.22385000  0.23888000  0.60186000  1.0
  O  O120  1  0.60037000  0.01186000  0.84738000  1.0
  O  O121  1  0.39963000  0.98814000  0.15262000  1.0
