# generated using pymatgen
data_ZnH12C14(NO2)2
_symmetry_space_group_name_H-M   'P 1'
_cell_length_a   8.89348000
_cell_length_b   15.94270000
_cell_length_c   19.33170000
_cell_angle_alpha   90.00040000
_cell_angle_beta   89.99990000
_cell_angle_gamma   89.99980000
_symmetry_Int_Tables_number   1
_chemical_formula_structural   ZnH12C14(NO2)2
_chemical_formula_sum   'Zn8 H96 C112 N16 O32'
_cell_volume   2740.96603217
_cell_formula_units_Z   8
loop_
 _symmetry_equiv_pos_site_id
 _symmetry_equiv_pos_as_xyz
  1  'x, y, z'
loop_
 _atom_site_type_symbol
 _atom_site_label
 _atom_site_symmetry_multiplicity
 _atom_site_fract_x
 _atom_site_fract_y
 _atom_site_fract_z
 _atom_site_occupancy
  Zn  Zn0  1  0.53580000  0.44348000  0.51415000  1.0
  Zn  Zn1  1  0.46421000  0.55652000  0.01416000  1.0
  Zn  Zn2  1  0.03579000  0.55653000  0.51415000  1.0
  Zn  Zn3  1  0.96420000  0.44348000  0.01415000  1.0
  Zn  Zn4  1  0.69978000  0.94265000  0.57508000  1.0
  Zn  Zn5  1  0.30022000  0.05735000  0.07508000  1.0
  Zn  Zn6  1  0.19979000  0.05735000  0.57508000  1.0
  Zn  Zn7  1  0.80022000  0.94265000  0.07508000  1.0
  H  H8  1  0.44040000  0.86644000  0.56099000  1.0
  H  H9  1  0.55960000  0.13356000  0.06100000  1.0
  H  H10  1  0.94040000  0.13356000  0.56100000  1.0
  H  H11  1  0.05960000  0.86644000  0.06099000  1.0
  H  H12  1  0.46260000  0.94040000  0.50136000  1.0
  H  H13  1  0.53740000  0.05960000  0.00136000  1.0
  H  H14  1  0.96260000  0.05960000  0.50136000  1.0
  H  H15  1  0.03740000  0.94040000  0.00136000  1.0
  H  H16  1  0.17179000  0.06632000  0.70595000  1.0
  H  H17  1  0.82821000  0.93368000  0.20595000  1.0
  H  H18  1  0.67179000  0.93368000  0.70595000  1.0
  H  H19  1  0.32821000  0.06632000  0.20595000  1.0
  H  H20  1  0.34533000  0.09663000  0.68112000  1.0
  H  H21  1  0.65467000  0.90337000  0.18112000  1.0
  H  H22  1  0.84533000  0.90337000  0.68112000  1.0
  H  H23  1  0.15467000  0.09663000  0.18112000  1.0
  H  H24  1  0.79951000  0.37002000  0.52390000  1.0
  H  H25  1  0.20049000  0.62998000  0.02390000  1.0
  H  H26  1  0.29951000  0.62998000  0.52390000  1.0
  H  H27  1  0.70049000  0.37002000  0.02390000  1.0
  H  H28  1  0.77859000  0.44223000  0.58508000  1.0
  H  H29  1  0.22141000  0.55777000  0.08509000  1.0
  H  H30  1  0.27859000  0.55777000  0.58508000  1.0
  H  H31  1  0.72141000  0.44224000  0.08508000  1.0
  H  H32  1  0.39105000  0.40210000  0.40690000  1.0
  H  H33  1  0.60895000  0.59790000  0.90690000  1.0
  H  H34  1  0.89106000  0.59790000  0.40690000  1.0
  H  H35  1  0.10895000  0.40210000  0.90690000  1.0
  H  H36  1  0.56517000  0.43277000  0.38386000  1.0
  H  H37  1  0.43482000  0.56723000  0.88386000  1.0
  H  H38  1  0.06518000  0.56723000  0.38386000  1.0
  H  H39  1  0.93482000  0.43277000  0.88386000  1.0
  H  H40  1  0.52397000  0.72018000  0.53985000  1.0
  H  H41  1  0.47603000  0.27982000  0.03985000  1.0
  H  H42  1  0.02397000  0.27982000  0.53985000  1.0
  H  H43  1  0.97603000  0.72018000  0.03985000  1.0
  H  H44  1  0.68736000  0.66986000  0.33419000  1.0
  H  H45  1  0.31264000  0.33013000  0.83420000  1.0
  H  H46  1  0.18736000  0.33013000  0.33419000  1.0
  H  H47  1  0.81263000  0.66987000  0.83420000  1.0
  H  H48  1  0.68632000  0.82297000  0.30875000  1.0
  H  H49  1  0.31368000  0.17702000  0.80876000  1.0
  H  H50  1  0.18632000  0.17702000  0.30876000  1.0
  H  H51  1  0.81368000  0.82298000  0.80876000  1.0
  H  H52  1  0.60278000  0.92484000  0.39892000  1.0
  H  H53  1  0.39722000  0.07515000  0.89893000  1.0
  H  H54  1  0.10278000  0.07515000  0.39893000  1.0
  H  H55  1  0.89722000  0.92484000  0.89893000  1.0
  H  H56  1  0.35640000  0.23789000  0.61246000  1.0
  H  H57  1  0.64360000  0.76210000  0.11247000  1.0
  H  H58  1  0.85640000  0.76210000  0.61246000  1.0
  H  H59  1  0.14360000  0.23789000  0.11246000  1.0
  H  H60  1  0.05593000  0.42467000  0.69457000  1.0
  H  H61  1  0.94408000  0.57533000  0.19457000  1.0
  H  H62  1  0.55592000  0.57533000  0.69457000  1.0
  H  H63  1  0.44407000  0.42467000  0.19456000  1.0
  H  H64  1  0.91056000  0.31157000  0.75417000  1.0
  H  H65  1  0.08945000  0.68843000  0.25417000  1.0
  H  H66  1  0.41055000  0.68844000  0.75417000  1.0
  H  H67  1  0.58944000  0.31157000  0.25417000  1.0
  H  H68  1  0.99462000  0.16420000  0.74841000  1.0
  H  H69  1  0.00539000  0.83580000  0.24841000  1.0
  H  H70  1  0.49461000  0.83580000  0.74841000  1.0
  H  H71  1  0.50538000  0.16420000  0.24841000  1.0
  H  H72  1  0.71890000  0.22210000  0.54451000  1.0
  H  H73  1  0.28110000  0.77790000  0.04451000  1.0
  H  H74  1  0.21889000  0.77790000  0.54451000  1.0
  H  H75  1  0.78110000  0.22210000  0.04451000  1.0
  H  H76  1  0.55680000  0.16957000  0.74943000  1.0
  H  H77  1  0.44321000  0.83044000  0.24944000  1.0
  H  H78  1  0.05679000  0.83044000  0.74943000  1.0
  H  H79  1  0.94321000  0.16957000  0.24943000  1.0
  H  H80  1  0.55950000  0.32281000  0.77687000  1.0
  H  H81  1  0.44051000  0.67719000  0.27687000  1.0
  H  H82  1  0.05949000  0.67719000  0.77687000  1.0
  H  H83  1  0.94051000  0.32281000  0.27687000  1.0
  H  H84  1  0.64473000  0.42515000  0.68757000  1.0
  H  H85  1  0.35528000  0.57486000  0.18758000  1.0
  H  H86  1  0.14472000  0.57486000  0.68757000  1.0
  H  H87  1  0.85527000  0.42515000  0.18758000  1.0
  H  H88  1  0.37365000  0.26006000  0.47398000  1.0
  H  H89  1  0.62634000  0.73994000  0.97399000  1.0
  H  H90  1  0.87366000  0.73994000  0.47399000  1.0
  H  H91  1  0.12634000  0.26006000  0.97398000  1.0
  H  H92  1  0.69641000  0.07762000  0.40380000  1.0
  H  H93  1  0.30360000  0.92238000  0.90380000  1.0
  H  H94  1  0.19640000  0.92238000  0.40380000  1.0
  H  H95  1  0.80360000  0.07762000  0.90379000  1.0
  H  H96  1  0.84814000  0.19272000  0.35139000  1.0
  H  H97  1  0.15186000  0.80728000  0.85139000  1.0
  H  H98  1  0.34814000  0.80728000  0.35139000  1.0
  H  H99  1  0.65186000  0.19272000  0.85139000  1.0
  H  H100  1  0.75738000  0.33977000  0.35542000  1.0
  H  H101  1  0.24262000  0.66023000  0.85542000  1.0
  H  H102  1  0.25738000  0.66023000  0.35542000  1.0
  H  H103  1  0.74261000  0.33977000  0.85542000  1.0
  C  C104  1  0.55697000  0.82892000  0.47449000  1.0
  C  C105  1  0.44303000  0.17108000  0.97450000  1.0
  C  C106  1  0.05697000  0.17108000  0.47450000  1.0
  C  C107  1  0.94303000  0.82892000  0.97450000  1.0
  C  C108  1  0.55565000  0.74308000  0.48872000  1.0
  C  C109  1  0.44436000  0.25692000  0.98872000  1.0
  C  C110  1  0.05564000  0.25692000  0.48872000  1.0
  C  C111  1  0.94436000  0.74308000  0.98872000  1.0
  C  C112  1  0.60245000  0.68583000  0.43797000  1.0
  C  C113  1  0.39756000  0.31416000  0.93797000  1.0
  C  C114  1  0.10244000  0.31416000  0.43797000  1.0
  C  C115  1  0.89755000  0.68584000  0.93797000  1.0
  C  C116  1  0.64913000  0.71471000  0.37295000  1.0
  C  C117  1  0.35087000  0.28528000  0.87295000  1.0
  C  C118  1  0.14913000  0.28529000  0.37295000  1.0
  C  C119  1  0.85087000  0.71471000  0.87295000  1.0
  C  C120  1  0.64900000  0.80054000  0.35910000  1.0
  C  C121  1  0.35100000  0.19946000  0.85911000  1.0
  C  C122  1  0.14900000  0.19946000  0.35911000  1.0
  C  C123  1  0.85100000  0.80054000  0.85911000  1.0
  C  C124  1  0.60380000  0.85769000  0.40943000  1.0
  C  C125  1  0.39620000  0.14230000  0.90943000  1.0
  C  C126  1  0.10380000  0.14231000  0.40943000  1.0
  C  C127  1  0.89620000  0.85769000  0.90943000  1.0
  C  C128  1  0.61072000  0.59386000  0.45313000  1.0
  C  C129  1  0.38929000  0.40614000  0.95314000  1.0
  C  C130  1  0.11072000  0.40614000  0.45313000  1.0
  C  C131  1  0.88928000  0.59386000  0.95313000  1.0
  C  C132  1  0.18353000  0.19160000  0.68118000  1.0
  C  C133  1  0.81647000  0.80839000  0.18118000  1.0
  C  C134  1  0.68353000  0.80840000  0.68118000  1.0
  C  C135  1  0.31647000  0.19161000  0.18118000  1.0
  C  C136  1  0.26172000  0.25415000  0.64550000  1.0
  C  C137  1  0.73829000  0.74585000  0.14551000  1.0
  C  C138  1  0.76171000  0.74585000  0.64550000  1.0
  C  C139  1  0.23829000  0.25415000  0.14550000  1.0
  C  C140  1  0.21812000  0.33803000  0.65180000  1.0
  C  C141  1  0.78189000  0.66197000  0.15181000  1.0
  C  C142  1  0.71811000  0.66197000  0.65180000  1.0
  C  C143  1  0.28188000  0.33803000  0.15180000  1.0
  C  C144  1  0.09195000  0.35942000  0.69149000  1.0
  C  C145  1  0.90806000  0.64057000  0.19149000  1.0
  C  C146  1  0.59194000  0.64058000  0.69149000  1.0
  C  C147  1  0.40805000  0.35943000  0.19149000  1.0
  C  C148  1  0.01093000  0.29629000  0.72460000  1.0
  C  C149  1  0.98908000  0.70371000  0.22460000  1.0
  C  C150  1  0.51092000  0.70372000  0.72460000  1.0
  C  C151  1  0.48907000  0.29629000  0.22460000  1.0
  C  C152  1  0.05697000  0.21261000  0.72057000  1.0
  C  C153  1  0.94304000  0.78739000  0.22057000  1.0
  C  C154  1  0.55696000  0.78739000  0.72056000  1.0
  C  C155  1  0.44304000  0.21261000  0.22057000  1.0
  C  C156  1  0.30836000  0.40442000  0.61592000  1.0
  C  C157  1  0.69164000  0.59558000  0.11593000  1.0
  C  C158  1  0.80835000  0.59558000  0.61593000  1.0
  C  C159  1  0.19164000  0.40442000  0.11592000  1.0
  C  C160  1  0.68778000  0.32995000  0.61115000  1.0
  C  C161  1  0.31221000  0.67005000  0.11115000  1.0
  C  C162  1  0.18778000  0.67005000  0.61115000  1.0
  C  C163  1  0.81221000  0.32995000  0.11115000  1.0
  C  C164  1  0.68829000  0.24431000  0.59599000  1.0
  C  C165  1  0.31171000  0.75569000  0.09599000  1.0
  C  C166  1  0.18829000  0.75569000  0.59599000  1.0
  C  C167  1  0.81171000  0.24431000  0.09599000  1.0
  C  C168  1  0.64049000  0.18682000  0.64638000  1.0
  C  C169  1  0.35951000  0.81319000  0.14638000  1.0
  C  C170  1  0.14048000  0.81319000  0.64638000  1.0
  C  C171  1  0.85951000  0.18682000  0.14638000  1.0
  C  C172  1  0.59487000  0.21530000  0.71151000  1.0
  C  C173  1  0.40513000  0.78470000  0.21151000  1.0
  C  C174  1  0.09487000  0.78470000  0.71151000  1.0
  C  C175  1  0.90513000  0.21530000  0.21151000  1.0
  C  C176  1  0.59680000  0.30067000  0.72642000  1.0
  C  C177  1  0.40320000  0.69933000  0.22643000  1.0
  C  C178  1  0.09679000  0.69933000  0.72642000  1.0
  C  C179  1  0.90320000  0.30067000  0.22642000  1.0
  C  C180  1  0.64279000  0.35811000  0.67664000  1.0
  C  C181  1  0.35722000  0.64189000  0.17664000  1.0
  C  C182  1  0.14278000  0.64189000  0.67663000  1.0
  C  C183  1  0.85722000  0.35811000  0.17664000  1.0
  C  C184  1  0.62950000  0.09488000  0.63187000  1.0
  C  C185  1  0.37050000  0.90512000  0.13187000  1.0
  C  C186  1  0.12951000  0.90512000  0.63187000  1.0
  C  C187  1  0.87049000  0.09488000  0.13187000  1.0
  C  C188  1  0.55570000  0.30880000  0.41182000  1.0
  C  C189  1  0.44430000  0.69120000  0.91182000  1.0
  C  C190  1  0.05570000  0.69121000  0.41182000  1.0
  C  C191  1  0.94430000  0.30879000  0.91182000  1.0
  C  C192  1  0.47432000  0.24526000  0.44448000  1.0
  C  C193  1  0.52568000  0.75474000  0.94448000  1.0
  C  C194  1  0.97432000  0.75474000  0.44448000  1.0
  C  C195  1  0.02568000  0.24526000  0.94448000  1.0
  C  C196  1  0.52339000  0.16217000  0.44018000  1.0
  C  C197  1  0.47661000  0.83783000  0.94018000  1.0
  C  C198  1  0.02339000  0.83783000  0.44018000  1.0
  C  C199  1  0.97661000  0.16217000  0.94018000  1.0
  C  C200  1  0.65699000  0.14234000  0.40551000  1.0
  C  C201  1  0.34302000  0.85766000  0.90551000  1.0
  C  C202  1  0.15699000  0.85767000  0.40551000  1.0
  C  C203  1  0.84301000  0.14233000  0.90551000  1.0
  C  C204  1  0.74168000  0.20681000  0.37637000  1.0
  C  C205  1  0.25832000  0.79320000  0.87637000  1.0
  C  C206  1  0.24168000  0.79319000  0.37637000  1.0
  C  C207  1  0.75832000  0.20680000  0.87637000  1.0
  C  C208  1  0.69156000  0.28969000  0.37912000  1.0
  C  C209  1  0.30843000  0.71031000  0.87912000  1.0
  C  C210  1  0.19157000  0.71031000  0.37912000  1.0
  C  C211  1  0.80843000  0.28969000  0.87912000  1.0
  C  C212  1  0.43199000  0.09498000  0.47414000  1.0
  C  C213  1  0.56802000  0.90502000  0.97414000  1.0
  C  C214  1  0.93199000  0.90503000  0.47414000  1.0
  C  C215  1  0.06801000  0.09498000  0.97414000  1.0
  N  N216  1  0.51589000  0.88973000  0.52588000  1.0
  N  N217  1  0.48411000  0.11027000  0.02589000  1.0
  N  N218  1  0.01590000  0.11027000  0.52589000  1.0
  N  N219  1  0.98411000  0.88973000  0.02588000  1.0
  N  N220  1  0.23061000  0.10588000  0.67427000  1.0
  N  N221  1  0.76939000  0.89411000  0.17427000  1.0
  N  N222  1  0.73061000  0.89411000  0.67427000  1.0
  N  N223  1  0.26939000  0.10589000  0.17427000  1.0
  N  N224  1  0.72525000  0.39198000  0.56014000  1.0
  N  N225  1  0.27475000  0.60802000  0.06015000  1.0
  N  N226  1  0.22525000  0.60802000  0.56014000  1.0
  N  N227  1  0.77475000  0.39198000  0.06015000  1.0
  N  N228  1  0.50520000  0.39385000  0.41563000  1.0
  N  N229  1  0.49479000  0.60615000  0.91564000  1.0
  N  N230  1  0.00521000  0.60615000  0.41563000  1.0
  N  N231  1  0.99479000  0.39385000  0.91563000  1.0
  O  O232  1  0.52444000  0.56630000  0.50241000  1.0
  O  O233  1  0.47556000  0.43370000  0.00242000  1.0
  O  O234  1  0.02444000  0.43370000  0.50242000  1.0
  O  O235  1  0.97556000  0.56630000  0.00242000  1.0
  O  O236  1  0.69793000  0.54794000  0.41845000  1.0
  O  O237  1  0.30208000  0.45206000  0.91845000  1.0
  O  O238  1  0.19791000  0.45206000  0.41845000  1.0
  O  O239  1  0.80208000  0.54794000  0.91845000  1.0
  O  O240  1  0.37303000  0.38106000  0.55918000  1.0
  O  O241  1  0.62697000  0.61894000  0.05919000  1.0
  O  O242  1  0.87303000  0.61894000  0.55919000  1.0
  O  O243  1  0.12697000  0.38106000  0.05918000  1.0
  O  O244  1  0.31743000  0.47663000  0.64167000  1.0
  O  O245  1  0.68257000  0.52337000  0.14167000  1.0
  O  O246  1  0.81742000  0.52337000  0.64168000  1.0
  O  O247  1  0.18257000  0.47663000  0.14167000  1.0
  O  O248  1  0.71535000  0.06569000  0.58313000  1.0
  O  O249  1  0.28464000  0.93431000  0.08313000  1.0
  O  O250  1  0.21536000  0.93431000  0.58313000  1.0
  O  O251  1  0.78463000  0.06569000  0.08313000  1.0
  O  O252  1  0.54099000  0.04999000  0.66687000  1.0
  O  O253  1  0.45901000  0.95001000  0.16688000  1.0
  O  O254  1  0.04099000  0.95002000  0.66687000  1.0
  O  O255  1  0.95901000  0.04999000  0.16687000  1.0
  O  O256  1  0.36515000  0.11771000  0.53044000  1.0
  O  O257  1  0.63486000  0.88229000  0.03045000  1.0
  O  O258  1  0.86515000  0.88230000  0.53045000  1.0
  O  O259  1  0.13485000  0.11770000  0.03045000  1.0
  O  O260  1  0.42499000  0.02315000  0.44750000  1.0
  O  O261  1  0.57501000  0.97685000  0.94751000  1.0
  O  O262  1  0.92499000  0.97685000  0.44751000  1.0
  O  O263  1  0.07501000  0.02314000  0.94750000  1.0
