# generated using pymatgen
data_ZnH28C30(NO)4
_symmetry_space_group_name_H-M   'P 1'
_cell_length_a   7.88188000
_cell_length_b   8.11056000
_cell_length_c   22.47410000
_cell_angle_alpha   88.31900000
_cell_angle_beta   82.61960000
_cell_angle_gamma   83.10820000
_symmetry_Int_Tables_number   1
_chemical_formula_structural   ZnH28C30(NO)4
_chemical_formula_sum   'Zn2 H56 C60 N8 O8'
_cell_volume   1414.35077190
_cell_formula_units_Z   2
loop_
 _symmetry_equiv_pos_site_id
 _symmetry_equiv_pos_as_xyz
  1  'x, y, z'
loop_
 _atom_site_type_symbol
 _atom_site_label
 _atom_site_symmetry_multiplicity
 _atom_site_fract_x
 _atom_site_fract_y
 _atom_site_fract_z
 _atom_site_occupancy
  Zn  Zn0  1  0.61574000  0.60034000  0.55700000  1.0
  Zn  Zn1  1  0.38426000  0.39966000  0.44300000  1.0
  H  H2  1  0.34105000  0.68152000  0.66702000  1.0
  H  H3  1  0.65895000  0.31848000  0.33298000  1.0
  H  H4  1  0.25871000  0.57621000  0.77253000  1.0
  H  H5  1  0.74130000  0.42380000  0.22747000  1.0
  H  H6  1  0.64292000  0.15473000  0.73202000  1.0
  H  H7  1  0.35708000  0.84527000  0.26798000  1.0
  H  H8  1  0.70666000  0.27765000  0.62938000  1.0
  H  H9  1  0.29333000  0.72235000  0.37061000  1.0
  H  H10  1  0.48439000  0.16907000  0.83067000  1.0
  H  H11  1  0.51563000  0.83094000  0.16933000  1.0
  H  H12  1  0.26320000  0.04531000  0.88379000  1.0
  H  H13  1  0.73682000  0.95468000  0.11621000  1.0
  H  H14  1  0.19330000  0.91400000  0.98218000  1.0
  H  H15  1  0.80673000  0.08600000  0.01783000  1.0
  H  H16  1  0.18803000  0.38484000  0.06694000  1.0
  H  H17  1  0.81196000  0.61517000  0.93306000  1.0
  H  H18  1  0.39479000  0.59419000  0.96888000  1.0
  H  H19  1  0.60522000  0.40582000  0.03111000  1.0
  H  H20  1  0.17955000  0.63494000  0.00482000  1.0
  H  H21  1  0.82046000  0.36507000  0.99517000  1.0
  H  H22  1  0.22336000  0.62311000  0.92490000  1.0
  H  H23  1  0.77665000  0.37688000  0.07510000  1.0
  H  H24  1  0.99794000  0.28528000  0.13156000  1.0
  H  H25  1  0.00206000  0.71472000  0.86844000  1.0
  H  H26  1  0.90865000  0.15097000  0.22814000  1.0
  H  H27  1  0.09135000  0.84903000  0.77186000  1.0
  H  H28  1  0.26668000  0.81714000  0.06731000  1.0
  H  H29  1  0.73333000  0.18287000  0.93269000  1.0
  H  H30  1  0.05884000  0.56306000  0.15600000  1.0
  H  H31  1  0.94116000  0.43695000  0.84400000  1.0
  H  H32  1  0.19409000  0.59484000  0.21029000  1.0
  H  H33  1  0.80591000  0.40516000  0.78971000  1.0
  H  H34  1  0.28198000  0.57618000  0.13288000  1.0
  H  H35  1  0.71802000  0.42381000  0.86713000  1.0
  H  H36  1  0.91960000  0.53124000  0.45553000  1.0
  H  H37  1  0.08040000  0.46876000  0.54447000  1.0
  H  H38  1  0.01119000  0.61901000  0.35143000  1.0
  H  H39  1  0.98879000  0.38098000  0.64856000  1.0
  H  H40  1  0.56900000  0.99749000  0.36876000  1.0
  H  H41  1  0.43101000  0.00251000  0.63124000  1.0
  H  H42  1  0.49856000  0.89476000  0.47215000  1.0
  H  H43  1  0.50143000  0.10525000  0.52785000  1.0
  H  H44  1  0.74215000  0.97279000  0.27386000  1.0
  H  H45  1  0.25786000  0.02722000  0.72614000  1.0
  H  H46  1  0.93497000  0.91291000  0.68234000  1.0
  H  H47  1  0.06501000  0.08710000  0.31767000  1.0
  H  H48  1  0.06544000  0.74286000  0.64282000  1.0
  H  H49  1  0.93455000  0.25715000  0.35719000  1.0
  H  H50  1  0.92588000  0.70609000  0.70947000  1.0
  H  H51  1  0.07411000  0.29391000  0.29054000  1.0
  H  H52  1  0.98778000  0.19044000  0.47927000  1.0
  H  H53  1  0.01221000  0.80955000  0.52074000  1.0
  H  H54  1  0.87048000  0.05474000  0.44303000  1.0
  H  H55  1  0.12951000  0.94525000  0.55697000  1.0
  H  H56  1  0.84976000  0.06415000  0.52316000  1.0
  H  H57  1  0.15022000  0.93584000  0.47684000  1.0
  C  C58  1  0.40358000  0.56569000  0.68396000  1.0
  C  C59  1  0.59641000  0.43430000  0.31604000  1.0
  C  C60  1  0.35906000  0.50762000  0.74188000  1.0
  C  C61  1  0.64094000  0.49237000  0.25812000  1.0
  C  C62  1  0.44589000  0.35781000  0.76102000  1.0
  C  C63  1  0.55411000  0.64218000  0.23898000  1.0
  C  C64  1  0.57291000  0.27261000  0.71993000  1.0
  C  C65  1  0.42710000  0.72739000  0.28006000  1.0
  C  C66  1  0.60920000  0.33996000  0.66269000  1.0
  C  C67  1  0.39079000  0.66004000  0.33731000  1.0
  C  C68  1  0.41042000  0.28975000  0.82169000  1.0
  C  C69  1  0.58959000  0.71025000  0.17831000  1.0
  C  C70  1  0.27064000  0.28928000  0.91894000  1.0
  C  C71  1  0.72938000  0.71072000  0.08106000  1.0
  C  C72  1  0.25404000  0.11830000  0.92431000  1.0
  C  C73  1  0.74598000  0.88169000  0.07569000  1.0
  C  C74  1  0.21406000  0.04445000  0.97991000  1.0
  C  C75  1  0.78596000  0.95556000  0.02010000  1.0
  C  C76  1  0.18943000  0.13823000  0.03269000  1.0
  C  C77  1  0.81058000  0.86178000  0.96732000  1.0
  C  C78  1  0.20554000  0.30906000  0.02679000  1.0
  C  C79  1  0.79446000  0.69096000  0.97321000  1.0
  C  C80  1  0.24384000  0.38710000  0.97128000  1.0
  C  C81  1  0.75617000  0.61291000  0.02871000  1.0
  C  C82  1  0.26082000  0.56973000  0.96739000  1.0
  C  C83  1  0.73918000  0.43028000  0.03261000  1.0
  C  C84  1  0.13816000  0.06062000  0.09134000  1.0
  C  C85  1  0.86184000  0.93938000  0.90866000  1.0
  C  C86  1  0.03675000  0.15292000  0.13789000  1.0
  C  C87  1  0.96326000  0.84708000  0.86211000  1.0
  C  C88  1  0.98276000  0.07681000  0.19194000  1.0
  C  C89  1  0.01724000  0.92319000  0.80806000  1.0
  C  C90  1  0.02632000  0.90538000  0.20174000  1.0
  C  C91  1  0.97369000  0.09462000  0.79826000  1.0
  C  C92  1  0.12927000  0.81006000  0.15562000  1.0
  C  C93  1  0.87074000  0.18993000  0.84438000  1.0
  C  C94  1  0.18398000  0.89021000  0.10207000  1.0
  C  C95  1  0.81603000  0.10979000  0.89793000  1.0
  C  C96  1  0.17001000  0.62598000  0.16402000  1.0
  C  C97  1  0.83000000  0.37402000  0.83598000  1.0
  C  C98  1  0.84486000  0.63414000  0.43500000  1.0
  C  C99  1  0.15514000  0.36586000  0.56499000  1.0
  C  C100  1  0.89646000  0.68372000  0.37654000  1.0
  C  C101  1  0.10354000  0.31628000  0.62346000  1.0
  C  C102  1  0.79713000  0.81556000  0.35066000  1.0
  C  C103  1  0.20287000  0.18445000  0.64934000  1.0
  C  C104  1  0.65151000  0.89363000  0.38575000  1.0
  C  C105  1  0.34849000  0.10638000  0.61425000  1.0
  C  C106  1  0.61069000  0.83593000  0.44397000  1.0
  C  C107  1  0.38931000  0.16407000  0.55603000  1.0
  C  C108  1  0.83960000  0.87771000  0.28961000  1.0
  C  C109  1  0.16040000  0.12229000  0.71039000  1.0
  C  C110  1  0.79221000  0.76464000  0.63348000  1.0
  C  C111  1  0.20777000  0.23535000  0.36653000  1.0
  C  C112  1  0.94062000  0.78379000  0.66858000  1.0
  C  C113  1  0.05936000  0.21621000  0.33142000  1.0
  C  C114  1  0.72037000  0.27396000  0.48315000  1.0
  C  C115  1  0.27963000  0.72604000  0.51685000  1.0
  C  C116  1  0.86614000  0.13630000  0.48118000  1.0
  C  C117  1  0.13384000  0.86368000  0.51882000  1.0
  N  N118  1  0.52672000  0.48382000  0.64475000  1.0
  N  N119  1  0.47327000  0.51617000  0.35524000  1.0
  N  N120  1  0.30446000  0.36679000  0.86298000  1.0
  N  N121  1  0.69554000  0.63320000  0.13702000  1.0
  N  N122  1  0.70280000  0.70753000  0.46850000  1.0
  N  N123  1  0.29720000  0.29248000  0.53150000  1.0
  N  N124  1  0.98124000  0.82780000  0.25670000  1.0
  N  N125  1  0.01875000  0.17220000  0.74329000  1.0
  O  O126  1  0.70363000  0.37001000  0.52761000  1.0
  O  O127  1  0.29638000  0.62999000  0.47239000  1.0
  O  O128  1  0.82397000  0.65285000  0.59210000  1.0
  O  O129  1  0.17602000  0.34715000  0.40790000  1.0
  O  O130  1  0.62312000  0.28151000  0.44167000  1.0
  O  O131  1  0.37687000  0.71848000  0.55833000  1.0
  O  O132  1  0.65032000  0.85092000  0.64646000  1.0
  O  O133  1  0.34966000  0.14906000  0.35356000  1.0
