# generated using pymatgen
data_CuH15C17N3O4
_symmetry_space_group_name_H-M   'P 1'
_cell_length_a   5.34058000
_cell_length_b   16.73250000
_cell_length_c   18.15198585
_cell_angle_alpha   98.47370551
_cell_angle_beta   98.46134435
_cell_angle_gamma   89.97750000
_symmetry_Int_Tables_number   1
_chemical_formula_structural   CuH15C17N3O4
_chemical_formula_sum   'Cu4 H60 C68 N12 O16'
_cell_volume   1586.53804676
_cell_formula_units_Z   4
loop_
 _symmetry_equiv_pos_site_id
 _symmetry_equiv_pos_as_xyz
  1  'x, y, z'
loop_
 _atom_site_type_symbol
 _atom_site_label
 _atom_site_symmetry_multiplicity
 _atom_site_fract_x
 _atom_site_fract_y
 _atom_site_fract_z
 _atom_site_occupancy
  Cu  Cu0  1  0.33658000  0.08937000  0.30474000  1.0
  Cu  Cu1  1  0.03178000  0.41080000  0.69531000  1.0
  Cu  Cu2  1  0.66341000  0.91063000  0.69525000  1.0
  Cu  Cu3  1  0.96823000  0.58920000  0.30469000  1.0
  H  H4  1  0.53893000  0.15641000  0.44571000  1.0
  H  H5  1  0.09367000  0.34379000  0.55445000  1.0
  H  H6  1  0.46106000  0.84359000  0.55429000  1.0
  H  H7  1  0.90635000  0.65621000  0.44556000  1.0
  H  H8  1  0.33894000  0.30756000  0.31596000  1.0
  H  H9  1  0.02274000  0.19214000  0.68418000  1.0
  H  H10  1  0.66104000  0.69244000  0.68404000  1.0
  H  H11  1  0.97725000  0.80784000  0.31583000  1.0
  H  H12  1  0.18985000  0.35095000  0.39429000  1.0
  H  H13  1  0.79504000  0.14888000  0.60591000  1.0
  H  H14  1  0.81018000  0.64906000  0.60572000  1.0
  H  H15  1  0.20498000  0.85111000  0.39410000  1.0
  H  H16  1  0.09569000  0.38217000  0.30464000  1.0
  H  H17  1  0.79036000  0.11781000  0.69560000  1.0
  H  H18  1  0.90428000  0.61783000  0.69536000  1.0
  H  H19  1  0.20962000  0.88219000  0.30441000  1.0
  H  H20  1  0.14422000  0.29794000  0.19297000  1.0
  H  H21  1  0.95118000  0.20205000  0.80713000  1.0
  H  H22  1  0.85578000  0.70207000  0.80704000  1.0
  H  H23  1  0.04880000  0.79795000  0.19288000  1.0
  H  H24  1  0.96362000  0.23361000  0.06520000  1.0
  H  H25  1  0.89859000  0.26654000  0.93490000  1.0
  H  H26  1  0.03637000  0.76640000  0.93481000  1.0
  H  H27  1  0.10139000  0.73346000  0.06511000  1.0
  H  H28  1  0.60229000  0.13478000  0.04599000  1.0
  H  H29  1  0.55640000  0.36539000  0.95405000  1.0
  H  H30  1  0.39768000  0.86524000  0.95401000  1.0
  H  H31  1  0.44359000  0.63461000  0.04596000  1.0
  H  H32  1  0.29970000  0.07084000  0.08882000  1.0
  H  H33  1  0.21043000  0.42927000  0.91126000  1.0
  H  H34  1  0.70025000  0.92917000  0.91118000  1.0
  H  H35  1  0.78957000  0.57072000  0.08874000  1.0
  H  H36  1  0.20625000  0.96379000  0.06055000  1.0
  H  H37  1  0.14525000  0.53638000  0.93945000  1.0
  H  H38  1  0.79371000  0.03622000  0.93944000  1.0
  H  H39  1  0.85475000  0.46363000  0.06055000  1.0
  H  H40  1  0.88152000  0.86384000  0.00210000  1.0
  H  H41  1  0.87841000  0.63614000  0.99791000  1.0
  H  H42  1  0.11848000  0.13617000  0.99788000  1.0
  H  H43  1  0.12160000  0.36386000  0.00208000  1.0
  H  H44  1  0.53934000  0.82757000  0.07459000  1.0
  H  H45  1  0.46354000  0.67234000  0.92549000  1.0
  H  H46  1  0.46067000  0.17242000  0.92540000  1.0
  H  H47  1  0.53647000  0.32767000  0.07451000  1.0
  H  H48  1  0.54833000  0.89533000  0.20624000  1.0
  H  H49  1  0.34088000  0.60460000  0.79385000  1.0
  H  H50  1  0.45170000  0.10466000  0.79376000  1.0
  H  H51  1  0.65913000  0.39540000  0.20615000  1.0
  H  H52  1  0.34960000  0.05534000  0.55686000  1.0
  H  H53  1  0.79328000  0.44484000  0.44317000  1.0
  H  H54  1  0.65040000  0.94466000  0.44314000  1.0
  H  H55  1  0.20677000  0.55517000  0.55683000  1.0
  H  H56  1  0.04154000  0.09155000  0.54504000  1.0
  H  H57  1  0.49730000  0.40859000  0.45489000  1.0
  H  H58  1  0.95845000  0.90845000  0.45495000  1.0
  H  H59  1  0.50273000  0.59142000  0.54510000  1.0
  H  H60  1  0.30595000  0.16115000  0.56150000  1.0
  H  H61  1  0.74564000  0.33899000  0.43853000  1.0
  H  H62  1  0.69407000  0.83884000  0.43850000  1.0
  H  H63  1  0.25441000  0.66101000  0.56147000  1.0
  C  C64  1  0.16057000  0.33091000  0.33343000  1.0
  C  C65  1  0.82675000  0.16897000  0.66674000  1.0
  C  C66  1  0.83941000  0.66909000  0.66657000  1.0
  C  C67  1  0.17326000  0.83102000  0.33326000  1.0
  C  C68  1  0.88666000  0.23706000  0.24810000  1.0
  C  C69  1  0.63859000  0.26301000  0.75200000  1.0
  C  C70  1  0.11336000  0.76293000  0.75191000  1.0
  C  C71  1  0.36144000  0.73700000  0.24800000  1.0
  C  C72  1  0.98547000  0.25534000  0.18615000  1.0
  C  C73  1  0.79941000  0.24474000  0.81394000  1.0
  C  C74  1  0.01454000  0.74465000  0.81386000  1.0
  C  C75  1  0.20060000  0.75527000  0.18606000  1.0
  C  C76  1  0.88212000  0.21796000  0.11291000  1.0
  C  C77  1  0.76944000  0.28223000  0.88716000  1.0
  C  C78  1  0.11789000  0.78204000  0.88710000  1.0
  C  C79  1  0.23056000  0.71778000  0.11284000  1.0
  C  C80  1  0.68121000  0.16395000  0.10241000  1.0
  C  C81  1  0.57904000  0.33630000  0.89762000  1.0
  C  C82  1  0.31878000  0.83606000  0.89759000  1.0
  C  C83  1  0.42094000  0.66370000  0.10238000  1.0
  C  C84  1  0.57330000  0.14390000  0.16498000  1.0
  C  C85  1  0.40845000  0.35632000  0.83508000  1.0
  C  C86  1  0.42668000  0.85611000  0.83502000  1.0
  C  C87  1  0.59153000  0.64368000  0.16492000  1.0
  C  C88  1  0.67738000  0.18045000  0.23950000  1.0
  C  C89  1  0.43800000  0.31973000  0.76056000  1.0
  C  C90  1  0.32260000  0.81955000  0.76050000  1.0
  C  C91  1  0.56201000  0.68027000  0.23945000  1.0
  C  C92  1  0.36527000  0.08784000  0.14915000  1.0
  C  C93  1  0.21595000  0.41231000  0.85094000  1.0
  C  C94  1  0.63470000  0.91218000  0.85085000  1.0
  C  C95  1  0.78405000  0.58768000  0.14907000  1.0
  C  C96  1  0.05962000  0.99339000  0.16640000  1.0
  C  C97  1  0.89257000  0.50666000  0.83362000  1.0
  C  C98  1  0.94035000  0.00661000  0.83359000  1.0
  C  C99  1  0.10745000  0.49334000  0.16638000  1.0
  C  C100  1  0.05684000  0.95206000  0.09252000  1.0
  C  C101  1  0.96366000  0.54802000  0.90750000  1.0
  C  C102  1  0.94316000  0.04795000  0.90747000  1.0
  C  C103  1  0.03634000  0.45198000  0.09249000  1.0
  C  C104  1  0.87262000  0.89412000  0.05908000  1.0
  C  C105  1  0.81261000  0.60588000  0.94094000  1.0
  C  C106  1  0.12738000  0.10589000  0.94091000  1.0
  C  C107  1  0.18738000  0.39411000  0.05906000  1.0
  C  C108  1  0.68358000  0.87381000  0.09899000  1.0
  C  C109  1  0.58349000  0.62611000  0.90108000  1.0
  C  C110  1  0.31642000  0.12618000  0.90101000  1.0
  C  C111  1  0.41649000  0.37388000  0.09892000  1.0
  C  C112  1  0.68879000  0.91124000  0.17275000  1.0
  C  C113  1  0.51502000  0.58870000  0.82731000  1.0
  C  C114  1  0.31122000  0.08876000  0.82725000  1.0
  C  C115  1  0.48498000  0.41130000  0.17269000  1.0
  C  C116  1  0.87372000  0.96973000  0.20838000  1.0
  C  C117  1  0.66457000  0.53026000  0.79165000  1.0
  C  C118  1  0.12625000  0.03027000  0.79161000  1.0
  C  C119  1  0.33544000  0.46975000  0.20835000  1.0
  C  C120  1  0.84860000  0.99657000  0.29010000  1.0
  C  C121  1  0.55798000  0.50348000  0.70990000  1.0
  C  C122  1  0.15141000  0.00342000  0.70990000  1.0
  C  C123  1  0.44203000  0.49652000  0.29009000  1.0
  C  C124  1  0.22906000  0.09408000  0.44986000  1.0
  C  C125  1  0.77954000  0.40609000  0.55016000  1.0
  C  C126  1  0.77093000  0.90592000  0.55014000  1.0
  C  C127  1  0.22049000  0.59391000  0.44984000  1.0
  C  C128  1  0.23194000  0.10179000  0.53264000  1.0
  C  C129  1  0.70006000  0.39835000  0.46736000  1.0
  C  C130  1  0.76804000  0.89821000  0.46736000  1.0
  C  C131  1  0.29999000  0.60166000  0.53265000  1.0
  N  N132  1  0.24671000  0.05460000  0.19614000  1.0
  N  N133  1  0.05017000  0.44548000  0.80391000  1.0
  N  N134  1  0.75327000  0.94541000  0.80385000  1.0
  N  N135  1  0.94983000  0.55452000  0.19609000  1.0
  N  N136  1  0.05727000  0.03328000  0.33099000  1.0
  N  N137  1  0.72595000  0.46684000  0.66902000  1.0
  N  N138  1  0.94274000  0.96671000  0.66901000  1.0
  N  N139  1  0.27407000  0.53316000  0.33098000  1.0
  N  N140  1  0.39048000  0.12325000  0.41429000  1.0
  N  N141  1  0.97645000  0.37694000  0.58580000  1.0
  N  N142  1  0.60949000  0.87674000  0.58570000  1.0
  N  N143  1  0.02354000  0.62305000  0.41420000  1.0
  O  O144  1  0.96901000  0.26891000  0.32105000  1.0
  O  O145  1  0.64787000  0.23113000  0.67906000  1.0
  O  O146  1  0.03099000  0.73109000  0.67895000  1.0
  O  O147  1  0.35212000  0.76888000  0.32093000  1.0
  O  O148  1  0.59375000  0.16729000  0.30008000  1.0
  O  O149  1  0.29381000  0.33289000  0.69996000  1.0
  O  O150  1  0.40623000  0.83271000  0.69992000  1.0
  O  O151  1  0.70619000  0.66712000  0.30005000  1.0
  O  O152  1  0.65199000  0.97910000  0.31550000  1.0
  O  O153  1  0.33593000  0.52095000  0.68448000  1.0
  O  O154  1  0.34803000  0.02089000  0.68450000  1.0
  O  O155  1  0.66408000  0.47904000  0.31552000  1.0
  O  O156  1  0.03284000  0.04891000  0.41005000  1.0
  O  O157  1  0.62278000  0.45125000  0.58992000  1.0
  O  O158  1  0.96714000  0.95108000  0.58994000  1.0
  O  O159  1  0.37724000  0.54875000  0.41008000  1.0
