# generated using pymatgen
data_NdH2C7O6
_symmetry_space_group_name_H-M   'P 1'
_cell_length_a   7.35632000
_cell_length_b   8.86964000
_cell_length_c   9.83301000
_cell_angle_alpha   90.00000000
_cell_angle_beta   90.00010000
_cell_angle_gamma   89.87350000
_symmetry_Int_Tables_number   1
_chemical_formula_structural   NdH2C7O6
_chemical_formula_sum   'Nd4 H8 C28 O24'
_cell_volume   641.58178902
_cell_formula_units_Z   4
loop_
 _symmetry_equiv_pos_site_id
 _symmetry_equiv_pos_as_xyz
  1  'x, y, z'
loop_
 _atom_site_type_symbol
 _atom_site_label
 _atom_site_symmetry_multiplicity
 _atom_site_fract_x
 _atom_site_fract_y
 _atom_site_fract_z
 _atom_site_occupancy
  Nd  Nd0  1  0.14857000  0.67618000  0.25000000  1.0
  Nd  Nd1  1  0.35193000  0.17619000  0.75000000  1.0
  Nd  Nd2  1  0.85137000  0.32387000  0.75000000  1.0
  Nd  Nd3  1  0.64810000  0.82373000  0.25000000  1.0
  H  H4  1  0.03913000  0.09338000  0.47045000  1.0
  H  H5  1  0.45870000  0.59273000  0.52967000  1.0
  H  H6  1  0.96097000  0.90670000  0.97044000  1.0
  H  H7  1  0.54117000  0.40713000  0.02967000  1.0
  H  H8  1  0.96097000  0.90670000  0.52956000  1.0
  H  H9  1  0.54117000  0.40713000  0.47034000  1.0
  H  H10  1  0.03913000  0.09338000  0.02954000  1.0
  H  H11  1  0.45870000  0.59273000  0.97033000  1.0
  C  C12  1  0.14134000  0.38978000  0.48574000  1.0
  C  C13  1  0.35855000  0.89004000  0.51442000  1.0
  C  C14  1  0.85859000  0.61033000  0.98576000  1.0
  C  C15  1  0.64153000  0.10990000  0.01443000  1.0
  C  C16  1  0.85858000  0.61033000  0.51424000  1.0
  C  C17  1  0.64153000  0.10990000  0.48558000  1.0
  C  C18  1  0.14134000  0.38978000  0.01425000  1.0
  C  C19  1  0.35855000  0.89004000  0.98558000  1.0
  C  C20  1  0.08654000  0.29738000  0.37113000  1.0
  C  C21  1  0.41444000  0.79754000  0.62888000  1.0
  C  C22  1  0.91336000  0.70272000  0.87112000  1.0
  C  C23  1  0.58565000  0.20237000  0.12888000  1.0
  C  C24  1  0.91336000  0.70273000  0.62888000  1.0
  C  C25  1  0.58565000  0.20237000  0.37112000  1.0
  C  C26  1  0.08654000  0.29738000  0.12887000  1.0
  C  C27  1  0.41444000  0.79755000  0.87112000  1.0
  C  C28  1  0.04265000  0.14762000  0.37192000  1.0
  C  C29  1  0.45697000  0.64734000  0.62808000  1.0
  C  C30  1  0.95733000  0.85246000  0.87192000  1.0
  C  C31  1  0.54300000  0.35253000  0.12807000  1.0
  C  C32  1  0.95733000  0.85246000  0.62808000  1.0
  C  C33  1  0.54300000  0.35253000  0.37193000  1.0
  C  C34  1  0.04264000  0.14763000  0.12808000  1.0
  C  C35  1  0.45697000  0.64734000  0.87192000  1.0
  C  C36  1  0.01639000  0.06485000  0.25000000  1.0
  C  C37  1  0.48316000  0.56450000  0.75000000  1.0
  C  C38  1  0.98362000  0.93525000  0.75000000  1.0
  C  C39  1  0.51678000  0.43539000  0.25000000  1.0
  O  O40  1  0.09641000  0.37698000  0.25000000  1.0
  O  O41  1  0.40647000  0.87737000  0.75000000  1.0
  O  O42  1  0.90342000  0.62312000  0.75000000  1.0
  O  O43  1  0.59370000  0.12254000  0.25000000  1.0
  O  O44  1  0.18534000  0.52594000  0.46069000  1.0
  O  O45  1  0.31488000  0.02636000  0.53965000  1.0
  O  O46  1  0.81463000  0.47417000  0.96068000  1.0
  O  O47  1  0.68517000  0.97357000  0.03966000  1.0
  O  O48  1  0.81463000  0.47417000  0.53932000  1.0
  O  O49  1  0.68517000  0.97357000  0.46034000  1.0
  O  O50  1  0.18534000  0.52594000  0.03931000  1.0
  O  O51  1  0.31488000  0.02637000  0.96035000  1.0
  O  O52  1  0.14560000  0.33152000  0.60766000  1.0
  O  O53  1  0.35359000  0.83168000  0.39260000  1.0
  O  O54  1  0.85443000  0.66855000  0.10768000  1.0
  O  O55  1  0.64651000  0.16827000  0.89259000  1.0
  O  O56  1  0.85443000  0.66855000  0.39232000  1.0
  O  O57  1  0.64651000  0.16827000  0.60741000  1.0
  O  O58  1  0.14560000  0.33152000  0.89234000  1.0
  O  O59  1  0.35359000  0.83169000  0.10740000  1.0
  O  O60  1  0.97683000  0.91965000  0.25000000  1.0
  O  O61  1  0.52271000  0.41916000  0.75000000  1.0
  O  O62  1  0.02325000  0.08044000  0.75000000  1.0
  O  O63  1  0.47719000  0.58073000  0.25000000  1.0
