# generated using pymatgen
data_Zn3H12C26(IO6)2
_symmetry_space_group_name_H-M   'P 1'
_cell_length_a   18.51380000
_cell_length_b   18.53420000
_cell_length_c   20.71162778
_cell_angle_alpha   63.44661798
_cell_angle_beta   63.45097604
_cell_angle_gamma   90.02250000
_symmetry_Int_Tables_number   1
_chemical_formula_structural   Zn3H12C26(IO6)2
_chemical_formula_sum   'Zn6 H24 C52 I4 O24'
_cell_volume   5506.07769897
_cell_formula_units_Z   2
loop_
 _symmetry_equiv_pos_site_id
 _symmetry_equiv_pos_as_xyz
  1  'x, y, z'
loop_
 _atom_site_type_symbol
 _atom_site_label
 _atom_site_symmetry_multiplicity
 _atom_site_fract_x
 _atom_site_fract_y
 _atom_site_fract_z
 _atom_site_occupancy
  Zn  Zn0  1  0.57007000  0.50000000  0.00001000  1.0
  Zn  Zn1  1  0.45940000  0.95941000  0.08120000  1.0
  Zn  Zn2  1  0.54065000  0.04058000  0.91879000  1.0
  Zn  Zn3  1  0.42988000  0.50001000  0.99999000  1.0
  Zn  Zn4  1  0.00018000  0.07012000  0.00001000  1.0
  Zn  Zn5  1  0.00019000  0.92987000  1.00000000  1.0
  H  H6  1  0.64729000  0.90138000  0.50751000  1.0
  H  H7  1  0.17070000  0.08954000  0.49248000  1.0
  H  H8  1  0.18559000  0.18142000  0.40185000  1.0
  H  H9  1  0.27123000  0.13811000  0.40211000  1.0
  H  H10  1  0.57626000  0.80672000  0.59817000  1.0
  H  H11  1  0.65749000  0.85835000  0.59788000  1.0
  H  H12  1  0.15313000  0.40781000  0.49253000  1.0
  H  H13  1  0.25371000  0.45569000  0.40215000  1.0
  H  H14  1  0.17334000  0.40349000  0.40187000  1.0
  H  H15  1  0.66140000  0.58292000  0.50749000  1.0
  H  H16  1  0.67158000  0.54057000  0.59785000  1.0
  H  H17  1  0.58613000  0.58450000  0.59814000  1.0
  H  H18  1  0.57019000  0.74627000  0.49108000  1.0
  H  H19  1  0.64186000  0.84051000  0.40084000  1.0
  H  H20  1  0.64611000  0.74484000  0.40081000  1.0
  H  H21  1  0.06140000  0.23535000  0.50893000  1.0
  H  H22  1  0.04751000  0.14400000  0.59919000  1.0
  H  H23  1  0.04224000  0.23965000  0.59919000  1.0
  H  H24  1  0.93049000  0.75409000  0.50817000  1.0
  H  H25  1  0.85490000  0.75562000  0.59864000  1.0
  H  H26  1  0.85914000  0.65962000  0.59863000  1.0
  H  H27  1  0.43860000  0.26427000  0.49182000  1.0
  H  H28  1  0.45829000  0.25998000  0.40134000  1.0
  H  H29  1  0.45299000  0.35592000  0.40136000  1.0
  C  C30  1  0.49999000  0.63974000  0.99998000  1.0
  C  C31  1  0.33693000  0.33684000  0.32629000  1.0
  C  C32  1  0.07457000  0.21169000  0.56059000  1.0
  C  C33  1  0.86592000  0.72633000  0.56029000  1.0
  C  C34  1  0.42619000  0.28821000  0.43970000  1.0
  C  C35  1  0.66322000  0.66308000  0.67371000  1.0
  C  C36  1  0.83678000  0.83691000  0.32613000  1.0
  C  C37  1  0.16290000  0.16306000  0.67389000  1.0
  C  C38  1  0.49999000  0.71748000  0.99996000  1.0
  C  C39  1  0.49998000  0.28253000  0.00001000  1.0
  C  C40  1  0.50003000  0.36026000  0.00001000  1.0
  C  C41  1  0.49993000  0.78303000  0.00004000  1.0
  C  C42  1  0.50004000  0.21697000  0.99995000  1.0
  C  C43  1  0.13985000  0.99999000  0.99999000  1.0
  C  C44  1  0.91943000  0.91949000  0.16080000  1.0
  C  C45  1  0.08027000  0.08043000  0.83922000  1.0
  C  C46  1  0.86037000  0.00003000  0.99999000  1.0
  C  C47  1  0.36096000  0.00003000  0.99990000  1.0
  C  C48  1  0.50000000  0.86062000  0.00007000  1.0
  C  C49  1  0.50011000  0.13936000  0.99994000  1.0
  C  C50  1  0.58029000  0.58036000  0.83909000  1.0
  C  C51  1  0.41943000  0.41958000  0.16092000  1.0
  C  C52  1  0.63922000  0.99999000  0.00007000  1.0
  C  C53  1  0.21765000  0.00002000  0.99999000  1.0
  C  C54  1  0.28332000  0.00003000  0.99993000  1.0
  C  C55  1  0.78256000  0.00001000  0.99997000  1.0
  C  C56  1  0.69453000  0.76097000  0.47189000  1.0
  C  C57  1  0.71687000  1.00000000  0.00004000  1.0
  C  C58  1  0.79550000  0.82437000  0.47275000  1.0
  C  C59  1  0.26760000  0.29745000  0.52728000  1.0
  C  C60  1  0.80075000  0.70600000  0.47269000  1.0
  C  C61  1  0.27411000  0.17912000  0.52728000  1.0
  C  C62  1  0.16648000  0.23210000  0.52814000  1.0
  C  C63  1  0.69819000  0.79455000  0.52820000  1.0
  C  C64  1  0.22578000  0.32231000  0.47184000  1.0
  C  C65  1  0.70355000  0.67417000  0.52814000  1.0
  C  C66  1  0.23241000  0.20197000  0.47184000  1.0
  C  C67  1  0.62507000  0.62503000  0.74971000  1.0
  C  C68  1  0.37478000  0.37485000  0.25030000  1.0
  C  C69  1  0.87447000  0.87483000  0.25022000  1.0
  C  C70  1  0.12471000  0.12511000  0.74980000  1.0
  C  C71  1  0.80603000  0.73876000  0.52876000  1.0
  C  C72  1  0.33480000  0.26827000  0.47123000  1.0
  C  C73  1  0.70748000  0.70713000  0.58582000  1.0
  C  C74  1  0.29336000  0.29294000  0.41418000  1.0
  C  C75  1  0.79345000  0.79314000  0.41381000  1.0
  C  C76  1  0.20726000  0.20696000  0.58622000  1.0
  C  C77  1  0.64167000  0.84273000  0.55966000  1.0
  C  C78  1  0.20003000  0.40149000  0.44039000  1.0
  C  C79  1  0.65284000  0.59115000  0.55963000  1.0
  C  C80  1  0.21393000  0.15008000  0.44034000  1.0
  C  C81  1  0.63506000  0.77383000  0.43943000  1.0
  I  I82  1  0.86741000  0.94204000  0.42855000  1.0
  I  I83  1  0.29438000  0.37144000  0.57145000  1.0
  I  I84  1  0.88100000  0.63739000  0.42844000  1.0
  I  I85  1  0.31109000  0.06690000  0.57155000  1.0
  O  O86  1  0.56183000  0.60942000  0.00001000  1.0
  O  O87  1  0.43820000  0.39061000  0.99999000  1.0
  O  O88  1  0.43813000  0.60942000  0.99996000  1.0
  O  O89  1  0.62404000  0.56237000  0.87511000  1.0
  O  O90  1  0.49922000  0.43759000  0.12492000  1.0
  O  O91  1  0.50051000  0.56243000  0.87502000  1.0
  O  O92  1  0.37563000  0.43759000  0.12496000  1.0
  O  O93  1  0.56190000  0.39056000  0.00002000  1.0
  O  O94  1  0.10955000  0.06178000  0.99998000  1.0
  O  O95  1  0.10954000  0.93816000  0.00001000  1.0
  O  O96  1  0.93743000  0.99913000  0.12491000  1.0
  O  O97  1  0.06240000  0.12421000  0.87510000  1.0
  O  O98  1  0.93745000  0.87570000  0.12493000  1.0
  O  O99  1  0.06243000  0.00079000  0.87510000  1.0
  O  O100  1  0.89065000  0.06187000  0.99998000  1.0
  O  O101  1  0.89065000  0.93824000  0.00001000  1.0
  O  O102  1  0.42722000  0.03570000  0.92854000  1.0
  O  O103  1  0.35584000  0.96436000  0.07126000  1.0
  O  O104  1  0.53573000  0.92681000  0.92872000  1.0
  O  O105  1  0.46436000  0.85547000  0.07143000  1.0
  O  O106  1  0.53585000  0.14452000  0.92858000  1.0
  O  O107  1  0.46446000  0.07317000  0.07129000  1.0
  O  O108  1  0.64435000  0.03564000  0.92871000  1.0
  O  O109  1  0.57297000  0.96431000  0.07144000  1.0
