# generated using pymatgen
data_DyH11C16(NO7)2
_symmetry_space_group_name_H-M   'P 1'
_cell_length_a   9.10891000
_cell_length_b   10.02840000
_cell_length_c   12.53084070
_cell_angle_alpha   95.98665584
_cell_angle_beta   108.53649281
_cell_angle_gamma   111.48300000
_symmetry_Int_Tables_number   1
_chemical_formula_structural   DyH11C16(NO7)2
_chemical_formula_sum   'Dy2 H22 C32 N4 O28'
_cell_volume   977.76720402
_cell_formula_units_Z   2
loop_
 _symmetry_equiv_pos_site_id
 _symmetry_equiv_pos_as_xyz
  1  'x, y, z'
loop_
 _atom_site_type_symbol
 _atom_site_label
 _atom_site_symmetry_multiplicity
 _atom_site_fract_x
 _atom_site_fract_y
 _atom_site_fract_z
 _atom_site_occupancy
  Dy  Dy0  1  0.73304000  0.97043000  0.53250000  1.0
  Dy  Dy1  1  0.26696000  0.02957000  0.46750000  1.0
  H  H2  1  0.63824000  0.71382000  0.75203000  1.0
  H  H3  1  0.36174000  0.28617000  0.24797000  1.0
  H  H4  1  0.86515000  0.18454000  0.76380000  1.0
  H  H5  1  0.13485000  0.81546000  0.23619000  1.0
  H  H6  1  0.67998000  0.18072000  0.68831000  1.0
  H  H7  1  0.32003000  0.81929000  0.31169000  1.0
  H  H8  1  0.07833000  0.02192000  0.69402000  1.0
  H  H9  1  0.92167000  0.97808000  0.30598000  1.0
  H  H10  1  0.95272000  0.91164000  0.73939000  1.0
  H  H11  1  0.04728000  0.08836000  0.26061000  1.0
  H  H12  1  0.29304000  0.58295000  0.17724000  1.0
  H  H13  1  0.70697000  0.41706000  0.82277000  1.0
  H  H14  1  0.33232000  0.52006000  0.84357000  1.0
  H  H15  1  0.66767000  0.47992000  0.15643000  1.0
  H  H16  1  0.70915000  0.90548000  0.11786000  1.0
  H  H17  1  0.29086000  0.09452000  0.88215000  1.0
  H  H18  1  0.07413000  0.63780000  0.35841000  1.0
  H  H19  1  0.92586000  0.36219000  0.64158000  1.0
  H  H20  1  0.77232000  0.17120000  0.30717000  1.0
  H  H21  1  0.22767000  0.82880000  0.69282000  1.0
  H  H22  1  0.63456000  0.49671000  0.45076000  1.0
  H  H23  1  0.36544000  0.50329000  0.54924000  1.0
  C  C24  1  0.51086000  0.75268000  0.16185000  1.0
  C  C25  1  0.48915000  0.24733000  0.83816000  1.0
  C  C26  1  0.35871000  0.62334000  0.12035000  1.0
  C  C27  1  0.64129000  0.37665000  0.87965000  1.0
  C  C28  1  0.29634000  0.54418000  0.00549000  1.0
  C  C29  1  0.70367000  0.45583000  0.99452000  1.0
  C  C30  1  0.38175000  0.58747000  0.93157000  1.0
  C  C31  1  0.61824000  0.41252000  0.06843000  1.0
  C  C32  1  0.53029000  0.71973000  0.97284000  1.0
  C  C33  1  0.46971000  0.28026000  0.02716000  1.0
  C  C34  1  0.59359000  0.80252000  0.08734000  1.0
  C  C35  1  0.40642000  0.19748000  0.91267000  1.0
  C  C36  1  0.58504000  0.83541000  0.28627000  1.0
  C  C37  1  0.41496000  0.16459000  0.71373000  1.0
  C  C38  1  0.62000000  0.77917000  0.89510000  1.0
  C  C39  1  0.37999000  0.22081000  0.10490000  1.0
  C  C40  1  0.85752000  0.58313000  0.40915000  1.0
  C  C41  1  0.14248000  0.41687000  0.59085000  1.0
  C  C42  1  0.96476000  0.54968000  0.36348000  1.0
  C  C43  1  0.03524000  0.45033000  0.63652000  1.0
  C  C44  1  0.92754000  0.40142000  0.32421000  1.0
  C  C45  1  0.07246000  0.59858000  0.67579000  1.0
  C  C46  1  0.79272000  0.28556000  0.33363000  1.0
  C  C47  1  0.20728000  0.71445000  0.66637000  1.0
  C  C48  1  0.68859000  0.32112000  0.38133000  1.0
  C  C49  1  0.31141000  0.67888000  0.61867000  1.0
  C  C50  1  0.71759000  0.46894000  0.41546000  1.0
  C  C51  1  0.28241000  0.53106000  0.58454000  1.0
  C  C52  1  0.89539000  0.74168000  0.45529000  1.0
  C  C53  1  0.10461000  0.25832000  0.54471000  1.0
  C  C54  1  0.54789000  0.20436000  0.40087000  1.0
  C  C55  1  0.45212000  0.79564000  0.59913000  1.0
  N  N56  1  0.04165000  0.36609000  0.27820000  1.0
  N  N57  1  0.95835000  0.63391000  0.72180000  1.0
  N  N58  1  0.13545000  0.40937000  0.96118000  1.0
  N  N59  1  0.86455000  0.59063000  0.03883000  1.0
  O  O60  1  0.49874000  0.79793000  0.34969000  1.0
  O  O61  1  0.50126000  0.20207000  0.65031000  1.0
  O  O62  1  0.73465000  0.94136000  0.32975000  1.0
  O  O63  1  0.26535000  0.05865000  0.67025000  1.0
  O  O64  1  0.69617000  0.91168000  0.90530000  1.0
  O  O65  1  0.30386000  0.08833000  0.09471000  1.0
  O  O66  1  0.60357000  0.67044000  0.81324000  1.0
  O  O67  1  0.39641000  0.32955000  0.18675000  1.0
  O  O68  1  0.09261000  0.33171000  0.86220000  1.0
  O  O69  1  0.90739000  0.66830000  0.13781000  1.0
  O  O70  1  0.05065000  0.38001000  0.02212000  1.0
  O  O71  1  0.94936000  0.61999000  0.97789000  1.0
  O  O72  1  0.78865000  0.76535000  0.48944000  1.0
  O  O73  1  0.21135000  0.23466000  0.51056000  1.0
  O  O74  1  0.03286000  0.84112000  0.45852000  1.0
  O  O75  1  0.96715000  0.15889000  0.54149000  1.0
  O  O76  1  0.40488000  0.21263000  0.37641000  1.0
  O  O77  1  0.59512000  0.78737000  0.62359000  1.0
  O  O78  1  0.57369000  0.10263000  0.44564000  1.0
  O  O79  1  0.42632000  0.89738000  0.55436000  1.0
  O  O80  1  0.98613000  0.23858000  0.21716000  1.0
  O  O81  1  0.01386000  0.76142000  0.78284000  1.0
  O  O82  1  0.18718000  0.46409000  0.30376000  1.0
  O  O83  1  0.81282000  0.53591000  0.69623000  1.0
  O  O84  1  0.76719000  0.14300000  0.68911000  1.0
  O  O85  1  0.23281000  0.85701000  0.31088000  1.0
  O  O86  1  0.96719000  0.99501000  0.70307000  1.0
  O  O87  1  0.03280000  0.00499000  0.29693000  1.0
