# generated using pymatgen
data_FeH24C18(SN7)2
_symmetry_space_group_name_H-M   'P 1'
_cell_length_a   8.32852000
_cell_length_b   8.79499000
_cell_length_c   16.65350000
_cell_angle_alpha   89.99030000
_cell_angle_beta   89.99960000
_cell_angle_gamma   110.28300000
_symmetry_Int_Tables_number   1
_chemical_formula_structural   FeH24C18(SN7)2
_chemical_formula_sum   'Fe2 H48 C36 S4 N28'
_cell_volume   1144.21530685
_cell_formula_units_Z   2
loop_
 _symmetry_equiv_pos_site_id
 _symmetry_equiv_pos_as_xyz
  1  'x, y, z'
loop_
 _atom_site_type_symbol
 _atom_site_label
 _atom_site_symmetry_multiplicity
 _atom_site_fract_x
 _atom_site_fract_y
 _atom_site_fract_z
 _atom_site_occupancy
  Fe  Fe0  1  0.00566000  0.98688000  0.50436000  1.0
  Fe  Fe1  1  0.99419000  0.51304000  0.00451000  1.0
  H  H2  1  0.73689000  0.48514000  0.29754000  1.0
  H  H3  1  0.26309000  0.01519000  0.79748000  1.0
  H  H4  1  0.25306000  0.51991000  0.70109000  1.0
  H  H5  1  0.74719000  0.98034000  0.20107000  1.0
  H  H6  1  0.63468000  0.47605000  0.39188000  1.0
  H  H7  1  0.36512000  0.02383000  0.89184000  1.0
  H  H8  1  0.35533000  0.52717000  0.60677000  1.0
  H  H9  1  0.64478000  0.97277000  0.10677000  1.0
  H  H10  1  0.55079000  0.18790000  0.27513000  1.0
  H  H11  1  0.44943000  0.31245000  0.77527000  1.0
  H  H12  1  0.44476000  0.81441000  0.72425000  1.0
  H  H13  1  0.55562000  0.68597000  0.22456000  1.0
  H  H14  1  0.44472000  0.19346000  0.36731000  1.0
  H  H15  1  0.55539000  0.30646000  0.86746000  1.0
  H  H16  1  0.54967000  0.80818000  0.63178000  1.0
  H  H17  1  0.45067000  0.69166000  0.13202000  1.0
  H  H18  1  0.36982000  0.43028000  0.31202000  1.0
  H  H19  1  0.63003000  0.06965000  0.81202000  1.0
  H  H20  1  0.61847000  0.56663000  0.68633000  1.0
  H  H21  1  0.38169000  0.93341000  0.18627000  1.0
  H  H22  1  0.45994000  0.40385000  0.21877000  1.0
  H  H23  1  0.53989000  0.09632000  0.71881000  1.0
  H  H24  1  0.53177000  0.59622000  0.77997000  1.0
  H  H25  1  0.46822000  0.90402000  0.28000000  1.0
  H  H26  1  0.24618000  0.11753000  0.21111000  1.0
  H  H27  1  0.75394000  0.38248000  0.71111000  1.0
  H  H28  1  0.75005000  0.88335000  0.78390000  1.0
  H  H29  1  0.25012000  0.61676000  0.28396000  1.0
  H  H30  1  0.14838000  0.15514000  0.30065000  1.0
  H  H31  1  0.85172000  0.34469000  0.80062000  1.0
  H  H32  1  0.84594000  0.83675000  0.69608000  1.0
  H  H33  1  0.15427000  0.66327000  0.19608000  1.0
  H  H34  1  0.17005000  0.40111000  0.44924000  1.0
  H  H35  1  0.82997000  0.09889000  0.94935000  1.0
  H  H36  1  0.82549000  0.60695000  0.54719000  1.0
  H  H37  1  0.17466000  0.89287000  0.04724000  1.0
  H  H38  1  0.66730000  0.08999000  0.40528000  1.0
  H  H39  1  0.33270000  0.41007000  0.90537000  1.0
  H  H40  1  0.32957000  0.91628000  0.59298000  1.0
  H  H41  1  0.67049000  0.58371000  0.09320000  1.0
  H  H42  1  0.77982000  0.35659000  0.17062000  1.0
  H  H43  1  0.21994000  0.14303000  0.67052000  1.0
  H  H44  1  0.21184000  0.64774000  0.83702000  1.0
  H  H45  1  0.78783000  0.85159000  0.33699000  1.0
  H  H46  1  0.27081000  0.37887000  0.09688000  1.0
  H  H47  1  0.72908000  0.12118000  0.59684000  1.0
  H  H48  1  0.71959000  0.63391000  0.90398000  1.0
  H  H49  1  0.28053000  0.86666000  0.40384000  1.0
  C  C50  1  0.67161000  0.40322000  0.34651000  1.0
  C  C51  1  0.32831000  0.09691000  0.84653000  1.0
  C  C52  1  0.32014000  0.60109000  0.65220000  1.0
  C  C53  1  0.68010000  0.89901000  0.15225000  1.0
  C  C54  1  0.51332000  0.26759000  0.31638000  1.0
  C  C55  1  0.48678000  0.23255000  0.81648000  1.0
  C  C56  1  0.48014000  0.73413000  0.68253000  1.0
  C  C57  1  0.52015000  0.76600000  0.18270000  1.0
  C  C58  1  0.39485000  0.33999000  0.27296000  1.0
  C  C59  1  0.60511000  0.16007000  0.77299000  1.0
  C  C60  1  0.59671000  0.65858000  0.72544000  1.0
  C  C61  1  0.40341000  0.84155000  0.22546000  1.0
  C  C62  1  0.22514000  0.21221000  0.24820000  1.0
  C  C63  1  0.77490000  0.28773000  0.74819000  1.0
  C  C64  1  0.76849000  0.78456000  0.74904000  1.0
  C  C65  1  0.23164000  0.71550000  0.24905000  1.0
  C  C66  1  0.03776000  0.35568000  0.42936000  1.0
  C  C67  1  0.96223000  0.14435000  0.92947000  1.0
  C  C68  1  0.95717000  0.65176000  0.56761000  1.0
  C  C69  1  0.04298000  0.84815000  0.06769000  1.0
  C  C70  1  0.78373000  0.19490000  0.40777000  1.0
  C  C71  1  0.21623000  0.30515000  0.90786000  1.0
  C  C72  1  0.21274000  0.81215000  0.59039000  1.0
  C  C73  1  0.78735000  0.68783000  0.09055000  1.0
  C  C74  1  0.90532000  0.34554000  0.16997000  1.0
  C  C75  1  0.09449000  0.15423000  0.66989000  1.0
  C  C76  1  0.08648000  0.65910000  0.83547000  1.0
  C  C77  1  0.91330000  0.84052000  0.33539000  1.0
  C  C78  1  0.15510000  0.36123000  0.13123000  1.0
  C  C79  1  0.84475000  0.13872000  0.63118000  1.0
  C  C80  1  0.83579000  0.64719000  0.87078000  1.0
  C  C81  1  0.16424000  0.85310000  0.37065000  1.0
  C  C82  1  0.62969000  0.78322000  0.47569000  1.0
  C  C83  1  0.37015000  0.71679000  0.97587000  1.0
  C  C84  1  0.37725000  0.20824000  0.52806000  1.0
  C  C85  1  0.62256000  0.29181000  0.02817000  1.0
  S  S86  1  0.44248000  0.67767000  0.44040000  1.0
  S  S87  1  0.55730000  0.82237000  0.94051000  1.0
  S  S88  1  0.56361000  0.32204000  0.56091000  1.0
  S  S89  1  0.43615000  0.17788000  0.06094000  1.0
  N  N90  1  0.79895000  0.34422000  0.38209000  1.0
  N  N91  1  0.20098000  0.15585000  0.88215000  1.0
  N  N92  1  0.19486000  0.66265000  0.61623000  1.0
  N  N93  1  0.80533000  0.83738000  0.11633000  1.0
  N  N94  1  0.96058000  0.44898000  0.39556000  1.0
  N  N95  1  0.03934000  0.05107000  0.89564000  1.0
  N  N96  1  0.03331000  0.55905000  0.60214000  1.0
  N  N97  1  0.96689000  0.94092000  0.10219000  1.0
  N  N98  1  0.93387000  0.19839000  0.43767000  1.0
  N  N99  1  0.06608000  0.30160000  0.93777000  1.0
  N  N100  1  0.06270000  0.80987000  0.55918000  1.0
  N  N101  1  0.93735000  0.69005000  0.05934000  1.0
  N  N102  1  0.11927000  0.28275000  0.20193000  1.0
  N  N103  1  0.88061000  0.21707000  0.70189000  1.0
  N  N104  1  0.87197000  0.71551000  0.79772000  1.0
  N  N105  1  0.12804000  0.78450000  0.29767000  1.0
  N  N106  1  0.96034000  0.27103000  0.22743000  1.0
  N  N107  1  0.03949000  0.22866000  0.72739000  1.0
  N  N108  1  0.03150000  0.72470000  0.77430000  1.0
  N  N109  1  0.96838000  0.77489000  0.27428000  1.0
  N  N110  1  0.02139000  0.40367000  0.10939000  1.0
  N  N111  1  0.97839000  0.09620000  0.60931000  1.0
  N  N112  1  0.96979000  0.60943000  0.89650000  1.0
  N  N113  1  0.03008000  0.89058000  0.39638000  1.0
  N  N114  1  0.76792000  0.86220000  0.49962000  1.0
  N  N115  1  0.23194000  0.63774000  0.99979000  1.0
  N  N116  1  0.24011000  0.12235000  0.50592000  1.0
  N  N117  1  0.75971000  0.37776000  0.00609000  1.0
