# generated using pymatgen
data_Al6H41C84Br9(Cl3O7)4
_symmetry_space_group_name_H-M   'P 1'
_cell_length_a   13.71010000
_cell_length_b   13.77700000
_cell_length_c   27.30300000
_cell_angle_alpha   89.24880000
_cell_angle_beta   89.39120000
_cell_angle_gamma   60.70560000
_symmetry_Int_Tables_number   1
_chemical_formula_structural   Al6H41C84Br9(Cl3O7)4
_chemical_formula_sum   'Al6 H41 C84 Br9 Cl12 O28'
_cell_volume   4497.15712864
_cell_formula_units_Z   1
loop_
 _symmetry_equiv_pos_site_id
 _symmetry_equiv_pos_as_xyz
  1  'x, y, z'
loop_
 _atom_site_type_symbol
 _atom_site_label
 _atom_site_symmetry_multiplicity
 _atom_site_fract_x
 _atom_site_fract_y
 _atom_site_fract_z
 _atom_site_occupancy
  Al  Al0  1  0.40060000  0.42967000  0.50490000  1.0
  Al  Al1  1  0.18964000  0.39008000  0.50289000  1.0
  Al  Al2  1  0.42054000  0.18950000  0.50225000  1.0
  Al  Al3  1  0.91201000  0.92623000  0.01482000  1.0
  Al  Al4  1  0.15304000  0.91201000  0.01428000  1.0
  Al  Al5  1  0.95015000  0.13810000  0.01581000  1.0
  H  H6  1  0.32848000  0.18402000  0.81576000  1.0
  H  H7  1  0.07626000  0.31694000  0.21313000  1.0
  H  H8  1  0.66666667  0.04346000  0.23039000  1.0
  H  H9  1  0.31036000  0.63911000  0.22752000  1.0
  H  H10  1  0.04398000  0.28438000  0.12668000  1.0
  H  H11  1  0.72274000  0.01286000  0.14193000  1.0
  H  H12  1  0.29823000  0.69430000  0.13920000  1.0
  H  H13  1  0.28069000  0.96318000  0.23553000  1.0
  H  H14  1  0.81564000  0.25431000  0.24302000  1.0
  H  H15  1  0.95186000  0.78140000  0.23282000  1.0
  H  H16  1  0.25303000  0.93168000  0.14813000  1.0
  H  H17  1  0.50224000  0.34254000  0.82675000  1.0
  H  H18  1  0.86664000  0.22713000  0.15445000  1.0
  H  H19  1  0.94168000  0.82914000  0.14390000  1.0
  H  H20  1  0.11670000  0.07461000  0.31159000  1.0
  H  H21  1  0.78799000  0.00303000  0.31629000  1.0
  H  H22  1  0.22545000  0.75735000  0.30967000  1.0
  H  H23  1  0.36442000  0.14971000  0.73168000  1.0
  H  H24  1  0.48801000  0.36584000  0.74136000  1.0
  H  H25  1  0.13886000  0.48392000  0.74391000  1.0
  H  H26  1  0.19417000  0.00885000  0.71547000  1.0
  H  H27  1  0.78493000  0.16489000  0.71291000  1.0
  H  H28  1  0.18778000  0.48923000  0.82547000  1.0
  H  H29  1  0.01801000  0.78646000  0.71743000  1.0
  H  H30  1  0.33279000  0.98459000  0.70966000  1.0
  H  H31  1  0.68387000  0.30674000  0.70545000  1.0
  H  H32  1  0.98184000  0.67963000  0.71845000  1.0
  H  H33  1  0.23647000  0.96960000  0.79823000  1.0
  H  H34  1  0.80694000  0.21659000  0.79109000  1.0
  H  H35  1  0.98667000  0.79392000  0.80165000  1.0
  H  H36  1  0.06268000  0.31908000  0.72804000  1.0
  H  H37  1  0.57965000  0.07151000  0.75192000  1.0
  H  H38  1  0.32809000  0.59384000  0.72675000  1.0
  H  H39  1  0.25401000  0.28796000  0.72351000  1.0
  H  H40  1  0.43870000  0.26840000  0.74378000  1.0
  H  H41  1  0.28020000  0.44518000  0.73034000  1.0
  H  H42  1  0.19431000  0.30052000  0.80593000  1.0
  H  H43  1  0.50006000  0.21511000  0.82544000  1.0
  H  H44  1  0.30891000  0.49732000  0.80895000  1.0
  H  H45  1  0.43763000  0.56943000  0.53089000  1.0
  H  H46  1  0.82191000  0.83100000  0.98599000  1.0
  C  C47  1  0.51797000  0.24542000  0.57822000  1.0
  C  C48  1  0.18622000  0.12725000  0.86046000  1.0
  C  C49  1  0.69815000  0.19397000  0.86546000  1.0
  C  C50  1  0.14925000  0.68582000  0.86185000  1.0
  C  C51  1  0.21813000  0.17002000  0.65979000  1.0
  C  C52  1  0.58339000  0.20474000  0.67088000  1.0
  C  C53  1  0.16527000  0.59450000  0.66453000  1.0
  C  C54  1  0.23202000  0.17779000  0.61620000  1.0
  C  C55  1  0.55800000  0.21856000  0.62785000  1.0
  C  C56  1  0.17173000  0.57025000  0.62160000  1.0
  C  C57  1  0.10307000  0.79154000  0.94627000  1.0
  C  C58  1  0.19743000  0.52686000  0.57273000  1.0
  C  C59  1  0.13370000  0.08005000  0.94756000  1.0
  C  C60  1  0.79901000  0.13811000  0.95120000  1.0
  C  C61  1  0.23399000  0.19500000  0.38060000  1.0
  C  C62  1  0.61276000  0.21493000  0.39195000  1.0
  C  C63  1  0.16761000  0.59415000  0.38701000  1.0
  C  C64  1  0.27366000  0.23549000  0.34225000  1.0
  C  C65  1  0.58581000  0.30456000  0.35854000  1.0
  C  C66  1  0.10437000  0.56912000  0.35371000  1.0
  C  C67  1  0.25739000  0.21851000  0.29308000  1.0
  C  C68  1  0.62535000  0.28392000  0.30983000  1.0
  C  C69  1  0.25291000  0.20342000  0.56740000  1.0
  C  C70  1  0.09405000  0.60329000  0.30428000  1.0
  C  C71  1  0.19980000  0.16064000  0.28164000  1.0
  C  C72  1  0.69712000  0.17499000  0.29378000  1.0
  C  C73  1  0.13964000  0.66973000  0.28756000  1.0
  C  C74  1  0.55099000  0.23588000  0.43983000  1.0
  C  C75  1  0.20569000  0.53373000  0.43522000  1.0
  C  C76  1  0.25197000  0.22000000  0.43226000  1.0
  C  C77  1  0.16145000  0.11936000  0.32004000  1.0
  C  C78  1  0.72931000  0.08754000  0.32762000  1.0
  C  C79  1  0.19379000  0.70211000  0.32148000  1.0
  C  C80  1  0.07593000  0.20222000  0.78482000  1.0
  C  C81  1  0.17818000  0.13671000  0.36876000  1.0
  C  C82  1  0.68815000  0.10681000  0.37540000  1.0
  C  C83  1  0.20797000  0.66521000  0.36989000  1.0
  C  C84  1  0.11444000  0.23250000  0.19894000  1.0
  C  C85  1  0.71202000  0.08231000  0.21386000  1.0
  C  C86  1  0.22939000  0.68250000  0.20933000  1.0
  C  C87  1  0.09703000  0.21468000  0.15059000  1.0
  C  C88  1  0.74187000  0.06602000  0.16452000  1.0
  C  C89  1  0.22306000  0.71200000  0.15997000  1.0
  C  C90  1  0.21484000  0.01566000  0.16274000  1.0
  C  C91  1  0.70698000  0.07585000  0.79614000  1.0
  C  C92  1  0.82270000  0.18747000  0.17144000  1.0
  C  C93  1  0.02166000  0.78779000  0.16282000  1.0
  C  C94  1  0.22944000  0.03361000  0.21154000  1.0
  C  C95  1  0.79422000  0.20228000  0.22083000  1.0
  C  C96  1  0.02797000  0.76056000  0.21220000  1.0
  C  C97  1  0.18069000  0.14209000  0.22998000  1.0
  C  C98  1  0.73626000  0.15202000  0.24228000  1.0
  C  C99  1  0.13205000  0.70522000  0.23573000  1.0
  C  C100  1  0.14835000  0.10614000  0.13198000  1.0
  C  C101  1  0.79535000  0.12040000  0.14289000  1.0
  C  C102  1  0.21967000  0.70907000  0.78141000  1.0
  C  C103  1  0.11933000  0.76273000  0.13634000  1.0
  C  C104  1  0.10688000  0.79755000  0.08408000  1.0
  C  C105  1  0.12528000  0.08510000  0.08141000  1.0
  C  C106  1  0.82842000  0.10217000  0.09037000  1.0
  C  C107  1  0.27547000  0.20624000  0.73918000  1.0
  C  C108  1  0.50962000  0.28087000  0.75263000  1.0
  C  C109  1  0.20238000  0.51019000  0.74666000  1.0
  C  C110  1  0.25229000  0.03711000  0.72766000  1.0
  C  C111  1  0.70553000  0.23179000  0.72734000  1.0
  C  C112  1  0.04127000  0.70373000  0.73268000  1.0
  C  C113  1  0.08444000  0.23128000  0.72996000  1.0
  C  C114  1  0.26362000  0.02650000  0.78347000  1.0
  C  C115  1  0.71919000  0.25049000  0.78142000  1.0
  C  C116  1  0.03673000  0.70886000  0.78870000  1.0
  C  C117  1  0.17003000  0.10725000  0.90227000  1.0
  C  C118  1  0.73634000  0.17941000  0.90648000  1.0
  C  C119  1  0.13431000  0.72564000  0.90242000  1.0
  C  C120  1  0.20757000  0.15973000  0.71222000  1.0
  C  C121  1  0.61331000  0.19891000  0.72202000  1.0
  C  C122  1  0.16092000  0.61938000  0.71604000  1.0
  C  C123  1  0.25117000  0.21455000  0.79475000  1.0
  C  C124  1  0.65322000  0.08162000  0.74530000  1.0
  C  C125  1  0.53581000  0.26278000  0.80782000  1.0
  C  C126  1  0.22012000  0.52988000  0.80051000  1.0
  C  C127  1  0.19634000  0.14281000  0.80827000  1.0
  C  C128  1  0.66401000  0.19832000  0.81505000  1.0
  C  C129  1  0.15708000  0.65617000  0.81065000  1.0
  C  C130  1  0.24267000  0.66404000  0.72812000  1.0
  Br  Br131  1  0.12348000  0.08040000  0.41951000  1.0
  Br  Br132  1  0.74662000  0.97904000  0.41709000  1.0
  Br  Br133  1  0.27922000  0.72065000  0.41146000  1.0
  Br  Br134  1  0.42211000  0.95521000  0.80370000  1.0
  Br  Br135  1  0.65618000  0.41039000  0.79606000  1.0
  Br  Br136  1  0.95600000  0.63525000  0.81694000  1.0
  Br  Br137  1  0.97758000  0.34311000  0.81909000  1.0
  Br  Br138  1  0.66241000  0.99232000  0.84215000  1.0
  Br  Br139  1  0.36535000  0.66722000  0.81211000  1.0
  Cl  Cl140  1  0.01486000  0.11560000  0.79324000  1.0
  Cl  Cl141  1  0.98668000  0.22106000  0.69123000  1.0
  Cl  Cl142  1  0.74007000  0.97070000  0.70581000  1.0
  Cl  Cl143  1  0.24092000  0.76098000  0.68418000  1.0
  Cl  Cl144  1  0.85587000  0.00407000  0.79464000  1.0
  Cl  Cl145  1  0.13816000  0.85642000  0.78431000  1.0
  Cl  Cl146  1  0.34138000  0.30865000  0.35605000  1.0
  Cl  Cl147  1  0.49947000  0.44025000  0.37430000  1.0
  Cl  Cl148  1  0.04167000  0.49237000  0.37081000  1.0
  Cl  Cl149  1  0.31160000  0.26552000  0.24736000  1.0
  Cl  Cl150  1  0.57848000  0.39366000  0.26877000  1.0
  Cl  Cl151  1  0.03094000  0.55676000  0.26353000  1.0
  O  O152  1  0.27885000  0.52775000  0.55115000  1.0
  O  O153  1  0.30448000  0.50503000  0.44758000  1.0
  O  O154  1  0.17409000  0.30907000  0.45079000  1.0
  O  O155  1  0.52642000  0.16055000  0.45395000  1.0
  O  O156  1  0.52092000  0.32575000  0.46194000  1.0
  O  O157  1  0.13897000  0.51009000  0.45971000  1.0
  O  O158  1  0.34524000  0.15490000  0.45210000  1.0
  O  O159  1  0.33570000  0.33515000  0.50372000  1.0
  O  O160  1  0.00624000  0.99277000  0.01410000  1.0
  O  O161  1  0.00221000  0.83267000  0.95966000  1.0
  O  O162  1  0.19679000  0.98360000  0.96628000  1.0
  O  O163  1  0.17445000  0.28970000  0.54683000  1.0
  O  O164  1  0.83335000  0.19985000  0.97186000  1.0
  O  O165  1  0.83243000  0.01850000  0.06993000  1.0
  O  O166  1  0.18803000  0.80658000  0.06374000  1.0
  O  O167  1  0.04014000  0.16351000  0.05949000  1.0
  O  O168  1  0.01636000  0.82083000  0.06318000  1.0
  O  O169  1  0.18734000  0.98883000  0.06328000  1.0
  O  O170  1  0.85383000  0.17150000  0.06953000  1.0
  O  O171  1  0.52216000  0.16601000  0.55213000  1.0
  O  O172  1  0.81884000  0.04262000  0.96504000  1.0
  O  O173  1  0.17941000  0.80601000  0.96647000  1.0
  O  O174  1  0.03837000  0.15263000  0.96382000  1.0
  O  O175  1  0.47953000  0.34560000  0.56494000  1.0
  O  O176  1  0.13766000  0.48598000  0.55598000  1.0
  O  O177  1  0.35059000  0.14163000  0.54944000  1.0
  O  O178  1  0.46046000  0.51634000  0.50457000  1.0
  O  O179  1  0.82413000  0.86723000  0.01570000  1.0
