# generated using pymatgen
data_CdH6C2(N5Cl)2
_symmetry_space_group_name_H-M   'P 1'
_cell_length_a   3.78709000
_cell_length_b   7.82718000
_cell_length_c   16.64040000
_cell_angle_alpha   89.99990000
_cell_angle_beta   89.99990000
_cell_angle_gamma   96.75710000
_symmetry_Int_Tables_number   1
_chemical_formula_structural   CdH6C2(N5Cl)2
_chemical_formula_sum   'Cd2 H12 C4 N20 Cl4'
_cell_volume   489.83241741
_cell_formula_units_Z   2
loop_
 _symmetry_equiv_pos_site_id
 _symmetry_equiv_pos_as_xyz
  1  'x, y, z'
loop_
 _atom_site_type_symbol
 _atom_site_label
 _atom_site_symmetry_multiplicity
 _atom_site_fract_x
 _atom_site_fract_y
 _atom_site_fract_z
 _atom_site_occupancy
  Cd  Cd0  1  0.00000000  0.00000000  0.00000000  1.0
  Cd  Cd1  1  0.50000000  0.50000000  0.50000000  1.0
  H  H2  1  0.72546000  0.37705000  0.05302000  1.0
  H  H3  1  0.77454000  0.12295000  0.55303000  1.0
  H  H4  1  0.27454000  0.62295000  0.94698000  1.0
  H  H5  1  0.22546000  0.87704000  0.44697000  1.0
  H  H6  1  0.70147000  0.50911000  0.13891000  1.0
  H  H7  1  0.79853000  0.99089000  0.63891000  1.0
  H  H8  1  0.29853000  0.49089000  0.86109000  1.0
  H  H9  1  0.20147000  0.00911000  0.36109000  1.0
  H  H10  1  0.85464000  0.36630000  0.27878000  1.0
  H  H11  1  0.64536000  0.13370000  0.77878000  1.0
  H  H12  1  0.14536000  0.63370000  0.72122000  1.0
  H  H13  1  0.35464000  0.86630000  0.22122000  1.0
  C  C14  1  0.90978000  0.28255000  0.15565000  1.0
  C  C15  1  0.59021000  0.21745000  0.65565000  1.0
  C  C16  1  0.09022000  0.71745000  0.84435000  1.0
  C  C17  1  0.40979000  0.78255000  0.34435000  1.0
  N  N18  1  0.79391000  0.40630000  0.11137000  1.0
  N  N19  1  0.70610000  0.09369000  0.61137000  1.0
  N  N20  1  0.20609000  0.59370000  0.88863000  1.0
  N  N21  1  0.29390000  0.90631000  0.38863000  1.0
  N  N22  1  0.94300000  0.28110000  0.23699000  1.0
  N  N23  1  0.55700000  0.21890000  0.73699000  1.0
  N  N24  1  0.05700000  0.71890000  0.76301000  1.0
  N  N25  1  0.44300000  0.78110000  0.26301000  1.0
  N  N26  1  0.08027000  0.13640000  0.25917000  1.0
  N  N27  1  0.41974000  0.36359000  0.75918000  1.0
  N  N28  1  0.91973000  0.86359000  0.74082000  1.0
  N  N29  1  0.58027000  0.63641000  0.24082000  1.0
  N  N30  1  0.12911000  0.05254000  0.19398000  1.0
  N  N31  1  0.37088000  0.44746000  0.69398000  1.0
  N  N32  1  0.87089000  0.94746000  0.80602000  1.0
  N  N33  1  0.62912000  0.55254000  0.30602000  1.0
  N  N34  1  0.02815000  0.13657000  0.12842000  1.0
  N  N35  1  0.47186000  0.36343000  0.62842000  1.0
  N  N36  1  0.97185000  0.86343000  0.87158000  1.0
  N  N37  1  0.52815000  0.63657000  0.37158000  1.0
  Cl  Cl38  1  0.55368000  0.21110000  0.94703000  1.0
  Cl  Cl39  1  0.94632000  0.28890000  0.44703000  1.0
  Cl  Cl40  1  0.44632000  0.78890000  0.05297000  1.0
  Cl  Cl41  1  0.05368000  0.71110000  0.55297000  1.0
