# generated using pymatgen
data_SrNiH14C6O13
_symmetry_space_group_name_H-M   'P 1'
_cell_length_a   6.52267000
_cell_length_b   14.49410000
_cell_length_c   15.85760000
_cell_angle_alpha   89.99980000
_cell_angle_beta   79.47200000
_cell_angle_gamma   89.99990000
_symmetry_Int_Tables_number   1
_chemical_formula_structural   SrNiH14C6O13
_chemical_formula_sum   'Sr4 Ni4 H56 C24 O52'
_cell_volume   1473.94355502
_cell_formula_units_Z   4
loop_
 _symmetry_equiv_pos_site_id
 _symmetry_equiv_pos_as_xyz
  1  'x, y, z'
loop_
 _atom_site_type_symbol
 _atom_site_label
 _atom_site_symmetry_multiplicity
 _atom_site_fract_x
 _atom_site_fract_y
 _atom_site_fract_z
 _atom_site_occupancy
  Sr  Sr0  1  0.76689000  0.58846000  0.45653000  1.0
  Sr  Sr1  1  0.23311000  0.08846000  0.04347000  1.0
  Sr  Sr2  1  0.23311000  0.41154000  0.54346000  1.0
  Sr  Sr3  1  0.76689000  0.91154000  0.95654000  1.0
  Ni  Ni4  1  0.77396000  0.72609000  0.70881000  1.0
  Ni  Ni5  1  0.22604000  0.22609000  0.79119000  1.0
  Ni  Ni6  1  0.22603000  0.27392000  0.29119000  1.0
  Ni  Ni7  1  0.77397000  0.77392000  0.20882000  1.0
  H  H8  1  0.55605000  0.53820000  0.77730000  1.0
  H  H9  1  0.44396000  0.03820000  0.72270000  1.0
  H  H10  1  0.44397000  0.46180000  0.22270000  1.0
  H  H11  1  0.55604000  0.96180000  0.27730000  1.0
  H  H12  1  0.30649000  0.52289000  0.74854000  1.0
  H  H13  1  0.69352000  0.02289000  0.75146000  1.0
  H  H14  1  0.69352000  0.47711000  0.25146000  1.0
  H  H15  1  0.30648000  0.97712000  0.24854000  1.0
  H  H16  1  0.30064000  0.60180000  0.19192000  1.0
  H  H17  1  0.69935000  0.10181000  0.30808000  1.0
  H  H18  1  0.69936000  0.39819000  0.80807000  1.0
  H  H19  1  0.30065000  0.89819000  0.69193000  1.0
  H  H20  1  0.10490000  0.56787000  0.13663000  1.0
  H  H21  1  0.89509000  0.06786000  0.36337000  1.0
  H  H22  1  0.89510000  0.43213000  0.86336000  1.0
  H  H23  1  0.10491000  0.93214000  0.63664000  1.0
  H  H24  1  0.55508000  0.85302000  0.57306000  1.0
  H  H25  1  0.44491000  0.35302000  0.92693000  1.0
  H  H26  1  0.44491000  0.14698000  0.42693000  1.0
  H  H27  1  0.55509000  0.64698000  0.07307000  1.0
  H  H28  1  0.68023000  0.94575000  0.55210000  1.0
  H  H29  1  0.31978000  0.44575000  0.94790000  1.0
  H  H30  1  0.31977000  0.05425000  0.44790000  1.0
  H  H31  1  0.68023000  0.55425000  0.05210000  1.0
  H  H32  1  0.98935000  0.61495000  0.81571000  1.0
  H  H33  1  0.01065000  0.11495000  0.68429000  1.0
  H  H34  1  0.01065000  0.38505000  0.18430000  1.0
  H  H35  1  0.98935000  0.88505000  0.31570000  1.0
  H  H36  1  0.91439000  0.54732000  0.74988000  1.0
  H  H37  1  0.08561000  0.04732000  0.75012000  1.0
  H  H38  1  0.08561000  0.45268000  0.25014000  1.0
  H  H39  1  0.91439000  0.95268000  0.24986000  1.0
  H  H40  1  0.45302000  0.70832000  0.37635000  1.0
  H  H41  1  0.54699000  0.20833000  0.12364000  1.0
  H  H42  1  0.54699000  0.29168000  0.62364000  1.0
  H  H43  1  0.45302000  0.79167000  0.87636000  1.0
  H  H44  1  0.40002000  0.72589000  0.47843000  1.0
  H  H45  1  0.59998000  0.22589000  0.02156000  1.0
  H  H46  1  0.59997000  0.27411000  0.52157000  1.0
  H  H47  1  0.40002000  0.77411000  0.97844000  1.0
  H  H48  1  0.02323000  0.77843000  0.41992000  1.0
  H  H49  1  0.97677000  0.27843000  0.08008000  1.0
  H  H50  1  0.97678000  0.22157000  0.58008000  1.0
  H  H51  1  0.02323000  0.72157000  0.91992000  1.0
  H  H52  1  0.84090000  0.80409000  0.49703000  1.0
  H  H53  1  0.15910000  0.30409000  0.00297000  1.0
  H  H54  1  0.15910000  0.19591000  0.50298000  1.0
  H  H55  1  0.84091000  0.69591000  0.99703000  1.0
  H  H56  1  0.91174000  0.37231000  0.43635000  1.0
  H  H57  1  0.08827000  0.87231000  0.06365000  1.0
  H  H58  1  0.08826000  0.62769000  0.56365000  1.0
  H  H59  1  0.91174000  0.12769000  0.93635000  1.0
  H  H60  1  0.76683000  0.38835000  0.52454000  1.0
  H  H61  1  0.23318000  0.88835000  0.97546000  1.0
  H  H62  1  0.23318000  0.61165000  0.47546000  1.0
  H  H63  1  0.76682000  0.11165000  0.02454000  1.0
  C  C64  1  0.54445000  0.57953000  0.65078000  1.0
  C  C65  1  0.45554000  0.07952000  0.84922000  1.0
  C  C66  1  0.45555000  0.42048000  0.34921000  1.0
  C  C67  1  0.54445000  0.92049000  0.15079000  1.0
  C  C68  1  0.44013000  0.56939000  0.74325000  1.0
  C  C69  1  0.55987000  0.06939000  0.75676000  1.0
  C  C70  1  0.55988000  0.43061000  0.25675000  1.0
  C  C71  1  0.44012000  0.93061000  0.24325000  1.0
  C  C72  1  0.37755000  0.65855000  0.79116000  1.0
  C  C73  1  0.62245000  0.15855000  0.70884000  1.0
  C  C74  1  0.62246000  0.34146000  0.20884000  1.0
  C  C75  1  0.37754000  0.84146000  0.29116000  1.0
  C  C76  1  0.99217000  0.61912000  0.26100000  1.0
  C  C77  1  0.00783000  0.11912000  0.23900000  1.0
  C  C78  1  0.00782000  0.38087000  0.73899000  1.0
  C  C79  1  0.99218000  0.88087000  0.76101000  1.0
  C  C80  1  0.14831000  0.62279000  0.17827000  1.0
  C  C81  1  0.85168000  0.12279000  0.32173000  1.0
  C  C82  1  0.85169000  0.37721000  0.82172000  1.0
  C  C83  1  0.14832000  0.87721000  0.67827000  1.0
  C  C84  1  0.17939000  0.71022000  0.12598000  1.0
  C  C85  1  0.82061000  0.21022000  0.37402000  1.0
  C  C86  1  0.82061000  0.28978000  0.87401000  1.0
  C  C87  1  0.17938000  0.78978000  0.62598000  1.0
  O  O88  1  0.68905000  0.64074000  0.62981000  1.0
  O  O89  1  0.31093000  0.14073000  0.87019000  1.0
  O  O90  1  0.31095000  0.35927000  0.37019000  1.0
  O  O91  1  0.68905000  0.85927000  0.12981000  1.0
  O  O92  1  0.49477000  0.52751000  0.59416000  1.0
  O  O93  1  0.50521000  0.02751000  0.90584000  1.0
  O  O94  1  0.50523000  0.47250000  0.40584000  1.0
  O  O95  1  0.49478000  0.97251000  0.09417000  1.0
  O  O96  1  0.21140000  0.65996000  0.84556000  1.0
  O  O97  1  0.78860000  0.15997000  0.65445000  1.0
  O  O98  1  0.78862000  0.34004000  0.15445000  1.0
  O  O99  1  0.21138000  0.84004000  0.34556000  1.0
  O  O100  1  0.49892000  0.72971000  0.77743000  1.0
  O  O101  1  0.50108000  0.22971000  0.72258000  1.0
  O  O102  1  0.50109000  0.27030000  0.22257000  1.0
  O  O103  1  0.49891000  0.77030000  0.27744000  1.0
  O  O104  1  0.84215000  0.67717000  0.27923000  1.0
  O  O105  1  0.15784000  0.17718000  0.22077000  1.0
  O  O106  1  0.15788000  0.32283000  0.72077000  1.0
  O  O107  1  0.84212000  0.82283000  0.77922000  1.0
  O  O108  1  0.01082000  0.55402000  0.31271000  1.0
  O  O109  1  0.98918000  0.05402000  0.18729000  1.0
  O  O110  1  0.98915000  0.44596000  0.68728000  1.0
  O  O111  1  0.01085000  0.94596000  0.81272000  1.0
  O  O112  1  0.04546000  0.77622000  0.13791000  1.0
  O  O113  1  0.95454000  0.27622000  0.36210000  1.0
  O  O114  1  0.95454000  0.22377000  0.86208000  1.0
  O  O115  1  0.04545000  0.72378000  0.63791000  1.0
  O  O116  1  0.34349000  0.71442000  0.06970000  1.0
  O  O117  1  0.65651000  0.21442000  0.43030000  1.0
  O  O118  1  0.65651000  0.28558000  0.93030000  1.0
  O  O119  1  0.34347000  0.78559000  0.56969000  1.0
  O  O120  1  0.69324000  0.88329000  0.57279000  1.0
  O  O121  1  0.30675000  0.38329000  0.92720000  1.0
  O  O122  1  0.30676000  0.11671000  0.42720000  1.0
  O  O123  1  0.69325000  0.61671000  0.07280000  1.0
  O  O124  1  0.86351000  0.59342000  0.79481000  1.0
  O  O125  1  0.13649000  0.09342000  0.70519000  1.0
  O  O126  1  0.13648000  0.40656000  0.20522000  1.0
  O  O127  1  0.86352000  0.90656000  0.29478000  1.0
  O  O128  1  0.43950000  0.67791000  0.43315000  1.0
  O  O129  1  0.56051000  0.17792000  0.06685000  1.0
  O  O130  1  0.56051000  0.32208000  0.56685000  1.0
  O  O131  1  0.43949000  0.82208000  0.93316000  1.0
  O  O132  1  0.90307000  0.75289000  0.45966000  1.0
  O  O133  1  0.09693000  0.25289000  0.04033000  1.0
  O  O134  1  0.09694000  0.24711000  0.54033000  1.0
  O  O135  1  0.90306000  0.74711000  0.95967000  1.0
  O  O136  1  0.88320000  0.41812000  0.48358000  1.0
  O  O137  1  0.11680000  0.91812000  0.01642000  1.0
  O  O138  1  0.11680000  0.58188000  0.51642000  1.0
  O  O139  1  0.88320000  0.08188000  0.98358000  1.0
