# generated using pymatgen
data_AgH19C17N4O3
_symmetry_space_group_name_H-M   'P 1'
_cell_length_a   10.83800000
_cell_length_b   12.06450000
_cell_length_c   14.70450000
_cell_angle_alpha   90.00020000
_cell_angle_beta   90.00000000
_cell_angle_gamma   90.00000000
_symmetry_Int_Tables_number   1
_chemical_formula_structural   AgH19C17N4O3
_chemical_formula_sum   'Ag4 H76 C68 N16 O12'
_cell_volume   1922.68764742
_cell_formula_units_Z   4
loop_
 _symmetry_equiv_pos_site_id
 _symmetry_equiv_pos_as_xyz
  1  'x, y, z'
loop_
 _atom_site_type_symbol
 _atom_site_label
 _atom_site_symmetry_multiplicity
 _atom_site_fract_x
 _atom_site_fract_y
 _atom_site_fract_z
 _atom_site_occupancy
  Ag  Ag0  1  0.50437000  0.36386000  0.01000000  1.0
  Ag  Ag1  1  0.00437000  0.63614000  0.98999000  1.0
  Ag  Ag2  1  0.50437000  0.86386000  0.98999000  1.0
  Ag  Ag3  1  0.00437000  0.13614000  0.01001000  1.0
  H  H4  1  0.48190000  0.91766000  0.35463000  1.0
  H  H5  1  0.98190000  0.08235000  0.64536000  1.0
  H  H6  1  0.48190000  0.41765000  0.64536000  1.0
  H  H7  1  0.98190000  0.58235000  0.35464000  1.0
  H  H8  1  0.37484000  0.80222000  0.47138000  1.0
  H  H9  1  0.87482000  0.19778000  0.52861000  1.0
  H  H10  1  0.37483000  0.30222000  0.52861000  1.0
  H  H11  1  0.87482000  0.69778000  0.47139000  1.0
  H  H12  1  0.17595000  0.86606000  0.53717000  1.0
  H  H13  1  0.67593000  0.13394000  0.46283000  1.0
  H  H14  1  0.17594000  0.36607000  0.46282000  1.0
  H  H15  1  0.67594000  0.63393000  0.53718000  1.0
  H  H16  1  0.08122000  0.04271000  0.48680000  1.0
  H  H17  1  0.58121000  0.95728000  0.51320000  1.0
  H  H18  1  0.08122000  0.54272000  0.51320000  1.0
  H  H19  1  0.58122000  0.45728000  0.48680000  1.0
  H  H20  1  0.08774000  0.21186000  0.39132000  1.0
  H  H21  1  0.58774000  0.78814000  0.60868000  1.0
  H  H22  1  0.08774000  0.71186000  0.60868000  1.0
  H  H23  1  0.58774000  0.28814000  0.39132000  1.0
  H  H24  1  0.19808000  0.32813000  0.27705000  1.0
  H  H25  1  0.69808000  0.67187000  0.72295000  1.0
  H  H26  1  0.19809000  0.82813000  0.72296000  1.0
  H  H27  1  0.69809000  0.17187000  0.27705000  1.0
  H  H28  1  0.74350000  0.51944000  0.95373000  1.0
  H  H29  1  0.24350000  0.48056000  0.04627000  1.0
  H  H30  1  0.74350000  0.01944000  0.04627000  1.0
  H  H31  1  0.24350000  0.98056000  0.95373000  1.0
  H  H32  1  0.79854000  0.44788000  0.05366000  1.0
  H  H33  1  0.29854000  0.55212000  0.94634000  1.0
  H  H34  1  0.79854000  0.94789000  0.94634000  1.0
  H  H35  1  0.29854000  0.05211000  0.05366000  1.0
  H  H36  1  0.45567000  0.60465000  0.06473000  1.0
  H  H37  1  0.95567000  0.39535000  0.93527000  1.0
  H  H38  1  0.45567000  0.10465000  0.93526000  1.0
  H  H39  1  0.95568000  0.89535000  0.06473000  1.0
  H  H40  1  0.54130000  0.61073000  0.96043000  1.0
  H  H41  1  0.04130000  0.38927000  0.03957000  1.0
  H  H42  1  0.54130000  0.11073000  0.03956000  1.0
  H  H43  1  0.04130000  0.88927000  0.96043000  1.0
  H  H44  1  0.67934000  0.44261000  0.18990000  1.0
  H  H45  1  0.17934000  0.55739000  0.81010000  1.0
  H  H46  1  0.67934000  0.94262000  0.81010000  1.0
  H  H47  1  0.17934000  0.05739000  0.18990000  1.0
  H  H48  1  0.53190000  0.50818000  0.19367000  1.0
  H  H49  1  0.03190000  0.49182000  0.80633000  1.0
  H  H50  1  0.53190000  0.00818000  0.80633000  1.0
  H  H51  1  0.03190000  0.99182000  0.19367000  1.0
  H  H52  1  0.72864000  0.71473000  0.95236000  1.0
  H  H53  1  0.22863000  0.28527000  0.04765000  1.0
  H  H54  1  0.72864000  0.21474000  0.04765000  1.0
  H  H55  1  0.22864000  0.78526000  0.95235000  1.0
  H  H56  1  0.77810000  0.79395000  0.04940000  1.0
  H  H57  1  0.27809000  0.20605000  0.95060000  1.0
  H  H58  1  0.77809000  0.29395000  0.95060000  1.0
  H  H59  1  0.27810000  0.70605000  0.04940000  1.0
  H  H60  1  0.52066000  0.70816000  0.19340000  1.0
  H  H61  1  0.02066000  0.29184000  0.80660000  1.0
  H  H62  1  0.52066000  0.20816000  0.80660000  1.0
  H  H63  1  0.02066000  0.79184000  0.19340000  1.0
  H  H64  1  0.65855000  0.78953000  0.18880000  1.0
  H  H65  1  0.15855000  0.21047000  0.81120000  1.0
  H  H66  1  0.65855000  0.28953000  0.81119000  1.0
  H  H67  1  0.15855000  0.71047000  0.18880000  1.0
  H  H68  1  0.85287000  0.70097000  0.18242000  1.0
  H  H69  1  0.35287000  0.29902000  0.81758000  1.0
  H  H70  1  0.85287000  0.20097000  0.81757000  1.0
  H  H71  1  0.35287000  0.79902000  0.18243000  1.0
  H  H72  1  0.86572000  0.55353000  0.18391000  1.0
  H  H73  1  0.36573000  0.44646000  0.81609000  1.0
  H  H74  1  0.86572000  0.05354000  0.81609000  1.0
  H  H75  1  0.36572000  0.94646000  0.18391000  1.0
  H  H76  1  0.52429000  0.13432000  0.19860000  1.0
  H  H77  1  0.02430000  0.86569000  0.80140000  1.0
  H  H78  1  0.52430000  0.63431000  0.80140000  1.0
  H  H79  1  0.02429000  0.36568000  0.19860000  1.0
  C  C80  1  0.40408000  0.27969000  0.18418000  1.0
  C  C81  1  0.90408000  0.72032000  0.81581000  1.0
  C  C82  1  0.40408000  0.77969000  0.81582000  1.0
  C  C83  1  0.90408000  0.22031000  0.18418000  1.0
  C  C84  1  0.34776000  0.21346000  0.25873000  1.0
  C  C85  1  0.84776000  0.78655000  0.74127000  1.0
  C  C86  1  0.34776000  0.71346000  0.74127000  1.0
  C  C87  1  0.84776000  0.28654000  0.25873000  1.0
  C  C88  1  0.40056000  0.11227000  0.28597000  1.0
  C  C89  1  0.90056000  0.88773000  0.71403000  1.0
  C  C90  1  0.40057000  0.61227000  0.71403000  1.0
  C  C91  1  0.90056000  0.38773000  0.28597000  1.0
  C  C92  1  0.34276000  0.04618000  0.35467000  1.0
  C  C93  1  0.84275000  0.95382000  0.64533000  1.0
  C  C94  1  0.34276000  0.54618000  0.64533000  1.0
  C  C95  1  0.84275000  0.45382000  0.35466000  1.0
  C  C96  1  0.39428000  0.94418000  0.38396000  1.0
  C  C97  1  0.89427000  0.05583000  0.61604000  1.0
  C  C98  1  0.39428000  0.44418000  0.61603000  1.0
  C  C99  1  0.89427000  0.55583000  0.38396000  1.0
  C  C100  1  0.33479000  0.88047000  0.44858000  1.0
  C  C101  1  0.83478000  0.11953000  0.55142000  1.0
  C  C102  1  0.33478000  0.38047000  0.55142000  1.0
  C  C103  1  0.83478000  0.61952000  0.44858000  1.0
  C  C104  1  0.22138000  0.91662000  0.48581000  1.0
  C  C105  1  0.72137000  0.08338000  0.51418000  1.0
  C  C106  1  0.22137000  0.41661000  0.51418000  1.0
  C  C107  1  0.72137000  0.58338000  0.48582000  1.0
  C  C108  1  0.16916000  0.01539000  0.45827000  1.0
  C  C109  1  0.66915000  0.98462000  0.54173000  1.0
  C  C110  1  0.16916000  0.51539000  0.54173000  1.0
  C  C111  1  0.66915000  0.48461000  0.45827000  1.0
  C  C112  1  0.22799000  0.08316000  0.39248000  1.0
  C  C113  1  0.72799000  0.91684000  0.60752000  1.0
  C  C114  1  0.22799000  0.58316000  0.60752000  1.0
  C  C115  1  0.72799000  0.41684000  0.39248000  1.0
  C  C116  1  0.17611000  0.18544000  0.36310000  1.0
  C  C117  1  0.67611000  0.81456000  0.63690000  1.0
  C  C118  1  0.17611000  0.68544000  0.63690000  1.0
  C  C119  1  0.67611000  0.31456000  0.36310000  1.0
  C  C120  1  0.23587000  0.24909000  0.29938000  1.0
  C  C121  1  0.73587000  0.75092000  0.70062000  1.0
  C  C122  1  0.23587000  0.74908000  0.70062000  1.0
  C  C123  1  0.73587000  0.25091000  0.29938000  1.0
  C  C124  1  0.74576000  0.51924000  0.02844000  1.0
  C  C125  1  0.24576000  0.48076000  0.97156000  1.0
  C  C126  1  0.74576000  0.01924000  0.97155000  1.0
  C  C127  1  0.24576000  0.98075000  0.02845000  1.0
  C  C128  1  0.54831000  0.60980000  0.03474000  1.0
  C  C129  1  0.04831000  0.39020000  0.96526000  1.0
  C  C130  1  0.54831000  0.10980000  0.96525000  1.0
  C  C131  1  0.04831000  0.89020000  0.03475000  1.0
  C  C132  1  0.62607000  0.51462000  0.16670000  1.0
  C  C133  1  0.12607000  0.48537000  0.83330000  1.0
  C  C134  1  0.62606000  0.01463000  0.83330000  1.0
  C  C135  1  0.12606000  0.98537000  0.16670000  1.0
  C  C136  1  0.73330000  0.71709000  0.02691000  1.0
  C  C137  1  0.23330000  0.28291000  0.97310000  1.0
  C  C138  1  0.73330000  0.21709000  0.97309000  1.0
  C  C139  1  0.23330000  0.78290000  0.02691000  1.0
  C  C140  1  0.61468000  0.71232000  0.16570000  1.0
  C  C141  1  0.11468000  0.28768000  0.83430000  1.0
  C  C142  1  0.61468000  0.21232000  0.83430000  1.0
  C  C143  1  0.11468000  0.78768000  0.16570000  1.0
  C  C144  1  0.80962000  0.62325000  0.16008000  1.0
  C  C145  1  0.30962000  0.37675000  0.83992000  1.0
  C  C146  1  0.80962000  0.12325000  0.83992000  1.0
  C  C147  1  0.30962000  0.87675000  0.16008000  1.0
  N  N148  1  0.61873000  0.51153000  0.06499000  1.0
  N  N149  1  0.11873000  0.48846000  0.93501000  1.0
  N  N150  1  0.61873000  0.01154000  0.93500000  1.0
  N  N151  1  0.11873000  0.98846000  0.06500000  1.0
  N  N152  1  0.80808000  0.62205000  0.05875000  1.0
  N  N153  1  0.30808000  0.37795000  0.94125000  1.0
  N  N154  1  0.80808000  0.12205000  0.94125000  1.0
  N  N155  1  0.30808000  0.87795000  0.05875000  1.0
  N  N156  1  0.60664000  0.71447000  0.06456000  1.0
  N  N157  1  0.10664000  0.28553000  0.93544000  1.0
  N  N158  1  0.60664000  0.21448000  0.93544000  1.0
  N  N159  1  0.10664000  0.78552000  0.06456000  1.0
  N  N160  1  0.68513000  0.61697000  0.19775000  1.0
  N  N161  1  0.18513000  0.38303000  0.80225000  1.0
  N  N162  1  0.68512000  0.11697000  0.80225000  1.0
  N  N163  1  0.18512000  0.88303000  0.19775000  1.0
  O  O164  1  0.35728000  0.37027000  0.15885000  1.0
  O  O165  1  0.85729000  0.62973000  0.84115000  1.0
  O  O166  1  0.35729000  0.87027000  0.84115000  1.0
  O  O167  1  0.85729000  0.12973000  0.15885000  1.0
  O  O168  1  0.50112000  0.23662000  0.14488000  1.0
  O  O169  1  0.00112000  0.76339000  0.85511000  1.0
  O  O170  1  0.50112000  0.73661000  0.85512000  1.0
  O  O171  1  0.00112000  0.26338000  0.14489000  1.0
  O  O172  1  0.50437000  0.07307000  0.24656000  1.0
  O  O173  1  0.00437000  0.92694000  0.75343000  1.0
  O  O174  1  0.50437000  0.57306000  0.75344000  1.0
  O  O175  1  0.00437000  0.42694000  0.24656000  1.0
