# generated using pymatgen
data_FeH4C8O5
_symmetry_space_group_name_H-M   'P 1'
_cell_length_a   12.22010000
_cell_length_b   12.37543142
_cell_length_c   12.37508493
_cell_angle_alpha   75.88443628
_cell_angle_beta   60.40919927
_cell_angle_gamma   60.41579019
_symmetry_Int_Tables_number   1
_chemical_formula_structural   FeH4C8O5
_chemical_formula_sum   'Fe4 H16 C32 O20'
_cell_volume   1415.22331583
_cell_formula_units_Z   4
loop_
 _symmetry_equiv_pos_site_id
 _symmetry_equiv_pos_as_xyz
  1  'x, y, z'
loop_
 _atom_site_type_symbol
 _atom_site_label
 _atom_site_symmetry_multiplicity
 _atom_site_fract_x
 _atom_site_fract_y
 _atom_site_fract_z
 _atom_site_occupancy
  Fe  Fe0  1  0.81146000  0.00006000  0.37703000  1.0
  Fe  Fe1  1  0.56151000  0.87701000  0.50002000  1.0
  Fe  Fe2  1  0.93854000  0.12299000  0.49999000  1.0
  Fe  Fe3  1  0.18853000  0.00001000  0.62297000  1.0
  H  H4  1  0.87506000  0.93643000  0.56347000  1.0
  H  H5  1  0.37508000  0.06352000  0.43646000  1.0
  H  H6  1  0.56145000  0.06353000  0.56358000  1.0
  H  H7  1  0.18848000  0.93648000  0.43648000  1.0
  H  H8  1  0.11908000  0.99990000  0.00006000  1.0
  H  H9  1  0.63098000  0.50006000  0.49990000  1.0
  H  H10  1  0.88095000  0.99997000  1.00000000  1.0
  H  H11  1  0.86910000  0.50000000  0.49985000  1.0
  H  H12  1  0.29835000  0.05640000  0.19270000  1.0
  H  H13  1  0.20266000  0.69275000  0.55617000  1.0
  H  H14  1  0.50880000  0.94377000  0.19282000  1.0
  H  H15  1  0.24107000  0.30726000  0.55626000  1.0
  H  H16  1  0.10457000  0.69280000  0.44381000  1.0
  H  H17  1  0.64540000  0.05623000  0.80724000  1.0
  H  H18  1  0.45160000  0.30716000  0.44396000  1.0
  H  H19  1  0.54745000  0.94362000  0.80723000  1.0
  C  C20  1  0.06700000  0.05121000  0.22755000  1.0
  C  C21  1  0.40426000  0.72761000  0.55102000  1.0
  C  C22  1  0.70535000  0.94892000  0.22759000  1.0
  C  C23  1  0.04461000  0.27244000  0.55111000  1.0
  C  C24  1  0.86820000  0.72759000  0.44885000  1.0
  C  C25  1  0.88188000  0.05107000  0.77242000  1.0
  C  C26  1  0.68288000  0.27241000  0.44902000  1.0
  C  C27  1  0.34575000  0.94877000  0.77247000  1.0
  C  C28  1  0.19818000  0.02705000  0.10869000  1.0
  C  C29  1  0.41611000  0.60871000  0.52699000  1.0
  C  C30  1  0.69310000  0.97299000  0.10872000  1.0
  C  C31  1  0.05684000  0.39133000  0.52703000  1.0
  C  C32  1  0.97524000  0.60871000  0.47290000  1.0
  C  C33  1  0.77485000  0.02696000  0.89129000  1.0
  C  C34  1  0.55180000  0.39130000  0.47304000  1.0
  C  C35  1  0.33394000  0.97289000  0.89131000  1.0
  C  C36  1  0.20817000  0.99994000  0.00001000  1.0
  C  C37  1  0.54187000  0.50003000  0.49998000  1.0
  C  C38  1  0.79189000  0.99997000  0.99999000  1.0
  C  C39  1  0.95816000  0.50001000  0.49992000  1.0
  C  C40  1  0.31180000  0.02974000  0.10770000  1.0
  C  C41  1  0.30081000  0.60773000  0.52962000  1.0
  C  C42  1  0.58043000  0.97034000  0.10776000  1.0
  C  C43  1  0.16951000  0.39229000  0.52968000  1.0
  C  C44  1  0.09150000  0.60774000  0.47031000  1.0
  C  C45  1  0.65856000  0.02962000  0.89226000  1.0
  C  C46  1  0.43816000  0.39225000  0.47042000  1.0
  C  C47  1  0.44926000  0.97026000  0.89225000  1.0
  C  C48  1  0.43954000  0.99999000  0.99997000  1.0
  C  C49  1  0.31049000  0.49998000  0.49998000  1.0
  C  C50  1  0.56049000  0.99998000  0.00001000  1.0
  C  C51  1  0.18951000  0.50002000  0.49998000  1.0
  O  O52  1  0.87504000  0.00032000  0.49967000  1.0
  O  O53  1  0.37500000  0.99974000  0.50038000  1.0
  O  O54  1  0.62530000  0.99968000  0.49975000  1.0
  O  O55  1  0.12470000  0.00036000  0.50028000  1.0
  O  O56  1  0.98733000  0.00860000  0.23600000  1.0
  O  O57  1  0.51808000  0.73609000  0.50834000  1.0
  O  O58  1  0.77659000  0.99151000  0.23602000  1.0
  O  O59  1  0.97350000  0.26398000  0.50837000  1.0
  O  O60  1  0.74592000  0.73602000  0.49143000  1.0
  O  O61  1  0.00419000  0.00834000  0.76394000  1.0
  O  O62  1  0.76250000  0.26393000  0.49172000  1.0
  O  O63  1  0.23192000  0.99138000  0.76403000  1.0
  O  O64  1  0.04660000  0.11064000  0.31181000  1.0
  O  O65  1  0.28096000  0.81186000  0.61041000  1.0
  O  O66  1  0.64142000  0.88954000  0.31189000  1.0
  O  O67  1  0.10846000  0.18818000  0.61054000  1.0
  O  O68  1  0.90716000  0.81192000  0.38958000  1.0
  O  O69  1  0.84284000  0.11059000  0.68818000  1.0
  O  O70  1  0.70326000  0.18816000  0.38960000  1.0
  O  O71  1  0.46902000  0.88937000  0.68819000  1.0
