# generated using pymatgen
data_Zn3H63C91N5O13
_symmetry_space_group_name_H-M   'P 1'
_cell_length_a   17.90470000
_cell_length_b   20.39150000
_cell_length_c   21.98320000
_cell_angle_alpha   63.49710000
_cell_angle_beta   75.73750000
_cell_angle_gamma   85.16330000
_symmetry_Int_Tables_number   1
_chemical_formula_structural   Zn3H63C91N5O13
_chemical_formula_sum   'Zn6 H126 C182 N10 O26'
_cell_volume   6958.26471828
_cell_formula_units_Z   2
loop_
 _symmetry_equiv_pos_site_id
 _symmetry_equiv_pos_as_xyz
  1  'x, y, z'
loop_
 _atom_site_type_symbol
 _atom_site_label
 _atom_site_symmetry_multiplicity
 _atom_site_fract_x
 _atom_site_fract_y
 _atom_site_fract_z
 _atom_site_occupancy
  Zn  Zn0  1  0.53577000  0.10218000  0.05133000  1.0
  Zn  Zn1  1  0.46423000  0.89782000  0.94867000  1.0
  Zn  Zn2  1  0.72638000  0.11383000  0.08491000  1.0
  Zn  Zn3  1  0.27362000  0.88617000  0.91509000  1.0
  Zn  Zn4  1  0.90702000  0.04647000  0.08892000  1.0
  Zn  Zn5  1  0.09298000  0.95354000  0.91108000  1.0
  H  H6  1  0.00397000  0.02285000  0.18451000  1.0
  H  H7  1  0.99603000  0.97715000  0.81549000  1.0
  H  H8  1  0.24463000  0.13180000  0.12498000  1.0
  H  H9  1  0.75537000  0.86819000  0.87502000  1.0
  H  H10  1  0.14400000  0.03254000  0.18146000  1.0
  H  H11  1  0.85600000  0.96745000  0.81855000  1.0
  H  H12  1  0.38565000  0.14359000  0.11630000  1.0
  H  H13  1  0.61435000  0.85640000  0.88370000  1.0
  H  H14  1  0.30603000  0.00278000  0.00901000  1.0
  H  H15  1  0.69398000  0.99722000  0.99099000  1.0
  H  H16  1  0.05445000  0.07040000  0.97436000  1.0
  H  H17  1  0.94556000  0.92960000  0.02564000  1.0
  H  H18  1  0.70300000  0.90090000  0.23655000  1.0
  H  H19  1  0.29700000  0.09910000  0.76345000  1.0
  H  H20  1  0.88014000  0.81474000  0.14798000  1.0
  H  H21  1  0.11987000  0.18526000  0.85202000  1.0
  H  H22  1  0.19503000  0.07972000  0.96256000  1.0
  H  H23  1  0.80497000  0.92028000  0.03744000  1.0
  H  H24  1  0.58929000  0.12656000  0.83260000  1.0
  H  H25  1  0.41071000  0.87344000  0.16740000  1.0
  H  H26  1  0.68078000  0.23824000  0.59842000  1.0
  H  H27  1  0.31923000  0.76176000  0.40158000  1.0
  H  H28  1  0.70761000  0.76574000  0.30256000  1.0
  H  H29  1  0.29239000  0.23426000  0.69744000  1.0
  H  H30  1  0.52815000  0.64283000  0.27263000  1.0
  H  H31  1  0.47185000  0.35717000  0.72737000  1.0
  H  H32  1  0.53045000  0.50769000  0.33636000  1.0
  H  H33  1  0.46955000  0.49231000  0.66364000  1.0
  H  H34  1  0.69058000  0.29509000  0.47223000  1.0
  H  H35  1  0.30943000  0.70491000  0.52777000  1.0
  H  H36  1  0.56857000  0.74017000  0.17899000  1.0
  H  H37  1  0.43142000  0.25983000  0.82101000  1.0
  H  H38  1  0.44270000  0.02126000  0.00404000  1.0
  H  H39  1  0.55730000  0.97874000  0.99596000  1.0
  H  H40  1  0.97323000  0.14013000  0.87089000  1.0
  H  H41  1  0.02677000  0.85987000  0.12911000  1.0
  H  H42  1  0.55377000  0.23349000  0.37824000  1.0
  H  H43  1  0.44623000  0.76651000  0.62176000  1.0
  H  H44  1  0.58879000  0.49022000  0.48286000  1.0
  H  H45  1  0.41120000  0.50978000  0.51714000  1.0
  H  H46  1  0.69018000  0.26518000  0.08705000  1.0
  H  H47  1  0.30982000  0.73481000  0.91295000  1.0
  H  H48  1  0.69205000  0.47475000  0.25977000  1.0
  H  H49  1  0.30796000  0.52526000  0.74023000  1.0
  H  H50  1  0.75008000  0.52466000  0.37582000  1.0
  H  H51  1  0.24992000  0.47534000  0.62418000  1.0
  H  H52  1  0.61063000  0.18476000  0.70373000  1.0
  H  H53  1  0.38936000  0.81524000  0.29627000  1.0
  H  H54  1  0.58098000  0.43393000  0.60834000  1.0
  H  H55  1  0.41900000  0.56607000  0.39166000  1.0
  H  H56  1  0.59176000  0.33792000  0.82954000  1.0
  H  H57  1  0.40824000  0.66209000  0.17046000  1.0
  H  H58  1  0.74506000  0.19736000  0.76718000  1.0
  H  H59  1  0.25494000  0.80263000  0.23282000  1.0
  H  H60  1  0.56002000  0.87465000  0.11788000  1.0
  H  H61  1  0.43998000  0.12535000  0.88212000  1.0
  H  H62  1  0.49349000  0.22637000  0.30452000  1.0
  H  H63  1  0.50651000  0.77363000  0.69548000  1.0
  H  H64  1  0.56849000  0.29633000  0.44724000  1.0
  H  H65  1  0.43152000  0.70367000  0.55276000  1.0
  H  H66  1  0.80418000  0.40026000  0.37407000  1.0
  H  H67  1  0.19582000  0.59975000  0.62592000  1.0
  H  H68  1  0.87628000  0.70504000  0.40099000  1.0
  H  H69  1  0.12372000  0.29496000  0.59901000  1.0
  H  H70  1  0.72746000  0.13221000  0.89607000  1.0
  H  H71  1  0.27254000  0.86778000  0.10393000  1.0
  H  H72  1  0.74924000  0.65937000  0.31042000  1.0
  H  H73  1  0.25076000  0.34063000  0.68958000  1.0
  H  H74  1  0.67344000  0.41364000  0.19036000  1.0
  H  H75  1  0.32656000  0.58636000  0.80964000  1.0
  H  H76  1  0.73739000  0.21395000  0.33271000  1.0
  H  H77  1  0.26262000  0.78605000  0.66729000  1.0
  H  H78  1  0.47729000  0.16477000  0.23319000  1.0
  H  H79  1  0.52270000  0.83523000  0.76682000  1.0
  H  H80  1  0.80094000  0.18157000  0.66066000  1.0
  H  H81  1  0.19906000  0.81842000  0.33934000  1.0
  H  H82  1  0.89279000  0.68062000  0.21302000  1.0
  H  H83  1  0.10721000  0.31938000  0.78698000  1.0
  H  H84  1  0.62533000  0.39695000  0.69955000  1.0
  H  H85  1  0.37467000  0.60305000  0.30045000  1.0
  H  H86  1  0.71756000  0.15947000  0.25624000  1.0
  H  H87  1  0.28244000  0.84054000  0.74375000  1.0
  H  H88  1  0.70347000  0.25805000  0.95336000  1.0
  H  H89  1  0.29652000  0.74195000  0.04663000  1.0
  H  H90  1  0.70706000  0.32710000  0.15722000  1.0
  H  H91  1  0.29294000  0.67290000  0.84277000  1.0
  H  H92  1  0.99081000  0.20703000  0.74204000  1.0
  H  H93  1  0.00919000  0.79297000  0.25795000  1.0
  H  H94  1  0.86364000  0.83960000  0.33435000  1.0
  H  H95  1  0.13636000  0.16040000  0.66564000  1.0
  H  H96  1  0.98044000  0.39902000  0.53130000  1.0
  H  H97  1  0.01957000  0.60098000  0.46870000  1.0
  H  H98  1  0.81995000  0.25234000  0.53233000  1.0
  H  H99  1  0.18005000  0.74766000  0.46766000  1.0
  H  H100  1  0.96703000  0.59266000  0.25875000  1.0
  H  H101  1  0.03297000  0.40735000  0.74125000  1.0
  H  H102  1  0.97549000  0.45842000  0.31894000  1.0
  H  H103  1  0.02451000  0.54159000  0.68106000  1.0
  H  H104  1  0.78258000  0.33154000  0.31109000  1.0
  H  H105  1  0.21742000  0.66846000  0.68891000  1.0
  H  H106  1  0.96234000  0.32776000  0.65907000  1.0
  H  H107  1  0.03766000  0.67223000  0.34093000  1.0
  H  H108  1  0.96229000  0.15910000  0.17981000  1.0
  H  H109  1  0.03771000  0.84091000  0.82019000  1.0
  H  H110  1  0.98337000  0.21243000  0.25690000  1.0
  H  H111  1  0.01663000  0.78757000  0.74310000  1.0
  H  H112  1  0.83000000  0.59181000  0.45017000  1.0
  H  H113  1  0.17000000  0.40820000  0.54983000  1.0
  H  H114  1  0.83952000  0.45793000  0.51046000  1.0
  H  H115  1  0.16048000  0.54207000  0.48954000  1.0
  H  H116  1  0.98926000  0.25868000  0.44210000  1.0
  H  H117  1  0.01075000  0.74133000  0.55789000  1.0
  H  H118  1  0.96836000  0.18984000  0.37828000  1.0
  H  H119  1  0.03165000  0.81017000  0.62172000  1.0
  H  H120  1  0.80654000  0.33231000  0.78983000  1.0
  H  H121  1  0.19346000  0.66769000  0.21017000  1.0
  H  H122  1  0.79051000  0.40706000  0.81301000  1.0
  H  H123  1  0.20949000  0.59294000  0.18699000  1.0
  H  H124  1  0.71723000  0.33726000  0.84530000  1.0
  H  H125  1  0.28277000  0.66274000  0.15470000  1.0
  H  H126  1  0.90967000  0.36744000  0.87288000  1.0
  H  H127  1  0.09032000  0.63256000  0.12712000  1.0
  H  H128  1  0.92409000  0.29765000  0.84286000  1.0
  H  H129  1  0.07591000  0.70235000  0.15714000  1.0
  H  H130  1  0.90729000  0.27253000  0.93447000  1.0
  H  H131  1  0.09270000  0.72747000  0.06553000  1.0
  C  C132  1  0.04883000  0.03669000  0.13661000  1.0
  C  C133  1  0.95117000  0.96330000  0.86339000  1.0
  C  C134  1  0.28687000  0.10557000  0.09855000  1.0
  C  C135  1  0.71313000  0.89442000  0.90145000  1.0
  C  C136  1  0.12623000  0.04239000  0.13419000  1.0
  C  C137  1  0.87377000  0.95761000  0.86581000  1.0
  C  C138  1  0.36471000  0.11287000  0.09375000  1.0
  C  C139  1  0.63529000  0.88713000  0.90625000  1.0
  C  C140  1  0.64038000  0.50760000  0.35983000  1.0
  C  C141  1  0.35962000  0.49240000  0.64017000  1.0
  C  C142  1  0.63899000  0.66178000  0.28580000  1.0
  C  C143  1  0.36100000  0.33822000  0.71420000  1.0
  C  C144  1  0.18121000  0.05863000  0.07123000  1.0
  C  C145  1  0.81879000  0.94137000  0.92877000  1.0
  C  C146  1  0.62504000  0.97787000  0.13667000  1.0
  C  C147  1  0.37496000  0.02213000  0.86333000  1.0
  C  C148  1  0.63792000  0.74232000  0.24634000  1.0
  C  C149  1  0.36208000  0.25768000  0.75366000  1.0
  C  C150  1  0.56790000  0.19509000  0.91755000  1.0
  C  C151  1  0.43210000  0.80491000  0.08245000  1.0
  C  C152  1  0.63847000  0.39639000  0.46798000  1.0
  C  C153  1  0.36153000  0.60361000  0.53202000  1.0
  C  C154  1  0.32069000  0.03527000  0.03281000  1.0
  C  C155  1  0.67931000  0.96473000  0.96719000  1.0
  C  C156  1  0.07654000  0.06243000  0.01909000  1.0
  C  C157  1  0.92346000  0.93757000  0.98091000  1.0
  C  C158  1  0.60139000  0.28194000  0.23614000  1.0
  C  C159  1  0.39861000  0.71806000  0.76386000  1.0
  C  C160  1  0.58217000  0.21148000  0.15535000  1.0
  C  C161  1  0.41783000  0.78851000  0.84466000  1.0
  C  C162  1  0.87550000  0.91710000  0.19640000  1.0
  C  C163  1  0.12450000  0.08290000  0.80359000  1.0
  C  C164  1  0.67328000  0.86485000  0.22500000  1.0
  C  C165  1  0.32672000  0.13515000  0.77500000  1.0
  C  C166  1  0.61996000  0.29560000  0.69105000  1.0
  C  C167  1  0.38004000  0.70440000  0.30895000  1.0
  C  C168  1  0.87997000  0.24951000  0.66944000  1.0
  C  C169  1  0.12003000  0.75049000  0.33056000  1.0
  C  C170  1  0.57241000  0.17340000  0.11389000  1.0
  C  C171  1  0.42759000  0.82659000  0.88611000  1.0
  C  C172  1  0.26363000  0.06629000  0.06737000  1.0
  C  C173  1  0.73637000  0.93370000  0.93263000  1.0
  C  C174  1  0.87955000  0.79014000  0.20343000  1.0
  C  C175  1  0.12045000  0.20986000  0.79657000  1.0
  C  C176  1  0.63216000  0.39020000  0.35889000  1.0
  C  C177  1  0.36784000  0.60980000  0.64110000  1.0
  C  C178  1  0.63061000  0.89633000  0.17358000  1.0
  C  C179  1  0.36939000  0.10367000  0.82643000  1.0
  C  C180  1  0.15525000  0.06790000  0.01277000  1.0
  C  C181  1  0.84476000  0.93210000  0.98723000  1.0
  C  C182  1  0.61214000  0.31828000  0.27837000  1.0
  C  C183  1  0.38786000  0.68173000  0.72163000  1.0
  C  C184  1  0.82734000  0.13047000  0.16246000  1.0
  C  C185  1  0.17266000  0.86953000  0.83754000  1.0
  C  C186  1  0.59691000  0.18591000  0.80292000  1.0
  C  C187  1  0.40309000  0.81409000  0.19708000  1.0
  C  C188  1  0.84077000  0.09996000  0.96847000  1.0
  C  C189  1  0.15923000  0.90004000  0.03153000  1.0
  C  C190  1  0.65951000  0.29336000  0.57375000  1.0
  C  C191  1  0.34049000  0.70665000  0.42625000  1.0
  C  C192  1  0.67617000  0.78905000  0.26126000  1.0
  C  C193  1  0.32384000  0.21095000  0.73875000  1.0
  C  C194  1  0.57780000  0.61739000  0.29380000  1.0
  C  C195  1  0.42220000  0.38261000  0.70620000  1.0
  C  C196  1  0.58953000  0.22861000  0.83927000  1.0
  C  C197  1  0.41047000  0.77139000  0.16073000  1.0
  C  C198  1  0.57831000  0.54156000  0.33030000  1.0
  C  C199  1  0.42169000  0.45844000  0.66970000  1.0
  C  C200  1  0.66494000  0.32520000  0.50219000  1.0
  C  C201  1  0.33506000  0.67480000  0.49780000  1.0
  C  C202  1  0.59737000  0.77461000  0.19307000  1.0
  C  C203  1  0.40263000  0.22539000  0.80694000  1.0
  C  C204  1  0.87192000  0.83552000  0.23708000  1.0
  C  C205  1  0.12809000  0.16448000  0.76291000  1.0
  C  C206  1  0.39744000  0.04467000  0.03083000  1.0
  C  C207  1  0.60256000  0.95532000  0.96917000  1.0
  C  C208  1  0.92361000  0.15322000  0.84760000  1.0
  C  C209  1  0.07639000  0.84678000  0.15240000  1.0
  C  C210  1  0.89713000  0.60327000  0.34933000  1.0
  C  C211  1  0.10286000  0.39673000  0.65067000  1.0
  C  C212  1  0.58362000  0.28693000  0.35140000  1.0
  C  C213  1  0.41639000  0.71307000  0.64860000  1.0
  C  C214  1  0.88715000  0.68266000  0.31173000  1.0
  C  C215  1  0.11285000  0.31734000  0.68827000  1.0
  C  C216  1  0.83872000  0.15722000  0.21261000  1.0
  C  C217  1  0.16128000  0.84278000  0.78739000  1.0
  C  C218  1  0.60967000  0.43503000  0.50791000  1.0
  C  C219  1  0.39032000  0.56496000  0.49209000  1.0
  C  C220  1  0.90068000  0.33070000  0.52325000  1.0
  C  C221  1  0.09932000  0.66930000  0.47675000  1.0
  C  C222  1  0.86180000  0.21771000  0.29953000  1.0
  C  C223  1  0.13820000  0.78229000  0.70047000  1.0
  C  C224  1  0.64654000  0.25793000  0.13409000  1.0
  C  C225  1  0.35345000  0.74206000  0.86591000  1.0
  C  C226  1  0.66179000  0.42163000  0.28591000  1.0
  C  C227  1  0.33821000  0.57837000  0.71409000  1.0
  C  C228  1  0.70146000  0.55072000  0.35305000  1.0
  C  C229  1  0.29854000  0.44928000  0.64694000  1.0
  C  C230  1  0.61031000  0.21896000  0.73030000  1.0
  C  C231  1  0.38969000  0.78104000  0.26970000  1.0
  C  C232  1  0.84958000  0.13252000  0.89154000  1.0
  C  C233  1  0.15042000  0.86748000  0.10846000  1.0
  C  C234  1  0.60603000  0.40289000  0.57916000  1.0
  C  C235  1  0.39397000  0.59711000  0.42084000  1.0
  C  C236  1  0.59905000  0.30494000  0.80085000  1.0
  C  C237  1  0.40095000  0.69506000  0.19915000  1.0
  C  C238  1  0.62951000  0.33078000  0.61457000  1.0
  C  C239  1  0.37049000  0.66922000  0.38543000  1.0
  C  C240  1  0.79527000  0.18404000  0.78978000  1.0
  C  C241  1  0.20473000  0.81596000  0.21022000  1.0
  C  C242  1  0.59303000  0.85029000  0.15787000  1.0
  C  C243  1  0.40696000  0.14971000  0.84214000  1.0
  C  C244  1  0.53710000  0.23498000  0.25701000  1.0
  C  C245  1  0.46290000  0.76502000  0.74300000  1.0
  C  C246  1  0.59270000  0.32189000  0.39104000  1.0
  C  C247  1  0.40730000  0.67811000  0.60895000  1.0
  C  C248  1  0.84025000  0.35422000  0.37476000  1.0
  C  C249  1  0.15975000  0.64578000  0.62524000  1.0
  C  C250  1  0.87578000  0.72838000  0.34577000  1.0
  C  C251  1  0.12422000  0.27162000  0.65423000  1.0
  C  C252  1  0.78523000  0.14759000  0.86208000  1.0
  C  C253  1  0.21477000  0.85241000  0.13792000  1.0
  C  C254  1  0.70036000  0.62675000  0.31670000  1.0
  C  C255  1  0.29964000  0.37325000  0.68330000  1.0
  C  C256  1  0.86917000  0.20746000  0.74568000  1.0
  C  C257  1  0.13083000  0.79254000  0.25431000  1.0
  C  C258  1  0.65150000  0.38660000  0.24692000  1.0
  C  C259  1  0.34850000  0.61341000  0.75308000  1.0
  C  C260  1  0.78691000  0.20188000  0.29931000  1.0
  C  C261  1  0.21309000  0.79812000  0.70069000  1.0
  C  C262  1  0.52733000  0.20069000  0.21710000  1.0
  C  C263  1  0.47267000  0.79931000  0.78290000  1.0
  C  C264  1  0.84029000  0.22933000  0.63242000  1.0
  C  C265  1  0.15971000  0.77067000  0.36758000  1.0
  C  C266  1  0.88762000  0.71512000  0.23999000  1.0
  C  C267  1  0.11238000  0.28488000  0.76001000  1.0
  C  C268  1  0.61600000  0.33763000  0.72818000  1.0
  C  C269  1  0.38399000  0.66238000  0.27182000  1.0
  C  C270  1  0.77545000  0.17149000  0.25675000  1.0
  C  C271  1  0.22455000  0.82852000  0.74325000  1.0
  C  C272  1  0.76477000  0.25981000  0.95423000  1.0
  C  C273  1  0.23522000  0.74019000  0.04577000  1.0
  C  C274  1  0.65554000  0.29288000  0.17363000  1.0
  C  C275  1  0.34445000  0.70712000  0.82637000  1.0
  C  C276  1  0.89858000  0.33406000  0.41166000  1.0
  C  C277  1  0.10142000  0.66595000  0.58834000  1.0
  C  C278  1  0.93321000  0.19092000  0.77569000  1.0
  C  C279  1  0.06679000  0.80908000  0.22431000  1.0
  C  C280  1  0.86870000  0.80364000  0.30895000  1.0
  C  C281  1  0.13130000  0.19636000  0.69105000  1.0
  C  C282  1  0.94118000  0.35124000  0.55958000  1.0
  C  C283  1  0.05882000  0.64876000  0.44042000  1.0
  C  C284  1  0.87403000  0.25580000  0.33983000  1.0
  C  C285  1  0.12597000  0.74420000  0.66017000  1.0
  C  C286  1  0.85083000  0.26874000  0.56047000  1.0
  C  C287  1  0.14918000  0.73126000  0.43952000  1.0
  C  C288  1  0.93818000  0.56354000  0.31387000  1.0
  C  C289  1  0.06182000  0.43646000  0.68613000  1.0
  C  C290  1  0.94381000  0.48805000  0.34757000  1.0
  C  C291  1  0.05619000  0.51195000  0.65243000  1.0
  C  C292  1  0.82806000  0.31525000  0.33971000  1.0
  C  C293  1  0.17194000  0.68475000  0.66028000  1.0
  C  C294  1  0.90776000  0.44854000  0.41882000  1.0
  C  C295  1  0.09224000  0.55146000  0.58118000  1.0
  C  C296  1  0.93084000  0.31093000  0.63152000  1.0
  C  C297  1  0.06916000  0.68907000  0.36848000  1.0
  C  C298  1  0.91362000  0.17055000  0.21429000  1.0
  C  C299  1  0.08638000  0.82946000  0.78571000  1.0
  C  C300  1  0.92501000  0.19994000  0.25756000  1.0
  C  C301  1  0.07500000  0.80006000  0.74243000  1.0
  C  C302  1  0.86397000  0.56343000  0.42120000  1.0
  C  C303  1  0.13603000  0.43658000  0.57880000  1.0
  C  C304  1  0.86865000  0.48765000  0.45555000  1.0
  C  C305  1  0.13135000  0.51235000  0.54445000  1.0
  C  C306  1  0.94463000  0.27470000  0.41255000  1.0
  C  C307  1  0.05537000  0.72530000  0.58745000  1.0
  C  C308  1  0.93255000  0.23631000  0.37681000  1.0
  C  C309  1  0.06745000  0.76370000  0.62318000  1.0
  C  C310  1  0.77953000  0.34803000  0.83194000  1.0
  C  C311  1  0.22047000  0.65197000  0.16806000  1.0
  C  C312  1  0.89286000  0.31131000  0.88533000  1.0
  C  C313  1  0.10713000  0.68868000  0.11467000  1.0
  N  N314  1  0.41936000  0.08270000  0.06052000  1.0
  N  N315  1  0.58065000  0.91730000  0.93948000  1.0
  N  N316  1  0.02434000  0.04735000  0.07966000  1.0
  N  N317  1  0.97566000  0.95265000  0.92034000  1.0
  N  N318  1  0.64090000  0.42934000  0.39596000  1.0
  N  N319  1  0.35911000  0.57067000  0.60404000  1.0
  N  N320  1  0.90918000  0.37160000  0.45031000  1.0
  N  N321  1  0.09082000  0.62841000  0.54969000  1.0
  N  N322  1  0.81024000  0.30563000  0.89324000  1.0
  N  N323  1  0.18976000  0.69437000  0.10676000  1.0
  O  O324  1  0.75855000  0.11840000  0.16272000  1.0
  O  O325  1  0.24145000  0.88161000  0.83727000  1.0
  O  O326  1  0.90291000  0.09114000  0.98962000  1.0
  O  O327  1  0.09709000  0.90887000  0.01037000  1.0
  O  O328  1  0.57658000  0.00212000  0.09770000  1.0
  O  O329  1  0.42343000  0.99788000  0.90231000  1.0
  O  O330  1  0.77295000  0.08408000  0.00820000  1.0
  O  O331  1  0.22705000  0.91592000  0.99180000  1.0
  O  O332  1  0.66813000  0.01627000  0.14710000  1.0
  O  O333  1  0.33187000  0.98372000  0.85291000  1.0
  O  O334  1  0.62939000  0.17028000  0.06623000  1.0
  O  O335  1  0.37060000  0.82972000  0.93378000  1.0
  O  O336  1  0.87328000  0.94282000  0.13076000  1.0
  O  O337  1  0.12673000  0.05718000  0.86924000  1.0
  O  O338  1  0.50751000  0.14395000  0.12489000  1.0
  O  O339  1  0.49249000  0.85605000  0.87511000  1.0
  O  O340  1  0.57701000  0.12475000  0.95025000  1.0
  O  O341  1  0.42299000  0.87525000  0.04975000  1.0
  O  O342  1  0.88800000  0.12289000  0.12146000  1.0
  O  O343  1  0.11200000  0.87712000  0.87854000  1.0
  O  O344  1  0.78869000  0.22166000  0.00824000  1.0
  O  O345  1  0.21130000  0.77834000  0.99177000  1.0
  O  O346  1  0.88471000  0.95687000  0.22406000  1.0
  O  O347  1  0.11530000  0.04313000  0.77594000  1.0
  O  O348  1  0.54170000  0.23410000  0.94832000  1.0
  O  O349  1  0.45830000  0.76591000  0.05168000  1.0
