# generated using pymatgen
data_AlH10(C2O)6
_symmetry_space_group_name_H-M   'P 1'
_cell_length_a   6.66017000
_cell_length_b   16.07650000
_cell_length_c   17.02790000
_cell_angle_alpha   78.71850000
_cell_angle_beta   86.48520000
_cell_angle_gamma   86.27490000
_symmetry_Int_Tables_number   1
_chemical_formula_structural   AlH10(C2O)6
_chemical_formula_sum   'Al4 H40 C48 O24'
_cell_volume   1782.00786578
_cell_formula_units_Z   4
loop_
 _symmetry_equiv_pos_site_id
 _symmetry_equiv_pos_as_xyz
  1  'x, y, z'
loop_
 _atom_site_type_symbol
 _atom_site_label
 _atom_site_symmetry_multiplicity
 _atom_site_fract_x
 _atom_site_fract_y
 _atom_site_fract_z
 _atom_site_occupancy
  Al  Al0  1  0.87064000  0.50262000  0.49900000  1.0
  Al  Al1  1  0.37063000  0.50164000  0.49939000  1.0
  Al  Al2  1  0.35775000  0.00112000  0.00283000  1.0
  Al  Al3  1  0.85731000  0.00306000  0.00293000  1.0
  H  H4  1  0.35820000  0.18535000  0.13725000  1.0
  H  H5  1  0.36895000  0.81020000  0.86781000  1.0
  H  H6  1  0.50726000  0.29068000  0.20255000  1.0
  H  H7  1  0.22789000  0.70509000  0.80051000  1.0
  H  H8  1  0.73736000  0.19263000  0.31528000  1.0
  H  H9  1  0.99236000  0.81226000  0.69021000  1.0
  H  H10  1  0.47579000  0.38574000  0.30307000  1.0
  H  H11  1  0.26544000  0.61348000  0.69719000  1.0
  H  H12  1  0.87190000  0.31094000  0.37130000  1.0
  H  H13  1  0.86373000  0.69602000  0.63005000  1.0
  H  H14  1  0.39719000  0.23499000  0.83860000  1.0
  H  H15  1  0.86978000  0.85149000  0.24626000  1.0
  H  H16  1  0.42444000  0.15778000  0.77759000  1.0
  H  H17  1  0.63904000  0.90074000  0.27591000  1.0
  H  H18  1  0.42233000  0.26311000  0.66264000  1.0
  H  H19  1  0.57096000  0.78873000  0.38049000  1.0
  H  H20  1  0.41167000  0.34061000  0.72297000  1.0
  H  H21  1  0.82706000  0.75423000  0.36747000  1.0
  H  H22  1  0.04451000  0.28487000  0.88537000  1.0
  H  H23  1  0.87721000  0.76112000  0.13944000  1.0
  H  H24  1  0.07380000  0.39519000  0.77494000  1.0
  H  H25  1  0.91339000  0.66324000  0.26016000  1.0
  H  H26  1  0.87367000  0.13948000  0.75809000  1.0
  H  H27  1  0.30474000  0.78856000  0.16849000  1.0
  H  H28  1  0.11927000  0.10872000  0.72297000  1.0
  H  H29  1  0.31902000  0.84166000  0.24940000  1.0
  H  H30  1  0.85917000  0.25874000  0.65521000  1.0
  H  H31  1  0.37405000  0.65414000  0.24820000  1.0
  H  H32  1  0.83223000  0.24906000  0.84683000  1.0
  H  H33  1  0.65021000  0.71825000  0.12075000  1.0
  H  H34  1  0.84851000  0.36598000  0.74044000  1.0
  H  H35  1  0.72450000  0.60722000  0.22789000  1.0
  H  H36  1  0.07401000  0.26090000  0.53548000  1.0
  H  H37  1  0.12944000  0.65176000  0.35077000  1.0
  H  H38  1  0.78002000  0.01919000  0.19963000  1.0
  H  H39  1  0.93070000  0.98705000  0.80193000  1.0
  H  H40  1  0.63179000  0.39406000  0.54035000  1.0
  H  H41  1  0.10417000  0.61280000  0.50035000  1.0
  H  H42  1  0.59570000  0.10805000  0.95639000  1.0
  H  H43  1  0.12294000  0.90293000  0.97638000  1.0
  C  C44  1  0.62510000  0.61507000  0.38206000  1.0
  C  C45  1  0.11709000  0.38686000  0.61575000  1.0
  C  C46  1  0.58716000  0.59421000  0.59725000  1.0
  C  C47  1  0.15397000  0.41096000  0.40149000  1.0
  C  C48  1  0.06625000  0.13814000  0.16952000  1.0
  C  C49  1  0.65656000  0.86204000  0.83616000  1.0
  C  C50  1  0.16992000  0.35418000  0.34172000  1.0
  C  C51  1  0.56894000  0.64900000  0.65886000  1.0
  C  C52  1  0.36853000  0.29544000  0.23931000  1.0
  C  C53  1  0.36692000  0.70270000  0.76347000  1.0
  C  C54  1  0.35163000  0.34803000  0.29443000  1.0
  C  C55  1  0.38717000  0.65202000  0.70672000  1.0
  C  C56  1  0.01005000  0.30579000  0.33427000  1.0
  C  C57  1  0.72575000  0.69836000  0.66768000  1.0
  C  C58  1  0.02615000  0.24890000  0.28010000  1.0
  C  C59  1  0.70623000  0.75328000  0.72364000  1.0
  C  C60  1  0.20781000  0.24463000  0.23071000  1.0
  C  C61  1  0.52418000  0.75473000  0.77323000  1.0
  C  C62  1  0.22212000  0.18877000  0.17571000  1.0
  C  C63  1  0.50547000  0.80939000  0.82929000  1.0
  C  C64  1  0.88919000  0.13889000  0.22157000  1.0
  C  C65  1  0.83477000  0.86341000  0.78449000  1.0
  C  C66  1  0.87153000  0.19413000  0.27492000  1.0
  C  C67  1  0.85758000  0.80906000  0.73035000  1.0
  C  C68  1  0.33274000  0.21416000  0.78823000  1.0
  C  C69  1  0.70997000  0.84104000  0.26269000  1.0
  C  C70  1  0.33648000  0.28518000  0.71252000  1.0
  C  C71  1  0.68468000  0.76923000  0.33721000  1.0
  C  C72  1  0.98839000  0.26698000  0.83188000  1.0
  C  C73  1  0.73058000  0.74039000  0.16676000  1.0
  C  C74  1  0.02536000  0.16167000  0.74047000  1.0
  C  C75  1  0.39355000  0.79216000  0.21975000  1.0
  C  C76  1  0.11552000  0.18896000  0.81223000  1.0
  C  C77  1  0.60854000  0.81743000  0.19144000  1.0
  C  C78  1  0.12092000  0.31378000  0.68790000  1.0
  C  C79  1  0.61618000  0.68873000  0.31134000  1.0
  C  C80  1  0.99943000  0.34181000  0.75940000  1.0
  C  C81  1  0.75765000  0.66907000  0.24122000  1.0
  C  C82  1  0.01587000  0.23618000  0.66814000  1.0
  C  C83  1  0.40060000  0.70596000  0.27954000  1.0
  C  C84  1  0.63342000  0.91300000  0.90095000  1.0
  C  C85  1  0.08537000  0.08713000  0.10480000  1.0
  C  C86  1  0.61008000  0.88986000  0.11925000  1.0
  C  C87  1  0.10715000  0.11760000  0.88563000  1.0
  C  C88  1  0.11224000  0.21419000  0.59112000  1.0
  C  C89  1  0.23426000  0.70391000  0.34509000  1.0
  C  C90  1  0.73495000  0.07481000  0.22742000  1.0
  C  C91  1  0.98540000  0.92876000  0.77977000  1.0
  O  O92  1  0.42376000  0.56732000  0.57876000  1.0
  O  O93  1  0.97896000  0.42683000  0.43158000  1.0
  O  O94  1  0.79687000  0.58432000  0.40528000  1.0
  O  O95  1  0.28603000  0.41080000  0.58315000  1.0
  O  O96  1  0.76299000  0.57920000  0.56730000  1.0
  O  O97  1  0.31722000  0.43820000  0.41937000  1.0
  O  O98  1  0.94487000  0.41796000  0.59285000  1.0
  O  O99  1  0.45758000  0.58947000  0.41506000  1.0
  O  O100  1  0.62816000  0.44987000  0.50616000  1.0
  O  O101  1  0.11349000  0.55356000  0.49541000  1.0
  O  O102  1  0.77807000  0.92268000  0.09637000  1.0
  O  O103  1  0.27112000  0.09385000  0.92006000  1.0
  O  O104  1  0.45517000  0.93606000  0.92210000  1.0
  O  O105  1  0.92401000  0.07586000  0.07238000  1.0
  O  O106  1  0.44615000  0.91136000  0.08445000  1.0
  O  O107  1  0.93557000  0.08792000  0.90859000  1.0
  O  O108  1  0.26160000  0.06153000  0.08437000  1.0
  O  O109  1  0.79488000  0.92740000  0.93188000  1.0
  O  O110  1  0.60059000  0.05483000  0.99479000  1.0
  O  O111  1  0.11363000  0.95024000  0.00426000  1.0
  O  O112  1  0.22701000  0.15282000  0.58703000  1.0
  O  O113  1  0.20479000  0.75763000  0.38732000  1.0
  O  O114  1  0.57005000  0.07973000  0.26311000  1.0
  O  O115  1  0.15734000  0.92230000  0.75051000  1.0
