# generated using pymatgen
data_LaH18C36Br6N4O7
_symmetry_space_group_name_H-M   'P 1'
_cell_length_a   8.63103000
_cell_length_b   13.67910000
_cell_length_c   33.96710000
_cell_angle_alpha   90.00020000
_cell_angle_beta   90.00020000
_cell_angle_gamma   96.31160000
_symmetry_Int_Tables_number   1
_chemical_formula_structural   LaH18C36Br6N4O7
_chemical_formula_sum   'La4 H72 C144 Br24 N16 O28'
_cell_volume   3986.00857895
_cell_formula_units_Z   4
loop_
 _symmetry_equiv_pos_site_id
 _symmetry_equiv_pos_as_xyz
  1  'x, y, z'
loop_
 _atom_site_type_symbol
 _atom_site_label
 _atom_site_symmetry_multiplicity
 _atom_site_fract_x
 _atom_site_fract_y
 _atom_site_fract_z
 _atom_site_occupancy
  La  La0  1  0.46361000  0.71067000  0.36978000  1.0
  La  La1  1  0.03639000  0.78934000  0.86978000  1.0
  La  La2  1  0.53640000  0.28934000  0.63021000  1.0
  La  La3  1  0.96361000  0.21066000  0.13022000  1.0
  H  H4  1  0.89038000  0.33316000  0.36598000  1.0
  H  H5  1  0.60962000  0.16684000  0.86598000  1.0
  H  H6  1  0.10961000  0.66684000  0.63402000  1.0
  H  H7  1  0.39038000  0.83316000  0.13402000  1.0
  H  H8  1  0.41092000  0.20973000  0.42816000  1.0
  H  H9  1  0.08908000  0.29026000  0.92817000  1.0
  H  H10  1  0.58908000  0.79026000  0.57183000  1.0
  H  H11  1  0.91092000  0.70973000  0.07184000  1.0
  H  H12  1  0.35762000  0.84707000  0.45204000  1.0
  H  H13  1  0.14238000  0.65293000  0.95204000  1.0
  H  H14  1  0.64239000  0.15293000  0.54796000  1.0
  H  H15  1  0.85761000  0.34706000  0.04795000  1.0
  H  H16  1  0.14968000  0.66281000  0.33681000  1.0
  H  H17  1  0.35032000  0.83719000  0.83681000  1.0
  H  H18  1  0.85032000  0.33719000  0.66319000  1.0
  H  H19  1  0.64968000  0.16281000  0.16319000  1.0
  H  H20  1  0.10050000  0.75067000  0.36518000  1.0
  H  H21  1  0.39950000  0.74933000  0.86518000  1.0
  H  H22  1  0.89950000  0.24934000  0.63482000  1.0
  H  H23  1  0.60050000  0.25066000  0.13482000  1.0
  H  H24  1  0.12898000  0.58055000  0.40919000  1.0
  H  H25  1  0.37101000  0.91945000  0.90919000  1.0
  H  H26  1  0.87101000  0.41945000  0.59081000  1.0
  H  H27  1  0.62899000  0.08055000  0.09081000  1.0
  H  H28  1  0.16909000  0.28149000  0.44524000  1.0
  H  H29  1  0.33091000  0.21850000  0.94524000  1.0
  H  H30  1  0.83091000  0.71851000  0.55476000  1.0
  H  H31  1  0.66910000  0.78149000  0.05476000  1.0
  H  H32  1  0.82512000  0.63561000  0.34234000  1.0
  H  H33  1  0.67487000  0.86438000  0.84235000  1.0
  H  H34  1  0.17487000  0.36438000  0.65765000  1.0
  H  H35  1  0.32513000  0.13562000  0.15765000  1.0
  H  H36  1  0.67516000  0.22823000  0.39808000  1.0
  H  H37  1  0.82485000  0.27177000  0.89808000  1.0
  H  H38  1  0.32484000  0.77177000  0.60191000  1.0
  H  H39  1  0.17516000  0.72823000  0.10192000  1.0
  H  H40  1  0.52750000  0.77803000  0.27221000  1.0
  H  H41  1  0.97250000  0.72197000  0.77220000  1.0
  H  H42  1  0.47250000  0.22197000  0.72780000  1.0
  H  H43  1  0.02750000  0.27804000  0.22779000  1.0
  H  H44  1  0.99285000  0.49946000  0.33848000  1.0
  H  H45  1  0.50715000  0.00054000  0.83848000  1.0
  H  H46  1  0.00715000  0.50054000  0.66152000  1.0
  H  H47  1  0.49286000  0.99946000  0.16152000  1.0
  H  H48  1  0.01130000  0.42596000  0.44161000  1.0
  H  H49  1  0.48870000  0.07403000  0.94161000  1.0
  H  H50  1  0.98869000  0.57404000  0.55839000  1.0
  H  H51  1  0.51131000  0.92596000  0.05839000  1.0
  H  H52  1  0.47254000  0.89322000  0.21825000  1.0
  H  H53  1  0.02745000  0.60677000  0.71825000  1.0
  H  H54  1  0.52745000  0.10677000  0.78175000  1.0
  H  H55  1  0.97255000  0.39323000  0.28175000  1.0
  H  H56  1  0.31918000  0.03383000  0.23369000  1.0
  H  H57  1  0.18081000  0.46616000  0.73369000  1.0
  H  H58  1  0.68082000  0.96616000  0.76631000  1.0
  H  H59  1  0.81918000  0.53384000  0.26631000  1.0
  H  H60  1  0.12495000  0.10236000  0.42423000  1.0
  H  H61  1  0.37504000  0.39764000  0.92424000  1.0
  H  H62  1  0.87505000  0.89764000  0.57576000  1.0
  H  H63  1  0.62495000  0.60236000  0.07576000  1.0
  H  H64  1  0.12096000  0.15567000  0.35408000  1.0
  H  H65  1  0.37904000  0.34433000  0.85408000  1.0
  H  H66  1  0.87904000  0.84433000  0.64592000  1.0
  H  H67  1  0.62096000  0.65566000  0.14592000  1.0
  H  H68  1  0.21168000  0.98583000  0.47467000  1.0
  H  H69  1  0.28832000  0.51417000  0.97467000  1.0
  H  H70  1  0.78832000  0.01417000  0.52533000  1.0
  H  H71  1  0.71168000  0.48582000  0.02533000  1.0
  H  H72  1  0.19042000  0.13001000  0.28423000  1.0
  H  H73  1  0.30959000  0.36999000  0.78423000  1.0
  H  H74  1  0.80959000  0.86999000  0.71578000  1.0
  H  H75  1  0.69040000  0.63000000  0.21577000  1.0
  C  C76  1  0.30935000  0.94783000  0.36580000  1.0
  C  C77  1  0.19065000  0.55217000  0.86580000  1.0
  C  C78  1  0.69066000  0.05217000  0.63420000  1.0
  C  C79  1  0.80934000  0.44783000  0.13420000  1.0
  C  C80  1  0.42522000  0.45185000  0.39877000  1.0
  C  C81  1  0.07478000  0.04815000  0.89877000  1.0
  C  C82  1  0.57478000  0.54815000  0.60123000  1.0
  C  C83  1  0.92523000  0.95185000  0.10123000  1.0
  C  C84  1  0.58164000  0.46407000  0.38311000  1.0
  C  C85  1  0.91836000  0.03593000  0.88311000  1.0
  C  C86  1  0.41835000  0.53593000  0.61689000  1.0
  C  C87  1  0.08165000  0.96407000  0.11689000  1.0
  C  C88  1  0.82058000  0.39500000  0.36649000  1.0
  C  C89  1  0.67942000  0.10500000  0.86650000  1.0
  C  C90  1  0.17941000  0.60500000  0.63350000  1.0
  C  C91  1  0.32058000  0.89500000  0.13351000  1.0
  C  C92  1  0.36583000  0.35917000  0.41492000  1.0
  C  C93  1  0.13417000  0.14083000  0.91492000  1.0
  C  C94  1  0.63416000  0.64083000  0.58508000  1.0
  C  C95  1  0.86584000  0.85917000  0.08508000  1.0
  C  C96  1  0.79780000  0.00040000  0.32135000  1.0
  C  C97  1  0.70222000  0.49960000  0.82135000  1.0
  C  C98  1  0.20221000  0.99960000  0.67866000  1.0
  C  C99  1  0.29778000  0.50040000  0.17866000  1.0
  C  C100  1  0.22720000  0.02916000  0.37574000  1.0
  C  C101  1  0.27280000  0.47084000  0.87574000  1.0
  C  C102  1  0.77281000  0.97084000  0.62426000  1.0
  C  C103  1  0.72719000  0.52916000  0.12426000  1.0
  C  C104  1  0.64396000  0.53546000  0.48398000  1.0
  C  C105  1  0.85603000  0.96455000  0.98398000  1.0
  C  C106  1  0.35604000  0.46455000  0.51602000  1.0
  C  C107  1  0.14396000  0.03546000  0.01602000  1.0
  C  C108  1  0.52742000  0.59867000  0.48696000  1.0
  C  C109  1  0.97257000  0.90134000  0.98696000  1.0
  C  C110  1  0.47258000  0.40134000  0.51304000  1.0
  C  C111  1  0.02743000  0.09867000  0.01304000  1.0
  C  C112  1  0.45873000  0.27877000  0.41471000  1.0
  C  C113  1  0.04127000  0.22123000  0.91471000  1.0
  C  C114  1  0.54126000  0.72123000  0.58529000  1.0
  C  C115  1  0.95874000  0.77877000  0.08529000  1.0
  C  C116  1  0.85084000  0.83719000  0.35210000  1.0
  C  C117  1  0.64917000  0.66280000  0.85211000  1.0
  C  C118  1  0.14917000  0.16281000  0.64790000  1.0
  C  C119  1  0.35083000  0.33719000  0.14790000  1.0
  C  C120  1  0.87029000  0.87148000  0.27933000  1.0
  C  C121  1  0.62971000  0.62852000  0.77933000  1.0
  C  C122  1  0.12971000  0.12852000  0.72067000  1.0
  C  C123  1  0.37030000  0.37148000  0.22067000  1.0
  C  C124  1  0.78709000  0.06109000  0.28842000  1.0
  C  C125  1  0.71294000  0.43892000  0.78842000  1.0
  C  C126  1  0.21292000  0.93891000  0.71158000  1.0
  C  C127  1  0.28707000  0.56108000  0.21159000  1.0
  C  C128  1  0.84073000  0.90553000  0.31709000  1.0
  C  C129  1  0.65928000  0.59447000  0.81710000  1.0
  C  C130  1  0.15928000  0.09447000  0.68290000  1.0
  C  C131  1  0.34072000  0.40553000  0.18291000  1.0
  C  C132  1  0.81169000  0.02599000  0.25032000  1.0
  C  C133  1  0.68832000  0.47401000  0.75032000  1.0
  C  C134  1  0.18831000  0.97401000  0.74968000  1.0
  C  C135  1  0.31168000  0.52598000  0.24968000  1.0
  C  C136  1  0.31816000  0.89919000  0.43096000  1.0
  C  C137  1  0.18185000  0.60081000  0.93096000  1.0
  C  C138  1  0.68185000  0.10081000  0.56904000  1.0
  C  C139  1  0.81814000  0.39918000  0.06904000  1.0
  C  C140  1  0.85077000  0.92975000  0.24624000  1.0
  C  C141  1  0.64923000  0.57025000  0.74625000  1.0
  C  C142  1  0.14922000  0.07025000  0.75376000  1.0
  C  C143  1  0.35078000  0.42975000  0.25376000  1.0
  C  C144  1  0.66971000  0.38180000  0.38292000  1.0
  C  C145  1  0.83029000  0.11820000  0.88292000  1.0
  C  C146  1  0.33029000  0.61820000  0.61708000  1.0
  C  C147  1  0.16971000  0.88180000  0.11709000  1.0
  C  C148  1  0.61679000  0.43789000  0.49704000  1.0
  C  C149  1  0.88321000  0.06213000  0.99704000  1.0
  C  C150  1  0.38321000  0.56213000  0.50296000  1.0
  C  C151  1  0.11678000  0.93788000  0.00296000  1.0
  C  C152  1  0.19474000  0.51720000  0.41181000  1.0
  C  C153  1  0.30525000  0.98280000  0.91181000  1.0
  C  C154  1  0.80525000  0.48280000  0.58819000  1.0
  C  C155  1  0.69475000  0.01720000  0.08819000  1.0
  C  C156  1  0.55711000  0.70545000  0.47312000  1.0
  C  C157  1  0.94290000  0.79458000  0.97312000  1.0
  C  C158  1  0.44290000  0.29456000  0.52688000  1.0
  C  C159  1  0.05711000  0.20544000  0.02688000  1.0
  C  C160  1  0.21398000  0.35024000  0.43095000  1.0
  C  C161  1  0.28602000  0.14976000  0.93095000  1.0
  C  C162  1  0.78602000  0.64976000  0.56905000  1.0
  C  C163  1  0.71398000  0.85024000  0.06905000  1.0
  C  C164  1  0.78987000  0.08703000  0.21356000  1.0
  C  C165  1  0.71013000  0.41298000  0.71356000  1.0
  C  C166  1  0.21012000  0.91297000  0.78645000  1.0
  C  C167  1  0.28987000  0.58702000  0.28645000  1.0
  C  C168  1  0.78248000  0.56285000  0.35338000  1.0
  C  C169  1  0.71751000  0.93715000  0.85338000  1.0
  C  C170  1  0.21751000  0.43715000  0.64662000  1.0
  C  C171  1  0.28249000  0.06285000  0.14662000  1.0
  C  C172  1  0.34802000  0.93233000  0.32510000  1.0
  C  C173  1  0.15198000  0.56767000  0.82510000  1.0
  C  C174  1  0.65199000  0.06767000  0.67490000  1.0
  C  C175  1  0.84801000  0.43233000  0.17490000  1.0
  C  C176  1  0.60466000  0.28961000  0.39885000  1.0
  C  C177  1  0.89534000  0.21039000  0.89885000  1.0
  C  C178  1  0.39534000  0.71039000  0.60115000  1.0
  C  C179  1  0.10466000  0.78961000  0.10115000  1.0
  C  C180  1  0.46660000  0.84210000  0.27845000  1.0
  C  C181  1  0.03340000  0.65790000  0.77845000  1.0
  C  C182  1  0.53340000  0.15790000  0.72155000  1.0
  C  C183  1  0.96660000  0.34211000  0.22155000  1.0
  C  C184  1  0.87719000  0.48570000  0.35150000  1.0
  C  C185  1  0.62281000  0.01429000  0.85150000  1.0
  C  C186  1  0.12280000  0.51429000  0.64850000  1.0
  C  C187  1  0.37720000  0.98570000  0.14850000  1.0
  C  C188  1  0.12818000  0.42937000  0.42932000  1.0
  C  C189  1  0.37182000  0.07062000  0.92933000  1.0
  C  C190  1  0.87182000  0.57062000  0.57068000  1.0
  C  C191  1  0.62818000  0.92938000  0.07067000  1.0
  C  C192  1  0.30516000  0.99938000  0.29600000  1.0
  C  C193  1  0.19483000  0.50062000  0.79600000  1.0
  C  C194  1  0.69484000  0.00062000  0.70400000  1.0
  C  C195  1  0.80515000  0.49937000  0.20400000  1.0
  C  C196  1  0.43299000  0.90599000  0.24803000  1.0
  C  C197  1  0.06700000  0.59401000  0.74803000  1.0
  C  C198  1  0.56700000  0.09401000  0.75197000  1.0
  C  C199  1  0.93300000  0.40599000  0.25197000  1.0
  C  C200  1  0.34970000  0.98375000  0.25669000  1.0
  C  C201  1  0.15029000  0.51625000  0.75669000  1.0
  C  C202  1  0.65029000  0.01625000  0.74331000  1.0
  C  C203  1  0.84970000  0.48375000  0.24331000  1.0
  C  C204  1  0.19019000  0.04171000  0.41575000  1.0
  C  C205  1  0.30981000  0.45829000  0.91575000  1.0
  C  C206  1  0.80981000  0.95829000  0.58425000  1.0
  C  C207  1  0.69019000  0.54171000  0.08424000  1.0
  C  C208  1  0.18451000  0.09423000  0.34560000  1.0
  C  C209  1  0.31549000  0.40577000  0.84560000  1.0
  C  C210  1  0.81550000  0.90577000  0.65440000  1.0
  C  C211  1  0.68450000  0.59423000  0.15439000  1.0
  C  C212  1  0.23654000  0.97714000  0.44350000  1.0
  C  C213  1  0.26347000  0.52286000  0.94350000  1.0
  C  C214  1  0.76347000  0.02286000  0.55650000  1.0
  C  C215  1  0.73653000  0.47713000  0.05650000  1.0
  C  C216  1  0.22188000  0.07995000  0.30715000  1.0
  C  C217  1  0.27812000  0.42005000  0.80715000  1.0
  C  C218  1  0.77813000  0.92005000  0.69285000  1.0
  C  C219  1  0.72187000  0.57995000  0.19285000  1.0
  Br  Br220  1  0.75290000  0.04272000  0.37301000  1.0
  Br  Br221  1  0.74711000  0.45728000  0.87301000  1.0
  Br  Br222  1  0.24709000  0.95727000  0.62699000  1.0
  Br  Br223  1  0.25289000  0.54272000  0.12699000  1.0
  Br  Br224  1  0.77582000  0.35222000  0.49466000  1.0
  Br  Br225  1  0.72418000  0.14780000  0.99466000  1.0
  Br  Br226  1  0.22417000  0.64780000  0.50534000  1.0
  Br  Br227  1  0.27582000  0.85221000  0.00534000  1.0
  Br  Br228  1  0.83849000  0.58649000  0.46220000  1.0
  Br  Br229  1  0.66150000  0.91352000  0.96221000  1.0
  Br  Br230  1  0.16151000  0.41352000  0.53779000  1.0
  Br  Br231  1  0.33849000  0.08648000  0.03780000  1.0
  Br  Br232  1  0.94103000  0.74592000  0.27423000  1.0
  Br  Br233  1  0.55897000  0.75408000  0.77424000  1.0
  Br  Br234  1  0.05897000  0.25408000  0.72577000  1.0
  Br  Br235  1  0.44104000  0.24592000  0.22577000  1.0
  Br  Br236  1  0.73805000  0.19179000  0.29489000  1.0
  Br  Br237  1  0.76198000  0.30822000  0.79489000  1.0
  Br  Br238  1  0.26196000  0.80821000  0.70511000  1.0
  Br  Br239  1  0.23803000  0.69178000  0.20511000  1.0
  Br  Br240  1  0.86747000  0.87600000  0.19509000  1.0
  Br  Br241  1  0.63251000  0.62400000  0.69510000  1.0
  Br  Br242  1  0.13250000  0.12400000  0.80491000  1.0
  Br  Br243  1  0.36755000  0.37601000  0.30491000  1.0
  N  N244  1  0.63920000  0.55333000  0.36856000  1.0
  N  N245  1  0.86080000  0.94667000  0.86856000  1.0
  N  N246  1  0.36079000  0.44667000  0.63144000  1.0
  N  N247  1  0.13921000  0.05333000  0.13144000  1.0
  N  N248  1  0.33864000  0.52919000  0.39708000  1.0
  N  N249  1  0.16136000  0.97081000  0.89708000  1.0
  N  N250  1  0.66135000  0.47081000  0.60292000  1.0
  N  N251  1  0.83865000  0.02919000  0.10292000  1.0
  N  N252  1  0.35308000  0.88405000  0.39335000  1.0
  N  N253  1  0.14692000  0.61596000  0.89335000  1.0
  N  N254  1  0.64693000  0.11595000  0.60665000  1.0
  N  N255  1  0.85307000  0.38404000  0.10665000  1.0
  N  N256  1  0.42510000  0.85386000  0.31577000  1.0
  N  N257  1  0.07490000  0.64614000  0.81577000  1.0
  N  N258  1  0.57491000  0.14614000  0.68423000  1.0
  N  N259  1  0.92509000  0.35385000  0.18423000  1.0
  O  O260  1  0.61835000  0.76832000  0.49608000  1.0
  O  O261  1  0.88163000  0.73168000  0.99608000  1.0
  O  O262  1  0.38167000  0.23170000  0.50392000  1.0
  O  O263  1  0.11836000  0.26832000  0.00392000  1.0
  O  O264  1  0.97863000  0.83661000  0.36910000  1.0
  O  O265  1  0.52137000  0.66339000  0.86910000  1.0
  O  O266  1  0.02138000  0.16340000  0.63090000  1.0
  O  O267  1  0.47863000  0.33661000  0.13090000  1.0
  O  O268  1  0.51108000  0.71903000  0.43756000  1.0
  O  O269  1  0.98890000  0.78099000  0.93756000  1.0
  O  O270  1  0.48892000  0.28098000  0.56244000  1.0
  O  O271  1  0.01109000  0.21902000  0.06244000  1.0
  O  O272  1  0.72380000  0.78355000  0.35998000  1.0
  O  O273  1  0.77620000  0.71644000  0.85999000  1.0
  O  O274  1  0.27621000  0.21645000  0.64002000  1.0
  O  O275  1  0.22380000  0.28354000  0.14002000  1.0
  O  O276  1  0.91265000  0.12509000  0.19622000  1.0
  O  O277  1  0.58735000  0.37491000  0.69622000  1.0
  O  O278  1  0.08735000  0.87491000  0.80378000  1.0
  O  O279  1  0.41264000  0.62510000  0.30378000  1.0
  O  O280  1  0.17405000  0.69991000  0.36210000  1.0
  O  O281  1  0.32596000  0.80009000  0.86210000  1.0
  O  O282  1  0.82595000  0.30009000  0.63791000  1.0
  O  O283  1  0.67405000  0.19991000  0.13791000  1.0
  O  O284  1  0.65102000  0.09250000  0.20293000  1.0
  O  O285  1  0.84898000  0.40750000  0.70293000  1.0
  O  O286  1  0.34898000  0.90750000  0.79707000  1.0
  O  O287  1  0.15101000  0.59249000  0.29707000  1.0
