# generated using pymatgen
data_Zn6H29C41S2NO30
_symmetry_space_group_name_H-M   'P 1'
_cell_length_a   18.59360000
_cell_length_b   18.70220000
_cell_length_c   18.88525530
_cell_angle_alpha   109.41008812
_cell_angle_beta   108.94006198
_cell_angle_gamma   109.45500000
_symmetry_Int_Tables_number   1
_chemical_formula_structural   Zn6H29C41S2NO30
_chemical_formula_sum   'Zn6 H29 C41 S2 N1 O30'
_cell_volume   5092.93580034
_cell_formula_units_Z   1
loop_
 _symmetry_equiv_pos_site_id
 _symmetry_equiv_pos_as_xyz
  1  'x, y, z'
loop_
 _atom_site_type_symbol
 _atom_site_label
 _atom_site_symmetry_multiplicity
 _atom_site_fract_x
 _atom_site_fract_y
 _atom_site_fract_z
 _atom_site_occupancy
  Zn  Zn0  1  0.92976000  0.49882000  0.93550000  1.0
  Zn  Zn1  1  0.05831000  0.49903000  0.05339000  1.0
  Zn  Zn2  1  0.49663000  0.04885000  0.06133000  1.0
  Zn  Zn3  1  0.49266000  0.92754000  0.93169000  1.0
  Zn  Zn4  1  0.07195000  0.06083000  0.49656000  1.0
  Zn  Zn5  1  0.94587000  0.93897000  0.50162000  1.0
  H  H6  1  0.35796000  0.81181000  0.11386000  1.0
  H  H7  1  0.07669000  0.30481000  0.85357000  1.0
  H  H8  1  0.72335000  0.12495000  0.97269000  1.0
  H  H9  1  0.69964000  0.27412000  0.07494000  1.0
  H  H10  1  0.72065000  0.29347000  0.93485000  1.0
  H  H11  1  0.01066000  0.79687000  0.29251000  1.0
  H  H12  1  0.07720000  0.64466000  0.31445000  1.0
  H  H13  1  0.93668000  0.65371000  0.18027000  1.0
  H  H14  1  0.74952000  0.95496000  0.32962000  1.0
  H  H15  1  0.24132000  0.63891000  0.97287000  1.0
  H  H16  1  0.87167000  0.04033000  0.26922000  1.0
  H  H17  1  0.65238000  0.99549000  0.24072000  1.0
  H  H18  1  0.71226000  0.92167000  0.11339000  1.0
  H  H19  1  0.29908000  0.02048000  0.61853000  1.0
  H  H20  1  0.19017000  0.98902000  0.70911000  1.0
  H  H21  1  0.36654000  0.95069000  0.69629000  1.0
  H  H22  1  0.32543000  0.05057000  0.82987000  1.0
  H  H23  1  0.22643000  0.70841000  0.85858000  1.0
  H  H24  1  0.08068000  0.71904000  0.86993000  1.0
  H  H25  1  0.19729000  0.89086000  0.01326000  1.0
  H  H26  1  0.21163000  0.81927000  0.12532000  1.0
  H  H27  1  0.96871000  0.15097000  0.72248000  1.0
  H  H28  1  0.95369000  0.34130000  0.73396000  1.0
  H  H29  1  0.93291000  0.31184000  0.03622000  1.0
  H  H30  1  0.97834000  0.24894000  0.11864000  1.0
  H  H31  1  0.88712000  0.14942000  0.02781000  1.0
  H  H32  1  0.87580000  0.20790000  0.11600000  1.0
  H  H33  1  0.01032000  0.58060000  0.40492000  1.0
  H  H34  1  0.89416000  0.30109000  0.55802000  1.0
  C  C35  1  0.03119000  0.39636000  0.89995000  1.0
  C  C36  1  0.20613000  0.83402000  0.00345000  1.0
  C  C37  1  0.21579000  0.79593000  0.06621000  1.0
  C  C38  1  0.15132000  0.70062000  0.98614000  1.0
  C  C39  1  0.98614000  0.24122000  0.67841000  1.0
  C  C40  1  0.97893000  0.16543000  0.67397000  1.0
  C  C41  1  0.98915000  0.30752000  0.74901000  1.0
  C  C42  1  0.03485000  0.33105000  0.83235000  1.0
  C  C43  1  0.73601000  0.19212000  0.00304000  1.0
  C  C44  1  0.68832000  0.20841000  0.03983000  1.0
  C  C45  1  0.80648000  0.25888000  0.00367000  1.0
  C  C46  1  0.08393000  0.62934000  0.98477000  1.0
  C  C47  1  0.78784000  0.30733000  0.96594000  1.0
  C  C48  1  0.01327000  0.72000000  0.35071000  1.0
  C  C49  1  0.00181000  0.78500000  0.34269000  1.0
  C  C50  1  0.02940000  0.66393000  0.29001000  1.0
  C  C51  1  0.98738000  0.63796000  0.20561000  1.0
  C  C52  1  0.60546000  0.95192000  0.07871000  1.0
  C  C53  1  0.36276000  0.89481000  0.00369000  1.0
  C  C54  1  0.40043000  0.98832000  0.86093000  1.0
  C  C55  1  0.61988000  0.13610000  0.03657000  1.0
  C  C56  1  0.14994000  0.02321000  0.61050000  1.0
  C  C57  1  0.00423000  0.58886000  0.13963000  1.0
  C  C58  1  0.98151000  0.09685000  0.60830000  1.0
  C  C59  1  0.91543000  0.01262000  0.37503000  1.0
  C  C60  1  0.99004000  0.85230000  0.39880000  1.0
  C  C61  1  0.76510000  0.97748000  0.28714000  1.0
  C  C62  1  0.84877000  0.00990000  0.30357000  1.0
  C  C63  1  0.69558000  0.97589000  0.22190000  1.0
  C  C64  1  0.67733000  0.94917000  0.13944000  1.0
  C  C65  1  0.28328000  0.00872000  0.66594000  1.0
  C  C66  1  0.21213000  0.00979000  0.66881000  1.0
  C  C67  1  0.33622000  0.98644000  0.72089000  1.0
  C  C68  1  0.85215000  0.37183000  0.96152000  1.0
  C  C69  1  0.34972000  0.00961000  0.80166000  1.0
  C  C70  1  0.23245000  0.69549000  0.98095000  1.0
  C  C71  1  0.29530000  0.78962000  0.05976000  1.0
  C  C72  1  0.28561000  0.82756000  0.99560000  1.0
  C  C73  1  0.22245000  0.73291000  0.91763000  1.0
  C  C74  1  0.14241000  0.73938000  0.92407000  1.0
  C  C75  1  0.90733000  0.21511000  0.07675000  1.0
  S  S76  1  0.00985000  0.70096000  0.43717000  1.0
  S  S77  1  0.99150000  0.26472000  0.59410000  1.0
  N  N78  1  0.88622000  0.26610000  0.03879000  1.0
  O  O79  1  0.97938000  0.42441000  0.87689000  1.0
  O  O80  1  0.57854000  0.90554000  0.99770000  1.0
  O  O81  1  0.39621000  0.97434000  0.06257000  1.0
  O  O82  1  0.39251000  0.86938000  0.95424000  1.0
  O  O83  1  0.41748000  0.02795000  0.93865000  1.0
  O  O84  1  0.42451000  0.93240000  0.83264000  1.0
  O  O85  1  0.58926000  0.15760000  0.08789000  1.0
  O  O86  1  0.59585000  0.05838000  0.98487000  1.0
  O  O87  1  0.17579000  0.07079000  0.57794000  1.0
  O  O88  1  0.07147000  0.98422000  0.59524000  1.0
  O  O89  1  0.03563000  0.12131000  0.58298000  1.0
  O  O90  1  0.08204000  0.41982000  0.97867000  1.0
  O  O91  1  0.92958000  0.01777000  0.58532000  1.0
  O  O92  1  0.99629000  0.06315000  0.40002000  1.0
  O  O93  1  0.88988000  0.96624000  0.40741000  1.0
  O  O94  1  0.03536000  0.92832000  0.41300000  1.0
  O  O95  1  0.93635000  0.83083000  0.42671000  1.0
  O  O96  1  0.00261000  0.59882000  0.93282000  1.0
  O  O97  1  0.11251000  0.60218000  0.03530000  1.0
  O  O98  1  0.96005000  0.57522000  0.06458000  1.0
  O  O99  1  0.06101000  0.56384000  0.16061000  1.0
  O  O100  1  0.82684000  0.40674000  0.91608000  1.0
  O  O101  1  0.93384000  0.39392000  0.00280000  1.0
  O  O102  1  0.57545000  0.99918000  0.10889000  1.0
  O  O103  1  0.06787000  0.78105000  0.51710000  1.0
  O  O104  1  0.92002000  0.64650000  0.41126000  1.0
  O  O105  1  0.05681000  0.64164000  0.43754000  1.0
  O  O106  1  0.08168000  0.31434000  0.61953000  1.0
  O  O107  1  0.92854000  0.18881000  0.51073000  1.0
  O  O108  1  0.95500000  0.33337000  0.60412000  1.0
