# generated using pymatgen
data_NaH9C2O5
_symmetry_space_group_name_H-M   'P 1'
_cell_length_a   7.94683000
_cell_length_b   7.94683000
_cell_length_c   10.18880000
_cell_angle_alpha   74.54830000
_cell_angle_beta   74.54840000
_cell_angle_gamma   81.64960000
_symmetry_Int_Tables_number   1
_chemical_formula_structural   NaH9C2O5
_chemical_formula_sum   'Na4 H36 C8 O20'
_cell_volume   595.85906174
_cell_formula_units_Z   4
loop_
 _symmetry_equiv_pos_site_id
 _symmetry_equiv_pos_as_xyz
  1  'x, y, z'
loop_
 _atom_site_type_symbol
 _atom_site_label
 _atom_site_symmetry_multiplicity
 _atom_site_fract_x
 _atom_site_fract_y
 _atom_site_fract_z
 _atom_site_occupancy
  Na  Na0  1  0.34469000  0.48694000  0.41892000  1.0
  Na  Na1  1  0.51306000  0.65531000  0.08108000  1.0
  Na  Na2  1  0.65531000  0.51306000  0.58108000  1.0
  Na  Na3  1  0.48694000  0.34469000  0.91892000  1.0
  H  H4  1  0.09486000  0.13750000  0.63159000  1.0
  H  H5  1  0.86250000  0.90514000  0.86841000  1.0
  H  H6  1  0.90514000  0.86250000  0.36841000  1.0
  H  H7  1  0.13750000  0.09486000  0.13159000  1.0
  H  H8  1  0.28710000  0.98962000  0.62065000  1.0
  H  H9  1  0.01038000  0.71290000  0.87935000  1.0
  H  H10  1  0.71290000  0.01038000  0.37935000  1.0
  H  H11  1  0.98962000  0.28710000  0.12065000  1.0
  H  H12  1  0.09483000  0.92558000  0.59926000  1.0
  H  H13  1  0.07442000  0.90517000  0.90074000  1.0
  H  H14  1  0.90517000  0.07442000  0.40074000  1.0
  H  H15  1  0.92558000  0.09483000  0.09926000  1.0
  H  H16  1  0.03280000  0.63582000  0.60658000  1.0
  H  H17  1  0.36418000  0.96720000  0.89342000  1.0
  H  H18  1  0.96720000  0.36418000  0.39342000  1.0
  H  H19  1  0.63582000  0.03280000  0.10658000  1.0
  H  H20  1  0.10166000  0.46356000  0.69804000  1.0
  H  H21  1  0.53643000  0.89834000  0.80196000  1.0
  H  H22  1  0.89834000  0.53644000  0.30196000  1.0
  H  H23  1  0.46356000  0.10165000  0.19804000  1.0
  H  H24  1  0.37868000  0.26023000  0.68966000  1.0
  H  H25  1  0.73977000  0.62133000  0.81034000  1.0
  H  H26  1  0.62132000  0.73977000  0.31034000  1.0
  H  H27  1  0.26023000  0.37867000  0.18966000  1.0
  H  H28  1  0.54261000  0.18491000  0.59327000  1.0
  H  H29  1  0.81509000  0.45739000  0.90673000  1.0
  H  H30  1  0.45739000  0.81509000  0.40673000  1.0
  H  H31  1  0.18490000  0.54261000  0.09326000  1.0
  H  H32  1  0.69971000  0.38721000  0.29427000  1.0
  H  H33  1  0.61279000  0.30029000  0.20573000  1.0
  H  H34  1  0.30029000  0.61279000  0.70573000  1.0
  H  H35  1  0.38721000  0.69971000  0.79427000  1.0
  H  H36  1  0.15589000  0.74314000  0.21556000  1.0
  H  H37  1  0.25686000  0.84411000  0.28444000  1.0
  H  H38  1  0.84411000  0.25686000  0.78444000  1.0
  H  H39  1  0.74314000  0.15589000  0.71556000  1.0
  C  C40  1  0.22993000  0.11237000  0.42216000  1.0
  C  C41  1  0.88763000  0.77006000  0.07784000  1.0
  C  C42  1  0.77007000  0.88762000  0.57784000  1.0
  C  C43  1  0.11237000  0.22994000  0.92216000  1.0
  C  C44  1  0.17108000  0.03843000  0.57826000  1.0
  C  C45  1  0.96157000  0.82892000  0.92174000  1.0
  C  C46  1  0.82892000  0.96157000  0.42174000  1.0
  C  C47  1  0.03843000  0.17108000  0.07826000  1.0
  O  O48  1  0.18975000  0.27290000  0.37017000  1.0
  O  O49  1  0.72710000  0.81025000  0.12983000  1.0
  O  O50  1  0.81025000  0.72710000  0.62983000  1.0
  O  O51  1  0.27290000  0.18975000  0.87017000  1.0
  O  O52  1  0.32087000  0.00892000  0.34772000  1.0
  O  O53  1  0.99108000  0.67913000  0.15228000  1.0
  O  O54  1  0.67913000  0.99108000  0.65228000  1.0
  O  O55  1  0.00892000  0.32087000  0.84772000  1.0
  O  O56  1  0.14334000  0.56526000  0.61889000  1.0
  O  O57  1  0.43474000  0.85666000  0.88111000  1.0
  O  O58  1  0.85666000  0.43474000  0.38111000  1.0
  O  O59  1  0.56526000  0.14334000  0.11889000  1.0
  O  O60  1  0.45847000  0.28935000  0.59471000  1.0
  O  O61  1  0.71065000  0.54154000  0.90529000  1.0
  O  O62  1  0.54154000  0.71065000  0.40529000  1.0
  O  O63  1  0.28935000  0.45846000  0.09471000  1.0
  O  O64  1  0.60046000  0.39954000  0.25000000  1.0
  O  O65  1  0.39954000  0.60046000  0.75000000  1.0
  O  O66  1  0.26153000  0.73847000  0.25000000  1.0
  O  O67  1  0.73847000  0.26153000  0.75000000  1.0
