# generated using pymatgen
data_Cd3H28C12I6(N4O)2
_symmetry_space_group_name_H-M   'P 1'
_cell_length_a   7.86653000
_cell_length_b   9.28136000
_cell_length_c   10.40610000
_cell_angle_alpha   89.77690000
_cell_angle_beta   87.49990000
_cell_angle_gamma   74.78650000
_symmetry_Int_Tables_number   1
_chemical_formula_structural   Cd3H28C12I6(N4O)2
_chemical_formula_sum   'Cd3 H28 C12 I6 N8 O2'
_cell_volume   732.42443724
_cell_formula_units_Z   1
loop_
 _symmetry_equiv_pos_site_id
 _symmetry_equiv_pos_as_xyz
  1  'x, y, z'
loop_
 _atom_site_type_symbol
 _atom_site_label
 _atom_site_symmetry_multiplicity
 _atom_site_fract_x
 _atom_site_fract_y
 _atom_site_fract_z
 _atom_site_occupancy
  Cd  Cd0  1  0.00000000  0.00000000  0.00000000  1.0
  Cd  Cd1  1  0.10813000  0.60467000  0.72854000  1.0
  Cd  Cd2  1  0.89186000  0.39533000  0.27147000  1.0
  H  H3  1  0.11975000  0.33151000  0.93159000  1.0
  H  H4  1  0.88025000  0.66849000  0.06840000  1.0
  H  H5  1  0.97945000  0.31364000  0.80500000  1.0
  H  H6  1  0.02055000  0.68636000  0.19500000  1.0
  H  H7  1  0.08805000  0.30341000  0.58263000  1.0
  H  H8  1  0.91195000  0.69659000  0.41736000  1.0
  H  H9  1  0.30868000  0.31610000  0.54546000  1.0
  H  H10  1  0.69132000  0.68391000  0.45454000  1.0
  H  H11  1  0.49568000  0.34294000  0.71567000  1.0
  H  H12  1  0.50432000  0.65706000  0.28432000  1.0
  H  H13  1  0.41720000  0.34836000  0.88043000  1.0
  H  H14  1  0.58280000  0.65164000  0.11956000  1.0
  H  H15  1  0.36559000  0.13110000  0.97871000  1.0
  H  H16  1  0.63442000  0.86890000  0.02129000  1.0
  H  H17  1  0.41087000  0.95793000  0.88976000  1.0
  H  H18  1  0.58913000  0.04207000  0.11024000  1.0
  H  H19  1  0.22139000  0.93214000  0.71741000  1.0
  H  H20  1  0.77861000  0.06787000  0.28258000  1.0
  H  H21  1  0.03780000  0.08485000  0.68233000  1.0
  H  H22  1  0.96219000  0.91515000  0.31767000  1.0
  H  H23  1  0.55436000  0.10877000  0.59384000  1.0
  H  H24  1  0.44565000  0.89123000  0.40615000  1.0
  H  H25  1  0.51460000  0.94703000  0.67022000  1.0
  H  H26  1  0.48539000  0.05298000  0.32978000  1.0
  H  H27  1  0.30362000  0.94265000  0.17520000  1.0
  H  H28  1  0.69639000  0.05735000  0.82480000  1.0
  H  H29  1  0.18950000  0.11096000  0.19070000  1.0
  H  H30  1  0.81050000  0.88904000  0.80931000  1.0
  C  C31  1  0.11561000  0.28212000  0.83626000  1.0
  C  C32  1  0.88440000  0.71788000  0.16375000  1.0
  C  C33  1  0.22457000  0.27204000  0.61364000  1.0
  C  C34  1  0.77542000  0.72796000  0.38635000  1.0
  C  C35  1  0.41266000  0.29928000  0.78508000  1.0
  C  C36  1  0.58733000  0.70072000  0.21493000  1.0
  C  C37  1  0.36313000  0.08003000  0.88399000  1.0
  C  C38  1  0.63687000  0.91997000  0.11601000  1.0
  C  C39  1  0.17447000  0.05420000  0.71238000  1.0
  C  C40  1  0.82555000  0.94578000  0.28762000  1.0
  C  C41  1  0.46760000  0.06915000  0.66295000  1.0
  C  C42  1  0.53239000  0.93083000  0.33706000  1.0
  I  I43  1  0.25499000  0.70470000  0.94562000  1.0
  I  I44  1  0.74500000  0.29530000  0.05438000  1.0
  I  I45  1  0.74960000  0.64524000  0.77686000  1.0
  I  I46  1  0.25040000  0.35476000  0.22315000  1.0
  I  I47  1  0.25250000  0.68859000  0.50720000  1.0
  I  I48  1  0.74749000  0.31140000  0.49280000  1.0
  N  N49  1  0.22770000  0.34259000  0.74311000  1.0
  N  N50  1  0.77230000  0.65741000  0.25688000  1.0
  N  N51  1  0.17774000  0.11770000  0.84447000  1.0
  N  N52  1  0.82226000  0.88230000  0.15553000  1.0
  N  N53  1  0.28692000  0.11012000  0.62048000  1.0
  N  N54  1  0.71307000  0.88989000  0.37952000  1.0
  N  N55  1  0.47849000  0.13554000  0.79203000  1.0
  N  N56  1  0.52151000  0.86447000  0.20797000  1.0
  O  O57  1  0.17902000  0.00972000  0.16980000  1.0
  O  O58  1  0.82099000  0.99028000  0.83019000  1.0
