# generated using pymatgen
data_Cu2H6C7(SN2)2
_symmetry_space_group_name_H-M   'P 1'
_cell_length_a   5.66410000
_cell_length_b   7.75167000
_cell_length_c   12.23560000
_cell_angle_alpha   74.64430000
_cell_angle_beta   80.90430000
_cell_angle_gamma   71.86340000
_symmetry_Int_Tables_number   1
_chemical_formula_structural   Cu2H6C7(SN2)2
_chemical_formula_sum   'Cu4 H12 C14 S4 N8'
_cell_volume   490.62238438
_cell_formula_units_Z   2
loop_
 _symmetry_equiv_pos_site_id
 _symmetry_equiv_pos_as_xyz
  1  'x, y, z'
loop_
 _atom_site_type_symbol
 _atom_site_label
 _atom_site_symmetry_multiplicity
 _atom_site_fract_x
 _atom_site_fract_y
 _atom_site_fract_z
 _atom_site_occupancy
  Cu  Cu0  1  0.93401000  0.01813000  0.17801000  1.0
  Cu  Cu1  1  0.06599000  0.98187000  0.82199000  1.0
  Cu  Cu2  1  0.96985000  0.30414000  0.27295000  1.0
  Cu  Cu3  1  0.03015000  0.69585000  0.72705000  1.0
  H  H4  1  0.76143000  0.46623000  0.46545000  1.0
  H  H5  1  0.23857000  0.53376000  0.53455000  1.0
  H  H6  1  0.65653000  0.70955000  0.46316000  1.0
  H  H7  1  0.34347000  0.29045000  0.53684000  1.0
  H  H8  1  0.92848000  0.61733000  0.37812000  1.0
  H  H9  1  0.07153000  0.38266000  0.62188000  1.0
  H  H10  1  0.28951000  0.86474000  0.36150000  1.0
  H  H11  1  0.71049000  0.13528000  0.63849000  1.0
  H  H12  1  0.17934000  0.69032000  0.08443000  1.0
  H  H13  1  0.82066000  0.30968000  0.91556000  1.0
  H  H14  1  0.59937000  0.45385000  0.10073000  1.0
  H  H15  1  0.40063000  0.54615000  0.89927000  1.0
  C  C16  1  0.49181000  0.17466000  0.35446000  1.0
  C  C17  1  0.50818000  0.82533000  0.64555000  1.0
  C  C18  1  0.41022000  0.14888000  0.10197000  1.0
  C  C19  1  0.58977000  0.85113000  0.89804000  1.0
  C  C20  1  0.58804000  0.63663000  0.31583000  1.0
  C  C21  1  0.41196000  0.36338000  0.68418000  1.0
  C  C22  1  0.74027000  0.60737000  0.41121000  1.0
  C  C23  1  0.25972000  0.39264000  0.58879000  1.0
  C  C24  1  0.35787000  0.77144000  0.30341000  1.0
  C  C25  1  0.64214000  0.22856000  0.69658000  1.0
  C  C26  1  0.29881000  0.67729000  0.14936000  1.0
  C  C27  1  0.70120000  0.32270000  0.85063000  1.0
  C  C28  1  0.53055000  0.54700000  0.15870000  1.0
  C  C29  1  0.46947000  0.45300000  0.84130000  1.0
  S  S30  1  0.78190000  0.07977000  0.38587000  1.0
  S  S31  1  0.21809000  0.92022000  0.61413000  1.0
  S  S32  1  0.11732000  0.25071000  0.07716000  1.0
  S  S33  1  0.88266000  0.74930000  0.92285000  1.0
  N  N34  1  0.62065000  0.07791000  0.12189000  1.0
  N  N35  1  0.37934000  0.92210000  0.87811000  1.0
  N  N36  1  0.28307000  0.24600000  0.33167000  1.0
  N  N37  1  0.71694000  0.75398000  0.66834000  1.0
  N  N38  1  0.67806000  0.52531000  0.24064000  1.0
  N  N39  1  0.32195000  0.47468000  0.75936000  1.0
  N  N40  1  0.21191000  0.79429000  0.22048000  1.0
  N  N41  1  0.78809000  0.20570000  0.77953000  1.0
