# generated using pymatgen
data_MnH25C29N5O6
_symmetry_space_group_name_H-M   'P 1'
_cell_length_a   10.61550000
_cell_length_b   11.11250000
_cell_length_c   13.20880000
_cell_angle_alpha   71.95410000
_cell_angle_beta   80.16310000
_cell_angle_gamma   63.90160000
_symmetry_Int_Tables_number   1
_chemical_formula_structural   MnH25C29N5O6
_chemical_formula_sum   'Mn2 H50 C58 N10 O12'
_cell_volume   1329.37694626
_cell_formula_units_Z   2
loop_
 _symmetry_equiv_pos_site_id
 _symmetry_equiv_pos_as_xyz
  1  'x, y, z'
loop_
 _atom_site_type_symbol
 _atom_site_label
 _atom_site_symmetry_multiplicity
 _atom_site_fract_x
 _atom_site_fract_y
 _atom_site_fract_z
 _atom_site_occupancy
  Mn  Mn0  1  0.83591000  0.58204000  0.22911000  1.0
  Mn  Mn1  1  0.16408000  0.41796000  0.77089000  1.0
  H  H2  1  0.88665000  0.85244000  0.38824000  1.0
  H  H3  1  0.11336000  0.14758000  0.61176000  1.0
  H  H4  1  0.03192000  0.17417000  0.33333333  1.0
  H  H5  1  0.96808000  0.82585000  0.66666667  1.0
  H  H6  1  0.04911000  0.19862000  0.13749000  1.0
  H  H7  1  0.95090000  0.80137000  0.86250000  1.0
  H  H8  1  0.98610000  0.05001000  0.06792000  1.0
  H  H9  1  0.01391000  0.94999000  0.93207000  1.0
  H  H10  1  0.97956000  0.40183000  0.45944000  1.0
  H  H11  1  0.02045000  0.59816000  0.54057000  1.0
  H  H12  1  0.91163000  0.37641000  0.65438000  1.0
  H  H13  1  0.08837000  0.62358000  0.34562000  1.0
  H  H14  1  0.65690000  0.49836000  0.70713000  1.0
  H  H15  1  0.34311000  0.50162000  0.29287000  1.0
  H  H16  1  0.40570000  0.64779000  0.64917000  1.0
  H  H17  1  0.59431000  0.35218000  0.35084000  1.0
  H  H18  1  0.24143000  0.78821000  0.50359000  1.0
  H  H19  1  0.75857000  0.21178000  0.49642000  1.0
  H  H20  1  0.19894000  0.87695000  0.30659000  1.0
  H  H21  1  0.80106000  0.12305000  0.69343000  1.0
  H  H22  1  0.29880000  0.89862000  0.11910000  1.0
  H  H23  1  0.70120000  0.10139000  0.88090000  1.0
  H  H24  1  0.56221000  0.78013000  0.09016000  1.0
  H  H25  1  0.43779000  0.21988000  0.90985000  1.0
  H  H26  1  0.86997000  0.44593000  0.04212000  1.0
  H  H27  1  0.13003000  0.55407000  0.95788000  1.0
  H  H28  1  0.66350000  0.21457000  0.16043000  1.0
  H  H29  1  0.33650000  0.78543000  0.83958000  1.0
  H  H30  1  0.53844000  0.33989000  0.06374000  1.0
  H  H31  1  0.46157000  0.66010000  0.93627000  1.0
  H  H32  1  0.56475000  0.38680000  0.17422000  1.0
  H  H33  1  0.43525000  0.61320000  0.82579000  1.0
  H  H34  1  0.67780000  0.39271000  0.89826000  1.0
  H  H35  1  0.32220000  0.60728000  0.10175000  1.0
  H  H36  1  0.80867000  0.22712000  0.95957000  1.0
  H  H37  1  0.19133000  0.77286000  0.04045000  1.0
  H  H38  1  0.84965000  0.37553000  0.91456000  1.0
  H  H39  1  0.15035000  0.62445000  0.08544000  1.0
  H  H40  1  0.21998000  0.25109000  0.40082000  1.0
  H  H41  1  0.78001000  0.74891000  0.59918000  1.0
  H  H42  1  0.62104000  0.94532000  0.32733000  1.0
  H  H43  1  0.37897000  0.05468000  0.67267000  1.0
  H  H44  1  0.56510000  0.03238000  0.13494000  1.0
  H  H45  1  0.43491000  0.96763000  0.86506000  1.0
  H  H46  1  0.33423000  0.22705000  0.07671000  1.0
  H  H47  1  0.66577000  0.77296000  0.92328000  1.0
  H  H48  1  0.85255000  0.66066000  0.99972000  1.0
  H  H49  1  0.14746000  0.33934000  0.00027000  1.0
  H  H50  1  0.83036000  0.78135000  0.05790000  1.0
  H  H51  1  0.16964000  0.21866000  0.94209000  1.0
  C  C52  1  0.92124000  0.92866000  0.33261000  1.0
  C  C53  1  0.07876000  0.07135000  0.66738000  1.0
  C  C54  1  0.96219000  0.00914000  0.37189000  1.0
  C  C55  1  0.03781000  0.99088000  0.62810000  1.0
  C  C56  1  0.00425000  0.11020000  0.30125000  1.0
  C  C57  1  0.99575000  0.88981000  0.69873000  1.0
  C  C58  1  0.01282000  0.12348000  0.19248000  1.0
  C  C59  1  0.98718000  0.87652000  0.80750000  1.0
  C  C60  1  0.97615000  0.04055000  0.15314000  1.0
  C  C61  1  0.02386000  0.95945000  0.84685000  1.0
  C  C62  1  0.92855000  0.94384000  0.22287000  1.0
  C  C63  1  0.07145000  0.05617000  0.77712000  1.0
  C  C64  1  0.88868000  0.85550000  0.17972000  1.0
  C  C65  1  0.11132000  0.14450000  0.82028000  1.0
  C  C66  1  0.54757000  0.68823000  0.35125000  1.0
  C  C67  1  0.45243000  0.31176000  0.64875000  1.0
  C  C68  1  0.64396000  0.60357000  0.43604000  1.0
  C  C69  1  0.35604000  0.39642000  0.56396000  1.0
  C  C70  1  0.87123000  0.45528000  0.48613000  1.0
  C  C71  1  0.12877000  0.54471000  0.51387000  1.0
  C  C72  1  0.83166000  0.44001000  0.59505000  1.0
  C  C73  1  0.16835000  0.55997000  0.40496000  1.0
  C  C74  1  0.69190000  0.50819000  0.62350000  1.0
  C  C75  1  0.30810000  0.49179000  0.37651000  1.0
  C  C76  1  0.59254000  0.59126000  0.54376000  1.0
  C  C77  1  0.40747000  0.40872000  0.45624000  1.0
  C  C78  1  0.44509000  0.66039000  0.56635000  1.0
  C  C79  1  0.55491000  0.33959000  0.43366000  1.0
  C  C80  1  0.35353000  0.73763000  0.48579000  1.0
  C  C81  1  0.64647000  0.26237000  0.51421000  1.0
  C  C82  1  0.40200000  0.75312000  0.37643000  1.0
  C  C83  1  0.59800000  0.24688000  0.62358000  1.0
  C  C84  1  0.31145000  0.82808000  0.29039000  1.0
  C  C85  1  0.68855000  0.17192000  0.70961000  1.0
  C  C86  1  0.36646000  0.83909000  0.18688000  1.0
  C  C87  1  0.63354000  0.16092000  0.81312000  1.0
  C  C88  1  0.51255000  0.77360000  0.16996000  1.0
  C  C89  1  0.48745000  0.22640000  0.83004000  1.0
  C  C90  1  0.78826000  0.42087000  0.09567000  1.0
  C  C91  1  0.21174000  0.57913000  0.90433000  1.0
  C  C92  1  0.61628000  0.32504000  0.11661000  1.0
  C  C93  1  0.38372000  0.67495000  0.88340000  1.0
  C  C94  1  0.76728000  0.33944000  0.95087000  1.0
  C  C95  1  0.23273000  0.66054000  0.04914000  1.0
  C  C96  1  0.26175000  0.25305000  0.23434000  1.0
  C  C97  1  0.73825000  0.74695000  0.76566000  1.0
  C  C98  1  0.29464000  0.20421000  0.34176000  1.0
  C  C99  1  0.70536000  0.79579000  0.65824000  1.0
  C  C100  1  0.42306000  0.09363000  0.37485000  1.0
  C  C101  1  0.57693000  0.90638000  0.62515000  1.0
  C  C102  1  0.52136000  0.03092000  0.30008000  1.0
  C  C103  1  0.47864000  0.96910000  0.69992000  1.0
  C  C104  1  0.48885000  0.07986000  0.19333000  1.0
  C  C105  1  0.51115000  0.92015000  0.80666000  1.0
  C  C106  1  0.35997000  0.19006000  0.16032000  1.0
  C  C107  1  0.64004000  0.80995000  0.83967000  1.0
  C  C108  1  0.12175000  0.36966000  0.19990000  1.0
  C  C109  1  0.87825000  0.63035000  0.80009000  1.0
  N  N110  1  0.60033000  0.70003000  0.24945000  1.0
  N  N111  1  0.39966000  0.29997000  0.75056000  1.0
  N  N112  1  0.78098000  0.53556000  0.40878000  1.0
  N  N113  1  0.21903000  0.46442000  0.59122000  1.0
  N  N114  1  0.72234000  0.36913000  0.05414000  1.0
  N  N115  1  0.27766000  0.63087000  0.94587000  1.0
  N  N116  1  0.96334000  0.97780000  0.48386000  1.0
  N  N117  1  0.03665000  0.02223000  0.51612000  1.0
  N  N118  1  0.44417000  0.05349000  0.48515000  1.0
  N  N119  1  0.55583000  0.94652000  0.51484000  1.0
  O  O120  1  0.88771000  0.74365000  0.24539000  1.0
  O  O121  1  0.11228000  0.25636000  0.75461000  1.0
  O  O122  1  0.86000000  0.89747000  0.08185000  1.0
  O  O123  1  0.13999000  0.10253000  0.91815000  1.0
  O  O124  1  0.03993000  0.42463000  0.27186000  1.0
  O  O125  1  0.96007000  0.57537000  0.72814000  1.0
  O  O126  1  0.08934000  0.40807000  0.10346000  1.0
  O  O127  1  0.91066000  0.59193000  0.89653000  1.0
  O  O128  1  0.76015000  0.44050000  0.18700000  1.0
  O  O129  1  0.23984000  0.55950000  0.81301000  1.0
  O  O130  1  0.80853000  0.69940000  0.06231000  1.0
  O  O131  1  0.19147000  0.30060000  0.93768000  1.0
