# generated using pymatgen
data_Ni3H42C60(N3O8)2
_symmetry_space_group_name_H-M   'P 1'
_cell_length_a   11.23210000
_cell_length_b   16.51140000
_cell_length_c   20.18360000
_cell_angle_alpha   65.89110000
_cell_angle_beta   87.50490000
_cell_angle_gamma   83.87050000
_symmetry_Int_Tables_number   1
_chemical_formula_structural   Ni3H42C60(N3O8)2
_chemical_formula_sum   'Ni6 H84 C120 N12 O32'
_cell_volume   3397.15416348
_cell_formula_units_Z   2
loop_
 _symmetry_equiv_pos_site_id
 _symmetry_equiv_pos_as_xyz
  1  'x, y, z'
loop_
 _atom_site_type_symbol
 _atom_site_label
 _atom_site_symmetry_multiplicity
 _atom_site_fract_x
 _atom_site_fract_y
 _atom_site_fract_z
 _atom_site_occupancy
  Ni  Ni0  1  0.08471000  0.22022000  0.95009000  1.0
  Ni  Ni1  1  0.41518000  0.82972000  0.95006000  1.0
  Ni  Ni2  1  0.91529000  0.77978000  0.04991000  1.0
  Ni  Ni3  1  0.58483000  0.17029000  0.04994000  1.0
  Ni  Ni4  1  0.24997000  0.76180000  0.47628000  1.0
  Ni  Ni5  1  0.75003000  0.23820000  0.52372000  1.0
  H  H6  1  0.46989000  0.36171000  0.81666000  1.0
  H  H7  1  0.50850000  0.44413000  0.68359000  1.0
  H  H8  1  0.71497000  0.42882000  0.63459000  1.0
  H  H9  1  0.02784000  0.34821000  0.59922000  1.0
  H  H10  1  0.14332000  0.47949000  0.52676000  1.0
  H  H11  1  0.00810000  0.60988000  0.66389000  1.0
  H  H12  1  0.89598000  0.47775000  0.73830000  1.0
  H  H13  1  0.19013000  0.76709000  0.33272000  1.0
  H  H14  1  0.04601000  0.85286000  0.23368000  1.0
  H  H15  1  0.87472000  0.96947000  0.37551000  1.0
  H  H16  1  0.03113000  0.87921000  0.46803000  1.0
  H  H17  1  0.82959000  0.07808000  0.05385000  1.0
  H  H18  1  0.97982000  0.98415000  0.14755000  1.0
  H  H19  1  0.71241000  0.97949000  0.31005000  1.0
  H  H20  1  0.57386000  0.07310000  0.20951000  1.0
  H  H21  1  0.31774000  0.28264000  0.95486000  1.0
  H  H22  1  0.39965000  0.41753000  0.94681000  1.0
  H  H23  1  0.04283000  0.55502000  0.89191000  1.0
  H  H24  1  0.97521000  0.41077000  0.90217000  1.0
  H  H25  1  0.08226000  0.04806000  0.98370000  1.0
  H  H26  1  0.97256000  0.11133000  0.93316000  1.0
  H  H27  1  0.02988000  0.82165000  0.81651000  1.0
  H  H28  1  0.99103000  0.87243000  0.68344000  1.0
  H  H29  1  0.78447000  0.93671000  0.63461000  1.0
  H  H30  1  0.47193000  0.05259000  0.59943000  1.0
  H  H31  1  0.35644000  0.99381000  0.52685000  1.0
  H  H32  1  0.49155000  0.72642000  0.66383000  1.0
  H  H33  1  0.60382000  0.78406000  0.73831000  1.0
  H  H34  1  0.31025000  0.90004000  0.33288000  1.0
  H  H35  1  0.45447000  0.91316000  0.23389000  1.0
  H  H36  1  0.62520000  0.65463000  0.37561000  1.0
  H  H37  1  0.46874000  0.65254000  0.46805000  1.0
  H  H38  1  0.67074000  0.86815000  0.05393000  1.0
  H  H39  1  0.52048000  0.86819000  0.14768000  1.0
  H  H40  1  0.78757000  0.70963000  0.31012000  1.0
  H  H41  1  0.92633000  0.71707000  0.20952000  1.0
  H  H42  1  0.18219000  0.76252000  0.95484000  1.0
  H  H43  1  0.10040000  0.63553000  0.94698000  1.0
  H  H44  1  0.45691000  0.55343000  0.89130000  1.0
  H  H45  1  0.52449000  0.68752000  0.90147000  1.0
  H  H46  1  0.41788000  0.96794000  0.98403000  1.0
  H  H47  1  0.52738000  0.95547000  0.93327000  1.0
  H  H48  1  0.53011000  0.63830000  0.18335000  1.0
  H  H49  1  0.49149000  0.55587000  0.31641000  1.0
  H  H50  1  0.28503000  0.57118000  0.36541000  1.0
  H  H51  1  0.97215000  0.65178000  0.40079000  1.0
  H  H52  1  0.85668000  0.52050000  0.47324000  1.0
  H  H53  1  0.99192000  0.39011000  0.33613000  1.0
  H  H54  1  0.10403000  0.52224000  0.26171000  1.0
  H  H55  1  0.80986000  0.23291000  0.66727000  1.0
  H  H56  1  0.95399000  0.14714000  0.76631000  1.0
  H  H57  1  0.12527000  0.03052000  0.62449000  1.0
  H  H58  1  0.96886000  0.12079000  0.53197000  1.0
  H  H59  1  0.17040000  0.92192000  0.94615000  1.0
  H  H60  1  0.02018000  0.01584000  0.85245000  1.0
  H  H61  1  0.28758000  0.02051000  0.68995000  1.0
  H  H62  1  0.42614000  0.92691000  0.79049000  1.0
  H  H63  1  0.68227000  0.71736000  0.04514000  1.0
  H  H64  1  0.60036000  0.58246000  0.05319000  1.0
  H  H65  1  0.95718000  0.44498000  0.10809000  1.0
  H  H66  1  0.02481000  0.58923000  0.09783000  1.0
  H  H67  1  0.91774000  0.95195000  0.01630000  1.0
  H  H68  1  0.02743000  0.88867000  0.06684000  1.0
  H  H69  1  0.97013000  0.17836000  0.18347000  1.0
  H  H70  1  0.00897000  0.12759000  0.31654000  1.0
  H  H71  1  0.21552000  0.06330000  0.36538000  1.0
  H  H72  1  0.52808000  0.94741000  0.40057000  1.0
  H  H73  1  0.64356000  0.00619000  0.47314000  1.0
  H  H74  1  0.50843000  0.27358000  0.33618000  1.0
  H  H75  1  0.39616000  0.21594000  0.26170000  1.0
  H  H76  1  0.68975000  0.09996000  0.66712000  1.0
  H  H77  1  0.54553000  0.08684000  0.76611000  1.0
  H  H78  1  0.37480000  0.34536000  0.62440000  1.0
  H  H79  1  0.53126000  0.34746000  0.53195000  1.0
  H  H80  1  0.32925000  0.13185000  0.94607000  1.0
  H  H81  1  0.47951000  0.13181000  0.85232000  1.0
  H  H82  1  0.21243000  0.29037000  0.68988000  1.0
  H  H83  1  0.07367000  0.28293000  0.79048000  1.0
  H  H84  1  0.81782000  0.23747000  0.04517000  1.0
  H  H85  1  0.89961000  0.36446000  0.05302000  1.0
  H  H86  1  0.54311000  0.44656000  0.10871000  1.0
  H  H87  1  0.47552000  0.31248000  0.09854000  1.0
  H  H88  1  0.58212000  0.03207000  0.01597000  1.0
  H  H89  1  0.47262000  0.04454000  0.06673000  1.0
  C  C90  1  0.62374000  0.25427000  0.91953000  1.0
  C  C91  1  0.87244000  0.23913000  0.86052000  1.0
  C  C92  1  0.65080000  0.30257000  0.84096000  1.0
  C  C93  1  0.55880000  0.35693000  0.79388000  1.0
  C  C94  1  0.58071000  0.40273000  0.71998000  1.0
  C  C95  1  0.69537000  0.39513000  0.69233000  1.0
  C  C96  1  0.78695000  0.34232000  0.73981000  1.0
  C  C97  1  0.76722000  0.29491000  0.81398000  1.0
  C  C98  1  0.95716000  0.40655000  0.67231000  1.0
  C  C99  1  0.02671000  0.40515000  0.61359000  1.0
  C  C100  1  0.08988000  0.47797000  0.57358000  1.0
  C  C101  1  0.08226000  0.55200000  0.59140000  1.0
  C  C102  1  0.01210000  0.55189000  0.65068000  1.0
  C  C103  1  0.94979000  0.47923000  0.69162000  1.0
  C  C104  1  0.14481000  0.63175000  0.54725000  1.0
  C  C105  1  0.11938000  0.81340000  0.33953000  1.0
  C  C106  1  0.03760000  0.86156000  0.28445000  1.0
  C  C107  1  0.94656000  0.91954000  0.29572000  1.0
  C  C108  1  0.94256000  0.92492000  0.36359000  1.0
  C  C109  1  0.02924000  0.87552000  0.41538000  1.0
  C  C110  1  0.80639000  0.05296000  0.11133000  1.0
  C  C111  1  0.89023000  0.00071000  0.16418000  1.0
  C  C112  1  0.85956000  0.97296000  0.23790000  1.0
  C  C113  1  0.74308000  0.99933000  0.25419000  1.0
  C  C114  1  0.66435000  0.05132000  0.19838000  1.0
  C  C115  1  0.25906000  0.34409000  0.94061000  1.0
  C  C116  1  0.30466000  0.42121000  0.93586000  1.0
  C  C117  1  0.22789000  0.49962000  0.91970000  1.0
  C  C118  1  0.10691000  0.49602000  0.90664000  1.0
  C  C119  1  0.06809000  0.41642000  0.91196000  1.0
  C  C120  1  0.87623000  0.82634000  0.91951000  1.0
  C  C121  1  0.62744000  0.90057000  0.86058000  1.0
  C  C122  1  0.84909000  0.85661000  0.84095000  1.0
  C  C123  1  0.94097000  0.84926000  0.79382000  1.0
  C  C124  1  0.91892000  0.87742000  0.71992000  1.0
  C  C125  1  0.80420000  0.91264000  0.69234000  1.0
  C  C126  1  0.71280000  0.91798000  0.73990000  1.0
  C  C127  1  0.73267000  0.89128000  0.81406000  1.0
  C  C128  1  0.54246000  0.92121000  0.67249000  1.0
  C  C129  1  0.47291000  0.98129000  0.61379000  1.0
  C  C130  1  0.40977000  0.94851000  0.57369000  1.0
  C  C131  1  0.41739000  0.85671000  0.59145000  1.0
  C  C132  1  0.48753000  0.79756000  0.65072000  1.0
  C  C133  1  0.54984000  0.82925000  0.69172000  1.0
  C  C134  1  0.35500000  0.82110000  0.54719000  1.0
  C  C135  1  0.38087000  0.84685000  0.33966000  1.0
  C  C136  1  0.46272000  0.85367000  0.28461000  1.0
  C  C137  1  0.55359000  0.78435000  0.29582000  1.0
  C  C138  1  0.55743000  0.71114000  0.36367000  1.0
  C  C139  1  0.47071000  0.70884000  0.41543000  1.0
  C  C140  1  0.69391000  0.83564000  0.11142000  1.0
  C  C141  1  0.61004000  0.83492000  0.16430000  1.0
  C  C142  1  0.64061000  0.78872000  0.23800000  1.0
  C  C143  1  0.75700000  0.74591000  0.25426000  1.0
  C  C144  1  0.83582000  0.74995000  0.19843000  1.0
  C  C145  1  0.24085000  0.71537000  0.94051000  1.0
  C  C146  1  0.19531000  0.64292000  0.93587000  1.0
  C  C147  1  0.27203000  0.58073000  0.91959000  1.0
  C  C148  1  0.39290000  0.59759000  0.90622000  1.0
  C  C149  1  0.43168000  0.67193000  0.91146000  1.0
  C  C150  1  0.37626000  0.74574000  0.08047000  1.0
  C  C151  1  0.12756000  0.76087000  0.13948000  1.0
  C  C152  1  0.34920000  0.69744000  0.15904000  1.0
  C  C153  1  0.44120000  0.64308000  0.20612000  1.0
  C  C154  1  0.41928000  0.59728000  0.28002000  1.0
  C  C155  1  0.30462000  0.60487000  0.30767000  1.0
  C  C156  1  0.21305000  0.65769000  0.26019000  1.0
  C  C157  1  0.23278000  0.70509000  0.18602000  1.0
  C  C158  1  0.04284000  0.59345000  0.32770000  1.0
  C  C159  1  0.97329000  0.59484000  0.38642000  1.0
  C  C160  1  0.91012000  0.52203000  0.42643000  1.0
  C  C161  1  0.91775000  0.44799000  0.40860000  1.0
  C  C162  1  0.98791000  0.44810000  0.34933000  1.0
  C  C163  1  0.05021000  0.52077000  0.30839000  1.0
  C  C164  1  0.85519000  0.36825000  0.45276000  1.0
  C  C165  1  0.88062000  0.18660000  0.66047000  1.0
  C  C166  1  0.96240000  0.13844000  0.71554000  1.0
  C  C167  1  0.05343000  0.08046000  0.70428000  1.0
  C  C168  1  0.05743000  0.07508000  0.63640000  1.0
  C  C169  1  0.97075000  0.12448000  0.58462000  1.0
  C  C170  1  0.19361000  0.94703000  0.88866000  1.0
  C  C171  1  0.10977000  0.99928000  0.83582000  1.0
  C  C172  1  0.14044000  0.02704000  0.76210000  1.0
  C  C173  1  0.25691000  0.00066000  0.74581000  1.0
  C  C174  1  0.33565000  0.94868000  0.80162000  1.0
  C  C175  1  0.74095000  0.65590000  0.05939000  1.0
  C  C176  1  0.69535000  0.57879000  0.06414000  1.0
  C  C177  1  0.77212000  0.50038000  0.08031000  1.0
  C  C178  1  0.89310000  0.50398000  0.09336000  1.0
  C  C179  1  0.93192000  0.58358000  0.08803000  1.0
  C  C180  1  0.12379000  0.17366000  0.08048000  1.0
  C  C181  1  0.37257000  0.09943000  0.13942000  1.0
  C  C182  1  0.15092000  0.14340000  0.15904000  1.0
  C  C183  1  0.05904000  0.15075000  0.20617000  1.0
  C  C184  1  0.08108000  0.12259000  0.28006000  1.0
  C  C185  1  0.19580000  0.08736000  0.30765000  1.0
  C  C186  1  0.28720000  0.08202000  0.26010000  1.0
  C  C187  1  0.26733000  0.10872000  0.18594000  1.0
  C  C188  1  0.45754000  0.07879000  0.32751000  1.0
  C  C189  1  0.52709000  0.01871000  0.38621000  1.0
  C  C190  1  0.59023000  0.05148000  0.42631000  1.0
  C  C191  1  0.58260000  0.14329000  0.40855000  1.0
  C  C192  1  0.51246000  0.20244000  0.34929000  1.0
  C  C193  1  0.45014000  0.17075000  0.30829000  1.0
  C  C194  1  0.64500000  0.17890000  0.45281000  1.0
  C  C195  1  0.61913000  0.15315000  0.66034000  1.0
  C  C196  1  0.53728000  0.14632000  0.71540000  1.0
  C  C197  1  0.44640000  0.21565000  0.70418000  1.0
  C  C198  1  0.44256000  0.28886000  0.63633000  1.0
  C  C199  1  0.52929000  0.29117000  0.58457000  1.0
  C  C200  1  0.30608000  0.16436000  0.88858000  1.0
  C  C201  1  0.38995000  0.16508000  0.83570000  1.0
  C  C202  1  0.35938000  0.21127000  0.76200000  1.0
  C  C203  1  0.24300000  0.25408000  0.74574000  1.0
  C  C204  1  0.16418000  0.25005000  0.80156000  1.0
  C  C205  1  0.75915000  0.28463000  0.05950000  1.0
  C  C206  1  0.80470000  0.35707000  0.06414000  1.0
  C  C207  1  0.72798000  0.41927000  0.08042000  1.0
  C  C208  1  0.60711000  0.40241000  0.09379000  1.0
  C  C209  1  0.56833000  0.32806000  0.08854000  1.0
  N  N210  1  0.11759000  0.82096000  0.40346000  1.0
  N  N211  1  0.69476000  0.07823000  0.12783000  1.0
  N  N212  1  0.14253000  0.34104000  0.92962000  1.0
  N  N213  1  0.38246000  0.77538000  0.40352000  1.0
  N  N214  1  0.80549000  0.79381000  0.12790000  1.0
  N  N215  1  0.35732000  0.72951000  0.92935000  1.0
  N  N216  1  0.88240000  0.17904000  0.59654000  1.0
  N  N217  1  0.30524000  0.92177000  0.87216000  1.0
  N  N218  1  0.85748000  0.65896000  0.07038000  1.0
  N  N219  1  0.61753000  0.22462000  0.59648000  1.0
  N  N220  1  0.19450000  0.20619000  0.87210000  1.0
  N  N221  1  0.64268000  0.27048000  0.07066000  1.0
  O  O222  1  0.70259000  0.19620000  0.96153000  1.0
  O  O223  1  0.52248000  0.27089000  0.94493000  1.0
  O  O224  1  0.89557000  0.16022000  0.86524000  1.0
  O  O225  1  0.93396000  0.27910000  0.88756000  1.0
  O  O226  1  0.90122000  0.33095000  0.71332000  1.0
  O  O227  1  0.12326000  0.70271000  0.55845000  1.0
  O  O228  1  0.21925000  0.62974000  0.49760000  1.0
  O  O229  1  0.01874000  0.09435000  0.98077000  1.0
  O  O230  1  0.79741000  0.84240000  0.96156000  1.0
  O  O231  1  0.97752000  0.78435000  0.94489000  1.0
  O  O232  1  0.60418000  0.97478000  0.86528000  1.0
  O  O233  1  0.56597000  0.83357000  0.88757000  1.0
  O  O234  1  0.59842000  0.95579000  0.71353000  1.0
  O  O235  1  0.37676000  0.73896000  0.55835000  1.0
  O  O236  1  0.28050000  0.87265000  0.49755000  1.0
  O  O237  1  0.48140000  0.92468000  0.98092000  1.0
  O  O238  1  0.29741000  0.80381000  0.03847000  1.0
  O  O239  1  0.47753000  0.72913000  0.05507000  1.0
  O  O240  1  0.10443000  0.83979000  0.13476000  1.0
  O  O241  1  0.06604000  0.72091000  0.11243000  1.0
  O  O242  1  0.09877000  0.66905000  0.28667000  1.0
  O  O243  1  0.87675000  0.29728000  0.44155000  1.0
  O  O244  1  0.78074000  0.37026000  0.50240000  1.0
  O  O245  1  0.98126000  0.90565000  0.01922000  1.0
  O  O246  1  0.20260000  0.15760000  0.03843000  1.0
  O  O247  1  0.02249000  0.21566000  0.05511000  1.0
  O  O248  1  0.39584000  0.02522000  0.13472000  1.0
  O  O249  1  0.43404000  0.16643000  0.11243000  1.0
  O  O250  1  0.40158000  0.04421000  0.28647000  1.0
  O  O251  1  0.62323000  0.26103000  0.44165000  1.0
  O  O252  1  0.71949000  0.12735000  0.50245000  1.0
  O  O253  1  0.51860000  0.07533000  0.01907000  1.0
