# generated using pymatgen
data_CdH12C16(NO2)2
_symmetry_space_group_name_H-M   'P 1'
_cell_length_a   5.06504000
_cell_length_b   7.96774000
_cell_length_c   9.58482000
_cell_angle_alpha   68.08570000
_cell_angle_beta   80.84890000
_cell_angle_gamma   74.72730000
_symmetry_Int_Tables_number   1
_chemical_formula_structural   CdH12C16(NO2)2
_chemical_formula_sum   'Cd1 H12 C16 N2 O4'
_cell_volume   345.39202190
_cell_formula_units_Z   1
loop_
 _symmetry_equiv_pos_site_id
 _symmetry_equiv_pos_as_xyz
  1  'x, y, z'
loop_
 _atom_site_type_symbol
 _atom_site_label
 _atom_site_symmetry_multiplicity
 _atom_site_fract_x
 _atom_site_fract_y
 _atom_site_fract_z
 _atom_site_occupancy
  Cd  Cd0  1  0.49999000  0.50000000  0.50000000  1.0
  H  H1  1  0.21993000  0.19003000  0.47706000  1.0
  H  H2  1  0.78007000  0.80997000  0.52293000  1.0
  H  H3  1  0.83590000  0.42910000  0.20298000  1.0
  H  H4  1  0.16410000  0.57091000  0.79702000  1.0
  H  H5  1  0.24382000  0.98705000  0.32509000  1.0
  H  H6  1  0.75619000  0.01294000  0.67491000  1.0
  H  H7  1  0.56352000  0.02589000  0.09351000  1.0
  H  H8  1  0.43648000  0.97411000  0.90649000  1.0
  H  H9  1  0.08619000  0.31676000  0.98786000  1.0
  H  H10  1  0.91381000  0.68325000  0.01214000  1.0
  H  H11  1  0.64648000  0.23169000  0.85116000  1.0
  H  H12  1  0.35351000  0.76831000  0.14884000  1.0
  C  C13  1  0.36422000  0.19525000  0.37893000  1.0
  C  C14  1  0.63578000  0.80474000  0.62107000  1.0
  C  C15  1  0.70643000  0.33132000  0.22405000  1.0
  C  C16  1  0.29357000  0.66868000  0.77594000  1.0
  C  C17  1  0.37173000  0.08837000  0.29105000  1.0
  C  C18  1  0.62828000  0.91162000  0.70895000  1.0
  C  C19  1  0.54906000  0.11034000  0.16243000  1.0
  C  C20  1  0.45095000  0.88965000  0.83757000  1.0
  C  C21  1  0.71893000  0.23703000  0.12445000  1.0
  C  C22  1  0.28108000  0.76296000  0.87556000  1.0
  C  C23  1  0.89891000  0.27388000  0.98631000  1.0
  C  C24  1  0.10109000  0.72612000  0.01369000  1.0
  C  C25  1  0.84037000  0.26294000  0.85820000  1.0
  C  C26  1  0.15963000  0.73706000  0.14180000  1.0
  C  C27  1  0.01418000  0.30496000  0.71416000  1.0
  C  C28  1  0.98581000  0.69504000  0.28584000  1.0
  N  N29  1  0.53050000  0.31374000  0.34667000  1.0
  N  N30  1  0.46950000  0.68626000  0.65333000  1.0
  O  O31  1  0.91200000  0.30962000  0.59880000  1.0
  O  O32  1  0.08799000  0.69039000  0.40120000  1.0
  O  O33  1  0.25253000  0.33111000  0.71310000  1.0
  O  O34  1  0.74746000  0.66890000  0.28690000  1.0
