# generated using pymatgen
data_CdH17C22N6ClO2
_symmetry_space_group_name_H-M   'P 1'
_cell_length_a   10.32280000
_cell_length_b   13.82030000
_cell_length_c   16.39870000
_cell_angle_alpha   90.00020000
_cell_angle_beta   90.00030000
_cell_angle_gamma   75.36400000
_symmetry_Int_Tables_number   1
_chemical_formula_structural   CdH17C22N6ClO2
_chemical_formula_sum   'Cd4 H68 C88 N24 Cl4 O8'
_cell_volume   2263.59169006
_cell_formula_units_Z   4
loop_
 _symmetry_equiv_pos_site_id
 _symmetry_equiv_pos_as_xyz
  1  'x, y, z'
loop_
 _atom_site_type_symbol
 _atom_site_label
 _atom_site_symmetry_multiplicity
 _atom_site_fract_x
 _atom_site_fract_y
 _atom_site_fract_z
 _atom_site_occupancy
  Cd  Cd0  1  0.78999000  0.06377000  0.17708000  1.0
  Cd  Cd1  1  0.71000000  0.43622000  0.67707000  1.0
  Cd  Cd2  1  0.21001000  0.93622000  0.82293000  1.0
  Cd  Cd3  1  0.28999000  0.56379000  0.32293000  1.0
  H  H4  1  0.61811000  0.11523000  0.58314000  1.0
  H  H5  1  0.88190000  0.38477000  0.08314000  1.0
  H  H6  1  0.38190000  0.88477000  0.41687000  1.0
  H  H7  1  0.11810000  0.61523000  0.91687000  1.0
  H  H8  1  0.75435000  0.83156000  0.45882000  1.0
  H  H9  1  0.74565000  0.66843000  0.95882000  1.0
  H  H10  1  0.24565000  0.16844000  0.54118000  1.0
  H  H11  1  0.25434000  0.33156000  0.04118000  1.0
  H  H12  1  0.72817000  0.84139000  0.72021000  1.0
  H  H13  1  0.77184000  0.65861000  0.22021000  1.0
  H  H14  1  0.27183000  0.15861000  0.27979000  1.0
  H  H15  1  0.22817000  0.34138000  0.77979000  1.0
  H  H16  1  0.78539000  0.91983000  0.35574000  1.0
  H  H17  1  0.71461000  0.58016000  0.85574000  1.0
  H  H18  1  0.21461000  0.08017000  0.64426000  1.0
  H  H19  1  0.28539000  0.41983000  0.14426000  1.0
  H  H20  1  0.57477000  0.21705000  0.30798000  1.0
  H  H21  1  0.92521000  0.28294000  0.80798000  1.0
  H  H22  1  0.42522000  0.78296000  0.69202000  1.0
  H  H23  1  0.07479000  0.71705000  0.19202000  1.0
  H  H24  1  0.54592000  0.17835000  0.47181000  1.0
  H  H25  1  0.95408000  0.32165000  0.97181000  1.0
  H  H26  1  0.45408000  0.82166000  0.52819000  1.0
  H  H27  1  0.04593000  0.67834000  0.02819000  1.0
  H  H28  1  0.64001000  0.68913000  0.67304000  1.0
  H  H29  1  0.86000000  0.81087000  0.17304000  1.0
  H  H30  1  0.36000000  0.31088000  0.32696000  1.0
  H  H31  1  0.14000000  0.18914000  0.82695000  1.0
  H  H32  1  0.97926000  0.49491000  0.56791000  1.0
  H  H33  1  0.52075000  0.00509000  0.06791000  1.0
  H  H34  1  0.02073000  0.50510000  0.43208000  1.0
  H  H35  1  0.47924000  0.99490000  0.93209000  1.0
  H  H36  1  0.96956000  0.68963000  0.51825000  1.0
  H  H37  1  0.53046000  0.81036000  0.01824000  1.0
  H  H38  1  0.03044000  0.31037000  0.48174000  1.0
  H  H39  1  0.46954000  0.18963000  0.98176000  1.0
  H  H40  1  0.55352000  0.01664000  0.77169000  1.0
  H  H41  1  0.94648000  0.48336000  0.27169000  1.0
  H  H42  1  0.44649000  0.98336000  0.22831000  1.0
  H  H43  1  0.05353000  0.51663000  0.72831000  1.0
  H  H44  1  0.72348000  0.02266000  0.77923000  1.0
  H  H45  1  0.77653000  0.47734000  0.27923000  1.0
  H  H46  1  0.27653000  0.97734000  0.22077000  1.0
  H  H47  1  0.22349000  0.52265000  0.72078000  1.0
  H  H48  1  0.78466000  0.18273000  0.74750000  1.0
  H  H49  1  0.71533000  0.31727000  0.24750000  1.0
  H  H50  1  0.21535000  0.81727000  0.25250000  1.0
  H  H51  1  0.28466000  0.68273000  0.75250000  1.0
  H  H52  1  0.41065000  0.36953000  0.67948000  1.0
  H  H53  1  0.08933000  0.13048000  0.17948000  1.0
  H  H54  1  0.58934000  0.63048000  0.32052000  1.0
  H  H55  1  0.91066000  0.86952000  0.82052000  1.0
  H  H56  1  0.38449000  0.17297000  0.70272000  1.0
  H  H57  1  0.11550000  0.32703000  0.20272000  1.0
  H  H58  1  0.61551000  0.82703000  0.29728000  1.0
  H  H59  1  0.88450000  0.67297000  0.79728000  1.0
  H  H60  1  0.53308000  0.40287000  0.15058000  1.0
  H  H61  1  0.96691000  0.09712000  0.65058000  1.0
  H  H62  1  0.46692000  0.59712000  0.84942000  1.0
  H  H63  1  0.03308000  0.90288000  0.34943000  1.0
  H  H64  1  0.44618000  0.58749000  0.15341000  1.0
  H  H65  1  0.05382000  0.91251000  0.65341000  1.0
  H  H66  1  0.55383000  0.41250000  0.84660000  1.0
  H  H67  1  0.94618000  0.08749000  0.34659000  1.0
  H  H68  1  0.35504000  0.74717000  0.07851000  1.0
  H  H69  1  0.14496000  0.75283000  0.57851000  1.0
  H  H70  1  0.64496000  0.25283000  0.92150000  1.0
  H  H71  1  0.85505000  0.24717000  0.42149000  1.0
  C  C72  1  0.65111000  0.03405000  0.58489000  1.0
  C  C73  1  0.84890000  0.46595000  0.08489000  1.0
  C  C74  1  0.34889000  0.96595000  0.41511000  1.0
  C  C75  1  0.15110000  0.53405000  0.91511000  1.0
  C  C76  1  0.68259000  0.97970000  0.51241000  1.0
  C  C77  1  0.81742000  0.52030000  0.01240000  1.0
  C  C78  1  0.31741000  0.02031000  0.48759000  1.0
  C  C79  1  0.18258000  0.47970000  0.98760000  1.0
  C  C80  1  0.73104000  0.87565000  0.51434000  1.0
  C  C81  1  0.76898000  0.62435000  0.01434000  1.0
  C  C82  1  0.26897000  0.12436000  0.48565000  1.0
  C  C83  1  0.23102000  0.37565000  0.98566000  1.0
  C  C84  1  0.74722000  0.82766000  0.58990000  1.0
  C  C85  1  0.75279000  0.67234000  0.08990000  1.0
  C  C86  1  0.25278000  0.17235000  0.41010000  1.0
  C  C87  1  0.24721000  0.32765000  0.91010000  1.0
  C  C88  1  0.71413000  0.88099000  0.66222000  1.0
  C  C89  1  0.78587000  0.61902000  0.16222000  1.0
  C  C90  1  0.28587000  0.11902000  0.33778000  1.0
  C  C91  1  0.21413000  0.38098000  0.83778000  1.0
  C  C92  1  0.66567000  0.98487000  0.65979000  1.0
  C  C93  1  0.83434000  0.51513000  0.15979000  1.0
  C  C94  1  0.33433000  0.01513000  0.34021000  1.0
  C  C95  1  0.16567000  0.48487000  0.84021000  1.0
  C  C96  1  0.71906000  0.99376000  0.36327000  1.0
  C  C97  1  0.78094000  0.50623000  0.86327000  1.0
  C  C98  1  0.28093000  0.00625000  0.63673000  1.0
  C  C99  1  0.21906000  0.49376000  0.13673000  1.0
  C  C100  1  0.61179000  0.14862000  0.34247000  1.0
  C  C101  1  0.88820000  0.35138000  0.84247000  1.0
  C  C102  1  0.38821000  0.85139000  0.65753000  1.0
  C  C103  1  0.11180000  0.64862000  0.15753000  1.0
  C  C104  1  0.59742000  0.13033000  0.42362000  1.0
  C  C105  1  0.90258000  0.36966000  0.92362000  1.0
  C  C106  1  0.40258000  0.86968000  0.57638000  1.0
  C  C107  1  0.09744000  0.63033000  0.07638000  1.0
  C  C108  1  0.73304000  0.66209000  0.63982000  1.0
  C  C109  1  0.76697000  0.83790000  0.13982000  1.0
  C  C110  1  0.26696000  0.33791000  0.36018000  1.0
  C  C111  1  0.23303000  0.16209000  0.86018000  1.0
  C  C112  1  0.90722000  0.56460000  0.58218000  1.0
  C  C113  1  0.59278000  0.93539000  0.08218000  1.0
  C  C114  1  0.09278000  0.43540000  0.41782000  1.0
  C  C115  1  0.40721000  0.06460000  0.91783000  1.0
  C  C116  1  0.90371000  0.65991000  0.55666000  1.0
  C  C117  1  0.59631000  0.84008000  0.05665000  1.0
  C  C118  1  0.09629000  0.34010000  0.44333000  1.0
  C  C119  1  0.40369000  0.15990000  0.94335000  1.0
  C  C120  1  0.63407000  0.04052000  0.73995000  1.0
  C  C121  1  0.86593000  0.45948000  0.23995000  1.0
  C  C122  1  0.36593000  0.95948000  0.26005000  1.0
  C  C123  1  0.13408000  0.54052000  0.76005000  1.0
  C  C124  1  0.67908000  0.20960000  0.73237000  1.0
  C  C125  1  0.82091000  0.29040000  0.23236000  1.0
  C  C126  1  0.32092000  0.79040000  0.26764000  1.0
  C  C127  1  0.17908000  0.70960000  0.76764000  1.0
  C  C128  1  0.48319000  0.30127000  0.69706000  1.0
  C  C129  1  0.01680000  0.19873000  0.19708000  1.0
  C  C130  1  0.51681000  0.69873000  0.30293000  1.0
  C  C131  1  0.98319000  0.80127000  0.80293000  1.0
  C  C132  1  0.46910000  0.20571000  0.70794000  1.0
  C  C133  1  0.03089000  0.29429000  0.20795000  1.0
  C  C134  1  0.53091000  0.79429000  0.29205000  1.0
  C  C135  1  0.96910000  0.70571000  0.79205000  1.0
  C  C136  1  0.63854000  0.22165000  0.08622000  1.0
  C  C137  1  0.86145000  0.27835000  0.58621000  1.0
  C  C138  1  0.36148000  0.77834000  0.91378000  1.0
  C  C139  1  0.13854000  0.72166000  0.41379000  1.0
  C  C140  1  0.59047000  0.31840000  0.04067000  1.0
  C  C141  1  0.90953000  0.18160000  0.54066000  1.0
  C  C142  1  0.40954000  0.68160000  0.95933000  1.0
  C  C143  1  0.09048000  0.81840000  0.45934000  1.0
  C  C144  1  0.53980000  0.40564000  0.08415000  1.0
  C  C145  1  0.96021000  0.09436000  0.58415000  1.0
  C  C146  1  0.46021000  0.59435000  0.91586000  1.0
  C  C147  1  0.03980000  0.90565000  0.41586000  1.0
  C  C148  1  0.49819000  0.49883000  0.04369000  1.0
  C  C149  1  0.00181000  0.00117000  0.54370000  1.0
  C  C150  1  0.50181000  0.50117000  0.95631000  1.0
  C  C151  1  0.99819000  0.99883000  0.45631000  1.0
  C  C152  1  0.44825000  0.58970000  0.08699000  1.0
  C  C153  1  0.05173000  0.91030000  0.58699000  1.0
  C  C154  1  0.55174000  0.41030000  0.91302000  1.0
  C  C155  1  0.94825000  0.08970000  0.41301000  1.0
  C  C156  1  0.40004000  0.67824000  0.04575000  1.0
  C  C157  1  0.09995000  0.82176000  0.54575000  1.0
  C  C158  1  0.59995000  0.32175000  0.95425000  1.0
  C  C159  1  0.90005000  0.17824000  0.45425000  1.0
  N  N160  1  0.68793000  0.06295000  0.30574000  1.0
  N  N161  1  0.81206000  0.43704000  0.80574000  1.0
  N  N162  1  0.31207000  0.93705000  0.69426000  1.0
  N  N163  1  0.18794000  0.56296000  0.19426000  1.0
  N  N164  1  0.66518000  0.03106000  0.43672000  1.0
  N  N165  1  0.83482000  0.46893000  0.93672000  1.0
  N  N166  1  0.33482000  0.96894000  0.56328000  1.0
  N  N167  1  0.16518000  0.53106000  0.06329000  1.0
  N  N168  1  0.80011000  0.56715000  0.63313000  1.0
  N  N169  1  0.69989000  0.93285000  0.13313000  1.0
  N  N170  1  0.19988000  0.43286000  0.36686000  1.0
  N  N171  1  0.30011000  0.06714000  0.86687000  1.0
  N  N172  1  0.79258000  0.72159000  0.59420000  1.0
  N  N173  1  0.70743000  0.77840000  0.09420000  1.0
  N  N174  1  0.20742000  0.27841000  0.40580000  1.0
  N  N175  1  0.29257000  0.22159000  0.90580000  1.0
  N  N176  1  0.61409000  0.30247000  0.71266000  1.0
  N  N177  1  0.88589000  0.19753000  0.21266000  1.0
  N  N178  1  0.38590000  0.69754000  0.28734000  1.0
  N  N179  1  0.11410000  0.80247000  0.78734000  1.0
  N  N180  1  0.59427000  0.14851000  0.73076000  1.0
  N  N181  1  0.90572000  0.35149000  0.23076000  1.0
  N  N182  1  0.40573000  0.85149000  0.26924000  1.0
  N  N183  1  0.09428000  0.64851000  0.76924000  1.0
  Cl  Cl184  1  0.01925000  0.94158000  0.19234000  1.0
  Cl  Cl185  1  0.48076000  0.55842000  0.69235000  1.0
  Cl  Cl186  1  0.98075000  0.05842000  0.80765000  1.0
  Cl  Cl187  1  0.51926000  0.44158000  0.30766000  1.0
  O  O188  1  0.73456000  0.15496000  0.05457000  1.0
  O  O189  1  0.76543000  0.34505000  0.55456000  1.0
  O  O190  1  0.26546000  0.84504000  0.94542000  1.0
  O  O191  1  0.23455000  0.65496000  0.44543000  1.0
  O  O192  1  0.58528000  0.21156000  0.15469000  1.0
  O  O193  1  0.91470000  0.28844000  0.65468000  1.0
  O  O194  1  0.41473000  0.78843000  0.84530000  1.0
  O  O195  1  0.08527000  0.71157000  0.34531000  1.0
