# generated using pymatgen
data_ZnH20C30NO4
_symmetry_space_group_name_H-M   'P 1'
_cell_length_a   15.15560000
_cell_length_b   15.75030000
_cell_length_c   15.93540000
_cell_angle_alpha   87.49080000
_cell_angle_beta   84.77380000
_cell_angle_gamma   61.24630000
_symmetry_Int_Tables_number   1
_chemical_formula_structural   ZnH20C30NO4
_chemical_formula_sum   'Zn4 H80 C120 N4 O16'
_cell_volume   3320.96743042
_cell_formula_units_Z   4
loop_
 _symmetry_equiv_pos_site_id
 _symmetry_equiv_pos_as_xyz
  1  'x, y, z'
loop_
 _atom_site_type_symbol
 _atom_site_label
 _atom_site_symmetry_multiplicity
 _atom_site_fract_x
 _atom_site_fract_y
 _atom_site_fract_z
 _atom_site_occupancy
  Zn  Zn0  1  0.44384000  0.99143000  0.43540000  1.0
  Zn  Zn1  1  0.56478000  0.99155000  0.06459000  1.0
  Zn  Zn2  1  0.55616000  0.00857000  0.56460000  1.0
  Zn  Zn3  1  0.43522000  0.00845000  0.93541000  1.0
  H  H4  1  0.33366000  0.28132000  0.67731000  1.0
  H  H5  1  0.18833000  0.43668000  0.72638000  1.0
  H  H6  1  0.01538000  0.41744000  0.53435000  1.0
  H  H7  1  0.16329000  0.26059000  0.48625000  1.0
  H  H8  1  0.93389000  0.54916000  0.63073000  1.0
  H  H9  1  0.07161000  0.57209000  0.74807000  1.0
  H  H10  1  0.99501000  0.68017000  0.85801000  1.0
  H  H11  1  0.84408000  0.81385000  0.93387000  1.0
  H  H12  1  0.66324000  0.83163000  0.73431000  1.0
  H  H13  1  0.81183000  0.69887000  0.65830000  1.0
  H  H14  1  0.22977000  0.06235000  0.43958000  1.0
  H  H15  1  0.10203000  0.06685000  0.34853000  1.0
  H  H16  1  0.34888000  0.89763000  0.16556000  1.0
  H  H17  1  0.46532000  0.90058000  0.26350000  1.0
  H  H18  1  0.06357000  0.01243000  0.22633000  1.0
  H  H19  1  0.22612000  0.95973000  0.07869000  1.0
  H  H20  1  0.99254000  0.84693000  0.84820000  1.0
  H  H21  1  0.15938000  0.70249000  0.84518000  1.0
  H  H22  1  0.28616000  0.68878000  0.94199000  1.0
  H  H23  1  0.24351000  0.81974000  0.04274000  1.0
  H  H24  1  0.38488000  0.28141000  0.82254000  1.0
  H  H25  1  0.37507000  0.43668000  0.77346000  1.0
  H  H26  1  0.56718000  0.41730000  0.96560000  1.0
  H  H27  1  0.57590000  0.26059000  0.01370000  1.0
  H  H28  1  0.51706000  0.54910000  0.86929000  1.0
  H  H29  1  0.35634000  0.57208000  0.75202000  1.0
  H  H30  1  0.32469000  0.68024000  0.64211000  1.0
  H  H31  1  0.34205000  0.81385000  0.56617000  1.0
  H  H32  1  0.50520000  0.83162000  0.76569000  1.0
  H  H33  1  0.48937000  0.69884000  0.84170000  1.0
  H  H34  1  0.70799000  0.06250000  0.06046000  1.0
  H  H35  1  0.83127000  0.06692000  0.15153000  1.0
  H  H36  1  0.75364000  0.89758000  0.33437000  1.0
  H  H37  1  0.63423000  0.90060000  0.23642000  1.0
  H  H38  1  0.92418000  0.01239000  0.27369000  1.0
  H  H39  1  0.81419000  0.95971000  0.42124000  1.0
  H  H40  1  0.16057000  0.84686000  0.65174000  1.0
  H  H41  1  0.13816000  0.70243000  0.65472000  1.0
  H  H42  1  0.02503000  0.68874000  0.55796000  1.0
  H  H43  1  0.93666000  0.81978000  0.45728000  1.0
  H  H44  1  0.66634000  0.71868000  0.32270000  1.0
  H  H45  1  0.81167000  0.56332000  0.27362000  1.0
  H  H46  1  0.98462000  0.58256000  0.46565000  1.0
  H  H47  1  0.83672000  0.73941000  0.51375000  1.0
  H  H48  1  0.06610000  0.45084000  0.36927000  1.0
  H  H49  1  0.92839000  0.42791000  0.25193000  1.0
  H  H50  1  0.00499000  0.31983000  0.14199000  1.0
  H  H51  1  0.15592000  0.18615000  0.06613000  1.0
  H  H52  1  0.33676000  0.16838000  0.26569000  1.0
  H  H53  1  0.18816000  0.30113000  0.34170000  1.0
  H  H54  1  0.77023000  0.93765000  0.56043000  1.0
  H  H55  1  0.89797000  0.93315000  0.65147000  1.0
  H  H56  1  0.65112000  0.10238000  0.83444000  1.0
  H  H57  1  0.53468000  0.09942000  0.73650000  1.0
  H  H58  1  0.93643000  0.98757000  0.77368000  1.0
  H  H59  1  0.77389000  0.04026000  0.92131000  1.0
  H  H60  1  0.00746000  0.15307000  0.15180000  1.0
  H  H61  1  0.84061000  0.29751000  0.15482000  1.0
  H  H62  1  0.71385000  0.31122000  0.05801000  1.0
  H  H63  1  0.75649000  0.18026000  0.95726000  1.0
  H  H64  1  0.61511000  0.71859000  0.17745000  1.0
  H  H65  1  0.62493000  0.56332000  0.22655000  1.0
  H  H66  1  0.43282000  0.58270000  0.03440000  1.0
  H  H67  1  0.42410000  0.73941000  0.98630000  1.0
  H  H68  1  0.48294000  0.45090000  0.13071000  1.0
  H  H69  1  0.64366000  0.42792000  0.24798000  1.0
  H  H70  1  0.67531000  0.31976000  0.35789000  1.0
  H  H71  1  0.65795000  0.18615000  0.43383000  1.0
  H  H72  1  0.49481000  0.16838000  0.23431000  1.0
  H  H73  1  0.51063000  0.30116000  0.15830000  1.0
  H  H74  1  0.29201000  0.93750000  0.93954000  1.0
  H  H75  1  0.16873000  0.93308000  0.84847000  1.0
  H  H76  1  0.24636000  0.10242000  0.66563000  1.0
  H  H77  1  0.36577000  0.09940000  0.76358000  1.0
  H  H78  1  0.07582000  0.98761000  0.72631000  1.0
  H  H79  1  0.18581000  0.04029000  0.57876000  1.0
  H  H80  1  0.83943000  0.15313000  0.34825000  1.0
  H  H81  1  0.86184000  0.29757000  0.34528000  1.0
  H  H82  1  0.97497000  0.31126000  0.44204000  1.0
  H  H83  1  0.06333000  0.18022000  0.54272000  1.0
  C  C84  1  0.34577000  0.16661000  0.55074000  1.0
  C  C85  1  0.25757000  0.26150000  0.57865000  1.0
  C  C86  1  0.26367000  0.31236000  0.64612000  1.0
  C  C87  1  0.18220000  0.39983000  0.67261000  1.0
  C  C88  1  0.09112000  0.44028000  0.63265000  1.0
  C  C89  1  0.08556000  0.38803000  0.56544000  1.0
  C  C90  1  0.16751000  0.30042000  0.53861000  1.0
  C  C91  1  0.00351000  0.53130000  0.65970000  1.0
  C  C92  1  0.00174000  0.59145000  0.71879000  1.0
  C  C93  1  0.91413000  0.67740000  0.75399000  1.0
  C  C94  1  0.92227000  0.71384000  0.83054000  1.0
  C  C95  1  0.83850000  0.78808000  0.87328000  1.0
  C  C96  1  0.74406000  0.82915000  0.84006000  1.0
  C  C97  1  0.73607000  0.79756000  0.76134000  1.0
  C  C98  1  0.81989000  0.72290000  0.71893000  1.0
  C  C99  1  0.65246000  0.90133000  0.89122000  1.0
  C  C100  1  0.25220000  0.02595000  0.37875000  1.0
  C  C101  1  0.18196000  0.02822000  0.32780000  1.0
  C  C102  1  0.21403000  0.98368000  0.24830000  1.0
  C  C103  1  0.31843000  0.93539000  0.22549000  1.0
  C  C104  1  0.38419000  0.93611000  0.28013000  1.0
  C  C105  1  0.13794000  0.99185000  0.19425000  1.0
  C  C106  1  0.15141000  0.97964000  0.11004000  1.0
  C  C107  1  0.07315000  0.99114000  0.05585000  1.0
  C  C108  1  0.09524000  0.91518000  0.99928000  1.0
  C  C109  1  0.02205000  0.92360000  0.94270000  1.0
  C  C110  1  0.04819000  0.84346000  0.88868000  1.0
  C  C111  1  0.14118000  0.76209000  0.88775000  1.0
  C  C112  1  0.21305000  0.75409000  0.94297000  1.0
  C  C113  1  0.18953000  0.82786000  0.99819000  1.0
  C  C114  1  0.48744000  0.16663000  0.94917000  1.0
  C  C115  1  0.48075000  0.26152000  0.92125000  1.0
  C  C116  1  0.42389000  0.31239000  0.85374000  1.0
  C  C117  1  0.41799000  0.39983000  0.82726000  1.0
  C  C118  1  0.46865000  0.44024000  0.86727000  1.0
  C  C119  1  0.52634000  0.38799000  0.93451000  1.0
  C  C120  1  0.53188000  0.30043000  0.96134000  1.0
  C  C121  1  0.46530000  0.53126000  0.84028000  1.0
  C  C122  1  0.40685000  0.59148000  0.78126000  1.0
  C  C123  1  0.40843000  0.67745000  0.74607000  1.0
  C  C124  1  0.36378000  0.71391000  0.66957000  1.0
  C  C125  1  0.37336000  0.78811000  0.62678000  1.0
  C  C126  1  0.42678000  0.82915000  0.65996000  1.0
  C  C127  1  0.46640000  0.79758000  0.73867000  1.0
  C  C128  1  0.45723000  0.72293000  0.78109000  1.0
  C  C129  1  0.44622000  0.90130000  0.60875000  1.0
  C  C130  1  0.72196000  0.02605000  0.12126000  1.0
  C  C131  1  0.78995000  0.02827000  0.17222000  1.0
  C  C132  1  0.80246000  0.98366000  0.25167000  1.0
  C  C133  1  0.74633000  0.93537000  0.27445000  1.0
  C  C134  1  0.67984000  0.93612000  0.21981000  1.0
  C  C135  1  0.87037000  0.99181000  0.30573000  1.0
  C  C136  1  0.86902000  0.97961000  0.38993000  1.0
  C  C137  1  0.93573000  0.99114000  0.44415000  1.0
  C  C138  1  0.98956000  0.91518000  0.50074000  1.0
  C  C139  1  0.05433000  0.92360000  0.55730000  1.0
  C  C140  1  0.10833000  0.84344000  0.61130000  1.0
  C  C141  1  0.09672000  0.76206000  0.61220000  1.0
  C  C142  1  0.03279000  0.75408000  0.55701000  1.0
  C  C143  1  0.98254000  0.82788000  0.50182000  1.0
  C  C144  1  0.65423000  0.83339000  0.44926000  1.0
  C  C145  1  0.74243000  0.73850000  0.42135000  1.0
  C  C146  1  0.73633000  0.68764000  0.35388000  1.0
  C  C147  1  0.81780000  0.60017000  0.32739000  1.0
  C  C148  1  0.90888000  0.55972000  0.36735000  1.0
  C  C149  1  0.91444000  0.61197000  0.43455000  1.0
  C  C150  1  0.83249000  0.69958000  0.46139000  1.0
  C  C151  1  0.99649000  0.46870000  0.34030000  1.0
  C  C152  1  0.99826000  0.40855000  0.28121000  1.0
  C  C153  1  0.08587000  0.32261000  0.24601000  1.0
  C  C154  1  0.07773000  0.28616000  0.16946000  1.0
  C  C155  1  0.16149000  0.21193000  0.12672000  1.0
  C  C156  1  0.25594000  0.17085000  0.15994000  1.0
  C  C157  1  0.26393000  0.20244000  0.23866000  1.0
  C  C158  1  0.18011000  0.27710000  0.28107000  1.0
  C  C159  1  0.34754000  0.09867000  0.10878000  1.0
  C  C160  1  0.74780000  0.97405000  0.62125000  1.0
  C  C161  1  0.81804000  0.97178000  0.67220000  1.0
  C  C162  1  0.78597000  0.01632000  0.75170000  1.0
  C  C163  1  0.68157000  0.06461000  0.77451000  1.0
  C  C164  1  0.61581000  0.06389000  0.71987000  1.0
  C  C165  1  0.86206000  0.00815000  0.80575000  1.0
  C  C166  1  0.84859000  0.02036000  0.88996000  1.0
  C  C167  1  0.92685000  0.00886000  0.94415000  1.0
  C  C168  1  0.90476000  0.08483000  0.00072000  1.0
  C  C169  1  0.97795000  0.07640000  0.05730000  1.0
  C  C170  1  0.95181000  0.15654000  0.11132000  1.0
  C  C171  1  0.85882000  0.23791000  0.11225000  1.0
  C  C172  1  0.78695000  0.24591000  0.05703000  1.0
  C  C173  1  0.81047000  0.17214000  0.00181000  1.0
  C  C174  1  0.51256000  0.83337000  0.05083000  1.0
  C  C175  1  0.51925000  0.73848000  0.07874000  1.0
  C  C176  1  0.57611000  0.68761000  0.14626000  1.0
  C  C177  1  0.58201000  0.60017000  0.17274000  1.0
  C  C178  1  0.53135000  0.55976000  0.13273000  1.0
  C  C179  1  0.47366000  0.61201000  0.06549000  1.0
  C  C180  1  0.46812000  0.69957000  0.03866000  1.0
  C  C181  1  0.53470000  0.46874000  0.15972000  1.0
  C  C182  1  0.59315000  0.40852000  0.21873000  1.0
  C  C183  1  0.59157000  0.32255000  0.25393000  1.0
  C  C184  1  0.63622000  0.28609000  0.33044000  1.0
  C  C185  1  0.62664000  0.21189000  0.37322000  1.0
  C  C186  1  0.57322000  0.17085000  0.34004000  1.0
  C  C187  1  0.53360000  0.20242000  0.26133000  1.0
  C  C188  1  0.54277000  0.27707000  0.21892000  1.0
  C  C189  1  0.55378000  0.09871000  0.39125000  1.0
  C  C190  1  0.27804000  0.97395000  0.87874000  1.0
  C  C191  1  0.21005000  0.97173000  0.82779000  1.0
  C  C192  1  0.19754000  0.01634000  0.74833000  1.0
  C  C193  1  0.25367000  0.06463000  0.72555000  1.0
  C  C194  1  0.32016000  0.06387000  0.78019000  1.0
  C  C195  1  0.12963000  0.00819000  0.69427000  1.0
  C  C196  1  0.13098000  0.02038000  0.61007000  1.0
  C  C197  1  0.06427000  0.00886000  0.55585000  1.0
  C  C198  1  0.01044000  0.08482000  0.49926000  1.0
  C  C199  1  0.94567000  0.07640000  0.44270000  1.0
  C  C200  1  0.89167000  0.15656000  0.38870000  1.0
  C  C201  1  0.90328000  0.23794000  0.38780000  1.0
  C  C202  1  0.96721000  0.24592000  0.44299000  1.0
  C  C203  1  0.01746000  0.17212000  0.49818000  1.0
  N  N204  1  0.35187000  0.98108000  0.35551000  1.0
  N  N205  1  0.66718000  0.98115000  0.14445000  1.0
  N  N206  1  0.64813000  0.01892000  0.64449000  1.0
  N  N207  1  0.33282000  0.01885000  0.85555000  1.0
  O  O208  1  0.33528000  0.12466000  0.48893000  1.0
  O  O209  1  0.42413000  0.13508000  0.59174000  1.0
  O  O210  1  0.66666667  0.92667000  0.96157000  1.0
  O  O211  1  0.56710000  0.93008000  0.86200000  1.0
  O  O212  1  0.53988000  0.12477000  0.01100000  1.0
  O  O213  1  0.44071000  0.13498000  0.90817000  1.0
  O  O214  1  0.40676000  0.92649000  0.53835000  1.0
  O  O215  1  0.50270000  0.93019000  0.63801000  1.0
  O  O216  1  0.66472000  0.87534000  0.51107000  1.0
  O  O217  1  0.57587000  0.86492000  0.40826000  1.0
  O  O218  1  0.33333333  0.07332000  0.03843000  1.0
  O  O219  1  0.43289000  0.06992000  0.13801000  1.0
  O  O220  1  0.46012000  0.87523000  0.98900000  1.0
  O  O221  1  0.55929000  0.86501000  0.09182000  1.0
  O  O222  1  0.59324000  0.07351000  0.46165000  1.0
  O  O223  1  0.49730000  0.06982000  0.36199000  1.0
