# generated using pymatgen
data_CuH6C5IN2
_symmetry_space_group_name_H-M   'P 1'
_cell_length_a   4.16414000
_cell_length_b   9.98500000
_cell_length_c   17.09280000
_cell_angle_alpha   97.70610000
_cell_angle_beta   89.99910000
_cell_angle_gamma   89.99880000
_symmetry_Int_Tables_number   1
_chemical_formula_structural   CuH6C5IN2
_chemical_formula_sum   'Cu4 H24 C20 I4 N8'
_cell_volume   704.28208323
_cell_formula_units_Z   4
loop_
 _symmetry_equiv_pos_site_id
 _symmetry_equiv_pos_as_xyz
  1  'x, y, z'
loop_
 _atom_site_type_symbol
 _atom_site_label
 _atom_site_symmetry_multiplicity
 _atom_site_fract_x
 _atom_site_fract_y
 _atom_site_fract_z
 _atom_site_occupancy
  Cu  Cu0  1  0.14351000  0.03036000  0.44105000  1.0
  Cu  Cu1  1  0.64349000  0.46964000  0.05895000  1.0
  Cu  Cu2  1  0.85652000  0.96962000  0.55895000  1.0
  Cu  Cu3  1  0.35652000  0.53036000  0.94105000  1.0
  H  H4  1  0.91909000  0.18144000  0.31641000  1.0
  H  H5  1  0.41906000  0.31858000  0.18359000  1.0
  H  H6  1  0.08094000  0.81857000  0.68359000  1.0
  H  H7  1  0.58093000  0.68141000  0.81640000  1.0
  H  H8  1  0.97088000  0.17102000  0.17139000  1.0
  H  H9  1  0.47088000  0.32899000  0.32862000  1.0
  H  H10  1  0.02912000  0.82898000  0.82862000  1.0
  H  H11  1  0.52908000  0.67101000  0.67138000  1.0
  H  H12  1  0.21700000  0.05241000  0.04979000  1.0
  H  H13  1  0.71701000  0.44760000  0.45021000  1.0
  H  H14  1  0.78299000  0.94761000  0.95021000  1.0
  H  H15  1  0.28295000  0.55239000  0.54979000  1.0
  H  H16  1  0.41820000  0.89806000  0.04994000  1.0
  H  H17  1  0.91822000  0.60195000  0.45006000  1.0
  H  H18  1  0.58178000  0.10196000  0.95006000  1.0
  H  H19  1  0.08175000  0.39804000  0.54994000  1.0
  H  H20  1  0.53656000  0.80738000  0.17328000  1.0
  H  H21  1  0.03656000  0.69263000  0.32672000  1.0
  H  H22  1  0.46345000  0.19263000  0.82672000  1.0
  H  H23  1  0.96343000  0.30736000  0.67328000  1.0
  H  H24  1  0.47138000  0.83629000  0.31891000  1.0
  H  H25  1  0.97137000  0.66373000  0.18109000  1.0
  H  H26  1  0.52865000  0.16372000  0.68109000  1.0
  H  H27  1  0.02865000  0.33626000  0.81891000  1.0
  C  C28  1  0.05820000  0.10085000  0.28269000  1.0
  C  C29  1  0.55818000  0.39917000  0.21731000  1.0
  C  C30  1  0.94183000  0.89916000  0.71732000  1.0
  C  C31  1  0.44185000  0.60083000  0.78268000  1.0
  C  C32  1  0.08719000  0.09488000  0.20182000  1.0
  C  C33  1  0.58718000  0.40513000  0.29819000  1.0
  C  C34  1  0.91281000  0.90513000  0.79819000  1.0
  C  C35  1  0.41279000  0.59486000  0.70180000  1.0
  C  C36  1  0.26420000  0.98852000  0.15905000  1.0
  C  C37  1  0.76419000  0.51148000  0.34094000  1.0
  C  C38  1  0.73581000  0.01149000  0.84095000  1.0
  C  C39  1  0.23577000  0.48850000  0.65906000  1.0
  C  C40  1  0.39819000  0.89192000  0.20294000  1.0
  C  C41  1  0.89818000  0.60809000  0.29706000  1.0
  C  C42  1  0.60182000  0.10808000  0.79706000  1.0
  C  C43  1  0.10181000  0.39190000  0.70294000  1.0
  C  C44  1  0.36068000  0.90764000  0.28392000  1.0
  C  C45  1  0.86067000  0.59237000  0.21609000  1.0
  C  C46  1  0.63935000  0.09237000  0.71608000  1.0
  C  C47  1  0.13934000  0.40762000  0.78392000  1.0
  I  I48  1  0.32258000  0.81202000  0.50212000  1.0
  I  I49  1  0.82255000  0.68798000  0.99787000  1.0
  I  I50  1  0.67743000  0.18797000  0.49788000  1.0
  I  I51  1  0.17745000  0.31203000  0.00213000  1.0
  N  N52  1  0.19303000  0.01021000  0.32498000  1.0
  N  N53  1  0.69302000  0.48981000  0.17503000  1.0
  N  N54  1  0.80700000  0.98979000  0.67502000  1.0
  N  N55  1  0.30701000  0.51019000  0.82497000  1.0
  N  N56  1  0.30681000  0.97997000  0.08005000  1.0
  N  N57  1  0.80687000  0.52003000  0.41995000  1.0
  N  N58  1  0.69316000  0.02004000  0.91995000  1.0
  N  N59  1  0.19311000  0.47996000  0.58005000  1.0
