# generated using pymatgen
data_H14PbC18(N2Cl)2
_symmetry_space_group_name_H-M   'P 1'
_cell_length_a   4.09768000
_cell_length_b   13.90420000
_cell_length_c   15.85430000
_cell_angle_alpha   104.12300000
_cell_angle_beta   89.99980000
_cell_angle_gamma   90.00000000
_symmetry_Int_Tables_number   1
_chemical_formula_structural   H14PbC18(N2Cl)2
_chemical_formula_sum   'H28 Pb2 C36 N8 Cl4'
_cell_volume   875.99518429
_cell_formula_units_Z   2
loop_
 _symmetry_equiv_pos_site_id
 _symmetry_equiv_pos_as_xyz
  1  'x, y, z'
loop_
 _atom_site_type_symbol
 _atom_site_label
 _atom_site_symmetry_multiplicity
 _atom_site_fract_x
 _atom_site_fract_y
 _atom_site_fract_z
 _atom_site_occupancy
  H  H0  1  0.74545000  0.52961000  0.80080000  1.0
  H  H1  1  0.74545000  0.97039000  0.69920000  1.0
  H  H2  1  0.25455000  0.47039000  0.19920000  1.0
  H  H3  1  0.25456000  0.02961000  0.30080000  1.0
  H  H4  1  0.84362000  0.34841000  0.73451000  1.0
  H  H5  1  0.84362000  0.15159000  0.76549000  1.0
  H  H6  1  0.15638000  0.65159000  0.26549000  1.0
  H  H7  1  0.15638000  0.84841000  0.23451000  1.0
  H  H8  1  0.28956000  0.38140000  0.51150000  1.0
  H  H9  1  0.28957000  0.11861000  0.98850000  1.0
  H  H10  1  0.71043000  0.61861000  0.48850000  1.0
  H  H11  1  0.71043000  0.88139000  0.01150000  1.0
  H  H12  1  0.20832000  0.56088000  0.58780000  1.0
  H  H13  1  0.20832000  0.93912000  0.91220000  1.0
  H  H14  1  0.79168000  0.43912000  0.41220000  1.0
  H  H15  1  0.79168000  0.06088000  0.08780000  1.0
  H  H16  1  0.48573000  0.22285000  0.51059000  1.0
  H  H17  1  0.48573000  0.27715000  0.98941000  1.0
  H  H18  1  0.51427000  0.77715000  0.48941000  1.0
  H  H19  1  0.51428000  0.72285000  0.01059000  1.0
  H  H20  1  0.21520000  0.07224000  0.64794000  1.0
  H  H21  1  0.21519000  0.42776000  0.85205000  1.0
  H  H22  1  0.78480000  0.92776000  0.35206000  1.0
  H  H23  1  0.78481000  0.57224000  0.14795000  1.0
  H  H24  1  0.64801000  0.10102000  0.42657000  1.0
  H  H25  1  0.64802000  0.39898000  0.07344000  1.0
  H  H26  1  0.35199000  0.89898000  0.57343000  1.0
  H  H27  1  0.35199000  0.60102000  0.92657000  1.0
  Pb  Pb28  1  0.41184000  0.75000000  0.75000000  1.0
  Pb  Pb29  1  0.58816000  0.25000000  0.25000000  1.0
  C  C30  1  0.64685000  0.49339000  0.73694000  1.0
  C  C31  1  0.64685000  0.00661000  0.76306000  1.0
  C  C32  1  0.35314000  0.50661000  0.26305000  1.0
  C  C33  1  0.35315000  0.99339000  0.23694000  1.0
  C  C34  1  0.70381000  0.39343000  0.69990000  1.0
  C  C35  1  0.70381000  0.10657000  0.80010000  1.0
  C  C36  1  0.29619000  0.60657000  0.30010000  1.0
  C  C37  1  0.29620000  0.89342000  0.19990000  1.0
  C  C38  1  0.57814000  0.35120000  0.61655000  1.0
  C  C39  1  0.57815000  0.14880000  0.88344000  1.0
  C  C40  1  0.42185000  0.64879000  0.38344000  1.0
  C  C41  1  0.42185000  0.85121000  0.11656000  1.0
  C  C42  1  0.39398000  0.41210000  0.57574000  1.0
  C  C43  1  0.39397000  0.08790000  0.92426000  1.0
  C  C44  1  0.60603000  0.58790000  0.42426000  1.0
  C  C45  1  0.60603000  0.91210000  0.07574000  1.0
  C  C46  1  0.34929000  0.51122000  0.61771000  1.0
  C  C47  1  0.34929000  0.98878000  0.88229000  1.0
  C  C48  1  0.65071000  0.48878000  0.38229000  1.0
  C  C49  1  0.65071000  0.01122000  0.11771000  1.0
  C  C50  1  0.63590000  0.24848000  0.56930000  1.0
  C  C51  1  0.63590000  0.25153000  0.93070000  1.0
  C  C52  1  0.36409000  0.75153000  0.43069000  1.0
  C  C53  1  0.36410000  0.74847000  0.06930000  1.0
  C  C54  1  0.91795000  0.09824000  0.54424000  1.0
  C  C55  1  0.91795000  0.40176000  0.95576000  1.0
  C  C56  1  0.08204000  0.90176000  0.45576000  1.0
  C  C57  1  0.08206000  0.59824000  0.04424000  1.0
  C  C58  1  0.12004000  0.03921000  0.58313000  1.0
  C  C59  1  0.12005000  0.46079000  0.91688000  1.0
  C  C60  1  0.87996000  0.96079000  0.41687000  1.0
  C  C61  1  0.87995000  0.53921000  0.08313000  1.0
  C  C62  1  0.80108000  0.05738000  0.45931000  1.0
  C  C63  1  0.80109000  0.44263000  0.04069000  1.0
  C  C64  1  0.19892000  0.94262000  0.54069000  1.0
  C  C65  1  0.19892000  0.55738000  0.95931000  1.0
  N  N66  1  0.47440000  0.55183000  0.69677000  1.0
  N  N67  1  0.47439000  0.94817000  0.80323000  1.0
  N  N68  1  0.52561000  0.44817000  0.30323000  1.0
  N  N69  1  0.52561000  0.05183000  0.19677000  1.0
  N  N70  1  0.85355000  0.19429000  0.59417000  1.0
  N  N71  1  0.85356000  0.30571000  0.90583000  1.0
  N  N72  1  0.14644000  0.80571000  0.40583000  1.0
  N  N73  1  0.14645000  0.69429000  0.09417000  1.0
  Cl  Cl74  1  0.89823000  0.75320000  0.62318000  1.0
  Cl  Cl75  1  0.89823000  0.74680000  0.87682000  1.0
  Cl  Cl76  1  0.10178000  0.24680000  0.37682000  1.0
  Cl  Cl77  1  0.10178000  0.25320000  0.12318000  1.0
