# generated using pymatgen
data_Zn2H26C33(NO4)2
_symmetry_space_group_name_H-M   'P 1'
_cell_length_a   9.64622000
_cell_length_b   11.02310000
_cell_length_c   13.38807779
_cell_angle_alpha   89.85817294
_cell_angle_beta   70.62582177
_cell_angle_gamma   89.15270000
_symmetry_Int_Tables_number   1
_chemical_formula_structural   Zn2H26C33(NO4)2
_chemical_formula_sum   'Zn2 H26 C33 N2 O8'
_cell_volume   1342.80610440
_cell_formula_units_Z   1
loop_
 _symmetry_equiv_pos_site_id
 _symmetry_equiv_pos_as_xyz
  1  'x, y, z'
loop_
 _atom_site_type_symbol
 _atom_site_label
 _atom_site_symmetry_multiplicity
 _atom_site_fract_x
 _atom_site_fract_y
 _atom_site_fract_z
 _atom_site_occupancy
  Zn  Zn0  1  0.12179000  0.48082000  0.51127000  1.0
  Zn  Zn1  1  0.86337000  0.48617000  0.46234000  1.0
  H  H2  1  0.04811000  0.64017000  0.14204000  1.0
  H  H3  1  0.94706000  0.25779000  0.80624000  1.0
  H  H4  1  0.54733000  0.27642000  0.07136000  1.0
  H  H5  1  0.77974000  0.17417000  0.97799000  1.0
  H  H6  1  0.68113000  0.59479000  0.73057000  1.0
  H  H7  1  0.81571000  0.86345000  0.45733000  1.0
  H  H8  1  0.15968000  0.87373000  0.77924000  1.0
  H  H9  1  0.03352000  0.99746000  0.81669000  1.0
  H  H10  1  0.99851000  0.86152000  0.89189000  1.0
  H  H11  1  0.84184000  0.87249000  0.77447000  1.0
  H  H12  1  0.96707000  0.74866000  0.73835000  1.0
  H  H13  1  0.77426000  0.08933000  0.48183000  1.0
  H  H14  1  0.13861000  0.87608000  0.59479000  1.0
  H  H15  1  0.00981000  0.99783000  0.63036000  1.0
  H  H16  1  0.61067000  0.54693000  0.15656000  1.0
  H  H17  1  0.75407000  0.43696000  0.25281000  1.0
  H  H18  1  0.65780000  0.24548000  0.34901000  1.0
  H  H19  1  0.41051000  0.17137000  0.35461000  1.0
  H  H20  1  0.27237000  0.27907000  0.25450000  1.0
  H  H21  1  0.09885000  0.07868000  0.46824000  1.0
  H  H22  1  0.31047000  0.57172000  0.64512000  1.0
  H  H23  1  0.41187000  0.46669000  0.43113000  1.0
  H  H24  1  0.58406000  0.62793000  0.58795000  1.0
  H  H25  1  0.60376000  0.41848000  0.44935000  1.0
  H  H26  1  0.43340000  0.68462000  0.81489000  1.0
  H  H27  1  0.20115000  0.69221000  0.95646000  1.0
  C  C28  1  0.98803000  0.25027000  0.45933000  1.0
  C  C29  1  0.79708000  0.40123000  0.80223000  1.0
  C  C30  1  0.87596000  0.91545000  0.49871000  1.0
  C  C31  1  0.88924000  0.43217000  0.69112000  1.0
  C  C32  1  0.94499000  0.84912000  0.55417000  1.0
  C  C33  1  0.87537000  0.04591000  0.48532000  1.0
  C  C34  1  0.99321000  0.11692000  0.46999000  1.0
  C  C35  1  0.38759000  0.53947000  0.56938000  1.0
  C  C36  1  0.54702000  0.55514000  0.54775000  1.0
  C  C37  1  0.95222000  0.71434000  0.53638000  1.0
  C  C38  1  0.13021000  0.52435000  0.28581000  1.0
  C  C39  1  0.57394000  0.42407000  0.95928000  1.0
  C  C40  1  0.24250000  0.62975000  0.00380000  1.0
  C  C41  1  0.21982000  0.53295000  0.17031000  1.0
  C  C42  1  0.84231000  0.30218000  0.84849000  1.0
  C  C43  1  0.74947000  0.25689000  0.94489000  1.0
  C  C44  1  0.61812000  0.31589000  0.99830000  1.0
  C  C45  1  0.02020000  0.89843000  0.62713000  1.0
  C  C46  1  0.95948000  0.84831000  0.74057000  1.0
  C  C47  1  0.04195000  0.89786000  0.81110000  1.0
  C  C48  1  0.43332000  0.41920000  0.19709000  1.0
  C  C49  1  0.56727000  0.46453000  0.20028000  1.0
  C  C50  1  0.66199000  0.46327000  0.85571000  1.0
  C  C51  1  0.64754000  0.40279000  0.25460000  1.0
  C  C52  1  0.59279000  0.29559000  0.30914000  1.0
  C  C53  1  0.45598000  0.25312000  0.31068000  1.0
  C  C54  1  0.37727000  0.31419000  0.25478000  1.0
  C  C55  1  0.43946000  0.49203000  0.01657000  1.0
  C  C56  1  0.38375000  0.57712000  0.95791000  1.0
  C  C57  1  0.47450000  0.61248000  0.85426000  1.0
  C  C58  1  0.61089000  0.56276000  0.80733000  1.0
  C  C59  1  0.36084000  0.48035000  0.12767000  1.0
  C  C60  1  0.15880000  0.60293000  0.10643000  1.0
  N  N61  1  0.33571000  0.49135000  0.50288000  1.0
  N  N62  1  0.64423000  0.48727000  0.48323000  1.0
  O  O63  1  0.09908000  0.30595000  0.46809000  1.0
  O  O64  1  0.87669000  0.30057000  0.44434000  1.0
  O  O65  1  0.02840000  0.43360000  0.66862000  1.0
  O  O66  1  0.82140000  0.45040000  0.62535000  1.0
  O  O67  1  0.05818000  0.65802000  0.55382000  1.0
  O  O68  1  0.85766000  0.66633000  0.50128000  1.0
  O  O69  1  0.19632000  0.53469000  0.35286000  1.0
  O  O70  1  0.99197000  0.50959000  0.30797000  1.0
