# generated using pymatgen
data_ZnH14C20(NO)4
_symmetry_space_group_name_H-M   'P 1'
_cell_length_a   7.45059000
_cell_length_b   9.60391000
_cell_length_c   13.40030000
_cell_angle_alpha   104.38100000
_cell_angle_beta   90.02040000
_cell_angle_gamma   112.79500000
_symmetry_Int_Tables_number   1
_chemical_formula_structural   ZnH14C20(NO)4
_chemical_formula_sum   'Zn2 H28 C40 N8 O8'
_cell_volume   851.24485913
_cell_formula_units_Z   2
loop_
 _symmetry_equiv_pos_site_id
 _symmetry_equiv_pos_as_xyz
  1  'x, y, z'
loop_
 _atom_site_type_symbol
 _atom_site_label
 _atom_site_symmetry_multiplicity
 _atom_site_fract_x
 _atom_site_fract_y
 _atom_site_fract_z
 _atom_site_occupancy
  Zn  Zn0  1  0.58796000  0.99997000  0.75019000  1.0
  Zn  Zn1  1  0.41204000  0.00003000  0.24981000  1.0
  H  H2  1  0.09207000  0.56536000  0.84438000  1.0
  H  H3  1  0.52665000  0.43445000  0.65538000  1.0
  H  H4  1  0.90793000  0.43464000  0.15562000  1.0
  H  H5  1  0.47335000  0.56555000  0.34462000  1.0
  H  H6  1  0.40104000  0.24272000  0.86992000  1.0
  H  H7  1  0.15783000  0.75754000  0.62994000  1.0
  H  H8  1  0.59896000  0.75728000  0.13008000  1.0
  H  H9  1  0.84217000  0.24245000  0.37006000  1.0
  H  H10  1  0.70942000  0.34879000  0.98216000  1.0
  H  H11  1  0.36030000  0.65146000  0.51792000  1.0
  H  H12  1  0.29058000  0.65122000  0.01784000  1.0
  H  H13  1  0.63970000  0.34853000  0.48208000  1.0
  H  H14  1  0.01915000  0.10886000  0.85832000  1.0
  H  H15  1  0.90976000  0.89105000  0.64167000  1.0
  H  H16  1  0.98085000  0.89114000  0.14168000  1.0
  H  H17  1  0.09024000  0.10894000  0.35833000  1.0
  H  H18  1  0.74978000  0.36745000  0.75404000  1.0
  H  H19  1  0.38232000  0.63228000  0.74591000  1.0
  H  H20  1  0.25022000  0.63255000  0.24596000  1.0
  H  H21  1  0.61768000  0.36772000  0.25410000  1.0
  H  H22  1  0.21077000  0.85105000  0.45776000  1.0
  H  H23  1  0.35963000  0.14935000  0.04224000  1.0
  H  H24  1  0.78923000  0.14895000  0.54223000  1.0
  H  H25  1  0.64038000  0.85066000  0.95777000  1.0
  H  H26  1  0.88233000  0.75225000  0.35813000  1.0
  H  H27  1  0.12971000  0.24811000  0.14157000  1.0
  H  H28  1  0.11766000  0.24775000  0.64186000  1.0
  H  H29  1  0.87030000  0.75190000  0.85843000  1.0
  C  C30  1  0.32174000  0.43804000  0.93538000  1.0
  C  C31  1  0.88353000  0.56194000  0.56445000  1.0
  C  C32  1  0.67826000  0.56196000  0.06462000  1.0
  C  C33  1  0.11647000  0.43806000  0.43555000  1.0
  C  C34  1  0.44332000  0.35542000  0.92711000  1.0
  C  C35  1  0.08756000  0.64473000  0.57284000  1.0
  C  C36  1  0.55668000  0.64458000  0.07289000  1.0
  C  C37  1  0.91244000  0.35526000  0.42716000  1.0
  C  C38  1  0.61796000  0.41546000  0.99102000  1.0
  C  C39  1  0.20224000  0.58468000  0.50903000  1.0
  C  C40  1  0.38204000  0.58454000  0.00898000  1.0
  C  C41  1  0.79776000  0.41531000  0.49097000  1.0
  C  C42  1  0.13118000  0.36523000  0.87394000  1.0
  C  C43  1  0.76558000  0.63462000  0.62580000  1.0
  C  C44  1  0.86882000  0.63477000  0.12606000  1.0
  C  C45  1  0.23441000  0.36538000  0.37420000  1.0
  C  C46  1  0.00230000  0.20936000  0.84399000  1.0
  C  C47  1  0.79253000  0.79048000  0.65593000  1.0
  C  C48  1  0.99770000  0.79064000  0.15601000  1.0
  C  C49  1  0.20747000  0.20951000  0.34407000  1.0
  C  C50  1  0.85811000  0.34084000  0.79034000  1.0
  C  C51  1  0.51716000  0.65893000  0.70960000  1.0
  C  C52  1  0.14189000  0.65916000  0.20966000  1.0
  C  C53  1  0.48284000  0.34107000  0.29040000  1.0
  C  C54  1  0.18426000  0.05503000  0.55620000  1.0
  C  C55  1  0.12940000  0.94490000  0.94395000  1.0
  C  C56  1  0.81573000  0.94497000  0.44379000  1.0
  C  C57  1  0.87061000  0.05511000  0.05606000  1.0
  C  C58  1  0.11764000  0.91545000  0.47597000  1.0
  C  C59  1  0.20216000  0.08469000  0.02402000  1.0
  C  C60  1  0.88236000  0.08454000  0.52403000  1.0
  C  C61  1  0.79785000  0.91532000  0.97598000  1.0
  C  C62  1  0.93430000  0.86033000  0.42072000  1.0
  C  C63  1  0.07381000  0.13985000  0.07910000  1.0
  C  C64  1  0.06570000  0.13966000  0.57927000  1.0
  C  C65  1  0.92620000  0.86016000  0.92090000  1.0
  C  C66  1  0.37252000  0.10769000  0.62331000  1.0
  C  C67  1  0.26507000  0.89220000  0.87694000  1.0
  C  C68  1  0.62748000  0.89230000  0.37668000  1.0
  C  C69  1  0.73494000  0.10781000  0.12306000  1.0
  N  N70  1  0.03498000  0.44538000  0.83908000  1.0
  N  N71  1  0.58943000  0.55442000  0.66069000  1.0
  N  N72  1  0.96501000  0.55463000  0.16092000  1.0
  N  N73  1  0.41056000  0.44558000  0.33931000  1.0
  N  N74  1  0.83306000  0.19594000  0.79297000  1.0
  N  N75  1  0.63689000  0.80388000  0.70707000  1.0
  N  N76  1  0.16693000  0.80406000  0.20703000  1.0
  N  N77  1  0.36311000  0.19612000  0.29293000  1.0
  O  O78  1  0.42089000  0.99605000  0.63306000  1.0
  O  O79  1  0.42515000  0.00383000  0.86740000  1.0
  O  O80  1  0.57911000  0.00394000  0.36694000  1.0
  O  O81  1  0.57485000  0.99618000  0.13259000  1.0
  O  O82  1  0.46575000  0.25087000  0.66848000  1.0
  O  O83  1  0.21522000  0.74905000  0.83170000  1.0
  O  O84  1  0.53426000  0.74912000  0.33151000  1.0
  O  O85  1  0.78478000  0.25096000  0.16831000  1.0
