# generated using pymatgen
data_ZnH10C26N2(O3F2)2
_symmetry_space_group_name_H-M   'P 1'
_cell_length_a   13.97900000
_cell_length_b   15.34380000
_cell_length_c   23.71810000
_cell_angle_alpha   89.82360000
_cell_angle_beta   89.94320000
_cell_angle_gamma   89.79490000
_symmetry_Int_Tables_number   1
_chemical_formula_structural   ZnH10C26N2(O3F2)2
_chemical_formula_sum   'Zn2 H20 C52 N4 O12 F8'
_cell_volume   5087.25936780
_cell_formula_units_Z   2
loop_
 _symmetry_equiv_pos_site_id
 _symmetry_equiv_pos_as_xyz
  1  'x, y, z'
loop_
 _atom_site_type_symbol
 _atom_site_label
 _atom_site_symmetry_multiplicity
 _atom_site_fract_x
 _atom_site_fract_y
 _atom_site_fract_z
 _atom_site_occupancy
  Zn  Zn0  1  0.59878000  0.49977000  0.49995000  1.0
  Zn  Zn1  1  0.40150000  0.50035000  0.50000000  1.0
  H  H2  1  0.42581000  0.70871000  0.94636000  1.0
  H  H3  1  0.57413000  0.29094000  0.05366000  1.0
  H  H4  1  0.24834000  0.53388000  0.41491000  1.0
  H  H5  1  0.75274000  0.37016000  0.52611000  1.0
  H  H6  1  0.24843000  0.46661000  0.58513000  1.0
  H  H7  1  0.75169000  0.62961000  0.47392000  1.0
  H  H8  1  0.42591000  0.70866000  0.05303000  1.0
  H  H9  1  0.57397000  0.29098000  0.94702000  1.0
  H  H10  1  0.34552000  0.49737000  0.21347000  1.0
  H  H11  1  0.34526000  0.49964000  0.78660000  1.0
  H  H12  1  0.34200000  0.49892000  0.31917000  1.0
  H  H13  1  0.34200000  0.49789000  0.68092000  1.0
  H  H14  1  0.64872000  0.50101000  0.32297000  1.0
  H  H15  1  0.64874000  0.50149000  0.67694000  1.0
  H  H16  1  0.65303000  0.50232000  0.21701000  1.0
  H  H17  1  0.65279000  0.50028000  0.78287000  1.0
  H  H18  1  0.63862000  0.78063000  0.45461000  1.0
  H  H19  1  0.36836000  0.22565000  0.45710000  1.0
  H  H20  1  0.63848000  0.21853000  0.54524000  1.0
  H  H21  1  0.36829000  0.77536000  0.54293000  1.0
  C  C22  1  0.50592000  0.66991000  0.49941000  1.0
  C  C23  1  0.50596000  0.33019000  0.50047000  1.0
  C  C24  1  0.41156000  0.49854000  0.23781000  1.0
  C  C25  1  0.41137000  0.49926000  0.76222000  1.0
  C  C26  1  0.40971000  0.49939000  0.29645000  1.0
  C  C27  1  0.40969000  0.49862000  0.70357000  1.0
  C  C28  1  0.49533000  0.50023000  0.32709000  1.0
  C  C29  1  0.49537000  0.49948000  0.67287000  1.0
  C  C30  1  0.58297000  0.50071000  0.29840000  1.0
  C  C31  1  0.58292000  0.50057000  0.70153000  1.0
  C  C32  1  0.58528000  0.50123000  0.23974000  1.0
  C  C33  1  0.58507000  0.50034000  0.76018000  1.0
  C  C34  1  0.49940000  0.49988000  0.20989000  1.0
  C  C35  1  0.49915000  0.49988000  0.79010000  1.0
  C  C36  1  0.57477000  0.90448000  0.47480000  1.0
  C  C37  1  0.42672000  0.09873000  0.47652000  1.0
  C  C38  1  0.57470000  0.09513000  0.52528000  1.0
  C  C39  1  0.42663000  0.90191000  0.52364000  1.0
  C  C40  1  0.57883000  0.81428000  0.47439000  1.0
  C  C41  1  0.42659000  0.18903000  0.47641000  1.0
  C  C42  1  0.57871000  0.18529000  0.52557000  1.0
  C  C43  1  0.42656000  0.81161000  0.52364000  1.0
  C  C44  1  0.50385000  0.76760000  0.49911000  1.0
  C  C45  1  0.50384000  0.23252000  0.50087000  1.0
  C  C46  1  0.49988000  0.95201000  0.49956000  1.0
  C  C47  1  0.49989000  0.04808000  0.50056000  1.0
  C  C48  1  0.49386000  0.50072000  0.39021000  1.0
  C  C49  1  0.49398000  0.49922000  0.60975000  1.0
  C  C50  1  0.10653000  0.51932000  0.45175000  1.0
  C  C51  1  0.89419000  0.42648000  0.51540000  1.0
  C  C52  1  0.10657000  0.48057000  0.54829000  1.0
  C  C53  1  0.89355000  0.57321000  0.48468000  1.0
  C  C54  1  0.20585000  0.51932000  0.45235000  1.0
  C  C55  1  0.79485000  0.42735000  0.51499000  1.0
  C  C56  1  0.20589000  0.48103000  0.54769000  1.0
  C  C57  1  0.79421000  0.57237000  0.48501000  1.0
  C  C58  1  0.05288000  0.49991000  0.50003000  1.0
  C  C59  1  0.94754000  0.49988000  0.50004000  1.0
  C  C60  1  0.52806000  0.42204000  0.87828000  1.0
  C  C61  1  0.47327000  0.57809000  0.12171000  1.0
  C  C62  1  0.47304000  0.57820000  0.87805000  1.0
  C  C63  1  0.52843000  0.42194000  0.12201000  1.0
  C  C64  1  0.47343000  0.57662000  0.94059000  1.0
  C  C65  1  0.52803000  0.42347000  0.05947000  1.0
  C  C66  1  0.50077000  0.50010000  0.96998000  1.0
  C  C67  1  0.50084000  0.50004000  0.03006000  1.0
  C  C68  1  0.52787000  0.42355000  0.94081000  1.0
  C  C69  1  0.47357000  0.57655000  0.05920000  1.0
  C  C70  1  0.44668000  0.65083000  0.97019000  1.0
  C  C71  1  0.55398000  0.34904000  0.02985000  1.0
  C  C72  1  0.44675000  0.65079000  0.02939000  1.0
  C  C73  1  0.55391000  0.34909000  0.97064000  1.0
  N  N74  1  0.50062000  0.50016000  0.85099000  1.0
  N  N75  1  0.50090000  0.50004000  0.14901000  1.0
  N  N76  1  0.25319000  0.50030000  0.50003000  1.0
  N  N77  1  0.74713000  0.49981000  0.49998000  1.0
  O  O78  1  0.58525000  0.63299000  0.48747000  1.0
  O  O79  1  0.42830000  0.36929000  0.48821000  1.0
  O  O80  1  0.58525000  0.36664000  0.51231000  1.0
  O  O81  1  0.42828000  0.63125000  0.51168000  1.0
  O  O82  1  0.57231000  0.48416000  0.41540000  1.0
  O  O83  1  0.41442000  0.48265000  0.58571000  1.0
  O  O84  1  0.57238000  0.51559000  0.58451000  1.0
  O  O85  1  0.41425000  0.51774000  0.41429000  1.0
  O  O86  1  0.55024000  0.35714000  0.85097000  1.0
  O  O87  1  0.45065000  0.64287000  0.14899000  1.0
  O  O88  1  0.45037000  0.64298000  0.85056000  1.0
  O  O89  1  0.55080000  0.35710000  0.14955000  1.0
  F  F90  1  0.64629000  0.94976000  0.44921000  1.0
  F  F91  1  0.35312000  0.05659000  0.45103000  1.0
  F  F92  1  0.64612000  0.04943000  0.55092000  1.0
  F  F93  1  0.35304000  0.94456000  0.54922000  1.0
  F  F94  1  0.06048000  0.53670000  0.40295000  1.0
  F  F95  1  0.94046000  0.35241000  0.52990000  1.0
  F  F96  1  0.06056000  0.46282000  0.59706000  1.0
  F  F97  1  0.93930000  0.64727000  0.47015000  1.0
