# generated using pymatgen
data_AgH2C6N4ClO4
_symmetry_space_group_name_H-M   'P 1'
_cell_length_a   6.82695000
_cell_length_b   10.84580000
_cell_length_c   12.44650000
_cell_angle_alpha   89.99920000
_cell_angle_beta   89.99930000
_cell_angle_gamma   89.99930000
_symmetry_Int_Tables_number   1
_chemical_formula_structural   AgH2C6N4ClO4
_chemical_formula_sum   'Ag4 H8 C24 N16 Cl4 O16'
_cell_volume   921.58533886
_cell_formula_units_Z   4
loop_
 _symmetry_equiv_pos_site_id
 _symmetry_equiv_pos_as_xyz
  1  'x, y, z'
loop_
 _atom_site_type_symbol
 _atom_site_label
 _atom_site_symmetry_multiplicity
 _atom_site_fract_x
 _atom_site_fract_y
 _atom_site_fract_z
 _atom_site_occupancy
  Ag  Ag0  1  0.87031000  0.25000000  0.09215000  1.0
  Ag  Ag1  1  0.37032000  0.25000000  0.40784000  1.0
  Ag  Ag2  1  0.12969000  0.75000000  0.90784000  1.0
  Ag  Ag3  1  0.62969000  0.75000000  0.59215000  1.0
  H  H4  1  0.72802000  0.09732000  0.87429000  1.0
  H  H5  1  0.22802000  0.40267000  0.62570000  1.0
  H  H6  1  0.27198000  0.59733000  0.12571000  1.0
  H  H7  1  0.77199000  0.90267000  0.37430000  1.0
  H  H8  1  0.27198000  0.90266000  0.12570000  1.0
  H  H9  1  0.77198000  0.59733000  0.37430000  1.0
  H  H10  1  0.72802000  0.40266000  0.87430000  1.0
  H  H11  1  0.22802000  0.09733000  0.62570000  1.0
  C  C12  1  0.51628000  0.07493000  0.21114000  1.0
  C  C13  1  0.01630000  0.42507000  0.28885000  1.0
  C  C14  1  0.48371000  0.57494000  0.78886000  1.0
  C  C15  1  0.98371000  0.92507000  0.71115000  1.0
  C  C16  1  0.48370000  0.92507000  0.78885000  1.0
  C  C17  1  0.98371000  0.57493000  0.71115000  1.0
  C  C18  1  0.51630000  0.42506000  0.21115000  1.0
  C  C19  1  0.01628000  0.07494000  0.28885000  1.0
  C  C20  1  0.50815000  0.03602000  0.10190000  1.0
  C  C21  1  0.00816000  0.46398000  0.39810000  1.0
  C  C22  1  0.49185000  0.53602000  0.89811000  1.0
  C  C23  1  0.99184000  0.96398000  0.60190000  1.0
  C  C24  1  0.49183000  0.96398000  0.89810000  1.0
  C  C25  1  0.99185000  0.53602000  0.60190000  1.0
  C  C26  1  0.50816000  0.46398000  0.10190000  1.0
  C  C27  1  0.00816000  0.03603000  0.39811000  1.0
  C  C28  1  0.62774000  0.05387000  0.93094000  1.0
  C  C29  1  0.12774000  0.44613000  0.56906000  1.0
  C  C30  1  0.37226000  0.55386000  0.06906000  1.0
  C  C31  1  0.87226000  0.94613000  0.43095000  1.0
  C  C32  1  0.37224000  0.94612000  0.06906000  1.0
  C  C33  1  0.87226000  0.55387000  0.43094000  1.0
  C  C34  1  0.62774000  0.44613000  0.93094000  1.0
  C  C35  1  0.12775000  0.05388000  0.56906000  1.0
  N  N36  1  0.52336000  0.10775000  0.30040000  1.0
  N  N37  1  0.02338000  0.39225000  0.19960000  1.0
  N  N38  1  0.47663000  0.60775000  0.69960000  1.0
  N  N39  1  0.97663000  0.89225000  0.80040000  1.0
  N  N40  1  0.47664000  0.89225000  0.69960000  1.0
  N  N41  1  0.97663000  0.60775000  0.80040000  1.0
  N  N42  1  0.52338000  0.39225000  0.30040000  1.0
  N  N43  1  0.02337000  0.10776000  0.19960000  1.0
  N  N44  1  0.63512000  0.08966000  0.03321000  1.0
  N  N45  1  0.13513000  0.41033000  0.46679000  1.0
  N  N46  1  0.36487000  0.58967000  0.96680000  1.0
  N  N47  1  0.86487000  0.91033000  0.53321000  1.0
  N  N48  1  0.36485000  0.91033000  0.96679000  1.0
  N  N49  1  0.86487000  0.58967000  0.53321000  1.0
  N  N50  1  0.63513000  0.41033000  0.03321000  1.0
  N  N51  1  0.13513000  0.08967000  0.46679000  1.0
  Cl  Cl52  1  0.16840000  0.25000000  0.87237000  1.0
  Cl  Cl53  1  0.66841000  0.25000000  0.62763000  1.0
  Cl  Cl54  1  0.83160000  0.75000000  0.12763000  1.0
  Cl  Cl55  1  0.33160000  0.75000000  0.37237000  1.0
  O  O56  1  0.95708000  0.25000000  0.89842000  1.0
  O  O57  1  0.45708000  0.25000000  0.60158000  1.0
  O  O58  1  0.04293000  0.75000000  0.10158000  1.0
  O  O59  1  0.54291000  0.75000000  0.39841000  1.0
  O  O60  1  0.27961000  0.25000000  0.97274000  1.0
  O  O61  1  0.77961000  0.25000000  0.52726000  1.0
  O  O62  1  0.72038000  0.75000000  0.02726000  1.0
  O  O63  1  0.22040000  0.75000000  0.47274000  1.0
  O  O64  1  0.21361000  0.36012000  0.81053000  1.0
  O  O65  1  0.71361000  0.13989000  0.68947000  1.0
  O  O66  1  0.78639000  0.86012000  0.18947000  1.0
  O  O67  1  0.28639000  0.63989000  0.31053000  1.0
  O  O68  1  0.78639000  0.63987000  0.18947000  1.0
  O  O69  1  0.28639000  0.86011000  0.31054000  1.0
  O  O70  1  0.21361000  0.13989000  0.81053000  1.0
  O  O71  1  0.71361000  0.36012000  0.68947000  1.0
