# generated using pymatgen
data_CaH13C16(NO2)3
_symmetry_space_group_name_H-M   'P 1'
_cell_length_a   6.77671000
_cell_length_b   7.66497000
_cell_length_c   15.64160000
_cell_angle_alpha   79.70850000
_cell_angle_beta   86.08290000
_cell_angle_gamma   74.47570000
_symmetry_Int_Tables_number   1
_chemical_formula_structural   CaH13C16(NO2)3
_chemical_formula_sum   'Ca2 H26 C32 N6 O12'
_cell_volume   770.05982214
_cell_formula_units_Z   2
loop_
 _symmetry_equiv_pos_site_id
 _symmetry_equiv_pos_as_xyz
  1  'x, y, z'
loop_
 _atom_site_type_symbol
 _atom_site_label
 _atom_site_symmetry_multiplicity
 _atom_site_fract_x
 _atom_site_fract_y
 _atom_site_fract_z
 _atom_site_occupancy
  Ca  Ca0  1  0.23440000  0.59478000  0.45027000  1.0
  Ca  Ca1  1  0.76559000  0.40522000  0.54973000  1.0
  H  H2  1  0.12991000  0.96433000  0.17559000  1.0
  H  H3  1  0.87008000  0.03566000  0.82441000  1.0
  H  H4  1  0.54906000  0.29455000  0.07331000  1.0
  H  H5  1  0.45094000  0.70547000  0.92669000  1.0
  H  H6  1  0.30568000  0.09285000  0.05104000  1.0
  H  H7  1  0.69431000  0.90714000  0.94895000  1.0
  H  H8  1  0.72579000  0.42009000  0.94389000  1.0
  H  H9  1  0.27421000  0.57992000  0.05611000  1.0
  H  H10  1  0.44586000  0.16450000  0.94379000  1.0
  H  H11  1  0.55414000  0.83550000  0.05621000  1.0
  H  H12  1  0.87775000  0.53892000  0.84368000  1.0
  H  H13  1  0.12226000  0.46108000  0.15632000  1.0
  H  H14  1  0.62238000  0.30412000  0.81854000  1.0
  H  H15  1  0.37763000  0.69587000  0.18146000  1.0
  H  H16  1  0.07861000  0.66049000  0.72425000  1.0
  H  H17  1  0.92140000  0.33951000  0.27575000  1.0
  H  H18  1  0.96311000  0.87141000  0.29094000  1.0
  H  H19  1  0.03688000  0.12860000  0.70906000  1.0
  H  H20  1  0.32695000  0.76516000  0.58692000  1.0
  H  H21  1  0.67306000  0.23483000  0.41308000  1.0
  H  H22  1  0.07951000  0.83062000  0.59256000  1.0
  H  H23  1  0.92050000  0.16938000  0.40744000  1.0
  H  H24  1  0.32525000  0.29013000  0.34573000  1.0
  H  H25  1  0.67475000  0.70987000  0.65427000  1.0
  H  H26  1  0.48501000  0.41732000  0.30896000  1.0
  H  H27  1  0.51500000  0.58268000  0.69104000  1.0
  C  C28  1  0.70454000  0.70896000  0.40275000  1.0
  C  C29  1  0.29546000  0.29104000  0.59725000  1.0
  C  C30  1  0.65912000  0.85913000  0.32854000  1.0
  C  C31  1  0.34087000  0.14086000  0.67146000  1.0
  C  C32  1  0.47486000  0.97279000  0.29371000  1.0
  C  C33  1  0.52514000  0.02721000  0.70629000  1.0
  C  C34  1  0.26167000  0.98514000  0.32810000  1.0
  C  C35  1  0.73832000  0.01486000  0.67190000  1.0
  C  C36  1  0.71657000  0.04336000  0.20860000  1.0
  C  C37  1  0.28342000  0.95665000  0.79139000  1.0
  C  C38  1  0.82471000  0.11911000  0.13375000  1.0
  C  C39  1  0.17529000  0.88089000  0.86625000  1.0
  C  C40  1  0.03904000  0.06399000  0.12516000  1.0
  C  C41  1  0.96096000  0.93600000  0.87484000  1.0
  C  C42  1  0.71525000  0.24939000  0.06680000  1.0
  C  C43  1  0.28474000  0.75062000  0.93320000  1.0
  C  C44  1  0.13925000  0.13642000  0.05292000  1.0
  C  C45  1  0.86075000  0.86357000  0.94707000  1.0
  C  C46  1  0.81658000  0.31985000  0.99422000  1.0
  C  C47  1  0.18341000  0.68016000  0.00578000  1.0
  C  C48  1  0.03165000  0.26456000  0.98491000  1.0
  C  C49  1  0.96834000  0.73544000  0.01509000  1.0
  C  C50  1  0.14168000  0.33881000  0.90818000  1.0
  C  C51  1  0.85832000  0.66119000  0.09182000  1.0
  C  C52  1  0.35549000  0.27487000  0.89748000  1.0
  C  C53  1  0.64451000  0.72513000  0.10252000  1.0
  C  C54  1  0.04259000  0.47849000  0.84226000  1.0
  C  C55  1  0.95741000  0.52152000  0.15774000  1.0
  C  C56  1  0.45680000  0.35349000  0.82723000  1.0
  C  C57  1  0.54320000  0.64650000  0.17277000  1.0
  C  C58  1  0.15656000  0.54977000  0.77408000  1.0
  C  C59  1  0.84345000  0.45023000  0.22592000  1.0
  N  N60  1  0.80938000  0.90972000  0.27398000  1.0
  N  N61  1  0.19062000  0.09028000  0.72602000  1.0
  N  N62  1  0.51150000  0.08643000  0.22011000  1.0
  N  N63  1  0.48850000  0.91357000  0.77989000  1.0
  N  N64  1  0.36147000  0.49133000  0.76624000  1.0
  N  N65  1  0.63854000  0.50866000  0.23377000  1.0
  O  O66  1  0.89023000  0.63304000  0.42506000  1.0
  O  O67  1  0.10977000  0.36696000  0.57494000  1.0
  O  O68  1  0.55735000  0.65324000  0.44316000  1.0
  O  O69  1  0.44264000  0.34677000  0.55683000  1.0
  O  O70  1  0.19490000  0.84223000  0.33302000  1.0
  O  O71  1  0.80510000  0.15777000  0.66697000  1.0
  O  O72  1  0.16014000  0.13738000  0.34763000  1.0
  O  O73  1  0.83986000  0.86261000  0.65238000  1.0
  O  O74  1  0.20023000  0.79121000  0.55428000  1.0
  O  O75  1  0.79978000  0.20879000  0.44572000  1.0
  O  O76  1  0.40249000  0.37293000  0.36125000  1.0
  O  O77  1  0.59751000  0.62707000  0.63875000  1.0
