# generated using pymatgen
data_ZnCoH36C53(NO)8
_symmetry_space_group_name_H-M   'P 1'
_cell_length_a   14.18290000
_cell_length_b   20.38800000
_cell_length_c   21.41540000
_cell_angle_alpha   108.71500000
_cell_angle_beta   109.24100000
_cell_angle_gamma   90.01820000
_symmetry_Int_Tables_number   1
_chemical_formula_structural   ZnCoH36C53(NO)8
_chemical_formula_sum   'Zn4 Co4 H144 C212 N32 O32'
_cell_volume   5498.37593743
_cell_formula_units_Z   4
loop_
 _symmetry_equiv_pos_site_id
 _symmetry_equiv_pos_as_xyz
  1  'x, y, z'
loop_
 _atom_site_type_symbol
 _atom_site_label
 _atom_site_symmetry_multiplicity
 _atom_site_fract_x
 _atom_site_fract_y
 _atom_site_fract_z
 _atom_site_occupancy
  Zn  Zn0  1  0.61946000  0.11875000  0.16869000  1.0
  Zn  Zn1  1  0.37990000  0.83594000  0.44535000  1.0
  Zn  Zn2  1  0.93529000  0.66395000  0.55558000  1.0
  Zn  Zn3  1  0.38028000  0.88139000  0.83129000  1.0
  Co  Co4  1  0.45123000  0.38088000  0.83062000  1.0
  Co  Co5  1  0.62167000  0.16484000  0.55444000  1.0
  Co  Co6  1  0.06607000  0.33522000  0.44461000  1.0
  Co  Co7  1  0.54839000  0.61904000  0.16953000  1.0
  H  H8  1  0.41206000  0.63409000  0.85131000  1.0
  H  H9  1  0.37038000  0.68251000  0.66379000  1.0
  H  H10  1  0.38612000  0.55920000  0.60079000  1.0
  H  H11  1  0.41261000  0.47266000  0.66369000  1.0
  H  H12  1  0.40903000  0.32347000  0.94324000  1.0
  H  H13  1  0.20563000  0.47538000  0.96353000  1.0
  H  H14  1  0.29778000  0.48697000  0.87051000  1.0
  H  H15  1  0.43181000  0.35126000  0.06556000  1.0
  H  H16  1  0.40069000  0.32320000  0.16077000  1.0
  H  H17  1  0.09407000  0.36640000  0.08689000  1.0
  H  H18  1  0.12359000  0.39029000  0.98815000  1.0
  H  H19  1  0.77532000  0.22025000  0.15724000  1.0
  H  H20  1  0.94807000  0.05148000  0.11960000  1.0
  H  H21  1  0.75961000  0.00319000  0.11457000  1.0
  H  H22  1  0.97323000  0.25599000  0.25814000  1.0
  H  H23  1  0.11959000  0.33814000  0.28316000  1.0
  H  H24  1  0.12376000  0.23362000  0.07432000  1.0
  H  H25  1  0.97926000  0.14939000  0.05056000  1.0
  H  H26  1  0.38674000  0.67560000  0.35626000  1.0
  H  H27  1  0.07509000  0.64340000  0.32452000  1.0
  H  H28  1  0.14858000  0.78413000  0.39511000  1.0
  H  H29  1  0.38929000  0.56711000  0.31576000  1.0
  H  H30  1  0.38555000  0.44188000  0.26272000  1.0
  H  H31  1  0.06513000  0.41453000  0.21488000  1.0
  H  H32  1  0.06761000  0.53996000  0.26778000  1.0
  H  H33  1  0.45840000  0.23460000  0.45988000  1.0
  H  H34  1  0.60115000  0.16518000  0.30751000  1.0
  H  H35  1  0.69254000  0.11983000  0.41993000  1.0
  H  H36  1  0.43692000  0.33036000  0.41525000  1.0
  H  H37  1  0.31951000  0.38568000  0.34273000  1.0
  H  H38  1  0.31112000  0.21796000  0.15565000  1.0
  H  H39  1  0.42927000  0.16132000  0.22941000  1.0
  H  H40  1  0.60193000  0.95613000  0.49048000  1.0
  H  H41  1  0.77148000  0.78116000  0.47360000  1.0
  H  H42  1  0.93119000  0.86254000  0.52204000  1.0
  H  H43  1  0.92386000  0.99136000  0.55530000  1.0
  H  H44  1  0.56054000  0.86283000  0.14910000  1.0
  H  H45  1  0.70846000  0.81653000  0.33758000  1.0
  H  H46  1  0.78614000  0.94005000  0.39912000  1.0
  H  H47  1  0.74761000  0.02570000  0.33515000  1.0
  H  H48  1  0.46449000  0.17695000  0.05732000  1.0
  H  H49  1  0.24061000  0.02321000  0.03382000  1.0
  H  H50  1  0.42526000  0.01107000  0.12689000  1.0
  H  H51  1  0.36520000  0.14840000  0.93338000  1.0
  H  H52  1  0.23910000  0.17691000  0.83853000  1.0
  H  H53  1  0.00654000  0.13404000  0.91306000  1.0
  H  H54  1  0.13470000  0.10998000  0.01163000  1.0
  H  H55  1  0.61615000  0.27952000  0.83868000  1.0
  H  H56  1  0.82923000  0.44967000  0.88399000  1.0
  H  H57  1  0.64510000  0.49742000  0.88746000  1.0
  H  H58  1  0.71479000  0.24406000  0.74173000  1.0
  H  H59  1  0.83586000  0.16169000  0.71690000  1.0
  H  H60  1  0.04880000  0.26715000  0.92518000  1.0
  H  H61  1  0.92825000  0.35149000  0.94883000  1.0
  H  H62  1  0.03028000  0.82433000  0.64409000  1.0
  H  H63  1  0.74990000  0.85662000  0.67531000  1.0
  H  H64  1  0.75340000  0.71578000  0.60530000  1.0
  H  H65  1  0.07285000  0.93281000  0.68395000  1.0
  H  H66  1  0.12202000  0.05803000  0.73675000  1.0
  H  H67  1  0.84965000  0.08557000  0.78510000  1.0
  H  H68  1  0.79928000  0.96013000  0.73233000  1.0
  H  H69  1  0.99699000  0.26530000  0.53948000  1.0
  H  H70  1  0.29158000  0.33563000  0.69157000  1.0
  H  H71  1  0.27026000  0.38068000  0.57893000  1.0
  H  H72  1  0.02034000  0.16967000  0.58417000  1.0
  H  H73  1  0.97618000  0.11420000  0.65695000  1.0
  H  H74  1  0.15466000  0.28199000  0.84377000  1.0
  H  H75  1  0.19853000  0.33873000  0.76981000  1.0
  H  H76  1  0.11160000  0.54406000  0.51012000  1.0
  H  H77  1  0.29824000  0.71895000  0.52698000  1.0
  H  H78  1  0.40893000  0.63749000  0.47778000  1.0
  H  H79  1  0.36793000  0.50867000  0.44410000  1.0
  H  H80  1  0.58805000  0.36616000  0.14898000  1.0
  H  H81  1  0.62938000  0.31731000  0.33623000  1.0
  H  H82  1  0.61352000  0.44056000  0.39939000  1.0
  H  H83  1  0.58689000  0.52724000  0.33665000  1.0
  H  H84  1  0.59118000  0.67633000  0.05707000  1.0
  H  H85  1  0.79408000  0.52409000  0.03680000  1.0
  H  H86  1  0.70169000  0.51269000  0.12977000  1.0
  H  H87  1  0.56847000  0.64834000  0.93474000  1.0
  H  H88  1  0.59982000  0.67625000  0.83951000  1.0
  H  H89  1  0.90634000  0.63294000  0.91360000  1.0
  H  H90  1  0.87663000  0.60926000  0.01241000  1.0
  H  H91  1  0.22550000  0.77968000  0.84330000  1.0
  H  H92  1  0.05151000  0.94779000  0.88063000  1.0
  H  H93  1  0.23948000  0.99662000  0.88529000  1.0
  H  H94  1  0.02842000  0.74268000  0.74283000  1.0
  H  H95  1  0.88208000  0.66044000  0.71775000  1.0
  H  H96  1  0.87607000  0.76610000  0.92588000  1.0
  H  H97  1  0.02027000  0.85048000  0.94959000  1.0
  H  H98  1  0.61242000  0.32361000  0.64329000  1.0
  H  H99  1  0.92362000  0.35597000  0.67360000  1.0
  H  H100  1  0.84995000  0.21556000  0.60226000  1.0
  H  H101  1  0.61023000  0.43237000  0.68394000  1.0
  H  H102  1  0.61462000  0.55757000  0.73775000  1.0
  H  H103  1  0.93505000  0.58428000  0.78537000  1.0
  H  H104  1  0.93189000  0.45896000  0.73172000  1.0
  H  H105  1  0.54335000  0.76625000  0.54143000  1.0
  H  H106  1  0.39901000  0.83372000  0.69304000  1.0
  H  H107  1  0.30899000  0.88070000  0.58147000  1.0
  H  H108  1  0.56265000  0.66905000  0.58536000  1.0
  H  H109  1  0.67996000  0.61347000  0.65765000  1.0
  H  H110  1  0.69045000  0.78167000  0.84497000  1.0
  H  H111  1  0.57253000  0.83866000  0.77141000  1.0
  H  H112  1  0.39681000  0.04256000  0.50687000  1.0
  H  H113  1  0.23138000  0.21968000  0.52819000  1.0
  H  H114  1  0.07055000  0.13961000  0.47987000  1.0
  H  H115  1  0.07525000  0.01048000  0.44522000  1.0
  H  H116  1  0.43911000  0.13693000  0.85063000  1.0
  H  H117  1  0.29128000  0.18355000  0.66232000  1.0
  H  H118  1  0.21348000  0.06006000  0.60064000  1.0
  H  H119  1  0.25156000  0.97433000  0.66453000  1.0
  H  H120  1  0.53564000  0.82337000  0.94243000  1.0
  H  H121  1  0.75913000  0.97730000  0.96583000  1.0
  H  H122  1  0.57425000  0.98940000  0.87291000  1.0
  H  H123  1  0.63487000  0.85226000  0.06632000  1.0
  H  H124  1  0.76098000  0.82376000  0.16118000  1.0
  H  H125  1  0.99350000  0.86640000  0.08649000  1.0
  H  H126  1  0.86526000  0.89039000  0.98786000  1.0
  H  H127  1  0.38391000  0.72069000  0.16106000  1.0
  H  H128  1  0.17008000  0.55099000  0.11571000  1.0
  H  H129  1  0.35417000  0.50284000  0.11262000  1.0
  H  H130  1  0.28574000  0.75717000  0.25747000  1.0
  H  H131  1  0.16479000  0.83965000  0.28236000  1.0
  H  H132  1  0.95070000  0.73304000  0.07478000  1.0
  H  H133  1  0.07110000  0.64860000  0.05115000  1.0
  H  H134  1  0.96890000  0.17633000  0.35633000  1.0
  H  H135  1  0.25021000  0.14399000  0.32646000  1.0
  H  H136  1  0.24724000  0.28448000  0.39720000  1.0
  H  H137  1  0.92655000  0.06753000  0.31632000  1.0
  H  H138  1  0.87743000  0.94232000  0.26276000  1.0
  H  H139  1  0.15010000  0.91556000  0.21469000  1.0
  H  H140  1  0.20032000  0.04094000  0.26810000  1.0
  H  H141  1  0.00301000  0.73403000  0.45936000  1.0
  H  H142  1  0.70784000  0.66523000  0.30775000  1.0
  H  H143  1  0.72958000  0.61867000  0.41959000  1.0
  H  H144  1  0.97832000  0.83092000  0.41525000  1.0
  H  H145  1  0.02282000  0.88657000  0.34268000  1.0
  H  H146  1  0.84589000  0.71839000  0.15563000  1.0
  H  H147  1  0.80195000  0.66136000  0.22938000  1.0
  H  H148  1  0.88916000  0.45754000  0.49234000  1.0
  H  H149  1  0.70277000  0.28028000  0.47113000  1.0
  H  H150  1  0.59057000  0.36022000  0.52012000  1.0
  H  H151  1  0.62989000  0.48938000  0.55510000  1.0
  C  C152  1  0.43515000  0.49780000  0.80081000  1.0
  C  C153  1  0.41504000  0.54800000  0.76156000  1.0
  C  C154  1  0.40655000  0.61731000  0.79641000  1.0
  C  C155  1  0.39065000  0.66587000  0.76145000  1.0
  C  C156  1  0.38336000  0.64457000  0.69080000  1.0
  C  C157  1  0.39184000  0.57539000  0.65568000  1.0
  C  C158  1  0.40671000  0.52702000  0.69059000  1.0
  C  C159  1  0.38458000  0.74012000  0.80138000  1.0
  C  C160  1  0.36733000  0.36681000  0.93669000  1.0
  C  C161  1  0.25865000  0.44497000  0.94382000  1.0
  C  C162  1  0.30502000  0.45043000  0.89855000  1.0
  C  C163  1  0.27943000  0.37154000  0.02032000  1.0
  C  C164  1  0.35635000  0.35107000  0.06792000  1.0
  C  C165  1  0.33842000  0.33613000  0.12244000  1.0
  C  C166  1  0.24481000  0.34202000  0.13077000  1.0
  C  C167  1  0.16764000  0.36115000  0.08122000  1.0
  C  C168  1  0.18400000  0.37544000  0.02619000  1.0
  C  C169  1  0.22752000  0.33986000  0.19738000  1.0
  C  C170  1  0.79638000  0.16774000  0.14699000  1.0
  C  C171  1  0.88343000  0.07796000  0.12472000  1.0
  C  C172  1  0.79136000  0.05500000  0.12307000  1.0
  C  C173  1  0.96824000  0.19784000  0.15298000  1.0
  C  C174  1  0.00602000  0.25173000  0.21779000  1.0
  C  C175  1  0.08781000  0.29832000  0.23121000  1.0
  C  C176  1  0.13090000  0.29301000  0.17969000  1.0
  C  C177  1  0.09121000  0.23882000  0.11492000  1.0
  C  C178  1  0.01059000  0.19102000  0.10135000  1.0
  C  C179  1  0.31147000  0.68542000  0.35598000  1.0
  C  C180  1  0.14915000  0.67035000  0.34021000  1.0
  C  C181  1  0.18502000  0.73934000  0.37509000  1.0
  C  C182  1  0.22833000  0.56317000  0.29611000  1.0
  C  C183  1  0.31750000  0.53444000  0.29411000  1.0
  C  C184  1  0.31532000  0.46290000  0.26421000  1.0
  C  C185  1  0.22543000  0.41771000  0.23593000  1.0
  C  C186  1  0.13697000  0.44729000  0.23720000  1.0
  C  C187  1  0.13802000  0.51915000  0.26705000  1.0
  C  C188  1  0.50979000  0.20963000  0.43406000  1.0
  C  C189  1  0.58378000  0.17055000  0.35428000  1.0
  C  C190  1  0.62874000  0.14909000  0.41043000  1.0
  C  C191  1  0.44177000  0.24218000  0.32718000  1.0
  C  C192  1  0.41046000  0.30538000  0.35835000  1.0
  C  C193  1  0.34428000  0.33745000  0.31635000  1.0
  C  C194  1  0.30901000  0.30797000  0.24299000  1.0
  C  C195  1  0.34006000  0.24378000  0.21258000  1.0
  C  C196  1  0.40608000  0.21110000  0.25389000  1.0
  C  C197  1  0.75702000  0.05905000  0.54605000  1.0
  C  C198  1  0.76273000  0.98182000  0.52712000  1.0
  C  C199  1  0.67415000  0.93567000  0.49810000  1.0
  C  C200  1  0.67713000  0.86352000  0.47784000  1.0
  C  C201  1  0.77033000  0.83740000  0.48801000  1.0
  C  C202  1  0.85889000  0.88315000  0.51546000  1.0
  C  C203  1  0.85541000  0.95517000  0.53470000  1.0
  C  C204  1  0.58002000  0.81547000  0.44773000  1.0
  C  C205  1  0.63218000  0.99881000  0.19746000  1.0
  C  C206  1  0.65258000  0.94951000  0.23799000  1.0
  C  C207  1  0.60994000  0.88004000  0.20393000  1.0
  C  C208  1  0.62984000  0.83205000  0.23954000  1.0
  C  C209  1  0.69362000  0.85401000  0.31004000  1.0
  C  C210  1  0.73663000  0.92333000  0.34435000  1.0
  C  C211  1  0.71551000  0.97118000  0.30882000  1.0
  C  C212  1  0.58413000  0.75792000  0.20060000  1.0
  C  C213  1  0.42898000  0.13300000  0.06286000  1.0
  C  C214  1  0.31324000  0.05381000  0.05414000  1.0
  C  C215  1  0.40444000  0.04810000  0.09946000  1.0
  C  C216  1  0.25806000  0.12847000  0.97894000  1.0
  C  C217  1  0.28752000  0.14891000  0.93131000  1.0
  C  C218  1  0.21516000  0.16395000  0.87692000  1.0
  C  C219  1  0.11332000  0.15811000  0.86881000  1.0
  C  C220  1  0.08569000  0.13912000  0.91853000  1.0
  C  C221  1  0.15695000  0.12473000  0.97341000  1.0
  C  C222  1  0.02942000  0.16019000  0.80232000  1.0
  C  C223  1  0.64780000  0.33232000  0.85042000  1.0
  C  C224  1  0.75875000  0.42274000  0.87707000  1.0
  C  C225  1  0.66794000  0.44548000  0.87787000  1.0
  C  C226  1  0.81468000  0.30268000  0.84669000  1.0
  C  C227  1  0.78779000  0.24842000  0.78208000  1.0
  C  C228  1  0.85603000  0.20168000  0.76876000  1.0
  C  C229  1  0.95057000  0.20711000  0.82014000  1.0
  C  C230  1  0.97565000  0.26169000  0.88469000  1.0
  C  C231  1  0.90867000  0.30961000  0.89817000  1.0
  C  C232  1  0.95526000  0.81455000  0.64438000  1.0
  C  C233  1  0.80848000  0.82963000  0.65988000  1.0
  C  C234  1  0.80976000  0.76059000  0.62528000  1.0
  C  C235  1  0.93164000  0.93684000  0.70383000  1.0
  C  C236  1  0.02275000  0.96553000  0.70568000  1.0
  C  C237  1  0.05040000  0.03708000  0.73549000  1.0
  C  C238  1  0.98883000  0.08231000  0.76390000  1.0
  C  C239  1  0.89916000  0.05275000  0.76276000  1.0
  C  C240  1  0.87040000  0.98089000  0.73297000  1.0
  C  C241  1  0.07404000  0.29042000  0.56514000  1.0
  C  C242  1  0.22748000  0.32988000  0.64478000  1.0
  C  C243  1  0.21618000  0.35128000  0.58854000  1.0
  C  C244  1  0.11318000  0.25791000  0.67212000  1.0
  C  C245  1  0.05093000  0.19465000  0.64106000  1.0
  C  C246  1  0.02710000  0.16250000  0.68321000  1.0
  C  C247  1  0.06525000  0.19198000  0.75655000  1.0
  C  C248  1  0.12655000  0.25619000  0.78684000  1.0
  C  C249  1  0.15097000  0.28894000  0.74540000  1.0
  C  C250  1  0.21035000  0.44106000  0.45355000  1.0
  C  C251  1  0.23539000  0.51830000  0.47292000  1.0
  C  C252  1  0.17616000  0.56449000  0.50239000  1.0
  C  C253  1  0.19965000  0.63665000  0.52289000  1.0
  C  C254  1  0.28257000  0.66272000  0.51248000  1.0
  C  C255  1  0.34334000  0.61692000  0.48459000  1.0
  C  C256  1  0.32040000  0.54490000  0.46511000  1.0
  C  C257  1  0.13293000  0.68476000  0.55339000  1.0
  C  C258  1  0.56419000  0.50232000  0.19957000  1.0
  C  C259  1  0.58466000  0.45208000  0.23874000  1.0
  C  C260  1  0.59349000  0.38283000  0.20386000  1.0
  C  C261  1  0.60947000  0.33423000  0.23875000  1.0
  C  C262  1  0.61657000  0.35537000  0.30935000  1.0
  C  C263  1  0.60790000  0.42450000  0.34453000  1.0
  C  C264  1  0.59299000  0.47292000  0.30970000  1.0
  C  C265  1  0.61561000  0.25998000  0.19876000  1.0
  C  C266  1  0.63273000  0.63294000  0.06363000  1.0
  C  C267  1  0.74119000  0.55462000  0.05654000  1.0
  C  C268  1  0.69467000  0.54923000  0.10176000  1.0
  C  C269  1  0.72081000  0.62805000  0.98010000  1.0
  C  C270  1  0.64397000  0.64850000  0.93244000  1.0
  C  C271  1  0.66201000  0.66333000  0.87790000  1.0
  C  C272  1  0.75562000  0.65734000  0.86961000  1.0
  C  C273  1  0.83275000  0.63827000  0.91925000  1.0
  C  C274  1  0.81628000  0.62409000  0.97430000  1.0
  C  C275  1  0.77299000  0.65938000  0.80302000  1.0
  C  C276  1  0.20395000  0.83206000  0.85339000  1.0
  C  C277  1  0.11629000  0.92152000  0.87546000  1.0
  C  C278  1  0.20813000  0.94474000  0.87694000  1.0
  C  C279  1  0.03231000  0.80149000  0.84755000  1.0
  C  C280  1  0.99515000  0.74721000  0.78300000  1.0
  C  C281  1  0.91340000  0.70057000  0.76954000  1.0
  C  C282  1  0.86975000  0.70617000  0.82081000  1.0
  C  C283  1  0.90896000  0.76068000  0.88542000  1.0
  C  C284  1  0.98946000  0.80856000  0.89897000  1.0
  C  C285  1  0.68747000  0.31385000  0.64303000  1.0
  C  C286  1  0.84955000  0.32905000  0.65799000  1.0
  C  C287  1  0.81357000  0.26017000  0.62268000  1.0
  C  C288  1  0.77112000  0.43599000  0.70337000  1.0
  C  C289  1  0.68215000  0.46493000  0.70573000  1.0
  C  C290  1  0.68472000  0.53646000  0.73605000  1.0
  C  C291  1  0.77477000  0.58151000  0.76439000  1.0
  C  C292  1  0.86305000  0.55171000  0.76294000  1.0
  C  C293  1  0.86163000  0.47989000  0.73269000  1.0
  C  C294  1  0.49190000  0.79109000  0.56734000  1.0
  C  C295  1  0.41695000  0.82917000  0.64665000  1.0
  C  C296  1  0.37268000  0.85135000  0.59091000  1.0
  C  C297  1  0.55902000  0.75748000  0.67362000  1.0
  C  C298  1  0.58957000  0.69407000  0.64228000  1.0
  C  C299  1  0.65572000  0.66187000  0.68416000  1.0
  C  C300  1  0.69161000  0.69146000  0.75751000  1.0
  C  C301  1  0.66117000  0.75586000  0.78805000  1.0
  C  C302  1  0.59522000  0.78870000  0.74688000  1.0
  C  C303  1  0.24132000  0.94102000  0.45236000  1.0
  C  C304  1  0.23615000  0.01851000  0.47215000  1.0
  C  C305  1  0.32535000  0.06390000  0.50066000  1.0
  C  C306  1  0.32389000  0.13619000  0.52190000  1.0
  C  C307  1  0.23146000  0.16333000  0.51304000  1.0
  C  C308  1  0.14226000  0.11828000  0.48572000  1.0
  C  C309  1  0.14428000  0.04607000  0.46569000  1.0
  C  C310  1  0.42141000  0.18329000  0.55149000  1.0
  C  C311  1  0.36698000  0.00112000  0.80227000  1.0
  C  C312  1  0.34675000  0.05042000  0.76175000  1.0
  C  C313  1  0.38967000  0.11983000  0.79581000  1.0
  C  C314  1  0.36991000  0.16787000  0.76027000  1.0
  C  C315  1  0.30608000  0.14600000  0.68978000  1.0
  C  C316  1  0.26292000  0.07671000  0.65542000  1.0
  C  C317  1  0.28383000  0.02882000  0.69091000  1.0
  C  C318  1  0.41577000  0.24199000  0.79928000  1.0
  C  C319  1  0.57101000  0.86735000  0.93686000  1.0
  C  C320  1  0.68654000  0.94665000  0.94549000  1.0
  C  C321  1  0.59522000  0.95233000  0.90028000  1.0
  C  C322  1  0.74196000  0.87193000  0.02062000  1.0
  C  C323  1  0.71251000  0.85159000  0.06831000  1.0
  C  C324  1  0.78488000  0.83660000  0.12271000  1.0
  C  C325  1  0.88669000  0.84241000  0.13077000  1.0
  C  C326  1  0.91434000  0.86130000  0.08100000  1.0
  C  C327  1  0.84304000  0.87564000  0.02609000  1.0
  C  C328  1  0.97054000  0.84046000  0.19731000  1.0
  C  C329  1  0.35204000  0.66796000  0.14936000  1.0
  C  C330  1  0.24073000  0.57777000  0.12272000  1.0
  C  C331  1  0.33149000  0.55483000  0.12210000  1.0
  C  C332  1  0.18522000  0.69796000  0.15294000  1.0
  C  C333  1  0.21248000  0.75257000  0.21732000  1.0
  C  C334  1  0.14430000  0.79935000  0.23066000  1.0
  C  C335  1  0.04948000  0.79362000  0.17949000  1.0
  C  C336  1  0.02407000  0.73872000  0.11513000  1.0
  C  C337  1  0.09096000  0.69074000  0.10165000  1.0
  C  C338  1  0.04423000  0.18610000  0.35658000  1.0
  C  C339  1  0.19153000  0.17090000  0.34182000  1.0
  C  C340  1  0.19055000  0.23983000  0.37685000  1.0
  C  C341  1  0.06792000  0.06392000  0.29663000  1.0
  C  C342  1  0.97671000  0.03497000  0.29447000  1.0
  C  C343  1  0.94910000  0.96343000  0.26424000  1.0
  C  C344  1  0.01083000  0.91836000  0.23581000  1.0
  C  C345  1  0.10046000  0.94817000  0.23711000  1.0
  C  C346  1  0.12918000  0.02001000  0.26727000  1.0
  C  C347  1  0.92588000  0.70898000  0.43356000  1.0
  C  C348  1  0.77207000  0.67030000  0.35425000  1.0
  C  C349  1  0.78363000  0.64821000  0.41008000  1.0
  C  C350  1  0.88649000  0.74244000  0.32712000  1.0
  C  C351  1  0.94822000  0.80588000  0.35834000  1.0
  C  C352  1  0.97220000  0.83814000  0.31632000  1.0
  C  C353  1  0.93463000  0.80854000  0.24297000  1.0
  C  C354  1  0.87368000  0.74418000  0.21255000  1.0
  C  C355  1  0.84918000  0.71130000  0.25386000  1.0
  C  C356  1  0.78900000  0.55899000  0.54811000  1.0
  C  C357  1  0.76362000  0.48146000  0.52767000  1.0
  C  C358  1  0.82400000  0.43611000  0.49863000  1.0
  C  C359  1  0.80118000  0.36381000  0.47711000  1.0
  C  C360  1  0.71788000  0.33663000  0.48629000  1.0
  C  C361  1  0.65621000  0.38163000  0.51403000  1.0
  C  C362  1  0.67829000  0.45385000  0.53426000  1.0
  C  C363  1  0.86894000  0.31679000  0.44712000  1.0
  N  N364  1  0.37196000  0.40118000  0.89424000  1.0
  N  N365  1  0.29921000  0.39197000  0.96810000  1.0
  N  N366  1  0.73813000  0.11140000  0.13663000  1.0
  N  N367  1  0.88560000  0.14971000  0.14031000  1.0
  N  N368  1  0.28591000  0.74777000  0.38420000  1.0
  N  N369  1  0.22967000  0.63616000  0.32802000  1.0
  N  N370  1  0.58193000  0.17352000  0.45958000  1.0
  N  N371  1  0.50860000  0.20894000  0.36982000  1.0
  N  N372  1  0.47535000  0.09795000  0.10462000  1.0
  N  N373  1  0.32983000  0.10762000  0.03091000  1.0
  N  N374  1  0.59979000  0.38864000  0.86142000  1.0
  N  N375  1  0.74466000  0.35070000  0.85921000  1.0
  N  N376  1  0.90169000  0.75216000  0.61636000  1.0
  N  N377  1  0.90116000  0.86384000  0.67207000  1.0
  N  N378  1  0.12042000  0.32663000  0.53949000  1.0
  N  N379  1  0.13705000  0.29127000  0.62937000  1.0
  N  N380  1  0.62788000  0.59859000  0.10604000  1.0
  N  N381  1  0.70088000  0.60769000  0.03230000  1.0
  N  N382  1  0.26174000  0.88852000  0.86351000  1.0
  N  N383  1  0.11466000  0.84981000  0.86011000  1.0
  N  N384  1  0.71258000  0.25148000  0.61389000  1.0
  N  N385  1  0.76944000  0.36317000  0.67093000  1.0
  N  N386  1  0.42015000  0.82756000  0.54217000  1.0
  N  N387  1  0.49232000  0.79098000  0.63108000  1.0
  N  N388  1  0.52444000  0.90242000  0.89519000  1.0
  N  N389  1  0.67014000  0.89276000  0.96868000  1.0
  N  N390  1  0.39986000  0.61153000  0.13853000  1.0
  N  N391  1  0.25507000  0.64979000  0.14048000  1.0
  N  N392  1  0.09824000  0.24852000  0.38552000  1.0
  N  N393  1  0.09853000  0.13676000  0.32890000  1.0
  N  N394  1  0.87952000  0.67236000  0.45881000  1.0
  N  N395  1  0.86267000  0.70882000  0.36977000  1.0
  O  O396  1  0.41345000  0.43185000  0.76345000  1.0
  O  O397  1  0.47169000  0.51893000  0.86696000  1.0
  O  O398  1  0.36944000  0.78322000  0.76670000  1.0
  O  O399  1  0.39486000  0.75770000  0.86547000  1.0
  O  O400  1  0.67200000  0.07757000  0.55282000  1.0
  O  O401  1  0.82906000  0.09964000  0.55320000  1.0
  O  O402  1  0.50066000  0.84429000  0.42340000  1.0
  O  O403  1  0.58009000  0.75470000  0.44947000  1.0
  O  O404  1  0.64994000  0.06491000  0.23448000  1.0
  O  O405  1  0.60023000  0.97566000  0.13136000  1.0
  O  O406  1  0.60313000  0.71491000  0.23544000  1.0
  O  O407  1  0.52996000  0.73893000  0.13647000  1.0
  O  O408  1  0.11858000  0.42266000  0.44687000  1.0
  O  O409  1  0.27494000  0.40032000  0.44595000  1.0
  O  O410  1  0.07800000  0.65598000  0.57791000  1.0
  O  O411  1  0.13131000  0.74557000  0.55174000  1.0
  O  O412  1  0.58564000  0.56827000  0.23695000  1.0
  O  O413  1  0.52761000  0.48124000  0.13341000  1.0
  O  O414  1  0.63072000  0.21687000  0.23342000  1.0
  O  O415  1  0.60545000  0.24247000  0.13470000  1.0
  O  O416  1  0.32575000  0.92282000  0.44473000  1.0
  O  O417  1  0.16909000  0.90076000  0.44543000  1.0
  O  O418  1  0.50070000  0.15245000  0.57211000  1.0
  O  O419  1  0.42328000  0.24510000  0.55295000  1.0
  O  O420  1  0.34941000  0.93502000  0.76529000  1.0
  O  O421  1  0.39876000  0.02430000  0.86837000  1.0
  O  O422  1  0.39669000  0.28505000  0.76451000  1.0
  O  O423  1  0.47006000  0.26087000  0.86339000  1.0
  O  O424  1  0.88122000  0.57711000  0.55602000  1.0
  O  O425  1  0.72392000  0.59936000  0.55527000  1.0
  O  O426  1  0.92744000  0.34769000  0.42632000  1.0
  O  O427  1  0.86950000  0.25494000  0.44554000  1.0
