# generated using pymatgen
data_CuH6C3SBrN2
_symmetry_space_group_name_H-M   'P 1'
_cell_length_a   7.53235000
_cell_length_b   11.89310000
_cell_length_c   12.12690000
_cell_angle_alpha   66.70250000
_cell_angle_beta   75.10760000
_cell_angle_gamma   87.57890000
_symmetry_Int_Tables_number   1
_chemical_formula_structural   CuH6C3SBrN2
_chemical_formula_sum   'Cu6 H36 C18 S6 Br6 N12'
_cell_volume   962.10850972
_cell_formula_units_Z   6
loop_
 _symmetry_equiv_pos_site_id
 _symmetry_equiv_pos_as_xyz
  1  'x, y, z'
loop_
 _atom_site_type_symbol
 _atom_site_label
 _atom_site_symmetry_multiplicity
 _atom_site_fract_x
 _atom_site_fract_y
 _atom_site_fract_z
 _atom_site_occupancy
  Cu  Cu0  1  0.54191000  0.00770000  0.09538000  1.0
  Cu  Cu1  1  0.45810000  0.99231000  0.90461000  1.0
  Cu  Cu2  1  0.35782000  0.79480000  0.26349000  1.0
  Cu  Cu3  1  0.64216000  0.20520000  0.73652000  1.0
  Cu  Cu4  1  0.54927000  0.38021000  0.95228000  1.0
  Cu  Cu5  1  0.45071000  0.61979000  0.04772000  1.0
  H  H6  1  0.86402000  0.85467000  0.06147000  1.0
  H  H7  1  0.13599000  0.14534000  0.93853000  1.0
  H  H8  1  0.95482000  0.03560000  0.68734000  1.0
  H  H9  1  0.04519000  0.96440000  0.31266000  1.0
  H  H10  1  0.02409000  0.65737000  0.41182000  1.0
  H  H11  1  0.97590000  0.34263000  0.58818000  1.0
  H  H12  1  0.07633000  0.50208000  0.16116000  1.0
  H  H13  1  0.92365000  0.49793000  0.83884000  1.0
  H  H14  1  0.44240000  0.37299000  0.20811000  1.0
  H  H15  1  0.55759000  0.62700000  0.79189000  1.0
  H  H16  1  0.35902000  0.00209000  0.35432000  1.0
  H  H17  1  0.64101000  0.99790000  0.64567000  1.0
  H  H18  1  0.94603000  0.70419000  0.95049000  1.0
  H  H19  1  0.05398000  0.29582000  0.04951000  1.0
  H  H20  1  0.15423000  0.76442000  0.95862000  1.0
  H  H21  1  0.84578000  0.23558000  0.04139000  1.0
  H  H22  1  0.22721000  0.90154000  0.74540000  1.0
  H  H23  1  0.77279000  0.09846000  0.25461000  1.0
  H  H24  1  0.06070000  0.81050000  0.72841000  1.0
  H  H25  1  0.93930000  0.18950000  0.27159000  1.0
  H  H26  1  0.76482000  0.47257000  0.48627000  1.0
  H  H27  1  0.23517000  0.52743000  0.51373000  1.0
  H  H28  1  0.69557000  0.62095000  0.40006000  1.0
  H  H29  1  0.30441000  0.37904000  0.59994000  1.0
  H  H30  1  0.75739000  0.58583000  0.21366000  1.0
  H  H31  1  0.24259000  0.41416000  0.78635000  1.0
  H  H32  1  0.74641000  0.42721000  0.31422000  1.0
  H  H33  1  0.25358000  0.57279000  0.68578000  1.0
  H  H34  1  0.25802000  0.30445000  0.44353000  1.0
  H  H35  1  0.74199000  0.69553000  0.55648000  1.0
  H  H36  1  0.49632000  0.27281000  0.42672000  1.0
  H  H37  1  0.50368000  0.72719000  0.57328000  1.0
  H  H38  1  0.37529000  0.06322000  0.53838000  1.0
  H  H39  1  0.62474000  0.93677000  0.46162000  1.0
  H  H40  1  0.16426000  0.09768000  0.49285000  1.0
  H  H41  1  0.83577000  0.90230000  0.50715000  1.0
  C  C42  1  0.88243000  0.96829000  0.87870000  1.0
  C  C43  1  0.11758000  0.03172000  0.12130000  1.0
  C  C44  1  0.03196000  0.78832000  0.92284000  1.0
  C  C45  1  0.96805000  0.21168000  0.07716000  1.0
  C  C46  1  0.08333000  0.86357000  0.78041000  1.0
  C  C47  1  0.91667000  0.13643000  0.21959000  1.0
  C  C48  1  0.10338000  0.57776000  0.28376000  1.0
  C  C49  1  0.89661000  0.42224000  0.71624000  1.0
  C  C50  1  0.79794000  0.55323000  0.39712000  1.0
  C  C51  1  0.20205000  0.44677000  0.60288000  1.0
  C  C52  1  0.81392000  0.51763000  0.28617000  1.0
  C  C53  1  0.18607000  0.48237000  0.71383000  1.0
  C  C54  1  0.41469000  0.18857000  0.24715000  1.0
  C  C55  1  0.58532000  0.81142000  0.75284000  1.0
  C  C56  1  0.36740000  0.25428000  0.40791000  1.0
  C  C57  1  0.63260000  0.74571000  0.59209000  1.0
  C  C58  1  0.31500000  0.11569000  0.46149000  1.0
  C  C59  1  0.68502000  0.88430000  0.53851000  1.0
  S  S60  1  0.74978000  0.08282000  0.90136000  1.0
  S  S61  1  0.25023000  0.91719000  0.09864000  1.0
  S  S62  1  0.33774000  0.61016000  0.24222000  1.0
  S  S63  1  0.66225000  0.38984000  0.75777000  1.0
  S  S64  1  0.46527000  0.19117000  0.10128000  1.0
  S  S65  1  0.53474000  0.80883000  0.89871000  1.0
  Br  Br66  1  0.67767000  0.85288000  0.25035000  1.0
  Br  Br67  1  0.32233000  0.14712000  0.74964000  1.0
  Br  Br68  1  0.17389000  0.79665000  0.46576000  1.0
  Br  Br69  1  0.82612000  0.20335000  0.53424000  1.0
  Br  Br70  1  0.73054000  0.49211000  0.02989000  1.0
  Br  Br71  1  0.26945000  0.50788000  0.97012000  1.0
  N  N72  1  0.92635000  0.87374000  0.96970000  1.0
  N  N73  1  0.07366000  0.12627000  0.03030000  1.0
  N  N74  1  0.95865000  0.96364000  0.76827000  1.0
  N  N75  1  0.04136000  0.03637000  0.23173000  1.0
  N  N76  1  0.98407000  0.60652000  0.37004000  1.0
  N  N77  1  0.01591000  0.39349000  0.62995000  1.0
  N  N78  1  0.01406000  0.51681000  0.23964000  1.0
  N  N79  1  0.98593000  0.48319000  0.76036000  1.0
  N  N80  1  0.39221000  0.28806000  0.27454000  1.0
  N  N81  1  0.60778000  0.71194000  0.72546000  1.0
  N  N82  1  0.38982000  0.08589000  0.35261000  1.0
  N  N83  1  0.61019000  0.91410000  0.64739000  1.0
