# generated using pymatgen
data_ZnH18C18(ClO2)4
_symmetry_space_group_name_H-M   'P 1'
_cell_length_a   7.41561000
_cell_length_b   7.94120000
_cell_length_c   18.87200000
_cell_angle_alpha   80.75350000
_cell_angle_beta   89.99890000
_cell_angle_gamma   89.99980000
_symmetry_Int_Tables_number   1
_chemical_formula_structural   ZnH18C18(ClO2)4
_chemical_formula_sum   'Zn2 H36 C36 Cl8 O16'
_cell_volume   1096.90954804
_cell_formula_units_Z   2
loop_
 _symmetry_equiv_pos_site_id
 _symmetry_equiv_pos_as_xyz
  1  'x, y, z'
loop_
 _atom_site_type_symbol
 _atom_site_label
 _atom_site_symmetry_multiplicity
 _atom_site_fract_x
 _atom_site_fract_y
 _atom_site_fract_z
 _atom_site_occupancy
  Zn  Zn0  1  0.50000000  0.50000000  0.50000000  1.0
  Zn  Zn1  1  0.00000000  0.00000000  0.50000000  1.0
  H  H2  1  0.02121000  0.46852000  0.93557000  1.0
  H  H3  1  0.52124000  0.03150000  0.06443000  1.0
  H  H4  1  0.97878000  0.53147000  0.06442000  1.0
  H  H5  1  0.47875000  0.96851000  0.93557000  1.0
  H  H6  1  0.45611000  0.40742000  0.89199000  1.0
  H  H7  1  0.95612000  0.09256000  0.10802000  1.0
  H  H8  1  0.54390000  0.59257000  0.10801000  1.0
  H  H9  1  0.04387000  0.90744000  0.89199000  1.0
  H  H10  1  0.50712000  0.52230000  0.76435000  1.0
  H  H11  1  0.00713000  0.97769000  0.23566000  1.0
  H  H12  1  0.49288000  0.47770000  0.23565000  1.0
  H  H13  1  0.99286000  0.02232000  0.76434000  1.0
  H  H14  1  0.57747000  0.70794000  0.66616000  1.0
  H  H15  1  0.07747000  0.79204000  0.33383000  1.0
  H  H16  1  0.42253000  0.29204000  0.33383000  1.0
  H  H17  1  0.92252000  0.20796000  0.66617000  1.0
  H  H18  1  0.65080000  0.50198000  0.65291000  1.0
  H  H19  1  0.15079000  0.99801000  0.34708000  1.0
  H  H20  1  0.34922000  0.49801000  0.34708000  1.0
  H  H21  1  0.84920000  0.00199000  0.65292000  1.0
  H  H22  1  0.25003000  0.67113000  0.54295000  1.0
  H  H23  1  0.75003000  0.82887000  0.45705000  1.0
  H  H24  1  0.74998000  0.32887000  0.45706000  1.0
  H  H25  1  0.24998000  0.17113000  0.54295000  1.0
  H  H26  1  0.09163000  0.41207000  0.58058000  1.0
  H  H27  1  0.59164000  0.08793000  0.41942000  1.0
  H  H28  1  0.90838000  0.58793000  0.41943000  1.0
  H  H29  1  0.40837000  0.91206000  0.58058000  1.0
  H  H30  1  0.11634000  0.53212000  0.65319000  1.0
  H  H31  1  0.61635000  0.96788000  0.34681000  1.0
  H  H32  1  0.88368000  0.46788000  0.34681000  1.0
  H  H33  1  0.38365000  0.03212000  0.65319000  1.0
  H  H34  1  0.26560000  0.35801000  0.64586000  1.0
  H  H35  1  0.76561000  0.14200000  0.35413000  1.0
  H  H36  1  0.73442000  0.64200000  0.35414000  1.0
  H  H37  1  0.23439000  0.85800000  0.64586000  1.0
  C  C38  1  0.93577000  0.55071000  0.82662000  1.0
  C  C39  1  0.43579000  0.94929000  0.17339000  1.0
  C  C40  1  0.06422000  0.44928000  0.17337000  1.0
  C  C41  1  0.56420000  0.05072000  0.82662000  1.0
  C  C42  1  0.90844000  0.48129000  0.89826000  1.0
  C  C43  1  0.40845000  0.01873000  0.10174000  1.0
  C  C44  1  0.09156000  0.51870000  0.10174000  1.0
  C  C45  1  0.59153000  0.98128000  0.89826000  1.0
  C  C46  1  0.73515000  0.43004000  0.92123000  1.0
  C  C47  1  0.23517000  0.06996000  0.07878000  1.0
  C  C48  1  0.26484000  0.56995000  0.07877000  1.0
  C  C49  1  0.76482000  0.93005000  0.92122000  1.0
  C  C50  1  0.59086000  0.44690000  0.87346000  1.0
  C  C51  1  0.09088000  0.05308000  0.12655000  1.0
  C  C52  1  0.40914000  0.55309000  0.12653000  1.0
  C  C53  1  0.90912000  0.94692000  0.87346000  1.0
  C  C54  1  0.62032000  0.51410000  0.80144000  1.0
  C  C55  1  0.12033000  0.98589000  0.19857000  1.0
  C  C56  1  0.37968000  0.48589000  0.19856000  1.0
  C  C57  1  0.87966000  0.01412000  0.80144000  1.0
  C  C58  1  0.79242000  0.56740000  0.77699000  1.0
  C  C59  1  0.29244000  0.93260000  0.22302000  1.0
  C  C60  1  0.20758000  0.43260000  0.22301000  1.0
  C  C61  1  0.70755000  0.06741000  0.77699000  1.0
  C  C62  1  0.69665000  0.63282000  0.65499000  1.0
  C  C63  1  0.19666000  0.86717000  0.34501000  1.0
  C  C64  1  0.30335000  0.36718000  0.34500000  1.0
  C  C65  1  0.80334000  0.13283000  0.65500000  1.0
  C  C66  1  0.77058000  0.71539000  0.58251000  1.0
  C  C67  1  0.27058000  0.78460000  0.41748000  1.0
  C  C68  1  0.22943000  0.28462000  0.41748000  1.0
  C  C69  1  0.72941000  0.21541000  0.58252000  1.0
  C  C70  1  0.18839000  0.46355000  0.61576000  1.0
  C  C71  1  0.68840000  0.03645000  0.38425000  1.0
  C  C72  1  0.81163000  0.53645000  0.38425000  1.0
  C  C73  1  0.31161000  0.96355000  0.61575000  1.0
  Cl  Cl74  1  0.70021000  0.34529000  0.01068000  1.0
  Cl  Cl75  1  0.20021000  0.15471000  0.98933000  1.0
  Cl  Cl76  1  0.29979000  0.65471000  0.98932000  1.0
  Cl  Cl77  1  0.79977000  0.84530000  0.01067000  1.0
  Cl  Cl78  1  0.14922000  0.62012000  0.79837000  1.0
  Cl  Cl79  1  0.64924000  0.87989000  0.20163000  1.0
  Cl  Cl80  1  0.85078000  0.37988000  0.20162000  1.0
  Cl  Cl81  1  0.35075000  0.12012000  0.79838000  1.0
  O  O82  1  0.83339000  0.63628000  0.70789000  1.0
  O  O83  1  0.33333333  0.86372000  0.29211000  1.0
  O  O84  1  0.16662000  0.36372000  0.29211000  1.0
  O  O85  1  0.66660000  0.13630000  0.70789000  1.0
  O  O86  1  0.68705000  0.68712000  0.52626000  1.0
  O  O87  1  0.18705000  0.81288000  0.47374000  1.0
  O  O88  1  0.31295000  0.31288000  0.47373000  1.0
  O  O89  1  0.81296000  0.18712000  0.52626000  1.0
  O  O90  1  0.90507000  0.81317000  0.58188000  1.0
  O  O91  1  0.40505000  0.68681000  0.41812000  1.0
  O  O92  1  0.09493000  0.18684000  0.41812000  1.0
  O  O93  1  0.59494000  0.31317000  0.58188000  1.0
  O  O94  1  0.31531000  0.57606000  0.57428000  1.0
  O  O95  1  0.81531000  0.92394000  0.42572000  1.0
  O  O96  1  0.68471000  0.42394000  0.42572000  1.0
  O  O97  1  0.18470000  0.07606000  0.57428000  1.0
