# generated using pymatgen
data_CdH6C3(NO)4
_symmetry_space_group_name_H-M   'P 1'
_cell_length_a   7.65163000
_cell_length_b   7.65166000
_cell_length_c   13.96380000
_cell_angle_alpha   75.44780000
_cell_angle_beta   75.44770000
_cell_angle_gamma   64.50060000
_symmetry_Int_Tables_number   1
_chemical_formula_structural   CdH6C3(NO)4
_chemical_formula_sum   'Cd4 H24 C12 N16 O16'
_cell_volume   704.59169321
_cell_formula_units_Z   4
loop_
 _symmetry_equiv_pos_site_id
 _symmetry_equiv_pos_as_xyz
  1  'x, y, z'
loop_
 _atom_site_type_symbol
 _atom_site_label
 _atom_site_symmetry_multiplicity
 _atom_site_fract_x
 _atom_site_fract_y
 _atom_site_fract_z
 _atom_site_occupancy
  Cd  Cd0  1  0.41979000  0.05209000  0.72531000  1.0
  Cd  Cd1  1  0.94791000  0.58020000  0.77470000  1.0
  Cd  Cd2  1  0.58020000  0.94791000  0.27470000  1.0
  Cd  Cd3  1  0.05209000  0.41979000  0.22530000  1.0
  H  H4  1  0.79232000  0.01028000  0.61403000  1.0
  H  H5  1  0.98972000  0.20768000  0.88597000  1.0
  H  H6  1  0.20768000  0.98972000  0.38597000  1.0
  H  H7  1  0.01028000  0.79231000  0.11403000  1.0
  H  H8  1  0.68111000  0.02246000  0.53216000  1.0
  H  H9  1  0.97753000  0.31889000  0.96785000  1.0
  H  H10  1  0.31889000  0.97753000  0.46785000  1.0
  H  H11  1  0.02247000  0.68110000  0.03215000  1.0
  H  H12  1  0.19417000  0.83918000  0.85727000  1.0
  H  H13  1  0.16082000  0.80583000  0.64273000  1.0
  H  H14  1  0.80583000  0.16082000  0.14273000  1.0
  H  H15  1  0.83918000  0.19417000  0.35727000  1.0
  H  H16  1  0.24212000  0.95049000  0.92419000  1.0
  H  H17  1  0.04951000  0.75788000  0.57581000  1.0
  H  H18  1  0.75788000  0.04951000  0.07581000  1.0
  H  H19  1  0.95049000  0.24212000  0.42419000  1.0
  H  H20  1  0.57582000  0.40195000  0.65139000  1.0
  H  H21  1  0.59806000  0.42417000  0.84861000  1.0
  H  H22  1  0.42417000  0.59806000  0.34861000  1.0
  H  H23  1  0.40195000  0.57583000  0.15139000  1.0
  H  H24  1  0.61410000  0.54187000  0.53449000  1.0
  H  H25  1  0.45814000  0.38590000  0.96551000  1.0
  H  H26  1  0.38590000  0.45814000  0.46551000  1.0
  H  H27  1  0.54186000  0.61411000  0.03449000  1.0
  C  C28  1  0.86693000  0.38863000  0.60367000  1.0
  C  C29  1  0.61138000  0.13307000  0.89633000  1.0
  C  C30  1  0.13308000  0.61137000  0.39633000  1.0
  C  C31  1  0.38863000  0.86693000  0.10367000  1.0
  C  C32  1  0.65107000  0.50015000  0.61021000  1.0
  C  C33  1  0.49986000  0.34893000  0.88979000  1.0
  C  C34  1  0.34893000  0.49985000  0.38979000  1.0
  C  C35  1  0.50015000  0.65108000  0.11021000  1.0
  C  C36  1  0.55628000  0.68247000  0.65908000  1.0
  C  C37  1  0.31753000  0.44372000  0.84091000  1.0
  C  C38  1  0.44372000  0.31753000  0.34091000  1.0
  C  C39  1  0.68248000  0.55628000  0.15908000  1.0
  N  N40  1  0.98228000  0.36348000  0.66874000  1.0
  N  N41  1  0.63651000  0.01772000  0.83126000  1.0
  N  N42  1  0.01772000  0.63652000  0.33126000  1.0
  N  N43  1  0.36348000  0.98228000  0.16875000  1.0
  N  N44  1  0.16388000  0.24415000  0.63108000  1.0
  N  N45  1  0.75585000  0.83612000  0.86892000  1.0
  N  N46  1  0.83612000  0.75585000  0.36892000  1.0
  N  N47  1  0.24415000  0.16388000  0.13108000  1.0
  N  N48  1  0.15952000  0.19893000  0.54734000  1.0
  N  N49  1  0.80107000  0.84048000  0.95266000  1.0
  N  N50  1  0.84048000  0.80107000  0.45266000  1.0
  N  N51  1  0.19893000  0.15952000  0.04734000  1.0
  N  N52  1  0.97537000  0.28809000  0.52822000  1.0
  N  N53  1  0.71192000  0.02463000  0.97178000  1.0
  N  N54  1  0.02463000  0.71191000  0.47178000  1.0
  N  N55  1  0.28808000  0.97537000  0.02822000  1.0
  O  O56  1  0.39131000  0.80780000  0.63830000  1.0
  O  O57  1  0.19222000  0.60869000  0.86169000  1.0
  O  O58  1  0.60869000  0.19222000  0.36169000  1.0
  O  O59  1  0.80779000  0.39132000  0.13830000  1.0
  O  O60  1  0.66544000  0.08548000  0.58930000  1.0
  O  O61  1  0.91451000  0.33456000  0.91070000  1.0
  O  O62  1  0.33455000  0.91451000  0.41070000  1.0
  O  O63  1  0.08549000  0.66544000  0.08930000  1.0
  O  O64  1  0.63897000  0.70741000  0.72083000  1.0
  O  O65  1  0.29259000  0.36102000  0.77917000  1.0
  O  O66  1  0.36102000  0.29259000  0.27917000  1.0
  O  O67  1  0.70741000  0.63898000  0.22083000  1.0
  O  O68  1  0.19805000  0.96700000  0.85813000  1.0
  O  O69  1  0.03300000  0.80194000  0.64187000  1.0
  O  O70  1  0.80195000  0.03300000  0.14188000  1.0
  O  O71  1  0.96700000  0.19805000  0.35813000  1.0
