# generated using pymatgen
data_LiH9C15(N2O)2
_symmetry_space_group_name_H-M   'P 1'
_cell_length_a   10.01970000
_cell_length_b   10.05980000
_cell_length_c   14.50820000
_cell_angle_alpha   90.00010000
_cell_angle_beta   90.00010000
_cell_angle_gamma   107.59000000
_symmetry_Int_Tables_number   1
_chemical_formula_structural   LiH9C15(N2O)2
_chemical_formula_sum   'Li4 H36 C60 N16 O8'
_cell_volume   1393.99564861
_cell_formula_units_Z   4
loop_
 _symmetry_equiv_pos_site_id
 _symmetry_equiv_pos_as_xyz
  1  'x, y, z'
loop_
 _atom_site_type_symbol
 _atom_site_label
 _atom_site_symmetry_multiplicity
 _atom_site_fract_x
 _atom_site_fract_y
 _atom_site_fract_z
 _atom_site_occupancy
  Li  Li0  1  0.72214000  0.33508000  0.84267000  1.0
  Li  Li1  1  0.27786000  0.16492000  0.34267000  1.0
  Li  Li2  1  0.27786000  0.66493000  0.15733000  1.0
  Li  Li3  1  0.72214000  0.83508000  0.65734000  1.0
  H  H4  1  0.95790000  0.31907000  0.62031000  1.0
  H  H5  1  0.04209000  0.18093000  0.12031000  1.0
  H  H6  1  0.04210000  0.68093000  0.37969000  1.0
  H  H7  1  0.95791000  0.81907000  0.87969000  1.0
  H  H8  1  0.09528000  0.33747000  0.47736000  1.0
  H  H9  1  0.90472000  0.16253000  0.97736000  1.0
  H  H10  1  0.90472000  0.66253000  0.52264000  1.0
  H  H11  1  0.09528000  0.83747000  0.02264000  1.0
  H  H12  1  0.72653000  0.30950000  0.31590000  1.0
  H  H13  1  0.27347000  0.19050000  0.81589000  1.0
  H  H14  1  0.27347000  0.69050000  0.68411000  1.0
  H  H15  1  0.72653000  0.80950000  0.18411000  1.0
  H  H16  1  0.58634000  0.28633000  0.45844000  1.0
  H  H17  1  0.41365000  0.21367000  0.95844000  1.0
  H  H18  1  0.41366000  0.71367000  0.54156000  1.0
  H  H19  1  0.58634000  0.78633000  0.04156000  1.0
  H  H20  1  0.98859000  0.23743000  0.26819000  1.0
  H  H21  1  0.01141000  0.26257000  0.76819000  1.0
  H  H22  1  0.01141000  0.76257000  0.73181000  1.0
  H  H23  1  0.98859000  0.73743000  0.23181000  1.0
  H  H24  1  0.11713000  0.38612000  0.31346000  1.0
  H  H25  1  0.88287000  0.11389000  0.81346000  1.0
  H  H26  1  0.88287000  0.61388000  0.68654000  1.0
  H  H27  1  0.11713000  0.88611000  0.18654000  1.0
  H  H28  1  0.97166000  0.40404000  0.24894000  1.0
  H  H29  1  0.02834000  0.09597000  0.74893000  1.0
  H  H30  1  0.02834000  0.59596000  0.75107000  1.0
  H  H31  1  0.97166000  0.90403000  0.25107000  1.0
  H  H32  1  0.98458000  0.46779000  0.89814000  1.0
  H  H33  1  0.01542000  0.03221000  0.39814000  1.0
  H  H34  1  0.01542000  0.53221000  0.10186000  1.0
  H  H35  1  0.98458000  0.96779000  0.60186000  1.0
  H  H36  1  0.86785000  0.46751000  0.97039000  1.0
  H  H37  1  0.13215000  0.03249000  0.47039000  1.0
  H  H38  1  0.13215000  0.53249000  0.02961000  1.0
  H  H39  1  0.86785000  0.96751000  0.52961000  1.0
  C  C40  1  0.68511000  0.29747000  0.63416000  1.0
  C  C41  1  0.31489000  0.20253000  0.13416000  1.0
  C  C42  1  0.31489000  0.70253000  0.36584000  1.0
  C  C43  1  0.68511000  0.79747000  0.86584000  1.0
  C  C44  1  0.52628000  0.26527000  0.62932000  1.0
  C  C45  1  0.47372000  0.23473000  0.12932000  1.0
  C  C46  1  0.47372000  0.73473000  0.37068000  1.0
  C  C47  1  0.52628000  0.76527000  0.87069000  1.0
  C  C48  1  0.47359000  0.37898000  0.63033000  1.0
  C  C49  1  0.52641000  0.12102000  0.13032000  1.0
  C  C50  1  0.52641000  0.62102000  0.36967000  1.0
  C  C51  1  0.47359000  0.87898000  0.86968000  1.0
  C  C52  1  0.44835000  0.12264000  0.62704000  1.0
  C  C53  1  0.55165000  0.37736000  0.12704000  1.0
  C  C54  1  0.55165000  0.87736000  0.37296000  1.0
  C  C55  1  0.44835000  0.62264000  0.87296000  1.0
  C  C56  1  0.51950000  0.02129000  0.63063000  1.0
  C  C57  1  0.48049000  0.47871000  0.13063000  1.0
  C  C58  1  0.48050000  0.97871000  0.36937000  1.0
  C  C59  1  0.51951000  0.52129000  0.86937000  1.0
  C  C60  1  0.30233000  0.07198000  0.61458000  1.0
  C  C61  1  0.69767000  0.42802000  0.11458000  1.0
  C  C62  1  0.69767000  0.92801000  0.38542000  1.0
  C  C63  1  0.30233000  0.57198000  0.88542000  1.0
  C  C64  1  0.33050000  0.36903000  0.64140000  1.0
  C  C65  1  0.66950000  0.13097000  0.14140000  1.0
  C  C66  1  0.66951000  0.63097000  0.35860000  1.0
  C  C67  1  0.33050000  0.86903000  0.85860000  1.0
  C  C68  1  0.56397000  0.51671000  0.62374000  1.0
  C  C69  1  0.43603000  0.98329000  0.12373000  1.0
  C  C70  1  0.43603000  0.48329000  0.37626000  1.0
  C  C71  1  0.56397000  0.01671000  0.87627000  1.0
  C  C72  1  0.76294000  0.30210000  0.54931000  1.0
  C  C73  1  0.23706000  0.19790000  0.04931000  1.0
  C  C74  1  0.23706000  0.69790000  0.45069000  1.0
  C  C75  1  0.76294000  0.80210000  0.95068000  1.0
  C  C76  1  0.90704000  0.31568000  0.55370000  1.0
  C  C77  1  0.09295000  0.18432000  0.05370000  1.0
  C  C78  1  0.09296000  0.68432000  0.44630000  1.0
  C  C79  1  0.90705000  0.81568000  0.94630000  1.0
  C  C80  1  0.98375000  0.32631000  0.47327000  1.0
  C  C81  1  0.01625000  0.17369000  0.97327000  1.0
  C  C82  1  0.01625000  0.67369000  0.52673000  1.0
  C  C83  1  0.98376000  0.82630000  0.02673000  1.0
  C  C84  1  0.92071000  0.32576000  0.38651000  1.0
  C  C85  1  0.07929000  0.17424000  0.88651000  1.0
  C  C86  1  0.07929000  0.67424000  0.61349000  1.0
  C  C87  1  0.92071000  0.82576000  0.11349000  1.0
  C  C88  1  0.77642000  0.31011000  0.38273000  1.0
  C  C89  1  0.22358000  0.18989000  0.88273000  1.0
  C  C90  1  0.22358000  0.68989000  0.61727000  1.0
  C  C91  1  0.77642000  0.81011000  0.11727000  1.0
  C  C92  1  0.69785000  0.29758000  0.46266000  1.0
  C  C93  1  0.30214000  0.20242000  0.96266000  1.0
  C  C94  1  0.30215000  0.70242000  0.53734000  1.0
  C  C95  1  0.69786000  0.79758000  0.03734000  1.0
  C  C96  1  0.00499000  0.34035000  0.30010000  1.0
  C  C97  1  0.99500000  0.15965000  0.80010000  1.0
  C  C98  1  0.99501000  0.65965000  0.69990000  1.0
  C  C99  1  0.00500000  0.84035000  0.19990000  1.0
  N  N100  1  0.63383000  0.63291000  0.61797000  1.0
  N  N101  1  0.36617000  0.86710000  0.11797000  1.0
  N  N102  1  0.36617000  0.36710000  0.38203000  1.0
  N  N103  1  0.63383000  0.13290000  0.88203000  1.0
  N  N104  1  0.21453000  0.36736000  0.65336000  1.0
  N  N105  1  0.78547000  0.13264000  0.15336000  1.0
  N  N106  1  0.78547000  0.63264000  0.34664000  1.0
  N  N107  1  0.21453000  0.86736000  0.84664000  1.0
  N  N108  1  0.18184000  0.02682000  0.60086000  1.0
  N  N109  1  0.81815000  0.47318000  0.10086000  1.0
  N  N110  1  0.81816000  0.97319000  0.39914000  1.0
  N  N111  1  0.18185000  0.52682000  0.89914000  1.0
  N  N112  1  0.58032000  0.93887000  0.63393000  1.0
  N  N113  1  0.41968000  0.56114000  0.13393000  1.0
  N  N114  1  0.41968000  0.06113000  0.36607000  1.0
  N  N115  1  0.58032000  0.43887000  0.86607000  1.0
  O  O116  1  0.74017000  0.31816000  0.71166000  1.0
  O  O117  1  0.25983000  0.18184000  0.21166000  1.0
  O  O118  1  0.25983000  0.68184000  0.28834000  1.0
  O  O119  1  0.74017000  0.81816000  0.78834000  1.0
  O  O120  1  0.88261000  0.44413000  0.90633000  1.0
  O  O121  1  0.11739000  0.05587000  0.40634000  1.0
  O  O122  1  0.11739000  0.55587000  0.09366000  1.0
  O  O123  1  0.88261000  0.94413000  0.59366000  1.0
