# generated using pymatgen
data_NaH20C13NO2
_symmetry_space_group_name_H-M   'P 1'
_cell_length_a   10.38820000
_cell_length_b   10.76720000
_cell_length_c   15.99950000
_cell_angle_alpha   90.00020000
_cell_angle_beta   90.00000000
_cell_angle_gamma   97.78110000
_symmetry_Int_Tables_number   1
_chemical_formula_structural   NaH20C13NO2
_chemical_formula_sum   'Na4 H80 C52 N4 O8'
_cell_volume   1773.09590836
_cell_formula_units_Z   4
loop_
 _symmetry_equiv_pos_site_id
 _symmetry_equiv_pos_as_xyz
  1  'x, y, z'
loop_
 _atom_site_type_symbol
 _atom_site_label
 _atom_site_symmetry_multiplicity
 _atom_site_fract_x
 _atom_site_fract_y
 _atom_site_fract_z
 _atom_site_occupancy
  Na  Na0  1  0.48831000  0.51794000  0.90435000  1.0
  Na  Na1  1  0.51169000  0.98206000  0.40435000  1.0
  Na  Na2  1  0.51169000  0.48206000  0.09566000  1.0
  Na  Na3  1  0.48831000  0.01794000  0.59565000  1.0
  H  H4  1  0.91913000  0.42757000  0.03072000  1.0
  H  H5  1  0.08087000  0.07242000  0.53071000  1.0
  H  H6  1  0.08087000  0.57242000  0.96928000  1.0
  H  H7  1  0.91913000  0.92758000  0.46928000  1.0
  H  H8  1  0.96140000  0.21437000  0.05698000  1.0
  H  H9  1  0.03860000  0.28563000  0.55698000  1.0
  H  H10  1  0.03860000  0.78562000  0.94302000  1.0
  H  H11  1  0.96140000  0.71438000  0.44302000  1.0
  H  H12  1  0.78583000  0.03139000  0.04426000  1.0
  H  H13  1  0.21417000  0.46861000  0.54427000  1.0
  H  H14  1  0.21417000  0.96861000  0.95573000  1.0
  H  H15  1  0.78583000  0.53139000  0.45573000  1.0
  H  H16  1  0.56253000  0.07319000  0.00264000  1.0
  H  H17  1  0.43747000  0.42680000  0.50264000  1.0
  H  H18  1  0.43747000  0.92681000  0.99736000  1.0
  H  H19  1  0.56252000  0.57319000  0.49736000  1.0
  H  H20  1  0.51792000  0.28623000  0.97378000  1.0
  H  H21  1  0.48208000  0.21377000  0.47378000  1.0
  H  H22  1  0.48208000  0.71378000  0.02622000  1.0
  H  H23  1  0.51792000  0.78622000  0.52622000  1.0
  H  H24  1  0.87375000  0.57415000  0.96175000  1.0
  H  H25  1  0.12625000  0.92584000  0.46175000  1.0
  H  H26  1  0.12625000  0.42585000  0.03825000  1.0
  H  H27  1  0.87375000  0.07415000  0.53825000  1.0
  H  H28  1  0.73562000  0.67717000  0.86709000  1.0
  H  H29  1  0.26437000  0.82283000  0.36709000  1.0
  H  H30  1  0.26437000  0.32283000  0.13291000  1.0
  H  H31  1  0.73563000  0.17717000  0.63291000  1.0
  H  H32  1  0.82152000  0.79013000  0.93502000  1.0
  H  H33  1  0.17848000  0.70986000  0.43502000  1.0
  H  H34  1  0.17847000  0.20987000  0.06498000  1.0
  H  H35  1  0.82153000  0.29013000  0.56498000  1.0
  H  H36  1  0.65468000  0.73808000  0.95288000  1.0
  H  H37  1  0.34532000  0.76192000  0.45288000  1.0
  H  H38  1  0.34532000  0.26192000  0.04712000  1.0
  H  H39  1  0.65468000  0.23808000  0.54712000  1.0
  H  H40  1  0.82983000  0.57018000  0.11821000  1.0
  H  H41  1  0.17017000  0.92983000  0.61821000  1.0
  H  H42  1  0.17017000  0.42983000  0.88179000  1.0
  H  H43  1  0.82983000  0.07017000  0.38179000  1.0
  H  H44  1  0.72441000  0.68592000  0.10220000  1.0
  H  H45  1  0.27559000  0.81408000  0.60220000  1.0
  H  H46  1  0.27559000  0.31409000  0.89780000  1.0
  H  H47  1  0.72441000  0.18591000  0.39780000  1.0
  H  H48  1  0.89378000  0.72126000  0.08064000  1.0
  H  H49  1  0.10622000  0.77874000  0.58064000  1.0
  H  H50  1  0.10622000  0.27874000  0.91936000  1.0
  H  H51  1  0.89378000  0.22126000  0.41936000  1.0
  H  H52  1  0.49581000  0.63182000  0.66501000  1.0
  H  H53  1  0.50418000  0.86818000  0.16501000  1.0
  H  H54  1  0.50418000  0.36818000  0.33499000  1.0
  H  H55  1  0.49582000  0.13182000  0.83499000  1.0
  H  H56  1  0.62032000  0.60606000  0.73790000  1.0
  H  H57  1  0.37968000  0.89394000  0.23790000  1.0
  H  H58  1  0.37968000  0.39394000  0.26210000  1.0
  H  H59  1  0.62032000  0.10606000  0.76210000  1.0
  H  H60  1  0.28522000  0.70569000  0.83516000  1.0
  H  H61  1  0.71478000  0.79431000  0.33516000  1.0
  H  H62  1  0.71478000  0.29432000  0.16484000  1.0
  H  H63  1  0.28522000  0.20568000  0.66484000  1.0
  H  H64  1  0.29231000  0.68730000  0.72351000  1.0
  H  H65  1  0.70768000  0.81270000  0.22351000  1.0
  H  H66  1  0.70768000  0.31270000  0.27649000  1.0
  H  H67  1  0.29232000  0.18730000  0.77649000  1.0
  H  H68  1  0.45067000  0.89122000  0.83019000  1.0
  H  H69  1  0.54932000  0.60879000  0.33019000  1.0
  H  H70  1  0.54933000  0.10879000  0.16981000  1.0
  H  H71  1  0.45068000  0.39121000  0.66981000  1.0
  H  H72  1  0.32582000  0.91431000  0.75675000  1.0
  H  H73  1  0.67418000  0.58569000  0.25675000  1.0
  H  H74  1  0.67418000  0.08569000  0.24325000  1.0
  H  H75  1  0.32582000  0.41431000  0.74325000  1.0
  H  H76  1  0.66401000  0.81735000  0.66288000  1.0
  H  H77  1  0.33598000  0.68265000  0.16288000  1.0
  H  H78  1  0.33598000  0.18265000  0.33712000  1.0
  H  H79  1  0.66402000  0.31735000  0.83712000  1.0
  H  H80  1  0.65227000  0.83344000  0.77469000  1.0
  H  H81  1  0.34773000  0.66656000  0.27469000  1.0
  H  H82  1  0.34773000  0.16656000  0.22531000  1.0
  H  H83  1  0.65227000  0.33344000  0.72531000  1.0
  C  C84  1  0.83933000  0.35164000  0.02333000  1.0
  C  C85  1  0.16068000  0.14835000  0.52332000  1.0
  C  C86  1  0.16068000  0.64836000  0.97667000  1.0
  C  C87  1  0.83933000  0.85165000  0.47667000  1.0
  C  C88  1  0.86350000  0.22935000  0.03845000  1.0
  C  C89  1  0.13650000  0.27065000  0.53845000  1.0
  C  C90  1  0.13650000  0.77064000  0.96155000  1.0
  C  C91  1  0.86350000  0.72935000  0.46154000  1.0
  C  C92  1  0.76588000  0.12652000  0.03196000  1.0
  C  C93  1  0.23412000  0.37348000  0.53196000  1.0
  C  C94  1  0.23413000  0.87348000  0.96804000  1.0
  C  C95  1  0.76587000  0.62652000  0.46803000  1.0
  C  C96  1  0.64140000  0.15063000  0.00878000  1.0
  C  C97  1  0.35860000  0.34937000  0.50879000  1.0
  C  C98  1  0.35860000  0.84937000  0.99122000  1.0
  C  C99  1  0.64140000  0.65063000  0.49122000  1.0
  C  C100  1  0.61567000  0.27158000  0.99321000  1.0
  C  C101  1  0.38433000  0.22842000  0.49321000  1.0
  C  C102  1  0.38433000  0.72842000  0.00680000  1.0
  C  C103  1  0.61568000  0.77158000  0.50679000  1.0
  C  C104  1  0.71299000  0.37938000  0.99960000  1.0
  C  C105  1  0.28701000  0.12062000  0.49960000  1.0
  C  C106  1  0.28701000  0.62062000  0.00040000  1.0
  C  C107  1  0.71300000  0.87938000  0.50040000  1.0
  C  C108  1  0.78218000  0.60078000  0.98741000  1.0
  C  C109  1  0.21782000  0.89922000  0.48741000  1.0
  C  C110  1  0.21783000  0.39922000  0.01259000  1.0
  C  C111  1  0.78218000  0.10078000  0.51259000  1.0
  C  C112  1  0.74669000  0.70752000  0.93258000  1.0
  C  C113  1  0.25331000  0.79247000  0.43258000  1.0
  C  C114  1  0.25331000  0.29248000  0.06741000  1.0
  C  C115  1  0.74669000  0.20752000  0.56742000  1.0
  C  C116  1  0.80966000  0.64739000  0.07736000  1.0
  C  C117  1  0.19035000  0.85262000  0.57737000  1.0
  C  C118  1  0.19035000  0.35262000  0.92264000  1.0
  C  C119  1  0.80966000  0.14738000  0.42264000  1.0
  C  C120  1  0.54381000  0.66424000  0.72423000  1.0
  C  C121  1  0.45619000  0.83576000  0.22423000  1.0
  C  C122  1  0.45619000  0.33577000  0.27577000  1.0
  C  C123  1  0.54381000  0.16423000  0.77577000  1.0
  C  C124  1  0.34817000  0.72032000  0.77995000  1.0
  C  C125  1  0.65183000  0.77968000  0.27995000  1.0
  C  C126  1  0.65183000  0.27969000  0.22005000  1.0
  C  C127  1  0.34817000  0.22031000  0.72005000  1.0
  C  C128  1  0.40287000  0.85736000  0.77134000  1.0
  C  C129  1  0.59712000  0.64264000  0.27134000  1.0
  C  C130  1  0.59713000  0.14265000  0.22866000  1.0
  C  C131  1  0.40288000  0.35735000  0.72866000  1.0
  C  C132  1  0.59910000  0.80139000  0.71707000  1.0
  C  C133  1  0.40090000  0.69861000  0.21708000  1.0
  C  C134  1  0.40090000  0.19861000  0.28292000  1.0
  C  C135  1  0.59910000  0.30139000  0.78292000  1.0
  N  N136  1  0.67864000  0.49468000  0.98357000  1.0
  N  N137  1  0.32136000  0.00532000  0.48356000  1.0
  N  N138  1  0.32136000  0.50531000  0.01644000  1.0
  N  N139  1  0.67864000  0.99469000  0.51644000  1.0
  O  O140  1  0.45162000  0.64535000  0.79171000  1.0
  O  O141  1  0.54838000  0.85466000  0.29172000  1.0
  O  O142  1  0.54837000  0.35466000  0.20829000  1.0
  O  O143  1  0.45162000  0.14534000  0.70829000  1.0
  O  O144  1  0.49551000  0.87545000  0.70385000  1.0
  O  O145  1  0.50449000  0.62455000  0.20385000  1.0
  O  O146  1  0.50449000  0.12455000  0.29615000  1.0
  O  O147  1  0.49551000  0.37545000  0.79615000  1.0
