# generated using pymatgen
data_Zr3H22C22(NO8)2
_symmetry_space_group_name_H-M   'P 1'
_cell_length_a   12.83540000
_cell_length_b   17.46540000
_cell_length_c   17.50640000
_cell_angle_alpha   85.23960000
_cell_angle_beta   70.96180000
_cell_angle_gamma   70.89960000
_symmetry_Int_Tables_number   1
_chemical_formula_structural   Zr3H22C22(NO8)2
_chemical_formula_sum   'Zr6 H44 C44 N4 O32'
_cell_volume   3504.36031662
_cell_formula_units_Z   2
loop_
 _symmetry_equiv_pos_site_id
 _symmetry_equiv_pos_as_xyz
  1  'x, y, z'
loop_
 _atom_site_type_symbol
 _atom_site_label
 _atom_site_symmetry_multiplicity
 _atom_site_fract_x
 _atom_site_fract_y
 _atom_site_fract_z
 _atom_site_occupancy
  Zr  Zr0  1  0.02820000  0.01474000  0.89607000  1.0
  Zr  Zr1  1  0.02418000  0.87240000  0.05096000  1.0
  Zr  Zr2  1  0.84864000  0.17041000  0.04433000  1.0
  Zr  Zr3  1  0.83822000  0.02498000  0.19944000  1.0
  Zr  Zr4  1  0.75980000  0.00147000  0.02688000  1.0
  Zr  Zr5  1  0.11114000  0.04111000  0.06692000  1.0
  H  H6  1  0.80106000  0.99859000  0.59560000  1.0
  H  H7  1  0.67575000  0.00735000  0.49740000  1.0
  H  H8  1  0.07147000  0.02880000  0.49750000  1.0
  H  H9  1  0.19645000  0.02078000  0.59700000  1.0
  H  H10  1  0.81302000  0.56497000  0.00477000  1.0
  H  H11  1  0.68423000  0.46741000  0.01906000  1.0
  H  H12  1  0.06151000  0.47635000  0.07827000  1.0
  H  H13  1  0.18897000  0.57436000  0.06860000  1.0
  H  H14  1  0.21479000  0.90931000  0.93149000  1.0
  H  H15  1  0.79533000  0.88780000  0.15157000  1.0
  H  H16  1  0.91597000  0.15646000  0.18836000  1.0
  H  H17  1  0.80472000  0.13347000  0.91225000  1.0
  H  H18  1  0.96399000  0.75835000  0.15047000  1.0
  H  H19  1  0.92904000  0.85664000  0.22522000  1.0
  H  H20  1  0.66796000  0.13006000  0.30392000  1.0
  H  H21  1  0.77425000  0.31433000  0.12662000  1.0
  H  H22  1  0.88209000  0.28362000  0.94182000  1.0
  H  H23  1  0.00909000  0.09014000  0.75688000  1.0
  H  H24  1  0.11267000  0.90598000  0.78026000  1.0
  H  H25  1  0.20486000  0.73598000  0.97344000  1.0
  H  H26  1  0.66577000  0.28667000  0.13247000  1.0
  H  H27  1  0.10633000  0.11077000  0.78115000  1.0
  H  H28  1  0.08626000  0.74012000  0.95917000  1.0
  H  H29  1  0.92219000  0.91338000  0.29561000  1.0
  H  H30  1  0.24909000  0.24759000  0.08415000  1.0
  H  H31  1  0.03801000  0.36164000  0.03986000  1.0
  H  H32  1  0.49935000  0.33430000  0.07371000  1.0
  H  H33  1  0.41758000  0.20717000  0.01894000  1.0
  H  H34  1  0.45032000  0.83636000  0.08340000  1.0
  H  H35  1  0.36423000  0.70639000  0.03947000  1.0
  H  H36  1  0.61721000  0.79546000  0.02198000  1.0
  H  H37  1  0.85459000  0.67583000  0.02195000  1.0
  H  H38  1  0.35025000  0.60559000  0.07886000  1.0
  H  H39  1  0.51991000  0.43466000  0.02405000  1.0
  H  H40  1  0.24895000  0.05819000  0.27336000  1.0
  H  H41  1  0.05641000  0.99062000  0.37938000  1.0
  H  H42  1  0.41714000  0.98891000  0.23228000  1.0
  H  H43  1  0.50536000  0.03882000  0.35807000  1.0
  H  H44  1  0.44445000  0.06930000  0.85949000  1.0
  H  H45  1  0.35859000  0.00895000  0.73821000  1.0
  H  H46  1  0.61157000  0.99396000  0.82426000  1.0
  H  H47  1  0.83889000  0.01368000  0.70641000  1.0
  H  H48  1  0.34940000  0.02668000  0.63414000  1.0
  H  H49  1  0.51742000  0.01508000  0.46138000  1.0
  C  C50  1  0.63734000  0.00966000  0.69478000  1.0
  C  C51  1  0.70904000  0.00571000  0.61415000  1.0
  C  C52  1  0.64430000  0.00892000  0.56298000  1.0
  C  C53  1  0.53047000  0.01479000  0.61097000  1.0
  C  C54  1  0.23191000  0.02822000  0.39992000  1.0
  C  C55  1  0.16191000  0.02606000  0.47989000  1.0
  C  C56  1  0.22590000  0.02392000  0.53160000  1.0
  C  C57  1  0.33711000  0.02480000  0.48445000  1.0
  C  C58  1  0.64690000  0.66475000  0.02832000  1.0
  C  C59  1  0.71950000  0.58384000  0.01781000  1.0
  C  C60  1  0.65274000  0.53310000  0.02450000  1.0
  C  C61  1  0.53661000  0.58180000  0.03995000  1.0
  C  C62  1  0.22541000  0.37690000  0.06569000  1.0
  C  C63  1  0.15375000  0.45770000  0.07056000  1.0
  C  C64  1  0.21959000  0.50859000  0.06686000  1.0
  C  C65  1  0.33380000  0.45994000  0.05901000  1.0
  C  C66  1  0.81831000  0.99773000  0.83314000  1.0
  C  C67  1  0.27992000  0.85637000  0.06915000  1.0
  C  C68  1  0.82451000  0.80505000  0.01855000  1.0
  C  C69  1  0.27338000  0.05291000  0.88513000  1.0
  C  C70  1  0.05585000  0.23501000  0.06137000  1.0
  C  C71  1  0.58600000  0.00723000  0.20822000  1.0
  C  C72  1  0.06294000  0.02614000  0.25728000  1.0
  C  C73  1  0.58278000  0.18352000  0.04246000  1.0
  C  C74  1  0.19368000  0.30504000  0.06940000  1.0
  C  C75  1  0.09482000  0.30592000  0.05640000  1.0
  C  C76  1  0.43617000  0.31537000  0.05770000  1.0
  C  C77  1  0.46739000  0.23610000  0.03927000  1.0
  C  C78  1  0.39811000  0.80529000  0.06889000  1.0
  C  C79  1  0.43064000  0.72596000  0.05014000  1.0
  C  C80  1  0.68002000  0.73607000  0.02331000  1.0
  C  C81  1  0.78854000  0.73344000  0.01980000  1.0
  C  C82  1  0.43458000  0.55902000  0.05572000  1.0
  C  C83  1  0.43592000  0.48194000  0.04587000  1.0
  C  C84  1  0.19983000  0.03473000  0.32797000  1.0
  C  C85  1  0.10667000  0.01527000  0.32632000  1.0
  C  C86  1  0.46991000  0.00620000  0.26083000  1.0
  C  C87  1  0.44012000  0.02474000  0.33989000  1.0
  C  C88  1  0.39061000  0.05185000  0.83200000  1.0
  C  C89  1  0.42314000  0.02546000  0.75506000  1.0
  C  C90  1  0.67099000  0.00274000  0.76597000  1.0
  C  C91  1  0.77715000  0.00471000  0.76343000  1.0
  C  C92  1  0.43194000  0.02116000  0.58709000  1.0
  C  C93  1  0.43491000  0.02038000  0.50843000  1.0
  N  N94  1  0.52666000  0.01566000  0.69224000  1.0
  N  N95  1  0.33990000  0.02759000  0.40309000  1.0
  N  N96  1  0.53369000  0.66295000  0.04165000  1.0
  N  N97  1  0.33615000  0.37886000  0.05943000  1.0
  O  O98  1  0.92207000  0.00149000  0.81714000  1.0
  O  O99  1  0.75186000  0.99004000  0.90390000  1.0
  O  O100  1  0.21083000  0.82164000  0.05998000  1.0
  O  O101  1  0.25713000  0.93252000  0.07771000  1.0
  O  O102  1  0.92898000  0.79030000  0.02117000  1.0
  O  O103  1  0.75273000  0.87563000  0.01835000  1.0
  O  O104  1  0.19671000  0.05572000  0.85238000  1.0
  O  O105  1  0.25943000  0.04868000  0.96092000  1.0
  O  O106  1  0.14589000  0.93312000  0.80784000  1.0
  O  O107  1  0.02312000  0.11672000  0.79781000  1.0
  O  O108  1  0.14333000  0.76865000  0.95215000  1.0
  O  O109  1  0.00749000  0.79463000  0.15042000  1.0
  O  O110  1  0.93783000  0.94608000  0.97435000  1.0
  O  O111  1  0.13920000  0.94083000  0.96690000  1.0
  O  O112  1  0.95519000  0.25011000  0.05298000  1.0
  O  O113  1  0.12135000  0.16513000  0.07257000  1.0
  O  O114  1  0.65509000  0.01796000  0.24175000  1.0
  O  O115  1  0.60855000  0.99606000  0.13239000  1.0
  O  O116  1  0.96734000  0.01143000  0.27073000  1.0
  O  O117  1  0.12014000  0.04936000  0.18975000  1.0
  O  O118  1  0.64576000  0.21467000  0.06465000  1.0
  O  O119  1  0.61181000  0.10954000  0.02005000  1.0
  O  O120  1  0.73720000  0.27277000  0.14728000  1.0
  O  O121  1  0.82266000  0.25724000  0.96075000  1.0
  O  O122  1  0.75223000  0.11118000  0.28792000  1.0
  O  O123  1  0.87427000  0.90276000  0.26674000  1.0
  O  O124  1  0.92384000  0.12019000  0.14619000  1.0
  O  O125  1  0.78595000  0.07474000  0.10052000  1.0
  O  O126  1  0.01274000  0.09109000  0.99199000  1.0
  O  O127  1  0.83540000  0.92507000  0.12261000  1.0
  O  O128  1  0.84087000  0.09758000  0.94841000  1.0
  O  O129  1  0.01098000  0.96667000  0.11634000  1.0
