# generated using pymatgen
data_AgH31C30(NO)4
_symmetry_space_group_name_H-M   'P 1'
_cell_length_a   9.59851000
_cell_length_b   10.10400000
_cell_length_c   14.13660000
_cell_angle_alpha   97.99660000
_cell_angle_beta   91.61700000
_cell_angle_gamma   100.57500000
_symmetry_Int_Tables_number   1
_chemical_formula_structural   AgH31C30(NO)4
_chemical_formula_sum   'Ag2 H62 C60 N8 O8'
_cell_volume   1332.58796724
_cell_formula_units_Z   2
loop_
 _symmetry_equiv_pos_site_id
 _symmetry_equiv_pos_as_xyz
  1  'x, y, z'
loop_
 _atom_site_type_symbol
 _atom_site_label
 _atom_site_symmetry_multiplicity
 _atom_site_fract_x
 _atom_site_fract_y
 _atom_site_fract_z
 _atom_site_occupancy
  Ag  Ag0  1  0.72548000  0.54284000  0.70798000  1.0
  Ag  Ag1  1  0.27452000  0.45715000  0.29202000  1.0
  H  H2  1  0.75503000  0.51857000  0.38659000  1.0
  H  H3  1  0.24497000  0.48143000  0.61341000  1.0
  H  H4  1  0.67942000  0.56323000  0.49772000  1.0
  H  H5  1  0.32058000  0.43677000  0.50227000  1.0
  H  H6  1  0.61225000  0.40393000  0.42554000  1.0
  H  H7  1  0.38776000  0.59607000  0.57446000  1.0
  H  H8  1  0.99908000  0.42797000  0.76796000  1.0
  H  H9  1  0.00092000  0.57203000  0.23204000  1.0
  H  H10  1  0.16436000  0.26330000  0.76717000  1.0
  H  H11  1  0.83563000  0.73670000  0.23283000  1.0
  H  H12  1  0.20247000  0.11840000  0.61685000  1.0
  H  H13  1  0.79753000  0.88159000  0.38315000  1.0
  H  H14  1  0.07817000  0.13315000  0.46272000  1.0
  H  H15  1  0.92183000  0.86685000  0.53728000  1.0
  H  H16  1  0.98084000  0.23657000  0.34394000  1.0
  H  H17  1  0.01916000  0.76343000  0.65606000  1.0
  H  H18  1  0.87478000  0.35213000  0.31677000  1.0
  H  H19  1  0.12522000  0.64787000  0.68322000  1.0
  H  H20  1  0.74623000  0.08199000  0.38369000  1.0
  H  H21  1  0.25377000  0.91801000  0.61631000  1.0
  H  H22  1  0.65482000  0.19200000  0.33172000  1.0
  H  H23  1  0.34518000  0.80800000  0.66828000  1.0
  H  H24  1  0.79826000  0.14990000  0.18117000  1.0
  H  H25  1  0.20174000  0.85010000  0.81883000  1.0
  H  H26  1  0.85806000  0.02165000  0.23309000  1.0
  H  H27  1  0.14195000  0.97835000  0.76691000  1.0
  H  H28  1  0.61117000  0.89327000  0.23205000  1.0
  H  H29  1  0.38883000  0.10673000  0.76795000  1.0
  H  H30  1  0.54310000  0.02803000  0.19235000  1.0
  H  H31  1  0.45690000  0.97197000  0.80765000  1.0
  H  H32  1  0.75167000  0.87735000  0.08075000  1.0
  H  H33  1  0.24833000  0.12265000  0.91925000  1.0
  H  H34  1  0.66823000  0.00131000  0.04068000  1.0
  H  H35  1  0.33177000  0.99869000  0.95932000  1.0
  H  H36  1  0.43018000  0.84690000  0.03789000  1.0
  H  H37  1  0.56982000  0.15310000  0.96211000  1.0
  H  H38  1  0.54930000  0.77321000  0.96394000  1.0
  H  H39  1  0.45070000  0.22679000  0.03606000  1.0
  H  H40  1  0.32240000  0.84256000  0.18938000  1.0
  H  H41  1  0.67760000  0.15744000  0.81062000  1.0
  H  H42  1  0.22073000  0.69194000  0.22276000  1.0
  H  H43  1  0.77927000  0.30806000  0.77724000  1.0
  H  H44  1  0.21731000  0.71862000  0.10120000  1.0
  H  H45  1  0.78269000  0.28137000  0.89880000  1.0
  H  H46  1  0.76516000  0.65296000  0.99267000  1.0
  H  H47  1  0.23484000  0.34704000  0.00733000  1.0
  H  H48  1  0.89200000  0.47348000  0.03343000  1.0
  H  H49  1  0.10799000  0.52652000  0.96657000  1.0
  H  H50  1  0.80195000  0.32362000  0.14743000  1.0
  H  H51  1  0.19805000  0.67637000  0.85256000  1.0
  H  H52  1  0.57395000  0.34400000  0.22985000  1.0
  H  H53  1  0.42605000  0.65600000  0.77015000  1.0
  H  H54  1  0.03995000  0.77161000  0.02538000  1.0
  H  H55  1  0.96005000  0.22839000  0.97462000  1.0
  H  H56  1  0.12371000  0.97314000  0.15118000  1.0
  H  H57  1  0.87629000  0.02686000  0.84882000  1.0
  H  H58  1  0.76834000  0.86845000  0.73598000  1.0
  H  H59  1  0.23165000  0.13155000  0.26402000  1.0
  H  H60  1  0.47766000  0.74875000  0.46336000  1.0
  H  H61  1  0.52233000  0.25126000  0.53664000  1.0
  H  H62  1  0.64948000  0.12793000  0.64184000  1.0
  H  H63  1  0.35051000  0.87207000  0.35816000  1.0
  C  C64  1  0.70922000  0.47922000  0.44983000  1.0
  C  C65  1  0.29078000  0.52078000  0.55016000  1.0
  C  C66  1  0.81183000  0.41897000  0.50210000  1.0
  C  C67  1  0.18817000  0.58103000  0.49790000  1.0
  C  C68  1  0.94203000  0.36832000  0.61650000  1.0
  C  C69  1  0.05797000  0.63168000  0.38349000  1.0
  C  C70  1  0.01377000  0.36157000  0.70274000  1.0
  C  C71  1  0.98623000  0.63843000  0.29726000  1.0
  C  C72  1  0.10647000  0.26991000  0.70102000  1.0
  C  C73  1  0.89353000  0.73009000  0.29897000  1.0
  C  C74  1  0.12840000  0.18812000  0.61559000  1.0
  C  C75  1  0.87160000  0.81188000  0.38441000  1.0
  C  C76  1  0.05997000  0.19604000  0.52865000  1.0
  C  C77  1  0.94003000  0.80396000  0.47135000  1.0
  C  C78  1  0.96748000  0.28800000  0.53073000  1.0
  C  C79  1  0.03252000  0.71200000  0.46927000  1.0
  C  C80  1  0.87947000  0.26907000  0.35860000  1.0
  C  C81  1  0.12053000  0.73093000  0.64140000  1.0
  C  C82  1  0.75392000  0.15174000  0.32995000  1.0
  C  C83  1  0.24608000  0.84826000  0.67005000  1.0
  C  C84  1  0.76867000  0.07595000  0.23078000  1.0
  C  C85  1  0.23134000  0.92405000  0.76923000  1.0
  C  C86  1  0.63506000  0.97632000  0.18851000  1.0
  C  C87  1  0.36494000  0.02368000  0.81149000  1.0
  C  C88  1  0.65324000  0.91862000  0.08476000  1.0
  C  C89  1  0.34676000  0.08138000  0.91524000  1.0
  C  C90  1  0.53002000  0.80860000  0.03869000  1.0
  C  C91  1  0.46998000  0.19140000  0.96131000  1.0
  C  C92  1  0.28525000  0.73283000  0.16713000  1.0
  C  C93  1  0.71475000  0.26717000  0.83287000  1.0
  C  C94  1  0.40400000  0.65878000  0.15147000  1.0
  C  C95  1  0.59600000  0.34122000  0.84853000  1.0
  C  C96  1  0.60076000  0.60122000  0.09244000  1.0
  C  C97  1  0.39923000  0.39878000  0.90756000  1.0
  C  C98  1  0.72405000  0.58848000  0.04491000  1.0
  C  C99  1  0.27595000  0.41151000  0.95509000  1.0
  C  C100  1  0.79343000  0.48611000  0.06681000  1.0
  C  C101  1  0.20657000  0.51389000  0.93319000  1.0
  C  C102  1  0.74034000  0.39925000  0.13250000  1.0
  C  C103  1  0.25966000  0.60075000  0.86750000  1.0
  C  C104  1  0.61585000  0.41083000  0.17880000  1.0
  C  C105  1  0.38415000  0.58916000  0.82120000  1.0
  C  C106  1  0.54587000  0.51422000  0.15844000  1.0
  C  C107  1  0.45413000  0.48578000  0.84156000  1.0
  C  C108  1  0.90465000  0.76079000  0.85690000  1.0
  C  C109  1  0.09535000  0.23921000  0.14310000  1.0
  C  C110  1  0.95350000  0.88605000  0.92967000  1.0
  C  C111  1  0.04650000  0.11396000  0.07033000  1.0
  C  C112  1  0.02386000  0.87278000  0.01515000  1.0
  C  C113  1  0.97614000  0.12722000  0.98485000  1.0
  C  C114  1  0.07008000  0.98519000  0.08485000  1.0
  C  C115  1  0.92993000  0.01481000  0.91515000  1.0
  C  C116  1  0.63720000  0.85250000  0.62435000  1.0
  C  C117  1  0.36279000  0.14751000  0.37566000  1.0
  C  C118  1  0.57029000  0.93057000  0.55939000  1.0
  C  C119  1  0.42971000  0.06943000  0.44062000  1.0
  C  C120  1  0.48683000  0.85877000  0.47891000  1.0
  C  C121  1  0.51316000  0.14123000  0.52109000  1.0
  C  C122  1  0.58365000  0.07245000  0.57987000  1.0
  C  C123  1  0.41635000  0.92755000  0.42013000  1.0
  N  N124  1  0.84383000  0.44742000  0.59623000  1.0
  N  N125  1  0.15617000  0.55258000  0.40377000  1.0
  N  N126  1  0.88555000  0.32427000  0.45970000  1.0
  N  N127  1  0.11445000  0.67573000  0.54030000  1.0
  N  N128  1  0.50803000  0.69112000  0.08947000  1.0
  N  N129  1  0.49198000  0.30888000  0.91053000  1.0
  N  N130  1  0.42319000  0.55257000  0.19350000  1.0
  N  N131  1  0.57682000  0.44743000  0.80650000  1.0
  O  O132  1  0.82537000  0.77154000  0.78378000  1.0
  O  O133  1  0.17463000  0.22846000  0.21622000  1.0
  O  O134  1  0.93994000  0.65127000  0.87041000  1.0
  O  O135  1  0.06007000  0.34874000  0.12959000  1.0
  O  O136  1  0.60912000  0.72636000  0.61428000  1.0
  O  O137  1  0.39088000  0.27364000  0.38572000  1.0
  O  O138  1  0.72471000  0.92984000  0.69313000  1.0
  O  O139  1  0.27529000  0.07016000  0.30688000  1.0
