# generated using pymatgen
data_Zn4H8C30Cl4O13
_symmetry_space_group_name_H-M   'P 1'
_cell_length_a   18.50090000
_cell_length_b   18.50100000
_cell_length_c   18.96886292
_cell_angle_alpha   60.80422304
_cell_angle_beta   60.82500748
_cell_angle_gamma   90.00360000
_symmetry_Int_Tables_number   1
_chemical_formula_structural   Zn4H8C30Cl4O13
_chemical_formula_sum   'Zn8 H16 C60 Cl8 O26'
_cell_volume   4701.71976841
_cell_formula_units_Z   2
loop_
 _symmetry_equiv_pos_site_id
 _symmetry_equiv_pos_as_xyz
  1  'x, y, z'
loop_
 _atom_site_type_symbol
 _atom_site_label
 _atom_site_symmetry_multiplicity
 _atom_site_fract_x
 _atom_site_fract_y
 _atom_site_fract_z
 _atom_site_occupancy
  Zn  Zn0  1  0.87045000  0.45866000  0.08259000  1.0
  Zn  Zn1  1  0.62769000  0.03604000  0.92787000  1.0
  Zn  Zn2  1  0.03606000  0.62767000  0.92786000  1.0
  Zn  Zn3  1  0.44447000  0.03608000  0.92786000  1.0
  Zn  Zn4  1  0.03609000  0.44444000  0.92787000  1.0
  Zn  Zn5  1  0.45873000  0.87038000  0.08257000  1.0
  Zn  Zn6  1  0.04705000  0.45870000  0.08256000  1.0
  Zn  Zn7  1  0.45875000  0.04696000  0.08259000  1.0
  H  H8  1  0.72496000  0.62969000  0.14006000  1.0
  H  H9  1  0.23014000  0.72505000  0.13998000  1.0
  H  H10  1  0.13508000  0.23014000  0.14006000  1.0
  H  H11  1  0.62983000  0.13503000  0.13997000  1.0
  H  H12  1  0.13497000  0.62988000  0.13998000  1.0
  H  H13  1  0.62980000  0.72486000  0.14006000  1.0
  H  H14  1  0.72499000  0.23020000  0.13997000  1.0
  H  H15  1  0.23025000  0.13498000  0.14006000  1.0
  H  H16  1  0.93191000  0.83666000  0.65160000  1.0
  H  H17  1  0.51175000  0.93198000  0.65156000  1.0
  H  H18  1  0.41654000  0.51185000  0.65162000  1.0
  H  H19  1  0.83653000  0.41664000  0.65153000  1.0
  H  H20  1  0.41646000  0.83669000  0.65156000  1.0
  H  H21  1  0.83653000  0.93184000  0.65162000  1.0
  H  H22  1  0.93183000  0.51194000  0.65153000  1.0
  H  H23  1  0.51174000  0.41649000  0.65160000  1.0
  C  C24  1  0.12550000  0.62548000  0.74898000  1.0
  C  C25  1  0.22255000  0.72259000  0.55484000  1.0
  C  C26  1  0.32173000  0.21374000  0.98575000  1.0
  C  C27  1  0.73394000  0.68032000  0.07184000  1.0
  C  C28  1  0.24773000  0.73405000  0.07175000  1.0
  C  C29  1  0.19430000  0.24776000  0.07183000  1.0
  C  C30  1  0.68045000  0.19427000  0.07174000  1.0
  C  C31  1  0.19420000  0.68052000  0.07175000  1.0
  C  C32  1  0.68041000  0.73387000  0.07183000  1.0
  C  C33  1  0.73399000  0.24781000  0.07174000  1.0
  C  C34  1  0.24783000  0.19422000  0.07184000  1.0
  C  C35  1  0.72257000  0.22261000  0.55484000  1.0
  C  C36  1  0.81634000  0.31616000  0.36754000  1.0
  C  C37  1  0.31630000  0.81613000  0.36754000  1.0
  C  C38  1  0.67806000  0.17809000  0.64388000  1.0
  C  C39  1  0.17803000  0.67806000  0.64389000  1.0
  C  C40  1  0.86881000  0.36860000  0.26259000  1.0
  C  C41  1  0.36881000  0.86860000  0.26259000  1.0
  C  C42  1  0.62554000  0.12552000  0.74898000  1.0
  C  C43  1  0.85915000  0.36604000  0.99636000  1.0
  C  C44  1  0.63760000  0.85908000  0.99640000  1.0
  C  C45  1  0.14442000  0.63768000  0.99636000  1.0
  C  C46  1  0.36600000  0.14442000  0.99644000  1.0
  C  C47  1  0.14452000  0.36600000  0.99640000  1.0
  C  C48  1  0.36596000  0.85922000  0.99636000  1.0
  C  C49  1  0.85914000  0.63754000  0.99645000  1.0
  C  C50  1  0.63760000  0.14449000  0.99636000  1.0
  C  C51  1  0.87174000  0.76533000  0.80536000  1.0
  C  C52  1  0.42933000  0.87176000  0.80533000  1.0
  C  C53  1  0.32297000  0.42936000  0.80538000  1.0
  C  C54  1  0.76528000  0.32302000  0.80529000  1.0
  C  C55  1  0.32291000  0.76535000  0.80533000  1.0
  C  C56  1  0.76526000  0.87165000  0.80538000  1.0
  C  C57  1  0.87169000  0.42943000  0.80529000  1.0
  C  C58  1  0.42931000  0.32290000  0.80536000  1.0
  C  C59  1  0.77174000  0.27170000  0.45658000  1.0
  C  C60  1  0.88404000  0.83064000  0.71889000  1.0
  C  C61  1  0.45047000  0.88411000  0.71885000  1.0
  C  C62  1  0.39709000  0.45052000  0.71890000  1.0
  C  C63  1  0.83056000  0.39720000  0.71881000  1.0
  C  C64  1  0.39704000  0.83068000  0.71885000  1.0
  C  C65  1  0.83058000  0.88402000  0.71889000  1.0
  C  C66  1  0.88399000  0.45063000  0.71881000  1.0
  C  C67  1  0.27172000  0.77167000  0.45659000  1.0
  C  C68  1  0.45047000  0.39706000  0.71889000  1.0
  C  C69  1  0.75614000  0.81186000  0.89537000  1.0
  C  C70  1  0.29272000  0.75621000  0.89532000  1.0
  C  C71  1  0.34850000  0.29271000  0.89537000  1.0
  C  C72  1  0.81192000  0.34856000  0.89528000  1.0
  C  C73  1  0.34847000  0.81196000  0.89532000  1.0
  C  C74  1  0.81192000  0.75613000  0.89537000  1.0
  C  C75  1  0.75616000  0.29280000  0.89528000  1.0
  C  C76  1  0.29277000  0.34849000  0.89537000  1.0
  C  C77  1  0.80051000  0.69252000  0.98575000  1.0
  C  C78  1  0.32166000  0.80060000  0.98567000  1.0
  C  C79  1  0.21382000  0.32169000  0.98574000  1.0
  C  C80  1  0.69260000  0.21381000  0.98565000  1.0
  C  C81  1  0.21373000  0.69266000  0.98567000  1.0
  C  C82  1  0.69257000  0.80044000  0.98574000  1.0
  C  C83  1  0.80053000  0.32175000  0.98565000  1.0
  Cl  Cl84  1  0.92599000  0.69051000  0.79876000  1.0
  Cl  Cl85  1  0.51073000  0.92599000  0.79877000  1.0
  Cl  Cl86  1  0.27534000  0.51079000  0.79880000  1.0
  Cl  Cl87  1  0.69047000  0.27532000  0.79870000  1.0
  Cl  Cl88  1  0.27524000  0.69051000  0.79876000  1.0
  Cl  Cl89  1  0.69041000  0.92586000  0.79880000  1.0
  Cl  Cl90  1  0.92598000  0.51082000  0.79870000  1.0
  Cl  Cl91  1  0.51073000  0.27525000  0.79876000  1.0
  O  O92  1  0.99870000  0.49866000  0.00264000  1.0
  O  O93  1  0.54340000  0.10545000  0.78917000  1.0
  O  O94  1  0.10547000  0.54335000  0.78914000  1.0
  O  O95  1  0.66751000  0.10539000  0.78914000  1.0
  O  O96  1  0.82708000  0.38880000  0.22203000  1.0
  O  O97  1  0.38902000  0.82688000  0.22203000  1.0
  O  O98  1  0.95109000  0.38895000  0.22202000  1.0
  O  O99  1  0.38917000  0.95089000  0.22203000  1.0
  O  O100  1  0.49870000  0.99866000  0.00264000  1.0
  O  O101  1  0.93882000  0.36909000  0.95405000  1.0
  O  O102  1  0.67687000  0.93875000  0.95408000  1.0
  O  O103  1  0.10707000  0.67697000  0.95403000  1.0
  O  O104  1  0.36906000  0.10710000  0.95409000  1.0
  O  O105  1  0.10717000  0.36905000  0.95407000  1.0
  O  O106  1  0.36900000  0.93890000  0.95403000  1.0
  O  O107  1  0.93881000  0.67684000  0.95410000  1.0
  O  O108  1  0.67686000  0.10714000  0.95405000  1.0
  O  O109  1  0.12476000  0.55559000  0.05374000  1.0
  O  O110  1  0.39070000  0.12473000  0.05384000  1.0
  O  O111  1  0.82143000  0.39072000  0.05375000  1.0
  O  O112  1  0.55552000  0.82138000  0.05374000  1.0
  O  O113  1  0.82143000  0.55546000  0.05384000  1.0
  O  O114  1  0.55553000  0.12482000  0.05375000  1.0
  O  O115  1  0.12488000  0.39074000  0.05374000  1.0
  O  O116  1  0.39066000  0.82150000  0.05375000  1.0
  O  O117  1  0.10538000  0.66743000  0.78917000  1.0
