# generated using pymatgen
data_HgH8C10S(IN)2
_symmetry_space_group_name_H-M   'P 1'
_cell_length_a   5.48534000
_cell_length_b   11.92970000
_cell_length_c   21.53150000
_cell_angle_alpha   90.00000000
_cell_angle_beta   92.20460000
_cell_angle_gamma   90.00000000
_symmetry_Int_Tables_number   1
_chemical_formula_structural   HgH8C10S(IN)2
_chemical_formula_sum   'Hg4 H32 C40 S4 I8 N8'
_cell_volume   1407.94532528
_cell_formula_units_Z   4
loop_
 _symmetry_equiv_pos_site_id
 _symmetry_equiv_pos_as_xyz
  1  'x, y, z'
loop_
 _atom_site_type_symbol
 _atom_site_label
 _atom_site_symmetry_multiplicity
 _atom_site_fract_x
 _atom_site_fract_y
 _atom_site_fract_z
 _atom_site_occupancy
  Hg  Hg0  1  0.51528000  0.69820000  0.63900000  1.0
  Hg  Hg1  1  0.48472000  0.19820000  0.86100000  1.0
  Hg  Hg2  1  0.48472000  0.30180000  0.36100000  1.0
  Hg  Hg3  1  0.51528000  0.80180000  0.13900000  1.0
  H  H4  1  0.98418000  0.59935000  0.56408000  1.0
  H  H5  1  0.01582000  0.09935000  0.93592000  1.0
  H  H6  1  0.01582000  0.40065000  0.43592000  1.0
  H  H7  1  0.98418000  0.90065000  0.06408000  1.0
  H  H8  1  0.27745000  0.64757000  0.48236000  1.0
  H  H9  1  0.72255000  0.14757000  0.01764000  1.0
  H  H10  1  0.72256000  0.35243000  0.51764000  1.0
  H  H11  1  0.27744000  0.85243000  0.98236000  1.0
  H  H12  1  0.86365000  0.95225000  0.44863000  1.0
  H  H13  1  0.13635000  0.45225000  0.05137000  1.0
  H  H14  1  0.13636000  0.04775000  0.55137000  1.0
  H  H15  1  0.86365000  0.54775000  0.94863000  1.0
  H  H16  1  0.60088000  0.89562000  0.53668000  1.0
  H  H17  1  0.39912000  0.39562000  0.96332000  1.0
  H  H18  1  0.39913000  0.10438000  0.46331000  1.0
  H  H19  1  0.60087000  0.60438000  0.03668000  1.0
  H  H20  1  0.62616000  0.68593000  0.27100000  1.0
  H  H21  1  0.37383000  0.18593000  0.22900000  1.0
  H  H22  1  0.37383000  0.31407000  0.72900000  1.0
  H  H23  1  0.62617000  0.81407000  0.77100000  1.0
  H  H24  1  0.88358000  0.69623000  0.36776000  1.0
  H  H25  1  0.11642000  0.19623000  0.13224000  1.0
  H  H26  1  0.11642000  0.30377000  0.63224000  1.0
  H  H27  1  0.88359000  0.80377000  0.86776000  1.0
  H  H28  1  0.28583000  0.96596000  0.28336000  1.0
  H  H29  1  0.71417000  0.46596000  0.21664000  1.0
  H  H30  1  0.71417000  0.03404000  0.71664000  1.0
  H  H31  1  0.28584000  0.53404000  0.78336000  1.0
  H  H32  1  0.00484000  0.94596000  0.19015000  1.0
  H  H33  1  0.99516000  0.44596000  0.30985000  1.0
  H  H34  1  0.99516000  0.05404000  0.80985000  1.0
  H  H35  1  0.00484000  0.55404000  0.69015000  1.0
  C  C36  1  0.96662000  0.67812000  0.53843000  1.0
  C  C37  1  0.03337000  0.17812000  0.96157000  1.0
  C  C38  1  0.03338000  0.32188000  0.46157000  1.0
  C  C39  1  0.96663000  0.82188000  0.03843000  1.0
  C  C40  1  0.12954000  0.70493000  0.49251000  1.0
  C  C41  1  0.87047000  0.20493000  0.00749000  1.0
  C  C42  1  0.87047000  0.29507000  0.50749000  1.0
  C  C43  1  0.12954000  0.79507000  0.99251000  1.0
  C  C44  1  0.09330000  0.80445000  0.45924000  1.0
  C  C45  1  0.90670000  0.30445000  0.04076000  1.0
  C  C46  1  0.90670000  0.19555000  0.54076000  1.0
  C  C47  1  0.09330000  0.69555000  0.95923000  1.0
  C  C48  1  0.89840000  0.87435000  0.47397000  1.0
  C  C49  1  0.10160000  0.37435000  0.02603000  1.0
  C  C50  1  0.10160000  0.12565000  0.52603000  1.0
  C  C51  1  0.89839000  0.62565000  0.97397000  1.0
  C  C52  1  0.75003000  0.84237000  0.52181000  1.0
  C  C53  1  0.24997000  0.34237000  0.97819000  1.0
  C  C54  1  0.24997000  0.15763000  0.47819000  1.0
  C  C55  1  0.75003000  0.65763000  0.02181000  1.0
  C  C56  1  0.77331000  0.74754000  0.27565000  1.0
  C  C57  1  0.22669000  0.24754000  0.22435000  1.0
  C  C58  1  0.22669000  0.25246000  0.72435000  1.0
  C  C59  1  0.77331000  0.75246000  0.77565000  1.0
  C  C60  1  0.91778000  0.75369000  0.32981000  1.0
  C  C61  1  0.08222000  0.25369000  0.17019000  1.0
  C  C62  1  0.08222000  0.24631000  0.67019000  1.0
  C  C63  1  0.91778000  0.74631000  0.82981000  1.0
  C  C64  1  0.10508000  0.83353000  0.33398000  1.0
  C  C65  1  0.89492000  0.33353000  0.16602000  1.0
  C  C66  1  0.89492000  0.16647000  0.66602000  1.0
  C  C67  1  0.10508000  0.66647000  0.83398000  1.0
  C  C68  1  0.14273000  0.90244000  0.28240000  1.0
  C  C69  1  0.85727000  0.40244000  0.21760000  1.0
  C  C70  1  0.85727000  0.09756000  0.71760000  1.0
  C  C71  1  0.14273000  0.59756000  0.78240000  1.0
  C  C72  1  0.98673000  0.89097000  0.23024000  1.0
  C  C73  1  0.01327000  0.39097000  0.26976000  1.0
  C  C74  1  0.01327000  0.10903000  0.76976000  1.0
  C  C75  1  0.98673000  0.60903000  0.73024000  1.0
  S  S76  1  0.29694000  0.84644000  0.40112000  1.0
  S  S77  1  0.70306000  0.34644000  0.09888000  1.0
  S  S78  1  0.70306000  0.15356000  0.59888000  1.0
  S  S79  1  0.29694000  0.65356000  0.90112000  1.0
  I  I80  1  0.48072000  0.47588000  0.61239000  1.0
  I  I81  1  0.51928000  0.97588000  0.88761000  1.0
  I  I82  1  0.51928000  0.52412000  0.38761000  1.0
  I  I83  1  0.48072000  0.02412000  0.11239000  1.0
  I  I84  1  0.28234000  0.89297000  0.65965000  1.0
  I  I85  1  0.71766000  0.39297000  0.84035000  1.0
  I  I86  1  0.71766000  0.10703000  0.34035000  1.0
  I  I87  1  0.28234000  0.60703000  0.15965000  1.0
  N  N88  1  0.78266000  0.74582000  0.55306000  1.0
  N  N89  1  0.21735000  0.24582000  0.94694000  1.0
  N  N90  1  0.21735000  0.25418000  0.44694000  1.0
  N  N91  1  0.78265000  0.75418000  0.05306000  1.0
  N  N92  1  0.80503000  0.81546000  0.22683000  1.0
  N  N93  1  0.19497000  0.31546000  0.27317000  1.0
  N  N94  1  0.19497000  0.18454000  0.77317000  1.0
  N  N95  1  0.80504000  0.68454000  0.72683000  1.0
