# generated using pymatgen
data_ErH9C5(NO4)2
_symmetry_space_group_name_H-M   'P 1'
_cell_length_a   6.53094000
_cell_length_b   6.66284000
_cell_length_c   6.66251000
_cell_angle_alpha   64.41890000
_cell_angle_beta   73.16130000
_cell_angle_gamma   73.16220000
_symmetry_Int_Tables_number   1
_chemical_formula_structural   ErH9C5(NO4)2
_chemical_formula_sum   'Er1 H9 C5 N2 O8'
_cell_volume   245.69505771
_cell_formula_units_Z   1
loop_
 _symmetry_equiv_pos_site_id
 _symmetry_equiv_pos_as_xyz
  1  'x, y, z'
loop_
 _atom_site_type_symbol
 _atom_site_label
 _atom_site_symmetry_multiplicity
 _atom_site_fract_x
 _atom_site_fract_y
 _atom_site_fract_z
 _atom_site_occupancy
  Er  Er0  1  0.00001000  0.99612000  0.00388000  1.0
  H  H1  1  0.87051000  0.46941000  0.15679000  1.0
  H  H2  1  0.12945000  0.84323000  0.53064000  1.0
  H  H3  1  0.50004000  0.08064000  0.91931000  1.0
  H  H4  1  0.17536000  0.44761000  0.53641000  1.0
  H  H5  1  0.82462000  0.46351000  0.55246000  1.0
  H  H6  1  0.59870000  0.20076000  0.36099000  1.0
  H  H7  1  0.40133000  0.63900000  0.79923000  1.0
  H  H8  1  0.46972000  0.49367000  0.26164000  1.0
  H  H9  1  0.53031000  0.73826000  0.50635000  1.0
  C  C10  1  0.03813000  0.46749000  0.05490000  1.0
  C  C11  1  0.96188000  0.94510000  0.53253000  1.0
  C  C12  1  0.50001000  0.92612000  0.07387000  1.0
  C  C13  1  0.29511000  0.29244000  0.53451000  1.0
  C  C14  1  0.70489000  0.46546000  0.70759000  1.0
  N  N15  1  0.46811000  0.32941000  0.37174000  1.0
  N  N16  1  0.53190000  0.62821000  0.67063000  1.0
  O  O17  1  0.12964000  0.30615000  0.99022000  1.0
  O  O18  1  0.87034000  0.00985000  0.69382000  1.0
  O  O19  1  0.12529000  0.63423000  0.01123000  1.0
  O  O20  1  0.87470000  0.98874000  0.36579000  1.0
  O  O21  1  0.33188000  0.83552000  0.15191000  1.0
  O  O22  1  0.66811000  0.84807000  0.16452000  1.0
  O  O23  1  0.26271000  0.10000000  0.67843000  1.0
  O  O24  1  0.73728000  0.32159000  0.90002000  1.0
