# generated using pymatgen
data_ZnH10C12I2(N2O)2
_symmetry_space_group_name_H-M   'P 1'
_cell_length_a   7.09511000
_cell_length_b   13.32640000
_cell_length_c   23.62570000
_cell_angle_alpha   89.99720000
_cell_angle_beta   85.96900000
_cell_angle_gamma   89.99810000
_symmetry_Int_Tables_number   1
_chemical_formula_structural   ZnH10C12I2(N2O)2
_chemical_formula_sum   'Zn4 H40 C48 I8 N16 O8'
_cell_volume   2228.33743794
_cell_formula_units_Z   4
loop_
 _symmetry_equiv_pos_site_id
 _symmetry_equiv_pos_as_xyz
  1  'x, y, z'
loop_
 _atom_site_type_symbol
 _atom_site_label
 _atom_site_symmetry_multiplicity
 _atom_site_fract_x
 _atom_site_fract_y
 _atom_site_fract_z
 _atom_site_occupancy
  Zn  Zn0  1  0.60645000  0.14289000  0.21176000  1.0
  Zn  Zn1  1  0.89352000  0.64289000  0.28825000  1.0
  Zn  Zn2  1  0.39359000  0.85711000  0.78825000  1.0
  Zn  Zn3  1  0.10647000  0.35711000  0.71175000  1.0
  H  H4  1  0.95603000  0.29455000  0.02168000  1.0
  H  H5  1  0.54396000  0.79455000  0.47831000  1.0
  H  H6  1  0.04396000  0.70544000  0.97831000  1.0
  H  H7  1  0.45602000  0.20544000  0.52169000  1.0
  H  H8  1  0.37668000  0.47532000  0.95383000  1.0
  H  H9  1  0.12329000  0.97532000  0.54617000  1.0
  H  H10  1  0.62332000  0.52467000  0.04617000  1.0
  H  H11  1  0.87669000  0.02466000  0.45384000  1.0
  H  H12  1  0.80530000  0.31235000  0.26378000  1.0
  H  H13  1  0.69465000  0.81235000  0.23622000  1.0
  H  H14  1  0.19475000  0.68768000  0.73622000  1.0
  H  H15  1  0.30534000  0.18765000  0.76379000  1.0
  H  H16  1  0.03478000  0.44695000  0.23412000  1.0
  H  H17  1  0.46516000  0.94695000  0.26587000  1.0
  H  H18  1  0.96524000  0.55309000  0.76587000  1.0
  H  H19  1  0.53484000  0.05306000  0.73413000  1.0
  H  H20  1  0.13773000  0.46656000  0.13088000  1.0
  H  H21  1  0.36223000  0.96656000  0.36911000  1.0
  H  H22  1  0.86229000  0.53344000  0.86910000  1.0
  H  H23  1  0.63775000  0.03343000  0.63090000  1.0
  H  H24  1  0.79185000  0.20702000  0.09883000  1.0
  H  H25  1  0.70812000  0.70702000  0.40117000  1.0
  H  H26  1  0.20815000  0.79298000  0.90117000  1.0
  H  H27  1  0.29187000  0.29297000  0.59883000  1.0
  H  H28  1  0.54768000  0.55885000  0.88277000  1.0
  H  H29  1  0.95233000  0.05887000  0.61724000  1.0
  H  H30  1  0.45231000  0.44116000  0.11723000  1.0
  H  H31  1  0.04765000  0.94111000  0.38276000  1.0
  H  H32  1  0.62161000  0.58685000  0.77812000  1.0
  H  H33  1  0.87845000  0.08688000  0.72189000  1.0
  H  H34  1  0.37839000  0.41315000  0.22188000  1.0
  H  H35  1  0.12156000  0.91312000  0.27812000  1.0
  H  H36  1  0.44193000  0.48809000  0.70946000  1.0
  H  H37  1  0.05812000  0.98809000  0.79054000  1.0
  H  H38  1  0.55805000  0.51193000  0.29053000  1.0
  H  H39  1  0.94191000  0.01192000  0.20946000  1.0
  H  H40  1  0.12893000  0.34121000  0.83986000  1.0
  H  H41  1  0.37107000  0.84122000  0.66014000  1.0
  H  H42  1  0.87106000  0.65879000  0.16014000  1.0
  H  H43  1  0.62893000  0.15878000  0.33987000  1.0
  C  C44  1  0.85641000  0.32106000  0.21943000  1.0
  C  C45  1  0.64355000  0.82106000  0.28056000  1.0
  C  C46  1  0.14362000  0.67896000  0.78057000  1.0
  C  C47  1  0.35645000  0.17894000  0.71944000  1.0
  C  C48  1  0.98423000  0.39606000  0.20242000  1.0
  C  C49  1  0.51572000  0.89606000  0.29758000  1.0
  C  C50  1  0.01579000  0.60396000  0.79757000  1.0
  C  C51  1  0.48428000  0.10394000  0.70243000  1.0
  C  C52  1  0.04292000  0.40638000  0.14535000  1.0
  C  C53  1  0.45704000  0.90638000  0.35464000  1.0
  C  C54  1  0.95710000  0.59363000  0.85464000  1.0
  C  C55  1  0.54296000  0.09361000  0.64537000  1.0
  C  C56  1  0.97519000  0.33765000  0.10656000  1.0
  C  C57  1  0.52478000  0.83766000  0.39343000  1.0
  C  C58  1  0.02482000  0.66235000  0.89343000  1.0
  C  C59  1  0.47521000  0.16234000  0.60657000  1.0
  C  C60  1  0.84802000  0.26339000  0.12687000  1.0
  C  C61  1  0.65194000  0.76339000  0.37313000  1.0
  C  C62  1  0.15200000  0.73662000  0.87314000  1.0
  C  C63  1  0.34805000  0.23661000  0.62687000  1.0
  C  C64  1  0.16206000  0.39555000  0.01997000  1.0
  C  C65  1  0.33789000  0.89554000  0.48003000  1.0
  C  C66  1  0.83793000  0.60445000  0.98003000  1.0
  C  C67  1  0.66209000  0.10446000  0.51997000  1.0
  C  C68  1  0.16244000  0.37755000  0.95554000  1.0
  C  C69  1  0.33754000  0.87756000  0.54446000  1.0
  C  C70  1  0.83755000  0.62244000  0.04445000  1.0
  C  C71  1  0.66244000  0.12243000  0.45555000  1.0
  C  C72  1  0.33774000  0.44603000  0.86916000  1.0
  C  C73  1  0.16227000  0.94604000  0.63084000  1.0
  C  C74  1  0.66225000  0.55397000  0.13084000  1.0
  C  C75  1  0.83773000  0.05394000  0.36916000  1.0
  C  C76  1  0.47528000  0.51687000  0.85115000  1.0
  C  C77  1  0.02474000  0.01690000  0.64885000  1.0
  C  C78  1  0.52471000  0.48313000  0.14885000  1.0
  C  C79  1  0.97525000  0.98309000  0.35115000  1.0
  C  C80  1  0.51747000  0.53143000  0.79360000  1.0
  C  C81  1  0.98257000  0.03145000  0.70640000  1.0
  C  C82  1  0.48252000  0.46857000  0.20639000  1.0
  C  C83  1  0.01743000  0.96855000  0.29361000  1.0
  C  C84  1  0.41776000  0.47721000  0.75516000  1.0
  C  C85  1  0.08228000  0.97722000  0.74484000  1.0
  C  C86  1  0.58222000  0.52280000  0.24484000  1.0
  C  C87  1  0.91774000  0.02279000  0.25516000  1.0
  C  C88  1  0.24216000  0.39423000  0.82824000  1.0
  C  C89  1  0.25786000  0.89424000  0.67176000  1.0
  C  C90  1  0.75784000  0.60578000  0.17176000  1.0
  C  C91  1  0.74215000  0.10576000  0.32824000  1.0
  I  I92  1  0.31306000  0.21128000  0.26794000  1.0
  I  I93  1  0.18692000  0.71127000  0.23206000  1.0
  I  I94  1  0.68696000  0.78872000  0.73206000  1.0
  I  I95  1  0.81308000  0.28873000  0.76794000  1.0
  I  I96  1  0.58663000  0.01142000  0.13413000  1.0
  I  I97  1  0.91336000  0.51142000  0.36587000  1.0
  I  I98  1  0.41344000  0.98857000  0.86588000  1.0
  I  I99  1  0.08663000  0.48859000  0.63412000  1.0
  N  N100  1  0.78939000  0.25655000  0.18189000  1.0
  N  N101  1  0.71057000  0.75655000  0.31810000  1.0
  N  N102  1  0.21064000  0.74346000  0.81811000  1.0
  N  N103  1  0.28942000  0.24345000  0.68190000  1.0
  N  N104  1  0.02548000  0.34038000  0.04821000  1.0
  N  N105  1  0.47449000  0.84038000  0.45179000  1.0
  N  N106  1  0.97451000  0.65961000  0.95179000  1.0
  N  N107  1  0.52549000  0.15961000  0.54821000  1.0
  N  N108  1  0.29770000  0.43433000  0.92751000  1.0
  N  N109  1  0.20229000  0.93434000  0.57249000  1.0
  N  N110  1  0.70230000  0.56566000  0.07249000  1.0
  N  N111  1  0.79769000  0.06564000  0.42751000  1.0
  N  N112  1  0.28154000  0.41192000  0.77260000  1.0
  N  N113  1  0.21849000  0.91193000  0.72740000  1.0
  N  N114  1  0.71844000  0.58808000  0.22740000  1.0
  N  N115  1  0.78153000  0.08807000  0.27260000  1.0
  O  O116  1  0.27359000  0.45494000  0.04048000  1.0
  O  O117  1  0.22633000  0.95492000  0.45952000  1.0
  O  O118  1  0.72640000  0.54506000  0.95951000  1.0
  O  O119  1  0.77364000  0.04507000  0.54049000  1.0
  O  O120  1  0.04892000  0.31995000  0.93520000  1.0
  O  O121  1  0.45109000  0.81997000  0.56481000  1.0
  O  O122  1  0.95108000  0.68004000  0.06480000  1.0
  O  O123  1  0.54890000  0.18002000  0.43519000  1.0
