# generated using pymatgen
data_SmH6(C2N3)3
_symmetry_space_group_name_H-M   'P 1'
_cell_length_a   8.64954000
_cell_length_b   8.64980000
_cell_length_c   9.35539000
_cell_angle_alpha   62.46440000
_cell_angle_beta   62.46040000
_cell_angle_gamma   59.99680000
_symmetry_Int_Tables_number   1
_chemical_formula_structural   SmH6(C2N3)3
_chemical_formula_sum   'Sm2 H12 C12 N18'
_cell_volume   512.54685932
_cell_formula_units_Z   2
loop_
 _symmetry_equiv_pos_site_id
 _symmetry_equiv_pos_as_xyz
  1  'x, y, z'
loop_
 _atom_site_type_symbol
 _atom_site_label
 _atom_site_symmetry_multiplicity
 _atom_site_fract_x
 _atom_site_fract_y
 _atom_site_fract_z
 _atom_site_occupancy
  Sm  Sm0  1  0.19316000  0.19315000  0.42053000  1.0
  Sm  Sm1  1  0.80684000  0.80685000  0.57947000  1.0
  H  H2  1  0.22554000  0.67612000  0.20460000  1.0
  H  H3  1  0.89389000  0.22539000  0.20463000  1.0
  H  H4  1  0.67609000  0.89379000  0.20464000  1.0
  H  H5  1  0.77446000  0.32388000  0.79540000  1.0
  H  H6  1  0.10611000  0.77461000  0.79537000  1.0
  H  H7  1  0.32391000  0.10621000  0.79536000  1.0
  H  H8  1  0.48719000  0.85099000  0.03625000  1.0
  H  H9  1  0.62570000  0.48714000  0.03630000  1.0
  H  H10  1  0.85084000  0.62554000  0.03641000  1.0
  H  H11  1  0.51281000  0.14901000  0.96375000  1.0
  H  H12  1  0.37430000  0.51286000  0.96370000  1.0
  H  H13  1  0.14916000  0.37447000  0.96359000  1.0
  C  C14  1  0.36382000  0.86968000  0.14490000  1.0
  C  C15  1  0.62170000  0.36377000  0.14493000  1.0
  C  C16  1  0.86953000  0.62156000  0.14504000  1.0
  C  C17  1  0.63618000  0.13032000  0.85510000  1.0
  C  C18  1  0.37830000  0.63623000  0.85507000  1.0
  C  C19  1  0.13047000  0.37844000  0.85496000  1.0
  C  C20  1  0.23343000  0.78304000  0.22800000  1.0
  C  C21  1  0.75563000  0.23334000  0.22802000  1.0
  C  C22  1  0.78296000  0.75555000  0.22808000  1.0
  C  C23  1  0.76657000  0.21696000  0.77200000  1.0
  C  C24  1  0.24436000  0.76666000  0.77198000  1.0
  C  C25  1  0.21705000  0.24445000  0.77192000  1.0
  N  N26  1  0.15473000  0.98088000  0.35144000  1.0
  N  N27  1  0.51300000  0.15473000  0.35143000  1.0
  N  N28  1  0.98086000  0.51296000  0.35147000  1.0
  N  N29  1  0.84527000  0.01912000  0.64856000  1.0
  N  N30  1  0.48700000  0.84527000  0.64857000  1.0
  N  N31  1  0.01914000  0.48704000  0.64853000  1.0
  N  N32  1  0.31081000  0.99286000  0.22472000  1.0
  N  N33  1  0.47169000  0.31082000  0.22474000  1.0
  N  N34  1  0.99273000  0.47157000  0.22484000  1.0
  N  N35  1  0.68919000  0.00714000  0.77528000  1.0
  N  N36  1  0.52831000  0.68918000  0.77526000  1.0
  N  N37  1  0.00727000  0.52843000  0.77516000  1.0
  N  N38  1  0.10471000  0.85470000  0.35685000  1.0
  N  N39  1  0.68381000  0.10464000  0.35684000  1.0
  N  N40  1  0.85472000  0.68377000  0.35685000  1.0
  N  N41  1  0.89529000  0.14530000  0.64315000  1.0
  N  N42  1  0.31619000  0.89536000  0.64316000  1.0
  N  N43  1  0.14528000  0.31623000  0.64315000  1.0
