# generated using pymatgen
data_Zr3H8C24(S3O8)2
_symmetry_space_group_name_H-M   'P 1'
_cell_length_a   16.47510000
_cell_length_b   16.47510000
_cell_length_c   23.29450000
_cell_angle_alpha   90.00270000
_cell_angle_beta   89.99850000
_cell_angle_gamma   89.99730000
_symmetry_Int_Tables_number   1
_chemical_formula_structural   Zr3H8C24(S3O8)2
_chemical_formula_sum   'Zr12 H32 C96 S24 O64'
_cell_volume   6322.80096096
_cell_formula_units_Z   4
loop_
 _symmetry_equiv_pos_site_id
 _symmetry_equiv_pos_as_xyz
  1  'x, y, z'
loop_
 _atom_site_type_symbol
 _atom_site_label
 _atom_site_symmetry_multiplicity
 _atom_site_fract_x
 _atom_site_fract_y
 _atom_site_fract_z
 _atom_site_occupancy
  Zr  Zr0  1  0.60745000  0.39255000  0.49996000  1.0
  Zr  Zr1  1  0.39253000  0.60745000  0.50005000  1.0
  Zr  Zr2  1  0.50004000  0.49996000  0.60742000  1.0
  Zr  Zr3  1  0.49998000  0.50005000  0.39256000  1.0
  Zr  Zr4  1  0.39256000  0.39257000  0.50001000  1.0
  Zr  Zr5  1  0.60745000  0.60745000  0.50000000  1.0
  Zr  Zr6  1  0.10750000  0.10741000  0.99999000  1.0
  Zr  Zr7  1  0.89251000  0.89258000  0.00000000  1.0
  Zr  Zr8  1  0.89256000  0.10749000  0.00005000  1.0
  Zr  Zr9  1  0.10742000  0.89250000  0.99994000  1.0
  Zr  Zr10  1  0.00004000  0.99999000  0.10744000  1.0
  Zr  Zr11  1  0.99997000  0.00004000  0.89256000  1.0
  H  H12  1  0.50002000  0.33105000  0.58442000  1.0
  H  H13  1  0.33105000  0.50002000  0.41558000  1.0
  H  H14  1  0.50001000  0.66892000  0.58446000  1.0
  H  H15  1  0.66892000  0.50000000  0.41554000  1.0
  H  H16  1  0.00005000  0.16892000  0.08446000  1.0
  H  H17  1  0.99997000  0.83105000  0.08443000  1.0
  H  H18  1  0.83105000  0.00004000  0.91557000  1.0
  H  H19  1  0.16892000  0.99999000  0.91554000  1.0
  H  H20  1  0.62868000  0.88965000  0.49954000  1.0
  H  H21  1  0.37132000  0.11035000  0.49959000  1.0
  H  H22  1  0.11035000  0.37132000  0.50041000  1.0
  H  H23  1  0.88965000  0.62868000  0.50046000  1.0
  H  H24  1  0.63112000  0.62990000  0.75922000  1.0
  H  H25  1  0.86979000  0.86923000  0.74083000  1.0
  H  H26  1  0.36977000  0.36920000  0.24078000  1.0
  H  H27  1  0.13110000  0.12987000  0.25917000  1.0
  H  H28  1  0.36923000  0.36974000  0.75921000  1.0
  H  H29  1  0.12985000  0.13112000  0.74082000  1.0
  H  H30  1  0.62987000  0.63115000  0.24078000  1.0
  H  H31  1  0.86926000  0.86976000  0.25917000  1.0
  H  H32  1  0.24129000  0.75961000  0.36959000  1.0
  H  H33  1  0.25943000  0.74112000  0.13048000  1.0
  H  H34  1  0.75959000  0.24127000  0.63041000  1.0
  H  H35  1  0.74145000  0.25977000  0.86952000  1.0
  H  H36  1  0.36904000  0.63004000  0.75914000  1.0
  H  H37  1  0.13009000  0.86905000  0.74082000  1.0
  H  H38  1  0.63007000  0.36907000  0.24086000  1.0
  H  H39  1  0.86902000  0.13006000  0.25919000  1.0
  H  H40  1  0.87132000  0.61037000  0.99959000  1.0
  H  H41  1  0.12868000  0.38963000  0.99953000  1.0
  H  H42  1  0.61035000  0.12862000  0.00062000  1.0
  H  H43  1  0.38964000  0.87138000  0.00026000  1.0
  C  C44  1  0.49963000  0.22734000  0.49797000  1.0
  C  C45  1  0.22734000  0.49963000  0.50203000  1.0
  C  C46  1  0.50036000  0.77266000  0.49808000  1.0
  C  C47  1  0.77266000  0.50037000  0.50193000  1.0
  C  C48  1  0.63855000  0.36550000  0.63613000  1.0
  C  C49  1  0.63414000  0.36183000  0.36349000  1.0
  C  C50  1  0.36550000  0.63856000  0.36387000  1.0
  C  C51  1  0.36184000  0.63414000  0.63651000  1.0
  C  C52  1  0.36188000  0.36584000  0.63655000  1.0
  C  C53  1  0.63818000  0.63409000  0.63655000  1.0
  C  C54  1  0.63410000  0.63818000  0.36344000  1.0
  C  C55  1  0.36583000  0.36189000  0.36345000  1.0
  C  C56  1  0.13823000  0.13404000  0.13652000  1.0
  C  C57  1  0.86184000  0.86589000  0.13652000  1.0
  C  C58  1  0.86579000  0.86193000  0.86348000  1.0
  C  C59  1  0.13413000  0.13814000  0.86348000  1.0
  C  C60  1  0.00037000  0.27266000  0.99807000  1.0
  C  C61  1  0.27266000  0.99966000  0.00194000  1.0
  C  C62  1  0.99962000  0.72734000  0.99797000  1.0
  C  C63  1  0.72733000  0.00034000  0.00202000  1.0
  C  C64  1  0.86188000  0.13419000  0.13654000  1.0
  C  C65  1  0.86553000  0.13859000  0.86384000  1.0
  C  C66  1  0.13410000  0.86180000  0.86346000  1.0
  C  C67  1  0.13851000  0.86546000  0.13616000  1.0
  C  C68  1  0.56684000  0.91268000  0.49964000  1.0
  C  C69  1  0.43316000  0.08733000  0.49966000  1.0
  C  C70  1  0.50001000  0.86176000  0.49910000  1.0
  C  C71  1  0.50000000  0.13824000  0.49903000  1.0
  C  C72  1  0.45733000  0.00522000  0.50005000  1.0
  C  C73  1  0.54267000  0.99479000  0.50001000  1.0
  C  C74  1  0.08733000  0.43316000  0.50034000  1.0
  C  C75  1  0.91267000  0.56684000  0.50036000  1.0
  C  C76  1  0.13824000  0.50000000  0.50097000  1.0
  C  C77  1  0.86176000  0.50001000  0.50090000  1.0
  C  C78  1  0.99478000  0.54267000  0.49999000  1.0
  C  C79  1  0.00521000  0.45733000  0.49994000  1.0
  C  C80  1  0.67334000  0.67252000  0.73981000  1.0
  C  C81  1  0.82738000  0.82679000  0.76023000  1.0
  C  C82  1  0.68178000  0.67993000  0.68093000  1.0
  C  C83  1  0.82000000  0.81828000  0.81910000  1.0
  C  C84  1  0.77388000  0.77398000  0.73126000  1.0
  C  C85  1  0.72609000  0.72610000  0.76878000  1.0
  C  C86  1  0.32737000  0.32676000  0.26019000  1.0
  C  C87  1  0.17333000  0.17248000  0.23977000  1.0
  C  C88  1  0.32003000  0.31825000  0.31907000  1.0
  C  C89  1  0.18182000  0.17990000  0.18089000  1.0
  C  C90  1  0.22607000  0.22606000  0.26874000  1.0
  C  C91  1  0.27386000  0.27394000  0.23122000  1.0
  C  C92  1  0.32678000  0.32735000  0.73980000  1.0
  C  C93  1  0.17248000  0.17333000  0.76022000  1.0
  C  C94  1  0.31824000  0.32004000  0.68093000  1.0
  C  C95  1  0.17996000  0.18175000  0.81910000  1.0
  C  C96  1  0.22605000  0.22608000  0.73126000  1.0
  C  C97  1  0.27396000  0.27384000  0.76877000  1.0
  C  C98  1  0.67250000  0.67336000  0.26019000  1.0
  C  C99  1  0.82680000  0.82738000  0.23977000  1.0
  C  C100  1  0.67994000  0.68177000  0.31906000  1.0
  C  C101  1  0.81820000  0.82007000  0.18089000  1.0
  C  C102  1  0.77399000  0.77387000  0.26873000  1.0
  C  C103  1  0.72606000  0.72611000  0.23122000  1.0
  C  C104  1  0.26059000  0.74013000  0.32715000  1.0
  C  C105  1  0.24006000  0.76054000  0.17291000  1.0
  C  C106  1  0.32000000  0.68183000  0.31917000  1.0
  C  C107  1  0.18179000  0.82000000  0.18088000  1.0
  C  C108  1  0.26867000  0.73123000  0.22608000  1.0
  C  C109  1  0.23126000  0.76870000  0.27397000  1.0
  C  C110  1  0.74011000  0.26057000  0.67285000  1.0
  C  C111  1  0.76064000  0.24018000  0.82708000  1.0
  C  C112  1  0.68184000  0.32001000  0.68083000  1.0
  C  C113  1  0.82003000  0.18184000  0.81911000  1.0
  C  C114  1  0.73127000  0.26872000  0.77391000  1.0
  C  C115  1  0.76868000  0.23124000  0.72603000  1.0
  C  C116  1  0.32671000  0.67256000  0.73975000  1.0
  C  C117  1  0.17259000  0.82670000  0.76021000  1.0
  C  C118  1  0.31821000  0.67998000  0.68087000  1.0
  C  C119  1  0.17994000  0.81818000  0.81909000  1.0
  C  C120  1  0.22611000  0.77394000  0.73122000  1.0
  C  C121  1  0.27394000  0.72608000  0.76874000  1.0
  C  C122  1  0.67258000  0.32673000  0.26025000  1.0
  C  C123  1  0.82670000  0.17258000  0.23979000  1.0
  C  C124  1  0.67997000  0.31820000  0.31913000  1.0
  C  C125  1  0.81825000  0.18000000  0.18091000  1.0
  C  C126  1  0.77392000  0.22610000  0.26878000  1.0
  C  C127  1  0.72611000  0.27397000  0.23126000  1.0
  C  C128  1  0.93316000  0.58733000  0.99966000  1.0
  C  C129  1  0.06684000  0.41267000  0.99963000  1.0
  C  C130  1  0.99999000  0.63824000  0.99903000  1.0
  C  C131  1  0.00001000  0.36176000  0.99910000  1.0
  C  C132  1  0.04266000  0.49478000  0.00001000  1.0
  C  C133  1  0.95733000  0.50522000  0.00005000  1.0
  C  C134  1  0.58732000  0.06680000  0.00042000  1.0
  C  C135  1  0.41267000  0.93320000  0.00029000  1.0
  C  C136  1  0.63823000  0.99995000  0.00095000  1.0
  C  C137  1  0.36176000  0.00005000  0.00092000  1.0
  C  C138  1  0.49478000  0.95734000  0.99993000  1.0
  C  C139  1  0.50520000  0.04267000  0.00000000  1.0
  S  S140  1  0.40770000  0.91308000  0.49957000  1.0
  S  S141  1  0.59230000  0.08692000  0.49935000  1.0
  S  S142  1  0.08692000  0.59230000  0.50065000  1.0
  S  S143  1  0.91307000  0.40770000  0.50043000  1.0
  S  S144  1  0.75311000  0.75217000  0.66040000  1.0
  S  S145  1  0.74785000  0.74687000  0.83965000  1.0
  S  S146  1  0.24792000  0.24679000  0.33960000  1.0
  S  S147  1  0.25319000  0.25208000  0.16035000  1.0
  S  S148  1  0.24676000  0.24795000  0.66039000  1.0
  S  S149  1  0.25226000  0.25301000  0.83964000  1.0
  S  S150  1  0.75220000  0.75308000  0.33960000  1.0
  S  S151  1  0.74667000  0.74804000  0.16035000  1.0
  S  S152  1  0.34009000  0.66090000  0.24736000  1.0
  S  S153  1  0.16095000  0.84014000  0.25269000  1.0
  S  S154  1  0.66096000  0.34015000  0.75264000  1.0
  S  S155  1  0.84008000  0.16090000  0.74731000  1.0
  S  S156  1  0.24682000  0.75216000  0.66034000  1.0
  S  S157  1  0.25206000  0.74671000  0.83961000  1.0
  S  S158  1  0.75213000  0.24679000  0.33966000  1.0
  S  S159  1  0.74690000  0.25225000  0.16039000  1.0
  S  S160  1  0.09230000  0.58692000  0.99935000  1.0
  S  S161  1  0.90770000  0.41308000  0.99957000  1.0
  S  S162  1  0.58690000  0.90765000  0.00048000  1.0
  S  S163  1  0.41309000  0.09235000  0.00061000  1.0
  O  O164  1  0.56905000  0.26252000  0.49785000  1.0
  O  O165  1  0.26252000  0.56904000  0.50215000  1.0
  O  O166  1  0.43095000  0.73748000  0.49801000  1.0
  O  O167  1  0.73748000  0.43095000  0.50200000  1.0
  O  O168  1  0.58640000  0.41791000  0.65332000  1.0
  O  O169  1  0.58192000  0.41391000  0.34637000  1.0
  O  O170  1  0.41791000  0.58641000  0.34668000  1.0
  O  O171  1  0.41391000  0.58192000  0.65362000  1.0
  O  O172  1  0.34461000  0.34880000  0.58426000  1.0
  O  O173  1  0.65542000  0.65117000  0.58427000  1.0
  O  O174  1  0.65117000  0.65542000  0.41573000  1.0
  O  O175  1  0.34879000  0.34461000  0.41573000  1.0
  O  O176  1  0.58615000  0.58184000  0.65363000  1.0
  O  O177  1  0.58184000  0.58614000  0.34636000  1.0
  O  O178  1  0.41802000  0.41399000  0.34636000  1.0
  O  O179  1  0.41399000  0.41802000  0.65364000  1.0
  O  O180  1  0.65564000  0.34852000  0.58397000  1.0
  O  O181  1  0.34461000  0.65116000  0.58422000  1.0
  O  O182  1  0.34852000  0.65565000  0.41603000  1.0
  O  O183  1  0.65116000  0.34461000  0.41578000  1.0
  O  O184  1  0.73757000  0.56961000  0.50201000  1.0
  O  O185  1  0.43039000  0.26243000  0.49796000  1.0
  O  O186  1  0.26243000  0.43039000  0.50204000  1.0
  O  O187  1  0.56961000  0.73757000  0.49799000  1.0
  O  O188  1  0.62083000  0.50003000  0.43951000  1.0
  O  O189  1  0.50003000  0.62083000  0.56049000  1.0
  O  O190  1  0.37912000  0.50002000  0.43956000  1.0
  O  O191  1  0.50002000  0.37913000  0.56044000  1.0
  O  O192  1  0.41082000  0.49997000  0.54462000  1.0
  O  O193  1  0.49997000  0.41083000  0.45538000  1.0
  O  O194  1  0.49997000  0.58923000  0.45544000  1.0
  O  O195  1  0.58923000  0.49997000  0.54456000  1.0
  O  O196  1  0.15548000  0.15106000  0.08424000  1.0
  O  O197  1  0.84456000  0.84890000  0.08423000  1.0
  O  O198  1  0.84874000  0.84471000  0.91576000  1.0
  O  O199  1  0.15122000  0.15532000  0.91577000  1.0
  O  O200  1  0.93093000  0.23750000  0.99801000  1.0
  O  O201  1  0.23759000  0.93041000  0.00196000  1.0
  O  O202  1  0.06906000  0.76250000  0.99785000  1.0
  O  O203  1  0.76240000  0.06959000  0.00209000  1.0
  O  O204  1  0.91393000  0.08194000  0.15364000  1.0
  O  O205  1  0.91792000  0.08643000  0.84667000  1.0
  O  O206  1  0.08190000  0.91390000  0.84636000  1.0
  O  O207  1  0.08638000  0.91789000  0.15334000  1.0
  O  O208  1  0.84855000  0.15576000  0.91599000  1.0
  O  O209  1  0.15111000  0.84452000  0.91574000  1.0
  O  O210  1  0.15561000  0.84842000  0.08401000  1.0
  O  O211  1  0.84467000  0.15127000  0.08426000  1.0
  O  O212  1  0.06959000  0.23755000  0.99798000  1.0
  O  O213  1  0.76253000  0.93094000  0.00210000  1.0
  O  O214  1  0.93041000  0.76245000  0.99795000  1.0
  O  O215  1  0.23746000  0.06907000  0.00206000  1.0
  O  O216  1  0.08185000  0.08613000  0.84638000  1.0
  O  O217  1  0.08616000  0.08182000  0.15362000  1.0
  O  O218  1  0.91397000  0.91804000  0.15363000  1.0
  O  O219  1  0.91801000  0.91400000  0.84637000  1.0
  O  O220  1  0.12083000  0.99996000  0.93950000  1.0
  O  O221  1  0.87912000  0.00009000  0.93956000  1.0
  O  O222  1  0.99998000  0.87912000  0.06044000  1.0
  O  O223  1  0.00006000  0.12083000  0.06049000  1.0
  O  O224  1  0.91082000  0.00003000  0.04462000  1.0
  O  O225  1  0.08923000  0.99991000  0.04456000  1.0
  O  O226  1  0.99992000  0.91082000  0.95538000  1.0
  O  O227  1  0.00002000  0.08923000  0.95544000  1.0
