# generated using pymatgen
data_ZnH8C12(NO2)2
_symmetry_space_group_name_H-M   'P 1'
_cell_length_a   7.85977000
_cell_length_b   7.85981000
_cell_length_c   10.89435361
_cell_angle_alpha   103.82923538
_cell_angle_beta   103.82794563
_cell_angle_gamma   109.71700000
_symmetry_Int_Tables_number   1
_chemical_formula_structural   ZnH8C12(NO2)2
_chemical_formula_sum   'Zn2 H16 C24 N4 O8'
_cell_volume   576.34856865
_cell_formula_units_Z   2
loop_
 _symmetry_equiv_pos_site_id
 _symmetry_equiv_pos_as_xyz
  1  'x, y, z'
loop_
 _atom_site_type_symbol
 _atom_site_label
 _atom_site_symmetry_multiplicity
 _atom_site_fract_x
 _atom_site_fract_y
 _atom_site_fract_z
 _atom_site_occupancy
  Zn  Zn0  1  0.55504000  0.55498000  0.00003000  1.0
  Zn  Zn1  1  0.80498000  0.30503000  0.50002000  1.0
  H  H2  1  0.89909000  0.51269000  0.96305000  1.0
  H  H3  1  0.54980000  0.93603000  0.03695000  1.0
  H  H4  1  0.18602000  0.29979000  0.53694000  1.0
  H  H5  1  0.76267000  0.64909000  0.46305000  1.0
  H  H6  1  0.37327000  0.81309000  0.34167000  1.0
  H  H7  1  0.47120000  0.03133000  0.65824000  1.0
  H  H8  1  0.28135000  0.22123000  0.15824000  1.0
  H  H9  1  0.06310000  0.12327000  0.84167000  1.0
  H  H10  1  0.14486000  0.90285000  0.44428000  1.0
  H  H11  1  0.45873000  0.70047000  0.55575000  1.0
  H  H12  1  0.95049000  0.20875000  0.05575000  1.0
  H  H13  1  0.15283000  0.89485000  0.94427000  1.0
  H  H14  1  0.80364000  0.79970000  0.29501000  1.0
  H  H15  1  0.50481000  0.50855000  0.70502000  1.0
  H  H16  1  0.75855000  0.25482000  0.20502000  1.0
  H  H17  1  0.04968000  0.55363000  0.79500000  1.0
  C  C18  1  0.95915000  0.60299000  0.06942000  1.0
  C  C19  1  0.53369000  0.88962000  0.93058000  1.0
  C  C20  1  0.13962000  0.28368000  0.43057000  1.0
  C  C21  1  0.85298000  0.70915000  0.56942000  1.0
  C  C22  1  0.15124000  0.65577000  0.14459000  1.0
  C  C23  1  0.51116000  0.00645000  0.85535000  1.0
  C  C24  1  0.25645000  0.26117000  0.35534000  1.0
  C  C25  1  0.90577000  0.90123000  0.64459000  1.0
  C  C26  1  0.22226000  0.76753000  0.28171000  1.0
  C  C27  1  0.48580000  0.94038000  0.71823000  1.0
  C  C28  1  0.19039000  0.23582000  0.21823000  1.0
  C  C29  1  0.01754000  0.97226000  0.78171000  1.0
  C  C30  1  0.09592000  0.81746000  0.33766000  1.0
  C  C31  1  0.47996000  0.75815000  0.66236000  1.0
  C  C32  1  0.00815000  0.22998000  0.16235000  1.0
  C  C33  1  0.06745000  0.84591000  0.83765000  1.0
  C  C34  1  0.90633000  0.76132000  0.25564000  1.0
  C  C35  1  0.50579000  0.65056000  0.74437000  1.0
  C  C36  1  0.90057000  0.25579000  0.24436000  1.0
  C  C37  1  0.01132000  0.65633000  0.75564000  1.0
  C  C38  1  0.27052000  0.58596000  0.07474000  1.0
  C  C39  1  0.51114000  0.19548000  0.92531000  1.0
  C  C40  1  0.44547000  0.26114000  0.42530000  1.0
  C  C41  1  0.83595000  0.02051000  0.57473000  1.0
  N  N42  1  0.83990000  0.65644000  0.12287000  1.0
  N  N43  1  0.53369000  0.71694000  0.87715000  1.0
  N  N44  1  0.96694000  0.28369000  0.37714000  1.0
  N  N45  1  0.90644000  0.58990000  0.62287000  1.0
  O  O46  1  0.45446000  0.66451000  0.13791000  1.0
  O  O47  1  0.52703000  0.31658000  0.86239000  1.0
  O  O48  1  0.56658000  0.27701000  0.36238000  1.0
  O  O49  1  0.91450000  0.20445000  0.63790000  1.0
  O  O50  1  0.18855000  0.45819000  0.95908000  1.0
  O  O51  1  0.49838000  0.22865000  0.04076000  1.0
  O  O52  1  0.47865000  0.24839000  0.54076000  1.0
  O  O53  1  0.70819000  0.93854000  0.45908000  1.0
