# generated using pymatgen
data_Zn4H26C36N8O13
_symmetry_space_group_name_H-M   'P 1'
_cell_length_a   15.17560000
_cell_length_b   20.15650000
_cell_length_c   22.54700000
_cell_angle_alpha   91.10850000
_cell_angle_beta   91.42040000
_cell_angle_gamma   91.35100000
_symmetry_Int_Tables_number   1
_chemical_formula_structural   Zn4H26C36N8O13
_chemical_formula_sum   'Zn8 H52 C72 N16 O26'
_cell_volume   6891.42726687
_cell_formula_units_Z   2
loop_
 _symmetry_equiv_pos_site_id
 _symmetry_equiv_pos_as_xyz
  1  'x, y, z'
loop_
 _atom_site_type_symbol
 _atom_site_label
 _atom_site_symmetry_multiplicity
 _atom_site_fract_x
 _atom_site_fract_y
 _atom_site_fract_z
 _atom_site_occupancy
  Zn  Zn0  1  0.57439000  0.58021000  0.99084000  1.0
  Zn  Zn1  1  0.56935000  0.07982000  0.49029000  1.0
  Zn  Zn2  1  0.58389000  0.42001000  0.00379000  1.0
  Zn  Zn3  1  0.58062000  0.91935000  0.50424000  1.0
  Zn  Zn4  1  0.42542000  0.49412000  0.93356000  1.0
  Zn  Zn5  1  0.43744000  0.49594000  0.07264000  1.0
  Zn  Zn6  1  0.42060000  0.99296000  0.43448000  1.0
  Zn  Zn7  1  0.43305000  0.99406000  0.57270000  1.0
  H  H8  1  0.99982000  0.61864000  0.94039000  1.0
  H  H9  1  0.99624000  0.11851000  0.43897000  1.0
  H  H10  1  0.17133000  0.38783000  0.05166000  1.0
  H  H11  1  0.16562000  0.89314000  0.56014000  1.0
  H  H12  1  0.47042000  0.35047000  0.66130000  1.0
  H  H13  1  0.30599000  0.24183000  0.24794000  1.0
  H  H14  1  0.47521000  0.85298000  0.16152000  1.0
  H  H15  1  0.30898000  0.75193000  0.75759000  1.0
  H  H16  1  0.51650000  0.61973000  0.21868000  1.0
  H  H17  1  0.60259000  0.68161000  0.82828000  1.0
  H  H18  1  0.51926000  0.11862000  0.71977000  1.0
  H  H19  1  0.59855000  0.17714000  0.32577000  1.0
  H  H20  1  0.85783000  0.42156000  0.03036000  1.0
  H  H21  1  0.85251000  0.92201000  0.52833000  1.0
  H  H22  1  0.83829000  0.61052000  0.94851000  1.0
  H  H23  1  0.83478000  0.11157000  0.44731000  1.0
  H  H24  1  0.42114000  0.40245000  0.72583000  1.0
  H  H25  1  0.44750000  0.43237000  0.79646000  1.0
  H  H26  1  0.31310000  0.32971000  0.21124000  1.0
  H  H27  1  0.35899000  0.36946000  0.15250000  1.0
  H  H28  1  0.44173000  0.93099000  0.29775000  1.0
  H  H29  1  0.41942000  0.90197000  0.22635000  1.0
  H  H30  1  0.30633000  0.80403000  0.68968000  1.0
  H  H31  1  0.35759000  0.86219000  0.64495000  1.0
  H  H32  1  0.13093000  0.63065000  0.96373000  1.0
  H  H33  1  0.22501000  0.58927000  0.95838000  1.0
  H  H34  1  0.12795000  0.12835000  0.45687000  1.0
  H  H35  1  0.22098000  0.08466000  0.45197000  1.0
  H  H36  1  0.55057000  0.25005000  0.90124000  1.0
  H  H37  1  0.65694000  0.31446000  0.15629000  1.0
  H  H38  1  0.55392000  0.74970000  0.40048000  1.0
  H  H39  1  0.66099000  0.82552000  0.66416000  1.0
  H  H40  1  0.57819000  0.63811000  0.37095000  1.0
  H  H41  1  0.58819000  0.61550000  0.29974000  1.0
  H  H42  1  0.74701000  0.77436000  0.73938000  1.0
  H  H43  1  0.70372000  0.74164000  0.79993000  1.0
  H  H44  1  0.55172000  0.13534000  0.87569000  1.0
  H  H45  1  0.51690000  0.10440000  0.80970000  1.0
  H  H46  1  0.70155000  0.22731000  0.29068000  1.0
  H  H47  1  0.74383000  0.26150000  0.23028000  1.0
  H  H48  1  0.48768000  0.81883000  0.06171000  1.0
  H  H49  1  0.50531000  0.73721000  0.04146000  1.0
  H  H50  1  0.24580000  0.67206000  0.81841000  1.0
  H  H51  1  0.30871000  0.62190000  0.86244000  1.0
  H  H52  1  0.47723000  0.31513000  0.56205000  1.0
  H  H53  1  0.49642000  0.23377000  0.54213000  1.0
  H  H54  1  0.24246000  0.16291000  0.31013000  1.0
  H  H55  1  0.30522000  0.11471000  0.35622000  1.0
  H  H56  1  0.04156000  0.32252000  0.06399000  1.0
  H  H57  1  0.94128000  0.34458000  0.04007000  1.0
  H  H58  1  0.03465000  0.83746000  0.58905000  1.0
  H  H59  1  0.93422000  0.87047000  0.58204000  1.0
  C  C60  1  0.51544000  0.37182000  0.11498000  1.0
  C  C61  1  0.50852000  0.37418000  0.88748000  1.0
  C  C62  1  0.51704000  0.87265000  0.61567000  1.0
  C  C63  1  0.50349000  0.87242000  0.38867000  1.0
  C  C64  1  0.51218000  0.72095000  0.25243000  1.0
  C  C65  1  0.53529000  0.74274000  0.76404000  1.0
  C  C66  1  0.50868000  0.21964000  0.75341000  1.0
  C  C67  1  0.53212000  0.23621000  0.25941000  1.0
  C  C68  1  0.49023000  0.28606000  0.73602000  1.0
  C  C69  1  0.44682000  0.25720000  0.23949000  1.0
  C  C70  1  0.49321000  0.78745000  0.23567000  1.0
  C  C71  1  0.44977000  0.76291000  0.74385000  1.0
  C  C72  1  0.48480000  0.33832000  0.78035000  1.0
  C  C73  1  0.43948000  0.30536000  0.19327000  1.0
  C  C74  1  0.48404000  0.83840000  0.28080000  1.0
  C  C75  1  0.44189000  0.80919000  0.69594000  1.0
  C  C76  1  0.53252000  0.25820000  0.85492000  1.0
  C  C77  1  0.59980000  0.29847000  0.18117000  1.0
  C  C78  1  0.53456000  0.75807000  0.35442000  1.0
  C  C79  1  0.60350000  0.80764000  0.68773000  1.0
  C  C80  1  0.52936000  0.20608000  0.81457000  1.0
  C  C81  1  0.60980000  0.25801000  0.22927000  1.0
  C  C82  1  0.53429000  0.70682000  0.31323000  1.0
  C  C83  1  0.61328000  0.76726000  0.73581000  1.0
  C  C84  1  0.83952000  0.51468000  0.99005000  1.0
  C  C85  1  0.83509000  0.01586000  0.48916000  1.0
  C  C86  1  0.16883000  0.48172000  0.00758000  1.0
  C  C87  1  0.16417000  0.98225000  0.50897000  1.0
  C  C88  1  0.03813000  0.41661000  0.03331000  1.0
  C  C89  1  0.03270000  0.92063000  0.53905000  1.0
  C  C90  1  0.12884000  0.42546000  0.03285000  1.0
  C  C91  1  0.12339000  0.92891000  0.53833000  1.0
  C  C92  1  0.11928000  0.53183000  0.98230000  1.0
  C  C93  1  0.11502000  0.03113000  0.48118000  1.0
  C  C94  1  0.47773000  0.62301000  0.88523000  1.0
  C  C95  1  0.50204000  0.63013000  0.10409000  1.0
  C  C96  1  0.47303000  0.12089000  0.38358000  1.0
  C  C97  1  0.49808000  0.12756000  0.60531000  1.0
  C  C98  1  0.02537000  0.52577000  0.98447000  1.0
  C  C99  1  0.02102000  0.02643000  0.48461000  1.0
  C  C100  1  0.98440000  0.46817000  0.00997000  1.0
  C  C101  1  0.97953000  0.97027000  0.51198000  1.0
  C  C102  1  0.89140000  0.46414000  0.01120000  1.0
  C  C103  1  0.88652000  0.96563000  0.51134000  1.0
  C  C104  1  0.87987000  0.57140000  0.96528000  1.0
  C  C105  1  0.87595000  0.07239000  0.46446000  1.0
  C  C106  1  0.97023000  0.57580000  0.96178000  1.0
  C  C107  1  0.96637000  0.07619000  0.46094000  1.0
  C  C108  1  0.74179000  0.50951000  0.99350000  1.0
  C  C109  1  0.73725000  0.01031000  0.49163000  1.0
  C  C110  1  0.26714000  0.48625000  0.00730000  1.0
  C  C111  1  0.26225000  0.98594000  0.50879000  1.0
  C  C112  1  0.50903000  0.32384000  0.83935000  1.0
  C  C113  1  0.51654000  0.32385000  0.16357000  1.0
  C  C114  1  0.50689000  0.82305000  0.33986000  1.0
  C  C115  1  0.51954000  0.82914000  0.66728000  1.0
  C  C116  1  0.49989000  0.68605000  0.14757000  1.0
  C  C117  1  0.46474000  0.67161000  0.83747000  1.0
  C  C118  1  0.49546000  0.18356000  0.64878000  1.0
  C  C119  1  0.46062000  0.16753000  0.33423000  1.0
  C  C120  1  0.48391000  0.80178000  0.17499000  1.0
  C  C121  1  0.37471000  0.73647000  0.77130000  1.0
  C  C122  1  0.47901000  0.29946000  0.67530000  1.0
  C  C123  1  0.37119000  0.22969000  0.26549000  1.0
  C  C124  1  0.49011000  0.75356000  0.13006000  1.0
  C  C125  1  0.37893000  0.68995000  0.81632000  1.0
  C  C126  1  0.48351000  0.25067000  0.63079000  1.0
  C  C127  1  0.37500000  0.18392000  0.31110000  1.0
  C  C128  1  0.50996000  0.67172000  0.20742000  1.0
  C  C129  1  0.53927000  0.69851000  0.81141000  1.0
  C  C130  1  0.50757000  0.17007000  0.70865000  1.0
  C  C131  1  0.53553000  0.19343000  0.30788000  1.0
  N  N132  1  0.46063000  0.40032000  0.76254000  1.0
  N  N133  1  0.35711000  0.32842000  0.17821000  1.0
  N  N134  1  0.45777000  0.90015000  0.26362000  1.0
  N  N135  1  0.36019000  0.83205000  0.68064000  1.0
  N  N136  1  0.15824000  0.58624000  0.95447000  1.0
  N  N137  1  0.15408000  0.08299000  0.45030000  1.0
  N  N138  1  0.55217000  0.64151000  0.32922000  1.0
  N  N139  1  0.69655000  0.74654000  0.75532000  1.0
  N  N140  1  0.55169000  0.14173000  0.83111000  1.0
  N  N141  1  0.69266000  0.23471000  0.24655000  1.0
  N  N142  1  0.48140000  0.77015000  0.07132000  1.0
  N  N143  1  0.30304000  0.66584000  0.84144000  1.0
  N  N144  1  0.47204000  0.26647000  0.57202000  1.0
  N  N145  1  0.29877000  0.15817000  0.33455000  1.0
  N  N146  1  0.99968000  0.36063000  0.05876000  1.0
  N  N147  1  0.99357000  0.86426000  0.56322000  1.0
  O  O148  1  0.50736000  0.49759000  0.00123000  1.0
  O  O149  1  0.50358000  0.99683000  0.50148000  1.0
  O  O150  1  0.44803000  0.40955000  0.10993000  1.0
  O  O151  1  0.47009000  0.42984000  0.87704000  1.0
  O  O152  1  0.44610000  0.90559000  0.60591000  1.0
  O  O153  1  0.46212000  0.92689000  0.37862000  1.0
  O  O154  1  0.55085000  0.62499000  0.91461000  1.0
  O  O155  1  0.53017000  0.64249000  0.05190000  1.0
  O  O156  1  0.54481000  0.12515000  0.41445000  1.0
  O  O157  1  0.52602000  0.14024000  0.55319000  1.0
  O  O158  1  0.70731000  0.45159000  0.99858000  1.0
  O  O159  1  0.70310000  0.95225000  0.49608000  1.0
  O  O160  1  0.30163000  0.48550000  0.95610000  1.0
  O  O161  1  0.30829000  0.49110000  0.05716000  1.0
  O  O162  1  0.29688000  0.98946000  0.45770000  1.0
  O  O163  1  0.30387000  0.98600000  0.55859000  1.0
  O  O164  1  0.54509000  0.36053000  0.93749000  1.0
  O  O165  1  0.58115000  0.37453000  0.08043000  1.0
  O  O166  1  0.54055000  0.85917000  0.43862000  1.0
  O  O167  1  0.58416000  0.87624000  0.58225000  1.0
  O  O168  1  0.47653000  0.57298000  0.12160000  1.0
  O  O169  1  0.41450000  0.58089000  0.89412000  1.0
  O  O170  1  0.47248000  0.07032000  0.62270000  1.0
  O  O171  1  0.41070000  0.07804000  0.39231000  1.0
  O  O172  1  0.70060000  0.56425000  0.99095000  1.0
  O  O173  1  0.69584000  0.06496000  0.48927000  1.0
