# generated using pymatgen
data_Zn4H18C42O13F6
_symmetry_space_group_name_H-M   'P 1'
_cell_length_a   24.42030000
_cell_length_b   24.49260000
_cell_length_c   24.55772059
_cell_angle_alpha   60.35363706
_cell_angle_beta   60.36477212
_cell_angle_gamma   60.27100000
_symmetry_Int_Tables_number   1
_chemical_formula_structural   Zn4H18C42O13F6
_chemical_formula_sum   'Zn8 H36 C84 O26 F12'
_cell_volume   10463.73714294
_cell_formula_units_Z   2
loop_
 _symmetry_equiv_pos_site_id
 _symmetry_equiv_pos_as_xyz
  1  'x, y, z'
loop_
 _atom_site_type_symbol
 _atom_site_label
 _atom_site_symmetry_multiplicity
 _atom_site_fract_x
 _atom_site_fract_y
 _atom_site_fract_z
 _atom_site_occupancy
  Zn  Zn0  1  0.03917000  0.03427000  0.89207000  1.0
  Zn  Zn1  1  0.04082000  0.03918000  0.01866000  1.0
  Zn  Zn2  1  0.04305000  0.90545000  0.02188000  1.0
  Zn  Zn3  1  0.90937000  0.03484000  0.02226000  1.0
  Zn  Zn4  1  0.47427000  0.47042000  0.58637000  1.0
  Zn  Zn5  1  0.47568000  0.47347000  0.45250000  1.0
  Zn  Zn6  1  0.60565000  0.46880000  0.45707000  1.0
  Zn  Zn7  1  0.47802000  0.60113000  0.45807000  1.0
  H  H8  1  0.18818000  0.12755000  0.91288000  1.0
  H  H9  1  0.26251000  0.19674000  0.84183000  1.0
  H  H10  1  0.19354000  0.26362000  0.68038000  1.0
  H  H11  1  0.25679000  0.31113000  0.78882000  1.0
  H  H12  1  0.33128000  0.38014000  0.71500000  1.0
  H  H13  1  0.31060000  0.25143000  0.62531000  1.0
  H  H14  1  0.13098000  0.76892000  0.92279000  1.0
  H  H15  1  0.19747000  0.69491000  0.85373000  1.0
  H  H16  1  0.26257000  0.85636000  0.68699000  1.0
  H  H17  1  0.31288000  0.63908000  0.79759000  1.0
  H  H18  1  0.38251000  0.57027000  0.72323000  1.0
  H  H19  1  0.24621000  0.80512000  0.63664000  1.0
  H  H20  1  0.77441000  0.18016000  0.92061000  1.0
  H  H21  1  0.70097000  0.25614000  0.85045000  1.0
  H  H22  1  0.86137000  0.19074000  0.68658000  1.0
  H  H23  1  0.64438000  0.25095000  0.79487000  1.0
  H  H24  1  0.57513000  0.32687000  0.72061000  1.0
  H  H25  1  0.81229000  0.31031000  0.63515000  1.0
  H  H26  1  0.18778000  0.77815000  0.11144000  1.0
  H  H27  1  0.26138000  0.70519000  0.18148000  1.0
  H  H28  1  0.19460000  0.86680000  0.25025000  1.0
  H  H29  1  0.25391000  0.64987000  0.29709000  1.0
  H  H30  1  0.33015000  0.57932000  0.36439000  1.0
  H  H31  1  0.31419000  0.81602000  0.23580000  1.0
  H  H32  1  0.77608000  0.12636000  0.16498000  1.0
  H  H33  1  0.70169000  0.19357000  0.24080000  1.0
  H  H34  1  0.86211000  0.26265000  0.17962000  1.0
  H  H35  1  0.64384000  0.30817000  0.23922000  1.0
  H  H36  1  0.57486000  0.37633000  0.31418000  1.0
  H  H37  1  0.81271000  0.24652000  0.29634000  1.0
  H  H38  1  0.77911000  0.92876000  0.11247000  1.0
  H  H39  1  0.70631000  0.85791000  0.18172000  1.0
  H  H40  1  0.86870000  0.69596000  0.25021000  1.0
  H  H41  1  0.65064000  0.80510000  0.29621000  1.0
  H  H42  1  0.58112000  0.73105000  0.36511000  1.0
  H  H43  1  0.81894000  0.64088000  0.23696000  1.0
  C  C44  1  0.10913000  0.11024000  0.88173000  1.0
  C  C45  1  0.15066000  0.15468000  0.83740000  1.0
  C  C46  1  0.19017000  0.15777000  0.86167000  1.0
  C  C47  1  0.23111000  0.19683000  0.82208000  1.0
  C  C48  1  0.23407000  0.23498000  0.75571000  1.0
  C  C49  1  0.19448000  0.23316000  0.73082000  1.0
  C  C50  1  0.15380000  0.19381000  0.77124000  1.0
  C  C51  1  0.27776000  0.27635000  0.71270000  1.0
  C  C52  1  0.28494000  0.31255000  0.73745000  1.0
  C  C53  1  0.32593000  0.35150000  0.69635000  1.0
  C  C54  1  0.36142000  0.35645000  0.62920000  1.0
  C  C55  1  0.40401000  0.39994000  0.58749000  1.0
  C  C56  1  0.35386000  0.31952000  0.60569000  1.0
  C  C57  1  0.31309000  0.28024000  0.64601000  1.0
  C  C58  1  0.11473000  0.89658000  0.88759000  1.0
  C  C59  1  0.15760000  0.85366000  0.84467000  1.0
  C  C60  1  0.16029000  0.78705000  0.87089000  1.0
  C  C61  1  0.19785000  0.74580000  0.83230000  1.0
  C  C62  1  0.23466000  0.77002000  0.76506000  1.0
  C  C63  1  0.23311000  0.83614000  0.73823000  1.0
  C  C64  1  0.19533000  0.87655000  0.77764000  1.0
  C  C65  1  0.27494000  0.72749000  0.72269000  1.0
  C  C66  1  0.31284000  0.66038000  0.74673000  1.0
  C  C67  1  0.35221000  0.62198000  0.70525000  1.0
  C  C68  1  0.35583000  0.64828000  0.63852000  1.0
  C  C69  1  0.40126000  0.60576000  0.59523000  1.0
  C  C70  1  0.31641000  0.71493000  0.61604000  1.0
  C  C71  1  0.27672000  0.75413000  0.65669000  1.0
  C  C72  1  0.90122000  0.10145000  0.88742000  1.0
  C  C73  1  0.85857000  0.14382000  0.84402000  1.0
  C  C74  1  0.79239000  0.18309000  0.86917000  1.0
  C  C75  1  0.75150000  0.22501000  0.83009000  1.0
  C  C76  1  0.77570000  0.22952000  0.76331000  1.0
  C  C77  1  0.84131000  0.19027000  0.73748000  1.0
  C  C78  1  0.88131000  0.14837000  0.77746000  1.0
  C  C79  1  0.73346000  0.27459000  0.72057000  1.0
  C  C80  1  0.66583000  0.28075000  0.74431000  1.0
  C  C81  1  0.62726000  0.32261000  0.70297000  1.0
  C  C82  1  0.65374000  0.36013000  0.63677000  1.0
  C  C83  1  0.61052000  0.40250000  0.59394000  1.0
  C  C84  1  0.72114000  0.35391000  0.61448000  1.0
  C  C85  1  0.76066000  0.31206000  0.65494000  1.0
  C  C86  1  0.11055000  0.90480000  0.09435000  1.0
  C  C87  1  0.15147000  0.86312000  0.13943000  1.0
  C  C88  1  0.19014000  0.79661000  0.14223000  1.0
  C  C89  1  0.23062000  0.75597000  0.18173000  1.0
  C  C90  1  0.23405000  0.78057000  0.22058000  1.0
  C  C91  1  0.19512000  0.84644000  0.21925000  1.0
  C  C92  1  0.15481000  0.88631000  0.17947000  1.0
  C  C93  1  0.27805000  0.73819000  0.26169000  1.0
  C  C94  1  0.28381000  0.67075000  0.29786000  1.0
  C  C95  1  0.32581000  0.63143000  0.33583000  1.0
  C  C96  1  0.36368000  0.65700000  0.33972000  1.0
  C  C97  1  0.40705000  0.61238000  0.38237000  1.0
  C  C98  1  0.35740000  0.72434000  0.30293000  1.0
  C  C99  1  0.31560000  0.76457000  0.26468000  1.0
  C  C100  1  0.90302000  0.11161000  0.08842000  1.0
  C  C101  1  0.86025000  0.15505000  0.13089000  1.0
  C  C102  1  0.79380000  0.15684000  0.16889000  1.0
  C  C103  1  0.75237000  0.19474000  0.21078000  1.0
  C  C104  1  0.77622000  0.23283000  0.21649000  1.0
  C  C105  1  0.84209000  0.23231000  0.17844000  1.0
  C  C106  1  0.88265000  0.19426000  0.13666000  1.0
  C  C107  1  0.73363000  0.27265000  0.26152000  1.0
  C  C108  1  0.66573000  0.30882000  0.26821000  1.0
  C  C109  1  0.62717000  0.34723000  0.30962000  1.0
  C  C110  1  0.65382000  0.35130000  0.34633000  1.0
  C  C111  1  0.61066000  0.39539000  0.38807000  1.0
  C  C112  1  0.72142000  0.31368000  0.33987000  1.0
  C  C113  1  0.76090000  0.27534000  0.29835000  1.0
  C  C114  1  0.90637000  0.89700000  0.09578000  1.0
  C  C115  1  0.86441000  0.85295000  0.14035000  1.0
  C  C116  1  0.79777000  0.87748000  0.14305000  1.0
  C  C117  1  0.75719000  0.83802000  0.18214000  1.0
  C  C118  1  0.78208000  0.77156000  0.22066000  1.0
  C  C119  1  0.84811000  0.74646000  0.21940000  1.0
  C  C120  1  0.88784000  0.78676000  0.17998000  1.0
  C  C121  1  0.73997000  0.72861000  0.26170000  1.0
  C  C122  1  0.67219000  0.75355000  0.29764000  1.0
  C  C123  1  0.63344000  0.71237000  0.33643000  1.0
  C  C124  1  0.65978000  0.64506000  0.34106000  1.0
  C  C125  1  0.61560000  0.60327000  0.38452000  1.0
  C  C126  1  0.72743000  0.62141000  0.30412000  1.0
  C  C127  1  0.76712000  0.66178000  0.26539000  1.0
  O  O128  1  0.00738000  0.00312000  0.98966000  1.0
  O  O129  1  0.10001000  0.08921000  0.94371000  1.0
  O  O130  1  0.08713000  0.09624000  0.85445000  1.0
  O  O131  1  0.42214000  0.41659000  0.52472000  1.0
  O  O132  1  0.41785000  0.41737000  0.61919000  1.0
  O  O133  1  0.09617000  0.86632000  0.95022000  1.0
  O  O134  1  0.09940000  0.95929000  0.85858000  1.0
  O  O135  1  0.41962000  0.63542000  0.53283000  1.0
  O  O136  1  0.41881000  0.54282000  0.62506000  1.0
  O  O137  1  0.87095000  0.09135000  0.94974000  1.0
  O  O138  1  0.96394000  0.07970000  0.85903000  1.0
  O  O139  1  0.63958000  0.42271000  0.53156000  1.0
  O  O140  1  0.54763000  0.41402000  0.62400000  1.0
  O  O141  1  0.10079000  0.87311000  0.07320000  1.0
  O  O142  1  0.08982000  0.96777000  0.07984000  1.0
  O  O143  1  0.42689000  0.63978000  0.39858000  1.0
  O  O144  1  0.41970000  0.54991000  0.39961000  1.0
  O  O145  1  0.87265000  0.08853000  0.07903000  1.0
  O  O146  1  0.96567000  0.10043000  0.06592000  1.0
  O  O147  1  0.63878000  0.40463000  0.41330000  1.0
  O  O148  1  0.54855000  0.42112000  0.39440000  1.0
  O  O149  1  0.87477000  0.95948000  0.07649000  1.0
  O  O150  1  0.96948000  0.86890000  0.07998000  1.0
  O  O151  1  0.64212000  0.54118000  0.39275000  1.0
  O  O152  1  0.55402000  0.63381000  0.41060000  1.0
  O  O153  1  0.50735000  0.50341000  0.48918000  1.0
  F  F154  1  0.11541000  0.19624000  0.74439000  1.0
  F  F155  1  0.38797000  0.31927000  0.54231000  1.0
  F  F156  1  0.19800000  0.93912000  0.74891000  1.0
  F  F157  1  0.31420000  0.74335000  0.55343000  1.0
  F  F158  1  0.94338000  0.11043000  0.74967000  1.0
  F  F159  1  0.75025000  0.39018000  0.55239000  1.0
  F  F160  1  0.11704000  0.94879000  0.18218000  1.0
  F  F161  1  0.39396000  0.75257000  0.30160000  1.0
  F  F162  1  0.94503000  0.19781000  0.10017000  1.0
  F  F163  1  0.75112000  0.31228000  0.37496000  1.0
  F  F164  1  0.95050000  0.75979000  0.18275000  1.0
  F  F165  1  0.75692000  0.55790000  0.30379000  1.0
