# generated using pymatgen
data_MoH4C5NO3
_symmetry_space_group_name_H-M   'P 1'
_cell_length_a   7.41566000
_cell_length_b   7.51119000
_cell_length_c   22.43300000
_cell_angle_alpha   90.39920000
_cell_angle_beta   90.00000000
_cell_angle_gamma   90.00000000
_symmetry_Int_Tables_number   1
_chemical_formula_structural   MoH4C5NO3
_chemical_formula_sum   'Mo8 H32 C40 N8 O24'
_cell_volume   1249.49744547
_cell_formula_units_Z   8
loop_
 _symmetry_equiv_pos_site_id
 _symmetry_equiv_pos_as_xyz
  1  'x, y, z'
loop_
 _atom_site_type_symbol
 _atom_site_label
 _atom_site_symmetry_multiplicity
 _atom_site_fract_x
 _atom_site_fract_y
 _atom_site_fract_z
 _atom_site_occupancy
  Mo  Mo0  1  0.59843000  0.52537000  0.76453000  1.0
  Mo  Mo1  1  0.09843000  0.47463000  0.73547000  1.0
  Mo  Mo2  1  0.40157000  0.47463000  0.23547000  1.0
  Mo  Mo3  1  0.90157000  0.52537000  0.26453000  1.0
  Mo  Mo4  1  0.59308000  0.03014000  0.73545000  1.0
  Mo  Mo5  1  0.09308000  0.96986000  0.76455000  1.0
  Mo  Mo6  1  0.40692000  0.96986000  0.26455000  1.0
  Mo  Mo7  1  0.90692000  0.03014000  0.23545000  1.0
  H  H8  1  0.76593000  0.32261000  0.64454000  1.0
  H  H9  1  0.26595000  0.67739000  0.85546000  1.0
  H  H10  1  0.23406000  0.67739000  0.35546000  1.0
  H  H11  1  0.73406000  0.32262000  0.14454000  1.0
  H  H12  1  0.72140000  0.29645000  0.53590000  1.0
  H  H13  1  0.22141000  0.70355000  0.96410000  1.0
  H  H14  1  0.27861000  0.70356000  0.46410000  1.0
  H  H15  1  0.77860000  0.29645000  0.03590000  1.0
  H  H16  1  0.32237000  0.71728000  0.55159000  1.0
  H  H17  1  0.82236000  0.28274000  0.94840000  1.0
  H  H18  1  0.67763000  0.28273000  0.44841000  1.0
  H  H19  1  0.17763000  0.71727000  0.05159000  1.0
  H  H20  1  0.38315000  0.72114000  0.65930000  1.0
  H  H21  1  0.88315000  0.27887000  0.84070000  1.0
  H  H22  1  0.61685000  0.27886000  0.34070000  1.0
  H  H23  1  0.11685000  0.72114000  0.15930000  1.0
  H  H24  1  0.76347000  0.82639000  0.85372000  1.0
  H  H25  1  0.26347000  0.17360000  0.64628000  1.0
  H  H26  1  0.23653000  0.17360000  0.14628000  1.0
  H  H27  1  0.73653000  0.82640000  0.35372000  1.0
  H  H28  1  0.72294000  0.79938000  0.96223000  1.0
  H  H29  1  0.22293000  0.20061000  0.53777000  1.0
  H  H30  1  0.27708000  0.20061000  0.03777000  1.0
  H  H31  1  0.77707000  0.79938000  0.46223000  1.0
  H  H32  1  0.31664000  0.21387000  0.95007000  1.0
  H  H33  1  0.81663000  0.78612000  0.54993000  1.0
  H  H34  1  0.68337000  0.78611000  0.04993000  1.0
  H  H35  1  0.18336000  0.21388000  0.45007000  1.0
  H  H36  1  0.37601000  0.22098000  0.84227000  1.0
  H  H37  1  0.87601000  0.77901000  0.65774000  1.0
  H  H38  1  0.62399000  0.77901000  0.15774000  1.0
  H  H39  1  0.12398000  0.22099000  0.34226000  1.0
  C  C40  1  0.66811000  0.40650000  0.62197000  1.0
  C  C41  1  0.16812000  0.59350000  0.87803000  1.0
  C  C42  1  0.33188000  0.59350000  0.37803000  1.0
  C  C43  1  0.83188000  0.40650000  0.12197000  1.0
  C  C44  1  0.64263000  0.39409000  0.56074000  1.0
  C  C45  1  0.14264000  0.60592000  0.93926000  1.0
  C  C46  1  0.35737000  0.60592000  0.43927000  1.0
  C  C47  1  0.85736000  0.39409000  0.06073000  1.0
  C  C48  1  0.51640000  0.50517000  0.53255000  1.0
  C  C49  1  0.01640000  0.49484000  0.96745000  1.0
  C  C50  1  0.48360000  0.49484000  0.46745000  1.0
  C  C51  1  0.98359000  0.50517000  0.03255000  1.0
  C  C52  1  0.42285000  0.62606000  0.56917000  1.0
  C  C53  1  0.92284000  0.37395000  0.93083000  1.0
  C  C54  1  0.57716000  0.37394000  0.43083000  1.0
  C  C55  1  0.07716000  0.62606000  0.06917000  1.0
  C  C56  1  0.45535000  0.62962000  0.63012000  1.0
  C  C57  1  0.95536000  0.37039000  0.86988000  1.0
  C  C58  1  0.54464000  0.37039000  0.36988000  1.0
  C  C59  1  0.04464000  0.62962000  0.13012000  1.0
  C  C60  1  0.66608000  0.90976000  0.87705000  1.0
  C  C61  1  0.16607000  0.09023000  0.62295000  1.0
  C  C62  1  0.33393000  0.09022000  0.12295000  1.0
  C  C63  1  0.83392000  0.90977000  0.37705000  1.0
  C  C64  1  0.64226000  0.89639000  0.93824000  1.0
  C  C65  1  0.14225000  0.10360000  0.56176000  1.0
  C  C66  1  0.35775000  0.10361000  0.06176000  1.0
  C  C67  1  0.85775000  0.89639000  0.43824000  1.0
  C  C68  1  0.51528000  0.00546000  0.96743000  1.0
  C  C69  1  0.01527000  0.99453000  0.53257000  1.0
  C  C70  1  0.48474000  0.99453000  0.03258000  1.0
  C  C71  1  0.98473000  0.00546000  0.46743000  1.0
  C  C72  1  0.41853000  0.12485000  0.93170000  1.0
  C  C73  1  0.91852000  0.87515000  0.56830000  1.0
  C  C74  1  0.58148000  0.87515000  0.06830000  1.0
  C  C75  1  0.08148000  0.12485000  0.43171000  1.0
  C  C76  1  0.44990000  0.12983000  0.87072000  1.0
  C  C77  1  0.94989000  0.87016000  0.62928000  1.0
  C  C78  1  0.55011000  0.87015000  0.12928000  1.0
  C  C79  1  0.05010000  0.12984000  0.37072000  1.0
  N  N80  1  0.57516000  0.52135000  0.65644000  1.0
  N  N81  1  0.07517000  0.47866000  0.84356000  1.0
  N  N82  1  0.42483000  0.47865000  0.34356000  1.0
  N  N83  1  0.92483000  0.52135000  0.15644000  1.0
  N  N84  1  0.57117000  0.02417000  0.84348000  1.0
  N  N85  1  0.07117000  0.97582000  0.65652000  1.0
  N  N86  1  0.42883000  0.97583000  0.15652000  1.0
  N  N87  1  0.92882000  0.02417000  0.34348000  1.0
  O  O88  1  0.83040000  0.45826000  0.74888000  1.0
  O  O89  1  0.33040000  0.54174000  0.75112000  1.0
  O  O90  1  0.16960000  0.54174000  0.25112000  1.0
  O  O91  1  0.66960000  0.45826000  0.24888000  1.0
  O  O92  1  0.62183000  0.76092000  0.75335000  1.0
  O  O93  1  0.12183000  0.23907000  0.74665000  1.0
  O  O94  1  0.37817000  0.23908000  0.24665000  1.0
  O  O95  1  0.87817000  0.76093000  0.25335000  1.0
  O  O96  1  0.58722000  0.50914000  0.84077000  1.0
  O  O97  1  0.08722000  0.49086000  0.65923000  1.0
  O  O98  1  0.41278000  0.49086000  0.15923000  1.0
  O  O99  1  0.91278000  0.50914000  0.34077000  1.0
  O  O100  1  0.53592000  0.26084000  0.74669000  1.0
  O  O101  1  0.03592000  0.73916000  0.75331000  1.0
  O  O102  1  0.46408000  0.73916000  0.25331000  1.0
  O  O103  1  0.96408000  0.26084000  0.24669000  1.0
  O  O104  1  0.58476000  0.00740000  0.65925000  1.0
  O  O105  1  0.08476000  0.99260000  0.84075000  1.0
  O  O106  1  0.41525000  0.99261000  0.34075000  1.0
  O  O107  1  0.91524000  0.00741000  0.15925000  1.0
  O  O108  1  0.83379000  0.04289000  0.75020000  1.0
  O  O109  1  0.33379000  0.95711000  0.74980000  1.0
  O  O110  1  0.16621000  0.95711000  0.24980000  1.0
  O  O111  1  0.66621000  0.04289000  0.25020000  1.0
