# generated using pymatgen
data_ZnH12C19N(ClO4)2
_symmetry_space_group_name_H-M   'P 1'
_cell_length_a   10.75330000
_cell_length_b   12.80470000
_cell_length_c   12.98800000
_cell_angle_alpha   82.12280000
_cell_angle_beta   87.37760000
_cell_angle_gamma   77.95260000
_symmetry_Int_Tables_number   1
_chemical_formula_structural   ZnH12C19N(ClO4)2
_chemical_formula_sum   'Zn2 H24 C38 N2 Cl4 O16'
_cell_volume   1732.19125935
_cell_formula_units_Z   2
loop_
 _symmetry_equiv_pos_site_id
 _symmetry_equiv_pos_as_xyz
  1  'x, y, z'
loop_
 _atom_site_type_symbol
 _atom_site_label
 _atom_site_symmetry_multiplicity
 _atom_site_fract_x
 _atom_site_fract_y
 _atom_site_fract_z
 _atom_site_occupancy
  Zn  Zn0  1  0.48354000  0.61182000  0.52434000  1.0
  Zn  Zn1  1  0.54833000  0.38990000  0.46787000  1.0
  H  H2  1  0.95884000  0.33797000  0.57074000  1.0
  H  H3  1  0.60121000  0.94501000  0.34731000  1.0
  H  H4  1  0.08198000  0.63600000  0.38283000  1.0
  H  H5  1  0.09629000  0.65767000  0.51249000  1.0
  H  H6  1  0.08976000  0.49551000  0.65370000  1.0
  H  H7  1  0.93496000  0.37509000  0.38114000  1.0
  H  H8  1  0.93789000  0.50663000  0.32029000  1.0
  H  H9  1  0.15802000  0.45614000  0.33081000  1.0
  H  H10  1  0.36908000  0.23842000  0.25130000  1.0
  H  H11  1  0.62633000  0.13930000  0.97392000  1.0
  H  H12  1  0.40505000  0.86318000  0.14788000  1.0
  H  H13  1  0.15512000  0.36380000  0.62460000  1.0
  H  H14  1  0.34554000  0.85315000  0.92699000  1.0
  H  H15  1  0.26290000  0.96942000  0.78295000  1.0
  H  H16  1  0.63338000  0.14602000  0.16614000  1.0
  H  H17  1  0.45554000  0.29944000  0.63355000  1.0
  H  H18  1  0.86340000  0.50788000  0.68789000  1.0
  H  H19  1  0.34181000  0.68022000  0.90467000  1.0
  H  H20  1  0.86315000  0.66253000  0.41911000  1.0
  H  H21  1  0.37552000  0.40729000  0.27784000  1.0
  H  H22  1  0.36442000  0.71139000  0.70386000  1.0
  H  H23  1  0.33056000  0.09120000  0.72988000  1.0
  H  H24  1  0.54954000  0.82126000  0.43758000  1.0
  H  H25  1  0.63986000  0.27389000  0.31289000  1.0
  C  C26  1  0.46278000  0.58092000  0.30822000  1.0
  C  C27  1  0.36885000  0.55146000  0.03518000  1.0
  C  C28  1  0.38807000  0.52940000  0.14449000  1.0
  C  C29  1  0.75419000  0.49035000  0.48347000  1.0
  C  C30  1  0.39431000  0.46091000  0.97585000  1.0
  C  C31  1  0.44005000  0.35483000  0.02770000  1.0
  C  C32  1  0.41124000  0.33749000  0.13749000  1.0
  C  C33  1  0.38931000  0.42220000  0.19382000  1.0
  C  C34  1  0.39650000  0.47211000  0.86561000  1.0
  C  C35  1  0.54445000  0.30360000  0.86625000  1.0
  C  C36  1  0.40853000  0.61184000  0.20150000  1.0
  C  C37  1  0.13944000  0.48944000  0.49109000  1.0
  C  C38  1  0.36766000  0.88030000  0.69060000  1.0
  C  C39  1  0.60646000  0.20608000  0.35787000  1.0
  C  C40  1  0.62293000  0.10748000  0.31668000  1.0
  C  C41  1  0.51637000  0.44034000  0.69950000  1.0
  C  C42  1  0.58611000  0.02172000  0.37804000  1.0
  C  C43  1  0.52486000  0.03561000  0.47469000  1.0
  C  C44  1  0.50346000  0.14029000  0.50809000  1.0
  C  C45  1  0.47926000  0.94728000  0.53650000  1.0
  C  C46  1  0.40921000  0.96784000  0.62985000  1.0
  C  C47  1  0.38401000  0.07183000  0.65911000  1.0
  C  C48  1  0.09060000  0.43966000  0.59646000  1.0
  C  C49  1  0.42734000  0.15716000  0.60273000  1.0
  C  C50  1  0.49947000  0.84256000  0.50893000  1.0
  C  C51  1  0.39420000  0.78003000  0.65833000  1.0
  C  C52  1  0.28000000  0.49208000  0.49945000  1.0
  C  C53  1  0.91948000  0.60980000  0.48127000  1.0
  C  C54  1  0.06268000  0.60582000  0.46429000  1.0
  C  C55  1  0.95500000  0.42116000  0.58502000  1.0
  C  C56  1  0.96557000  0.44950000  0.39075000  1.0
  C  C57  1  0.89477000  0.49521000  0.48680000  1.0
  C  C58  1  0.11087000  0.42884000  0.40309000  1.0
  C  C59  1  0.51561000  0.27665000  0.97139000  1.0
  C  C60  1  0.48321000  0.40210000  0.81023000  1.0
  C  C61  1  0.39393000  0.71764000  0.15213000  1.0
  C  C62  1  0.36441000  0.74023000  0.04489000  1.0
  C  C63  1  0.35486000  0.65942000  0.98789000  1.0
  N  N64  1  0.45828000  0.76225000  0.56778000  1.0
  N  N65  1  0.54931000  0.22253000  0.44956000  1.0
  Cl  Cl66  1  0.86405000  0.67517000  0.59653000  1.0
  Cl  Cl67  1  0.17452000  0.28403000  0.42335000  1.0
  Cl  Cl68  1  0.65896000  0.21082000  0.80986000  1.0
  Cl  Cl69  1  0.27817000  0.56588000  0.79836000  1.0
  O  O70  1  0.42938000  0.64752000  0.37378000  1.0
  O  O71  1  0.57093000  0.17903000  0.02414000  1.0
  O  O72  1  0.41528000  0.79968000  0.20077000  1.0
  O  O73  1  0.35617000  0.84588000  0.00268000  1.0
  O  O74  1  0.30071000  0.89317000  0.78309000  1.0
  O  O75  1  0.67784000  0.09317000  0.22191000  1.0
  O  O76  1  0.38954000  0.25075000  0.63872000  1.0
  O  O77  1  0.87895000  0.43205000  0.67719000  1.0
  O  O78  1  0.53986000  0.49013000  0.32515000  1.0
  O  O79  1  0.67325000  0.57688000  0.48850000  1.0
  O  O80  1  0.73092000  0.39783000  0.47612000  1.0
  O  O81  1  0.52336000  0.53764000  0.67821000  1.0
  O  O82  1  0.53793000  0.37259000  0.63293000  1.0
  O  O83  1  0.30906000  0.56084000  0.55055000  1.0
  O  O84  1  0.35844000  0.42260000  0.45499000  1.0
  O  O85  1  0.40762000  0.23410000  0.18188000  1.0
