# generated using pymatgen
data_GdH13C22O9
_symmetry_space_group_name_H-M   'P 1'
_cell_length_a   6.09924000
_cell_length_b   13.35790000
_cell_length_c   14.03256211
_cell_angle_alpha   63.24912198
_cell_angle_beta   89.67114723
_cell_angle_gamma   77.97670000
_symmetry_Int_Tables_number   1
_chemical_formula_structural   GdH13C22O9
_chemical_formula_sum   'Gd2 H26 C44 O18'
_cell_volume   993.43310550
_cell_formula_units_Z   2
loop_
 _symmetry_equiv_pos_site_id
 _symmetry_equiv_pos_as_xyz
  1  'x, y, z'
loop_
 _atom_site_type_symbol
 _atom_site_label
 _atom_site_symmetry_multiplicity
 _atom_site_fract_x
 _atom_site_fract_y
 _atom_site_fract_z
 _atom_site_occupancy
  Gd  Gd0  1  0.41090000  0.72122000  0.82379000  1.0
  Gd  Gd1  1  0.58911000  0.27878000  0.17622000  1.0
  H  H2  1  0.12144000  0.83542000  0.60167000  1.0
  H  H3  1  0.87858000  0.16456000  0.39834000  1.0
  H  H4  1  0.95596000  0.84524000  0.68663000  1.0
  H  H5  1  0.04405000  0.15475000  0.31337000  1.0
  H  H6  1  0.11378000  0.37777000  0.20577000  1.0
  H  H7  1  0.88623000  0.62223000  0.79423000  1.0
  H  H8  1  0.36203000  0.42519000  0.73373000  1.0
  H  H9  1  0.63798000  0.57481000  0.26628000  1.0
  H  H10  1  0.90903000  0.19347000  0.00059000  1.0
  H  H11  1  0.09097000  0.80653000  0.99941000  1.0
  H  H12  1  0.80746000  0.38029000  0.60273000  1.0
  H  H13  1  0.19255000  0.61972000  0.39727000  1.0
  H  H14  1  0.85715000  0.39623000  0.42027000  1.0
  H  H15  1  0.14284000  0.60378000  0.57973000  1.0
  H  H16  1  0.57382000  0.27455000  0.50372000  1.0
  H  H17  1  0.42617000  0.72545000  0.49628000  1.0
  H  H18  1  0.52588000  0.26221000  0.68435000  1.0
  H  H19  1  0.47413000  0.73780000  0.31564000  1.0
  H  H20  1  0.13889000  0.12154000  0.72592000  1.0
  H  H21  1  0.86109000  0.87846000  0.27407000  1.0
  H  H22  1  0.94786000  0.99219000  0.69898000  1.0
  H  H23  1  0.05211000  0.00781000  0.30102000  1.0
  H  H24  1  0.45857000  0.02933000  0.90944000  1.0
  H  H25  1  0.54145000  0.97066000  0.09057000  1.0
  H  H26  1  0.63965000  0.16781000  0.93109000  1.0
  H  H27  1  0.36035000  0.83218000  0.06891000  1.0
  C  C28  1  0.41257000  0.43746000  0.91303000  1.0
  C  C29  1  0.58744000  0.56254000  0.08697000  1.0
  C  C30  1  0.08496000  0.31278000  0.07040000  1.0
  C  C31  1  0.91503000  0.68722000  0.92960000  1.0
  C  C32  1  0.12298000  0.31024000  0.96612000  1.0
  C  C33  1  0.87700000  0.68976000  0.03388000  1.0
  C  C34  1  0.25979000  0.37312000  0.89196000  1.0
  C  C35  1  0.74022000  0.62688000  0.10804000  1.0
  C  C36  1  0.26306000  0.37272000  0.79272000  1.0
  C  C37  1  0.73696000  0.62727000  0.20728000  1.0
  C  C38  1  0.14303000  0.30912000  0.76538000  1.0
  C  C39  1  0.85697000  0.69089000  0.23462000  1.0
  C  C40  1  0.01543000  0.23961000  0.84241000  1.0
  C  C41  1  0.98456000  0.76039000  0.15759000  1.0
  C  C42  1  0.00656000  0.24456000  0.94005000  1.0
  C  C43  1  0.99343000  0.75544000  0.05995000  1.0
  C  C44  1  0.16324000  0.31905000  0.65621000  1.0
  C  C45  1  0.83677000  0.68095000  0.34379000  1.0
  C  C46  1  0.97534000  0.35677000  0.58098000  1.0
  C  C47  1  0.02466000  0.64323000  0.41902000  1.0
  C  C48  1  0.00240000  0.36559000  0.47914000  1.0
  C  C49  1  0.99760000  0.63442000  0.52085000  1.0
  C  C50  1  0.21882000  0.33494000  0.45129000  1.0
  C  C51  1  0.78117000  0.66505000  0.54871000  1.0
  C  C52  1  0.40680000  0.29884000  0.52560000  1.0
  C  C53  1  0.59320000  0.70115000  0.47440000  1.0
  C  C54  1  0.37960000  0.29259000  0.62618000  1.0
  C  C55  1  0.62040000  0.70741000  0.37381000  1.0
  C  C56  1  0.25644000  0.33778000  0.34601000  1.0
  C  C57  1  0.74357000  0.66222000  0.65399000  1.0
  C  C58  1  0.90144000  0.15910000  0.82736000  1.0
  C  C59  1  0.09855000  0.84090000  0.17264000  1.0
  C  C60  1  0.98471000  0.10622000  0.76335000  1.0
  C  C61  1  0.01528000  0.89378000  0.23665000  1.0
  C  C62  1  0.87779000  0.03105000  0.74915000  1.0
  C  C63  1  0.12219000  0.96895000  0.25085000  1.0
  C  C64  1  0.68755000  0.00218000  0.80176000  1.0
  C  C65  1  0.31244000  0.99782000  0.19824000  1.0
  C  C66  1  0.60612000  0.05176000  0.86821000  1.0
  C  C67  1  0.39387000  0.94823000  0.13179000  1.0
  C  C68  1  0.70971000  0.12948000  0.88023000  1.0
  C  C69  1  0.29029000  0.87052000  0.11977000  1.0
  C  C70  1  0.58040000  0.91541000  0.79341000  1.0
  C  C71  1  0.41960000  0.08459000  0.20659000  1.0
  O  O72  1  0.38868000  0.54274000  0.84596000  1.0
  O  O73  1  0.61131000  0.45726000  0.15404000  1.0
  O  O74  1  0.11375000  0.84114000  0.66825000  1.0
  O  O75  1  0.88626000  0.15887000  0.33175000  1.0
  O  O76  1  0.56539000  0.38136000  0.99031000  1.0
  O  O77  1  0.43461000  0.61864000  0.00969000  1.0
  O  O78  1  0.19680000  0.36546000  0.10318000  1.0
  O  O79  1  0.80321000  0.63454000  0.89682000  1.0
  O  O80  1  0.94249000  0.26091000  0.12507000  1.0
  O  O81  1  0.05751000  0.73910000  0.87493000  1.0
  O  O82  1  0.44766000  0.29871000  0.32762000  1.0
  O  O83  1  0.55236000  0.70129000  0.67237000  1.0
  O  O84  1  0.07690000  0.38236000  0.27601000  1.0
  O  O85  1  0.92313000  0.61766000  0.72398000  1.0
  O  O86  1  0.64071000  0.87452000  0.72771000  1.0
  O  O87  1  0.35928000  0.12548000  0.27230000  1.0
  O  O88  1  0.43131000  0.87831000  0.85717000  1.0
  O  O89  1  0.56868000  0.12170000  0.14283000  1.0
