# generated using pymatgen
data_MgH8C4O7
_symmetry_space_group_name_H-M   'P 1'
_cell_length_a   7.92269000
_cell_length_b   7.92269000
_cell_length_c   12.74360000
_cell_angle_alpha   90.00000000
_cell_angle_beta   90.00000000
_cell_angle_gamma   90.00000000
_symmetry_Int_Tables_number   1
_chemical_formula_structural   MgH8C4O7
_chemical_formula_sum   'Mg4 H32 C16 O28'
_cell_volume   799.90324295
_cell_formula_units_Z   4
loop_
 _symmetry_equiv_pos_site_id
 _symmetry_equiv_pos_as_xyz
  1  'x, y, z'
loop_
 _atom_site_type_symbol
 _atom_site_label
 _atom_site_symmetry_multiplicity
 _atom_site_fract_x
 _atom_site_fract_y
 _atom_site_fract_z
 _atom_site_occupancy
  Mg  Mg0  1  0.53118000  0.88075000  0.21306000  1.0
  Mg  Mg1  1  0.46882000  0.11924000  0.71306000  1.0
  Mg  Mg2  1  0.11924000  0.53118000  0.96306000  1.0
  Mg  Mg3  1  0.88076000  0.46882000  0.46306000  1.0
  H  H4  1  0.30245000  0.07649000  0.30412000  1.0
  H  H5  1  0.69755000  0.92351000  0.80412000  1.0
  H  H6  1  0.92351000  0.30245000  0.05412000  1.0
  H  H7  1  0.07649000  0.69755000  0.55412000  1.0
  H  H8  1  0.22273000  0.03902000  0.18959000  1.0
  H  H9  1  0.77727000  0.96098000  0.68959000  1.0
  H  H10  1  0.96098000  0.22273000  0.93959000  1.0
  H  H11  1  0.03902000  0.77726000  0.43959000  1.0
  H  H12  1  0.77388000  0.67312000  0.25185000  1.0
  H  H13  1  0.22612000  0.32688000  0.75185000  1.0
  H  H14  1  0.32688000  0.77388000  0.00185000  1.0
  H  H15  1  0.67312000  0.22612000  0.50185000  1.0
  H  H16  1  0.80916000  0.70956000  0.12889000  1.0
  H  H17  1  0.19084000  0.29044000  0.62889000  1.0
  H  H18  1  0.29044000  0.80916000  0.87889000  1.0
  H  H19  1  0.70956000  0.19084000  0.37889000  1.0
  H  H20  1  0.60346000  0.91647000  0.00781000  1.0
  H  H21  1  0.39654000  0.08353000  0.50781000  1.0
  H  H22  1  0.08353000  0.60346000  0.75781000  1.0
  H  H23  1  0.91647000  0.39654000  0.25781000  1.0
  H  H24  1  0.71109000  0.15722000  0.99781000  1.0
  H  H25  1  0.28891000  0.84278000  0.49781000  1.0
  H  H26  1  0.84278000  0.71109000  0.74781000  1.0
  H  H27  1  0.15722000  0.28891000  0.24781000  1.0
  H  H28  1  0.37394000  0.26864000  0.09182000  1.0
  H  H29  1  0.62606000  0.73136000  0.59182000  1.0
  H  H30  1  0.73136000  0.37394000  0.84182000  1.0
  H  H31  1  0.26864000  0.62606000  0.34182000  1.0
  H  H32  1  0.53137000  0.41329000  0.05411000  1.0
  H  H33  1  0.46863000  0.58671000  0.55411000  1.0
  H  H34  1  0.58671000  0.53137000  0.80411000  1.0
  H  H35  1  0.41329000  0.46863000  0.30411000  1.0
  C  C36  1  0.70412000  0.19506000  0.16589000  1.0
  C  C37  1  0.29588000  0.80494000  0.66589000  1.0
  C  C38  1  0.80494000  0.70412000  0.91589000  1.0
  C  C39  1  0.19506000  0.29588000  0.41589000  1.0
  C  C40  1  0.61731000  0.15347000  0.06117000  1.0
  C  C41  1  0.38269000  0.84653000  0.56117000  1.0
  C  C42  1  0.84653000  0.61731000  0.81117000  1.0
  C  C43  1  0.15347000  0.38269000  0.31117000  1.0
  C  C44  1  0.48157000  0.28601000  0.03852000  1.0
  C  C45  1  0.51843000  0.71399000  0.53852000  1.0
  C  C46  1  0.71399000  0.48157000  0.78852000  1.0
  C  C47  1  0.28601000  0.51843000  0.28852000  1.0
  C  C48  1  0.41671000  0.28186000  0.92610000  1.0
  C  C49  1  0.58328000  0.71814000  0.42610000  1.0
  C  C50  1  0.71814000  0.41671000  0.67610000  1.0
  C  C51  1  0.28186000  0.58329000  0.17610000  1.0
  O  O52  1  0.65759000  0.11445000  0.24674000  1.0
  O  O53  1  0.34241000  0.88555000  0.74674000  1.0
  O  O54  1  0.88555000  0.65759000  0.99674000  1.0
  O  O55  1  0.11445000  0.34241000  0.49674000  1.0
  O  O56  1  0.29716000  0.99514000  0.24346000  1.0
  O  O57  1  0.70284000  0.00486000  0.74346000  1.0
  O  O58  1  0.00486000  0.29716000  0.99346000  1.0
  O  O59  1  0.99514000  0.70284000  0.49346000  1.0
  O  O60  1  0.75956000  0.75476000  0.19451000  1.0
  O  O61  1  0.24044000  0.24524000  0.69451000  1.0
  O  O62  1  0.24524000  0.75956000  0.94451000  1.0
  O  O63  1  0.75476000  0.24044000  0.44450000  1.0
  O  O64  1  0.81469000  0.31194000  0.16333000  1.0
  O  O65  1  0.18531000  0.68806000  0.66333000  1.0
  O  O66  1  0.68806000  0.81469000  0.91333000  1.0
  O  O67  1  0.31194000  0.18531000  0.41333000  1.0
  O  O68  1  0.30796000  0.39065000  0.89700000  1.0
  O  O69  1  0.69204000  0.60935000  0.39700000  1.0
  O  O70  1  0.60935000  0.30796000  0.64700000  1.0
  O  O71  1  0.39065000  0.69204000  0.14700000  1.0
  O  O72  1  0.47981000  0.17198000  0.86601000  1.0
  O  O73  1  0.52019000  0.82802000  0.36601000  1.0
  O  O74  1  0.82802000  0.47981000  0.61601000  1.0
  O  O75  1  0.17198000  0.52019000  0.11601000  1.0
  O  O76  1  0.54759000  0.98690000  0.06462000  1.0
  O  O77  1  0.45241000  0.01310000  0.56462000  1.0
  O  O78  1  0.01310000  0.54759000  0.81462000  1.0
  O  O79  1  0.98690000  0.45241000  0.31462000  1.0
