# generated using pymatgen
data_ZnH11C13N2O5
_symmetry_space_group_name_H-M   'P 1'
_cell_length_a   8.23235000
_cell_length_b   8.32994000
_cell_length_c   10.21780000
_cell_angle_alpha   100.25800000
_cell_angle_beta   101.11500000
_cell_angle_gamma   106.37300000
_symmetry_Int_Tables_number   1
_chemical_formula_structural   ZnH11C13N2O5
_chemical_formula_sum   'Zn2 H22 C26 N4 O10'
_cell_volume   639.24144967
_cell_formula_units_Z   2
loop_
 _symmetry_equiv_pos_site_id
 _symmetry_equiv_pos_as_xyz
  1  'x, y, z'
loop_
 _atom_site_type_symbol
 _atom_site_label
 _atom_site_symmetry_multiplicity
 _atom_site_fract_x
 _atom_site_fract_y
 _atom_site_fract_z
 _atom_site_occupancy
  Zn  Zn0  1  0.66097000  0.46937000  0.89204000  1.0
  Zn  Zn1  1  0.33903000  0.53063000  0.10796000  1.0
  H  H2  1  0.43374000  0.04503000  0.76532000  1.0
  H  H3  1  0.56626000  0.95498000  0.23468000  1.0
  H  H4  1  0.59165000  0.81551000  0.85224000  1.0
  H  H5  1  0.40835000  0.18449000  0.14776000  1.0
  H  H6  1  0.91843000  0.32665000  0.05805000  1.0
  H  H7  1  0.08157000  0.67335000  0.94195000  1.0
  H  H8  1  0.86960000  0.85818000  0.04251000  1.0
  H  H9  1  0.13040000  0.14182000  0.95749000  1.0
  H  H10  1  0.98813000  0.07195000  0.14538000  1.0
  H  H11  1  0.01187000  0.92804000  0.85462000  1.0
  H  H12  1  0.07685000  0.76018000  0.71059000  1.0
  H  H13  1  0.92315000  0.23982000  0.28941000  1.0
  H  H14  1  0.02720000  0.79786000  0.29019000  1.0
  H  H15  1  0.97280000  0.20214000  0.70981000  1.0
  H  H16  1  0.61326000  0.43887000  0.39535000  1.0
  H  H17  1  0.38674000  0.56113000  0.60465000  1.0
  H  H18  1  0.32432000  0.92593000  0.38344000  1.0
  H  H19  1  0.67568000  0.07407000  0.61657000  1.0
  H  H20  1  0.41117000  0.12220000  0.51841000  1.0
  H  H21  1  0.58883000  0.87780000  0.48159000  1.0
  H  H22  1  0.19744000  0.06794000  0.40710000  1.0
  H  H23  1  0.80256000  0.93206000  0.59291000  1.0
  C  C24  1  0.55723000  0.07076000  0.83956000  1.0
  C  C25  1  0.44278000  0.92923000  0.16044000  1.0
  C  C26  1  0.63506000  0.95556000  0.87981000  1.0
  C  C27  1  0.36494000  0.04444000  0.12019000  1.0
  C  C28  1  0.80622000  0.22223000  0.98978000  1.0
  C  C29  1  0.19378000  0.77777000  0.01022000  1.0
  C  C30  1  0.92916000  0.99247000  0.03968000  1.0
  C  C31  1  0.07084000  0.00753000  0.96032000  1.0
  C  C32  1  0.75755000  0.51537000  0.66841000  1.0
  C  C33  1  0.24245000  0.48463000  0.33159000  1.0
  C  C34  1  0.83697000  0.59124000  0.56401000  1.0
  C  C35  1  0.16303000  0.40876000  0.43599000  1.0
  C  C36  1  0.00062000  0.71977000  0.60375000  1.0
  C  C37  1  0.99938000  0.28023000  0.39625000  1.0
  C  C38  1  0.06953000  0.79840000  0.50691000  1.0
  C  C39  1  0.93047000  0.20160000  0.49309000  1.0
  C  C40  1  0.97627000  0.74270000  0.36847000  1.0
  C  C41  1  0.02373000  0.25730000  0.63153000  1.0
  C  C42  1  0.81200000  0.61295000  0.32876000  1.0
  C  C43  1  0.18800000  0.38705000  0.67124000  1.0
  C  C44  1  0.74167000  0.53743000  0.42575000  1.0
  C  C45  1  0.25833000  0.46257000  0.57425000  1.0
  C  C46  1  0.29305000  0.01554000  0.45932000  1.0
  C  C47  1  0.70696000  0.98447000  0.54068000  1.0
  C  C48  1  0.71117000  0.55721000  0.18168000  1.0
  C  C49  1  0.28883000  0.44278000  0.81832000  1.0
  N  N50  1  0.66554000  0.23643000  0.90893000  1.0
  N  N51  1  0.33446000  0.76357000  0.09107000  1.0
  N  N52  1  0.79213000  0.05368000  0.97486000  1.0
  N  N53  1  0.20787000  0.94631000  0.02514000  1.0
  O  O54  1  0.82409000  0.60221000  0.79705000  1.0
  O  O55  1  0.17591000  0.39779000  0.20295000  1.0
  O  O56  1  0.63005000  0.37823000  0.63268000  1.0
  O  O57  1  0.36995000  0.62178000  0.36732000  1.0
  O  O58  1  0.55032000  0.46080000  0.15043000  1.0
  O  O59  1  0.44968000  0.53920000  0.84957000  1.0
  O  O60  1  0.78955000  0.60406000  0.09138000  1.0
  O  O61  1  0.21045000  0.39594000  0.90862000  1.0
  O  O62  1  0.22548000  0.92897000  0.55691000  1.0
  O  O63  1  0.77452000  0.07103000  0.44309000  1.0
