# generated using pymatgen
data_AgH20C18S(NO)3
_symmetry_space_group_name_H-M   'P 1'
_cell_length_a   7.25757000
_cell_length_b   7.25760000
_cell_length_c   15.74900000
_cell_angle_alpha   93.91430000
_cell_angle_beta   93.91440000
_cell_angle_gamma   93.07360000
_symmetry_Int_Tables_number   1
_chemical_formula_structural   AgH20C18S(NO)3
_chemical_formula_sum   'Ag2 H40 C36 S2 N6 O6'
_cell_volume   824.25752215
_cell_formula_units_Z   2
loop_
 _symmetry_equiv_pos_site_id
 _symmetry_equiv_pos_as_xyz
  1  'x, y, z'
loop_
 _atom_site_type_symbol
 _atom_site_label
 _atom_site_symmetry_multiplicity
 _atom_site_fract_x
 _atom_site_fract_y
 _atom_site_fract_z
 _atom_site_occupancy
  Ag  Ag0  1  0.50077000  0.31188000  0.91512000  1.0
  Ag  Ag1  1  0.31188000  0.50077000  0.41512000  1.0
  H  H2  1  0.74291000  0.86222000  0.71090000  1.0
  H  H3  1  0.86223000  0.74291000  0.21090000  1.0
  H  H4  1  0.83014000  0.61720000  0.80566000  1.0
  H  H5  1  0.61720000  0.83014000  0.30566000  1.0
  H  H6  1  0.00549000  0.70355000  0.94644000  1.0
  H  H7  1  0.70355000  0.00550000  0.44644000  1.0
  H  H8  1  0.15021000  0.93268000  0.05123000  1.0
  H  H9  1  0.93269000  0.15022000  0.55124000  1.0
  H  H10  1  0.12598000  0.51177000  0.01141000  1.0
  H  H11  1  0.51178000  0.12598000  0.51141000  1.0
  H  H12  1  0.95571000  0.43592000  0.87089000  1.0
  H  H13  1  0.43593000  0.95571000  0.37089000  1.0
  H  H14  1  0.65242000  0.18861000  0.04966000  1.0
  H  H15  1  0.18862000  0.65242000  0.54966000  1.0
  H  H16  1  0.79871000  0.00905000  0.07667000  1.0
  H  H17  1  0.00905000  0.79871000  0.57667000  1.0
  H  H18  1  0.57899000  0.02129000  0.12031000  1.0
  H  H19  1  0.02129000  0.57900000  0.62031000  1.0
  H  H20  1  0.31517000  0.13303000  0.79528000  1.0
  H  H21  1  0.13304000  0.31517000  0.29529000  1.0
  H  H22  1  0.19413000  0.92157000  0.75632000  1.0
  H  H23  1  0.92157000  0.19413000  0.25633000  1.0
  H  H24  1  0.42049000  0.97542000  0.72528000  1.0
  H  H25  1  0.97542000  0.42049000  0.22528000  1.0
  H  H26  1  0.29728000  0.43917000  0.79795000  1.0
  H  H27  1  0.43917000  0.29728000  0.29795000  1.0
  H  H28  1  0.39740000  0.58487000  0.72555000  1.0
  H  H29  1  0.58487000  0.39740000  0.22555000  1.0
  H  H30  1  0.17688000  0.62884000  0.76295000  1.0
  H  H31  1  0.62884000  0.17688000  0.26296000  1.0
  H  H32  1  0.59499000  0.48942000  0.05981000  1.0
  H  H33  1  0.48942000  0.59500000  0.55981000  1.0
  H  H34  1  0.58381000  0.69839000  0.12486000  1.0
  H  H35  1  0.69839000  0.58381000  0.62486000  1.0
  H  H36  1  0.78796000  0.65532000  0.07205000  1.0
  H  H37  1  0.65532000  0.78797000  0.57205000  1.0
  H  H38  1  0.24948000  0.40910000  0.14144000  1.0
  H  H39  1  0.40910000  0.24948000  0.64144000  1.0
  H  H40  1  0.28255000  0.17591000  0.15562000  1.0
  H  H41  1  0.17591000  0.28255000  0.65562000  1.0
  C  C42  1  0.85646000  0.08346000  0.79790000  1.0
  C  C43  1  0.08346000  0.85647000  0.29790000  1.0
  C  C44  1  0.81672000  0.89903000  0.77256000  1.0
  C  C45  1  0.89904000  0.81673000  0.27257000  1.0
  C  C46  1  0.86901000  0.76083000  0.82656000  1.0
  C  C47  1  0.76084000  0.86901000  0.32656000  1.0
  C  C48  1  0.96410000  0.80907000  0.90425000  1.0
  C  C49  1  0.80907000  0.96411000  0.40425000  1.0
  C  C50  1  0.10918000  0.04375000  0.01181000  1.0
  C  C51  1  0.04375000  0.10918000  0.51182000  1.0
  C  C52  1  0.15326000  0.22790000  0.04064000  1.0
  C  C53  1  0.22791000  0.15327000  0.54064000  1.0
  C  C54  1  0.09299000  0.36832000  0.98772000  1.0
  C  C55  1  0.36833000  0.09299000  0.48772000  1.0
  C  C56  1  0.99658000  0.32543000  0.90992000  1.0
  C  C57  1  0.32544000  0.99659000  0.40992000  1.0
  C  C58  1  0.95250000  0.13910000  0.87849000  1.0
  C  C59  1  0.13911000  0.95251000  0.37849000  1.0
  C  C60  1  0.01046000  0.99712000  0.93228000  1.0
  C  C61  1  0.99712000  0.01046000  0.43228000  1.0
  C  C62  1  0.56592000  0.92337000  0.98903000  1.0
  C  C63  1  0.92338000  0.56593000  0.48903000  1.0
  C  C64  1  0.41124000  0.89585000  0.85385000  1.0
  C  C65  1  0.89586000  0.41125000  0.35385000  1.0
  C  C66  1  0.40482000  0.70153000  0.85482000  1.0
  C  C67  1  0.70153000  0.40483000  0.35482000  1.0
  C  C68  1  0.55744000  0.72862000  0.99030000  1.0
  C  C69  1  0.72863000  0.55744000  0.49030000  1.0
  C  C70  1  0.65410000  0.04225000  0.06311000  1.0
  C  C71  1  0.04226000  0.65410000  0.56311000  1.0
  C  C72  1  0.33062000  0.98568000  0.77873000  1.0
  C  C73  1  0.98569000  0.33063000  0.27873000  1.0
  C  C74  1  0.31442000  0.58282000  0.78131000  1.0
  C  C75  1  0.58282000  0.31443000  0.28131000  1.0
  C  C76  1  0.63572000  0.63801000  0.06586000  1.0
  C  C77  1  0.63800000  0.63573000  0.56586000  1.0
  S  S78  1  0.78118000  0.24771000  0.72566000  1.0
  S  S79  1  0.24771000  0.78118000  0.22566000  1.0
  N  N80  1  0.49274000  0.00378000  0.92065000  1.0
  N  N81  1  0.00379000  0.49275000  0.42065000  1.0
  N  N82  1  0.47898000  0.62079000  0.92292000  1.0
  N  N83  1  0.62079000  0.47899000  0.42292000  1.0
  N  N84  1  0.25648000  0.27751000  0.11549000  1.0
  N  N85  1  0.27751000  0.25648000  0.61549000  1.0
  O  O86  1  0.65326000  0.36330000  0.77177000  1.0
  O  O87  1  0.36330000  0.65326000  0.27177000  1.0
  O  O88  1  0.68754000  0.14205000  0.65048000  1.0
  O  O89  1  0.14205000  0.68754000  0.15048000  1.0
  O  O90  1  0.94915000  0.35538000  0.70629000  1.0
  O  O91  1  0.35539000  0.94915000  0.20629000  1.0
