# generated using pymatgen
data_Cu6H93C69BrN30
_symmetry_space_group_name_H-M   'P 1'
_cell_length_a   17.00840000
_cell_length_b   18.38920589
_cell_length_c   18.38880000
_cell_angle_alpha   120.00180948
_cell_angle_beta   90.00070000
_cell_angle_gamma   89.99920002
_symmetry_Int_Tables_number   1
_chemical_formula_structural   Cu6H93C69BrN30
_chemical_formula_sum   'Cu12 H186 C138 Br2 N60'
_cell_volume   4980.83939333
_cell_formula_units_Z   2
loop_
 _symmetry_equiv_pos_site_id
 _symmetry_equiv_pos_as_xyz
  1  'x, y, z'
loop_
 _atom_site_type_symbol
 _atom_site_label
 _atom_site_symmetry_multiplicity
 _atom_site_fract_x
 _atom_site_fract_y
 _atom_site_fract_z
 _atom_site_occupancy
  Cu  Cu0  1  0.25000000  0.00100000  0.32696000  1.0
  Cu  Cu1  1  0.25000000  0.17787000  0.63387000  1.0
  Cu  Cu2  1  0.25000000  0.32596000  0.99901000  1.0
  Cu  Cu3  1  0.25000000  0.45598000  0.82214000  1.0
  Cu  Cu4  1  0.25000000  0.67304000  0.67400000  1.0
  Cu  Cu5  1  0.24999000  0.36614000  0.54400000  1.0
  Cu  Cu6  1  0.75000000  0.99907000  0.67305000  1.0
  Cu  Cu7  1  0.75000000  0.82213000  0.36615000  1.0
  Cu  Cu8  1  0.75000000  0.67403000  0.00097000  1.0
  Cu  Cu9  1  0.75000000  0.54401000  0.17785000  1.0
  Cu  Cu10  1  0.74999000  0.32696000  0.32594000  1.0
  Cu  Cu11  1  0.75000000  0.63386000  0.45602000  1.0
  H  H12  1  0.32786000  0.31015000  0.79595000  1.0
  H  H13  1  0.65836000  0.05852000  0.83714000  1.0
  H  H14  1  0.52075000  0.08661000  0.92044000  1.0
  H  H15  1  0.44751000  0.14058000  0.89588000  1.0
  H  H16  1  0.52986000  0.19578000  0.95826000  1.0
  H  H17  1  0.42458000  0.37681000  0.91108000  1.0
  H  H18  1  0.52217000  0.34261000  0.87399000  1.0
  H  H19  1  0.47291000  0.30532000  0.93405000  1.0
  H  H20  1  0.34958000  0.04016000  0.57588000  1.0
  H  H21  1  0.40162000  0.99976000  0.63245000  1.0
  H  H22  1  0.45431000  0.03493000  0.57312000  1.0
  H  H23  1  0.58929000  0.04936000  0.57106000  1.0
  H  H24  1  0.67121000  0.11564000  0.61685000  1.0
  H  H25  1  0.57474000  0.15975000  0.62943000  1.0
  H  H26  1  0.30222000  0.24886000  0.29158000  1.0
  H  H27  1  0.32786000  0.48577000  0.68987000  1.0
  H  H28  1  0.65835000  0.77862000  0.94145000  1.0
  H  H29  1  0.52070000  0.83379000  0.91337000  1.0
  H  H30  1  0.44750000  0.75524000  0.85937000  1.0
  H  H31  1  0.52985000  0.76243000  0.80419000  1.0
  H  H32  1  0.42457000  0.53420000  0.62318000  1.0
  H  H33  1  0.52217000  0.53133000  0.65737000  1.0
  H  H34  1  0.47288000  0.62869000  0.69469000  1.0
  H  H35  1  0.34959000  0.53572000  0.95989000  1.0
  H  H36  1  0.40166000  0.63267000  0.00026000  1.0
  H  H37  1  0.45432000  0.53817000  0.96508000  1.0
  H  H38  1  0.58933000  0.52172000  0.95069000  1.0
  H  H39  1  0.67122000  0.50123000  0.88439000  1.0
  H  H40  1  0.57474000  0.46969000  0.84030000  1.0
  H  H41  1  0.30222000  0.04272000  0.75108000  1.0
  H  H42  1  0.32788000  0.20412000  0.51425000  1.0
  H  H43  1  0.65834000  0.16287000  0.22137000  1.0
  H  H44  1  0.52077000  0.07959000  0.16620000  1.0
  H  H45  1  0.44752000  0.10413000  0.24471000  1.0
  H  H46  1  0.52987000  0.04176000  0.23754000  1.0
  H  H47  1  0.42457000  0.08895000  0.46573000  1.0
  H  H48  1  0.52217000  0.12606000  0.46866000  1.0
  H  H49  1  0.47293000  0.06601000  0.37127000  1.0
  H  H50  1  0.34958000  0.42418000  0.46430000  1.0
  H  H51  1  0.40161000  0.36757000  0.36732000  1.0
  H  H52  1  0.45430000  0.42693000  0.46181000  1.0
  H  H53  1  0.58929000  0.42899000  0.47832000  1.0
  H  H54  1  0.67120000  0.38318000  0.49877000  1.0
  H  H55  1  0.57474000  0.37060000  0.53031000  1.0
  H  H56  1  0.30222000  0.70819000  0.95718000  1.0
  H  H57  1  0.82787000  0.68985000  0.20411000  1.0
  H  H58  1  0.15834000  0.94149000  0.16289000  1.0
  H  H59  1  0.02073000  0.91339000  0.07960000  1.0
  H  H60  1  0.94751000  0.85941000  0.10415000  1.0
  H  H61  1  0.02985000  0.80423000  0.04178000  1.0
  H  H62  1  0.92457000  0.62319000  0.08897000  1.0
  H  H63  1  0.02216000  0.65737000  0.12605000  1.0
  H  H64  1  0.97289000  0.69468000  0.06600000  1.0
  H  H65  1  0.84958000  0.95987000  0.42416000  1.0
  H  H66  1  0.90163000  0.00023000  0.36756000  1.0
  H  H67  1  0.95429000  0.96508000  0.42690000  1.0
  H  H68  1  0.08931000  0.95066000  0.42897000  1.0
  H  H69  1  0.17121000  0.88437000  0.38317000  1.0
  H  H70  1  0.07475000  0.84028000  0.37061000  1.0
  H  H71  1  0.80223000  0.75111000  0.70829000  1.0
  H  H72  1  0.82787000  0.51422000  0.31014000  1.0
  H  H73  1  0.15834000  0.22136000  0.05851000  1.0
  H  H74  1  0.02076000  0.16617000  0.08659000  1.0
  H  H75  1  0.94751000  0.24469000  0.14056000  1.0
  H  H76  1  0.02984000  0.23751000  0.19578000  1.0
  H  H77  1  0.92456000  0.46569000  0.37678000  1.0
  H  H78  1  0.02216000  0.46861000  0.34260000  1.0
  H  H79  1  0.97291000  0.37124000  0.30527000  1.0
  H  H80  1  0.84956000  0.46428000  0.04014000  1.0
  H  H81  1  0.90160000  0.36730000  0.99975000  1.0
  H  H82  1  0.95429000  0.46178000  0.03488000  1.0
  H  H83  1  0.08925000  0.47828000  0.04933000  1.0
  H  H84  1  0.17119000  0.49877000  0.11559000  1.0
  H  H85  1  0.07473000  0.53029000  0.15972000  1.0
  H  H86  1  0.80222000  0.95726000  0.24892000  1.0
  H  H87  1  0.82787000  0.79594000  0.48578000  1.0
  H  H88  1  0.15836000  0.83718000  0.77862000  1.0
  H  H89  1  0.02072000  0.92046000  0.83381000  1.0
  H  H90  1  0.94751000  0.89590000  0.75526000  1.0
  H  H91  1  0.02986000  0.95828000  0.76246000  1.0
  H  H92  1  0.92459000  0.91105000  0.53421000  1.0
  H  H93  1  0.02219000  0.87398000  0.53134000  1.0
  H  H94  1  0.97291000  0.93404000  0.62869000  1.0
  H  H95  1  0.84959000  0.57588000  0.53572000  1.0
  H  H96  1  0.90166000  0.63245000  0.63269000  1.0
  H  H97  1  0.95432000  0.57313000  0.53818000  1.0
  H  H98  1  0.08932000  0.57107000  0.52173000  1.0
  H  H99  1  0.17122000  0.61687000  0.50123000  1.0
  H  H100  1  0.07474000  0.62942000  0.46969000  1.0
  H  H101  1  0.80223000  0.29161000  0.04270000  1.0
  H  H102  1  0.67214000  0.68984000  0.20409000  1.0
  H  H103  1  0.34166000  0.94149000  0.16288000  1.0
  H  H104  1  0.47926000  0.91339000  0.07960000  1.0
  H  H105  1  0.55249000  0.85941000  0.10415000  1.0
  H  H106  1  0.47015000  0.80423000  0.04178000  1.0
  H  H107  1  0.57543000  0.62319000  0.08897000  1.0
  H  H108  1  0.47784000  0.65738000  0.12606000  1.0
  H  H109  1  0.52710000  0.69469000  0.06600000  1.0
  H  H110  1  0.65042000  0.95987000  0.42415000  1.0
  H  H111  1  0.59837000  0.00023000  0.36756000  1.0
  H  H112  1  0.54571000  0.96508000  0.42690000  1.0
  H  H113  1  0.41069000  0.95067000  0.42898000  1.0
  H  H114  1  0.32879000  0.88438000  0.38317000  1.0
  H  H115  1  0.42526000  0.84029000  0.37062000  1.0
  H  H116  1  0.69778000  0.75111000  0.70829000  1.0
  H  H117  1  0.67214000  0.51422000  0.31013000  1.0
  H  H118  1  0.34166000  0.22136000  0.05850000  1.0
  H  H119  1  0.47925000  0.16616000  0.08658000  1.0
  H  H120  1  0.55249000  0.24469000  0.14056000  1.0
  H  H121  1  0.47016000  0.23750000  0.19576000  1.0
  H  H122  1  0.57544000  0.46569000  0.37678000  1.0
  H  H123  1  0.47784000  0.46861000  0.34259000  1.0
  H  H124  1  0.52709000  0.37124000  0.30526000  1.0
  H  H125  1  0.65043000  0.46428000  0.04013000  1.0
  H  H126  1  0.59840000  0.36730000  0.99976000  1.0
  H  H127  1  0.54571000  0.46178000  0.03487000  1.0
  H  H128  1  0.41075000  0.47828000  0.04933000  1.0
  H  H129  1  0.32881000  0.49877000  0.11558000  1.0
  H  H130  1  0.42527000  0.53029000  0.15972000  1.0
  H  H131  1  0.69777000  0.95726000  0.24892000  1.0
  H  H132  1  0.67213000  0.79594000  0.48578000  1.0
  H  H133  1  0.34164000  0.83718000  0.77861000  1.0
  H  H134  1  0.47928000  0.92047000  0.83382000  1.0
  H  H135  1  0.55248000  0.89591000  0.75526000  1.0
  H  H136  1  0.47013000  0.95828000  0.76246000  1.0
  H  H137  1  0.57540000  0.91106000  0.53422000  1.0
  H  H138  1  0.47781000  0.87399000  0.53134000  1.0
  H  H139  1  0.52709000  0.93404000  0.62869000  1.0
  H  H140  1  0.65040000  0.57587000  0.53571000  1.0
  H  H141  1  0.59834000  0.63245000  0.63268000  1.0
  H  H142  1  0.54568000  0.57313000  0.53817000  1.0
  H  H143  1  0.41068000  0.57107000  0.52173000  1.0
  H  H144  1  0.32878000  0.61687000  0.50123000  1.0
  H  H145  1  0.42525000  0.62942000  0.46969000  1.0
  H  H146  1  0.69777000  0.29161000  0.04270000  1.0
  H  H147  1  0.17214000  0.31016000  0.79596000  1.0
  H  H148  1  0.84165000  0.05853000  0.83714000  1.0
  H  H149  1  0.97924000  0.08661000  0.92044000  1.0
  H  H150  1  0.05249000  0.14059000  0.89589000  1.0
  H  H151  1  0.97013000  0.19579000  0.95826000  1.0
  H  H152  1  0.07541000  0.37681000  0.91108000  1.0
  H  H153  1  0.97782000  0.34261000  0.87399000  1.0
  H  H154  1  0.02709000  0.30531000  0.93404000  1.0
  H  H155  1  0.15043000  0.04015000  0.57587000  1.0
  H  H156  1  0.09838000  0.99978000  0.63247000  1.0
  H  H157  1  0.04570000  0.03493000  0.57312000  1.0
  H  H158  1  0.91072000  0.04936000  0.57105000  1.0
  H  H159  1  0.82880000  0.11564000  0.61684000  1.0
  H  H160  1  0.92527000  0.15975000  0.62943000  1.0
  H  H161  1  0.19777000  0.24885000  0.29157000  1.0
  H  H162  1  0.17214000  0.48577000  0.68986000  1.0
  H  H163  1  0.84165000  0.77861000  0.94144000  1.0
  H  H164  1  0.97930000  0.83379000  0.91337000  1.0
  H  H165  1  0.05250000  0.75523000  0.85936000  1.0
  H  H166  1  0.97015000  0.76244000  0.80420000  1.0
  H  H167  1  0.07542000  0.53421000  0.62318000  1.0
  H  H168  1  0.97782000  0.53134000  0.65737000  1.0
  H  H169  1  0.02711000  0.62869000  0.69469000  1.0
  H  H170  1  0.15041000  0.53572000  0.95989000  1.0
  H  H171  1  0.09834000  0.63267000  0.00025000  1.0
  H  H172  1  0.04568000  0.53817000  0.96507000  1.0
  H  H173  1  0.91067000  0.52172000  0.95068000  1.0
  H  H174  1  0.82877000  0.50122000  0.88437000  1.0
  H  H175  1  0.92526000  0.46969000  0.84029000  1.0
  H  H176  1  0.19777000  0.04272000  0.75108000  1.0
  H  H177  1  0.17212000  0.20410000  0.51424000  1.0
  H  H178  1  0.84165000  0.16287000  0.22137000  1.0
  H  H179  1  0.97922000  0.07959000  0.16619000  1.0
  H  H180  1  0.05247000  0.10413000  0.24471000  1.0
  H  H181  1  0.97013000  0.04176000  0.23754000  1.0
  H  H182  1  0.07542000  0.08894000  0.46572000  1.0
  H  H183  1  0.97782000  0.12604000  0.46864000  1.0
  H  H184  1  0.02707000  0.06601000  0.37126000  1.0
  H  H185  1  0.15041000  0.42417000  0.46430000  1.0
  H  H186  1  0.09838000  0.36756000  0.36733000  1.0
  H  H187  1  0.04569000  0.42692000  0.46180000  1.0
  H  H188  1  0.91070000  0.42898000  0.47831000  1.0
  H  H189  1  0.82879000  0.38318000  0.49877000  1.0
  H  H190  1  0.92525000  0.37060000  0.53031000  1.0
  H  H191  1  0.19778000  0.70819000  0.95718000  1.0
  H  H192  1  0.25000000  0.18462000  0.19434000  1.0
  H  H193  1  0.25000000  0.00969000  0.81529000  1.0
  H  H194  1  0.25000000  0.80546000  0.99035000  1.0
  H  H195  1  0.75000000  0.81527000  0.80555000  1.0
  H  H196  1  0.75000000  0.99032000  0.18474000  1.0
  H  H197  1  0.75000000  0.19436000  0.00966000  1.0
  C  C198  1  0.53331000  0.13362000  0.76172000  1.0
  C  C199  1  0.55375000  0.11777000  0.82630000  1.0
  C  C200  1  0.51094000  0.13582000  0.90409000  1.0
  C  C201  1  0.59808000  0.10434000  0.70524000  1.0
  C  C202  1  0.46072000  0.17119000  0.75324000  1.0
  C  C203  1  0.43219000  0.25224000  0.80719000  1.0
  C  C204  1  0.40457000  0.13389000  0.68743000  1.0
  C  C205  1  0.46472000  0.32299000  0.88568000  1.0
  C  C206  1  0.40237000  0.04765000  0.61331000  1.0
  C  C207  1  0.60886000  0.10770000  0.62661000  1.0
  C  C208  1  0.53332000  0.62808000  0.86638000  1.0
  C  C209  1  0.55374000  0.70852000  0.88221000  1.0
  C  C210  1  0.51092000  0.76824000  0.86415000  1.0
  C  C211  1  0.59809000  0.60092000  0.89570000  1.0
  C  C212  1  0.46072000  0.58202000  0.82883000  1.0
  C  C213  1  0.43220000  0.55490000  0.74777000  1.0
  C  C214  1  0.40458000  0.55351000  0.86613000  1.0
  C  C215  1  0.46471000  0.56264000  0.67702000  1.0
  C  C216  1  0.40239000  0.56564000  0.95238000  1.0
  C  C217  1  0.60887000  0.51893000  0.89235000  1.0
  C  C218  1  0.53331000  0.23832000  0.37192000  1.0
  C  C219  1  0.55375000  0.17371000  0.29149000  1.0
  C  C220  1  0.51094000  0.09591000  0.23174000  1.0
  C  C221  1  0.59808000  0.29480000  0.39908000  1.0
  C  C222  1  0.46072000  0.24681000  0.41798000  1.0
  C  C223  1  0.43219000  0.19287000  0.44509000  1.0
  C  C224  1  0.40459000  0.31264000  0.44649000  1.0
  C  C225  1  0.46472000  0.11438000  0.43732000  1.0
  C  C226  1  0.40237000  0.38675000  0.43437000  1.0
  C  C227  1  0.60885000  0.37344000  0.48109000  1.0
  C  C228  1  0.03331000  0.86638000  0.23831000  1.0
  C  C229  1  0.05373000  0.88222000  0.17370000  1.0
  C  C230  1  0.01092000  0.86417000  0.09592000  1.0
  C  C231  1  0.09808000  0.89568000  0.29480000  1.0
  C  C232  1  0.96071000  0.82881000  0.24679000  1.0
  C  C233  1  0.93220000  0.74775000  0.19285000  1.0
  C  C234  1  0.90458000  0.86614000  0.31263000  1.0
  C  C235  1  0.96471000  0.67701000  0.11437000  1.0
  C  C236  1  0.90237000  0.95238000  0.38674000  1.0
  C  C237  1  0.10886000  0.89232000  0.37343000  1.0
  C  C238  1  0.03331000  0.37189000  0.13360000  1.0
  C  C239  1  0.05375000  0.29146000  0.11777000  1.0
  C  C240  1  0.01094000  0.23172000  0.13582000  1.0
  C  C241  1  0.09808000  0.39906000  0.10430000  1.0
  C  C242  1  0.96073000  0.41795000  0.17117000  1.0
  C  C243  1  0.93219000  0.44505000  0.25221000  1.0
  C  C244  1  0.90458000  0.44648000  0.13387000  1.0
  C  C245  1  0.96470000  0.43729000  0.32296000  1.0
  C  C246  1  0.90236000  0.43434000  0.04762000  1.0
  C  C247  1  0.10884000  0.48106000  0.10766000  1.0
  C  C248  1  0.03331000  0.76173000  0.62809000  1.0
  C  C249  1  0.05375000  0.82634000  0.70853000  1.0
  C  C250  1  0.01093000  0.90413000  0.76827000  1.0
  C  C251  1  0.09809000  0.70526000  0.60092000  1.0
  C  C252  1  0.96073000  0.75325000  0.58204000  1.0
  C  C253  1  0.93220000  0.80717000  0.55491000  1.0
  C  C254  1  0.90459000  0.68743000  0.55353000  1.0
  C  C255  1  0.96473000  0.88565000  0.56264000  1.0
  C  C256  1  0.90239000  0.61331000  0.56565000  1.0
  C  C257  1  0.10887000  0.62662000  0.51893000  1.0
  C  C258  1  0.46669000  0.86639000  0.23832000  1.0
  C  C259  1  0.44627000  0.88223000  0.17371000  1.0
  C  C260  1  0.48908000  0.86417000  0.09593000  1.0
  C  C261  1  0.40192000  0.89568000  0.29479000  1.0
  C  C262  1  0.53929000  0.82881000  0.24680000  1.0
  C  C263  1  0.56780000  0.74775000  0.19285000  1.0
  C  C264  1  0.59543000  0.86612000  0.31262000  1.0
  C  C265  1  0.53528000  0.67701000  0.11437000  1.0
  C  C266  1  0.59763000  0.95237000  0.38673000  1.0
  C  C267  1  0.39114000  0.89233000  0.37344000  1.0
  C  C268  1  0.46669000  0.37189000  0.13360000  1.0
  C  C269  1  0.44625000  0.29145000  0.11776000  1.0
  C  C270  1  0.48906000  0.23172000  0.13581000  1.0
  C  C271  1  0.40192000  0.39906000  0.10429000  1.0
  C  C272  1  0.53928000  0.41795000  0.17117000  1.0
  C  C273  1  0.56782000  0.44506000  0.25222000  1.0
  C  C274  1  0.59542000  0.44650000  0.13388000  1.0
  C  C275  1  0.53529000  0.43729000  0.32295000  1.0
  C  C276  1  0.59764000  0.43434000  0.04762000  1.0
  C  C277  1  0.39116000  0.48106000  0.10765000  1.0
  C  C278  1  0.46669000  0.76173000  0.62809000  1.0
  C  C279  1  0.44625000  0.82633000  0.70852000  1.0
  C  C280  1  0.48907000  0.90413000  0.76826000  1.0
  C  C281  1  0.40191000  0.70525000  0.60091000  1.0
  C  C282  1  0.53927000  0.75324000  0.58203000  1.0
  C  C283  1  0.56779000  0.80717000  0.55490000  1.0
  C  C284  1  0.59541000  0.68742000  0.55351000  1.0
  C  C285  1  0.53526000  0.88566000  0.56265000  1.0
  C  C286  1  0.59760000  0.61330000  0.56564000  1.0
  C  C287  1  0.39113000  0.62662000  0.51893000  1.0
  C  C288  1  0.96670000  0.13362000  0.76172000  1.0
  C  C289  1  0.94626000  0.11778000  0.82631000  1.0
  C  C290  1  0.98906000  0.13582000  0.90409000  1.0
  C  C291  1  0.90193000  0.10434000  0.70524000  1.0
  C  C292  1  0.03929000  0.17119000  0.75324000  1.0
  C  C293  1  0.06781000  0.25224000  0.80718000  1.0
  C  C294  1  0.09543000  0.13390000  0.68742000  1.0
  C  C295  1  0.03528000  0.32298000  0.88567000  1.0
  C  C296  1  0.09763000  0.04765000  0.61330000  1.0
  C  C297  1  0.89115000  0.10770000  0.62661000  1.0
  C  C298  1  0.96669000  0.62808000  0.86638000  1.0
  C  C299  1  0.94626000  0.70852000  0.88221000  1.0
  C  C300  1  0.98908000  0.76823000  0.86414000  1.0
  C  C301  1  0.90191000  0.60091000  0.89568000  1.0
  C  C302  1  0.03927000  0.58201000  0.82881000  1.0
  C  C303  1  0.06780000  0.55489000  0.74775000  1.0
  C  C304  1  0.09541000  0.55349000  0.86611000  1.0
  C  C305  1  0.03529000  0.56264000  0.67701000  1.0
  C  C306  1  0.09761000  0.56563000  0.95237000  1.0
  C  C307  1  0.89113000  0.51893000  0.89234000  1.0
  C  C308  1  0.96668000  0.23831000  0.37191000  1.0
  C  C309  1  0.94625000  0.17371000  0.29149000  1.0
  C  C310  1  0.98905000  0.09591000  0.23174000  1.0
  C  C311  1  0.90191000  0.29480000  0.39909000  1.0
  C  C312  1  0.03927000  0.24680000  0.41798000  1.0
  C  C313  1  0.06780000  0.19286000  0.44509000  1.0
  C  C314  1  0.09540000  0.31264000  0.44651000  1.0
  C  C315  1  0.03528000  0.11437000  0.43732000  1.0
  C  C316  1  0.09762000  0.38674000  0.43437000  1.0
  C  C317  1  0.89113000  0.37344000  0.48109000  1.0
  C  C318  1  0.25000000  0.06254000  0.44296000  1.0
  C  C319  1  0.25000000  0.14005000  0.27960000  1.0
  C  C320  1  0.25000000  0.20944000  0.26368000  1.0
  C  C321  1  0.25000000  0.38042000  0.93749000  1.0
  C  C322  1  0.25000000  0.13953000  0.85990000  1.0
  C  C323  1  0.25000000  0.05423000  0.79050000  1.0
  C  C324  1  0.25000000  0.55704000  0.61955000  1.0
  C  C325  1  0.25000000  0.72038000  0.86048000  1.0
  C  C326  1  0.25000000  0.73613000  0.94572000  1.0
  C  C327  1  0.75000000  0.93750000  0.55706000  1.0
  C  C328  1  0.75000000  0.85996000  0.72038000  1.0
  C  C329  1  0.75000000  0.79052000  0.73622000  1.0
  C  C330  1  0.75000000  0.61958000  0.06251000  1.0
  C  C331  1  0.75000000  0.86047000  0.14008000  1.0
  C  C332  1  0.75000000  0.94576000  0.20950000  1.0
  C  C333  1  0.74999000  0.44296000  0.38043000  1.0
  C  C334  1  0.75000000  0.27959000  0.13951000  1.0
  C  C335  1  0.75000000  0.26370000  0.05421000  1.0
  Br  Br336  1  0.25016000  0.33333333  0.66666667  1.0
  Br  Br337  1  0.75014000  0.66666667  0.33333333  1.0
  N  N338  1  0.36437000  0.25918000  0.77297000  1.0
  N  N339  1  0.34619000  0.18855000  0.70055000  1.0
  N  N340  1  0.62557000  0.08083000  0.80583000  1.0
  N  N341  1  0.65357000  0.07184000  0.73279000  1.0
  N  N342  1  0.36436000  0.51374000  0.74083000  1.0
  N  N343  1  0.34620000  0.51197000  0.81146000  1.0
  N  N344  1  0.62556000  0.72500000  0.91917000  1.0
  N  N345  1  0.65357000  0.66097000  0.92820000  1.0
  N  N346  1  0.36437000  0.22709000  0.48625000  1.0
  N  N347  1  0.34621000  0.29949000  0.48803000  1.0
  N  N348  1  0.62556000  0.19419000  0.27500000  1.0
  N  N349  1  0.65356000  0.26726000  0.33904000  1.0
  N  N350  1  0.86436000  0.74082000  0.22708000  1.0
  N  N351  1  0.84620000  0.81144000  0.29948000  1.0
  N  N352  1  0.12555000  0.91918000  0.19420000  1.0
  N  N353  1  0.15356000  0.92819000  0.26725000  1.0
  N  N354  1  0.86437000  0.48623000  0.25917000  1.0
  N  N355  1  0.84621000  0.48802000  0.18853000  1.0
  N  N356  1  0.12557000  0.27498000  0.08081000  1.0
  N  N357  1  0.15356000  0.33902000  0.07180000  1.0
  N  N358  1  0.86438000  0.77295000  0.51375000  1.0
  N  N359  1  0.84621000  0.70055000  0.51199000  1.0
  N  N360  1  0.12557000  0.80586000  0.72501000  1.0
  N  N361  1  0.15357000  0.73280000  0.66096000  1.0
  N  N362  1  0.63563000  0.74081000  0.22708000  1.0
  N  N363  1  0.65381000  0.81144000  0.29949000  1.0
  N  N364  1  0.37445000  0.91919000  0.19421000  1.0
  N  N365  1  0.34644000  0.92819000  0.26725000  1.0
  N  N366  1  0.63563000  0.48625000  0.25918000  1.0
  N  N367  1  0.65378000  0.48805000  0.18855000  1.0
  N  N368  1  0.37444000  0.27498000  0.08081000  1.0
  N  N369  1  0.34644000  0.33902000  0.07180000  1.0
  N  N370  1  0.63561000  0.77294000  0.51373000  1.0
  N  N371  1  0.65378000  0.70054000  0.51196000  1.0
  N  N372  1  0.37443000  0.80585000  0.72500000  1.0
  N  N373  1  0.34643000  0.73280000  0.66097000  1.0
  N  N374  1  0.13563000  0.25919000  0.77295000  1.0
  N  N375  1  0.15380000  0.18857000  0.70054000  1.0
  N  N376  1  0.87443000  0.08083000  0.80582000  1.0
  N  N377  1  0.84644000  0.07184000  0.73279000  1.0
  N  N378  1  0.13563000  0.51371000  0.74081000  1.0
  N  N379  1  0.15379000  0.51194000  0.81144000  1.0
  N  N380  1  0.87444000  0.72500000  0.91917000  1.0
  N  N381  1  0.84643000  0.66097000  0.92819000  1.0
  N  N382  1  0.13562000  0.22709000  0.48627000  1.0
  N  N383  1  0.15377000  0.29950000  0.48806000  1.0
  N  N384  1  0.87443000  0.19419000  0.27500000  1.0
  N  N385  1  0.84643000  0.26726000  0.33905000  1.0
  N  N386  1  0.25000000  0.10822000  0.51675000  1.0
  N  N387  1  0.24999000  0.07321000  0.27335000  1.0
  N  N388  1  0.24999000  0.40852000  0.89180000  1.0
  N  N389  1  0.25000000  0.20011000  0.92675000  1.0
  N  N390  1  0.24999000  0.48326000  0.59147000  1.0
  N  N391  1  0.25000000  0.72656000  0.79986000  1.0
  N  N392  1  0.75000000  0.89180000  0.48327000  1.0
  N  N393  1  0.75001000  0.92681000  0.72667000  1.0
  N  N394  1  0.75000000  0.59148000  0.10820000  1.0
  N  N395  1  0.75000000  0.79987000  0.07324000  1.0
  N  N396  1  0.74999000  0.51674000  0.40854000  1.0
  N  N397  1  0.75000000  0.27342000  0.20014000  1.0
