# generated using pymatgen
data_Co3H40C53(NO3)4
_symmetry_space_group_name_H-M   'P 1'
_cell_length_a   13.92250000
_cell_length_b   19.04030000
_cell_length_c   26.18200000
_cell_angle_alpha   89.96730000
_cell_angle_beta   89.93040000
_cell_angle_gamma   89.97020000
_symmetry_Int_Tables_number   1
_chemical_formula_structural   Co3H40C53(NO3)4
_chemical_formula_sum   'Co12 H160 C212 N16 O48'
_cell_volume   6940.54192907
_cell_formula_units_Z   4
loop_
 _symmetry_equiv_pos_site_id
 _symmetry_equiv_pos_as_xyz
  1  'x, y, z'
loop_
 _atom_site_type_symbol
 _atom_site_label
 _atom_site_symmetry_multiplicity
 _atom_site_fract_x
 _atom_site_fract_y
 _atom_site_fract_z
 _atom_site_occupancy
  Co  Co0  1  0.97775000  0.93593000  0.85856000  1.0
  Co  Co1  1  0.52192000  0.43583000  0.64098000  1.0
  Co  Co2  1  0.01995000  0.56400000  0.85927000  1.0
  Co  Co3  1  0.47895000  0.06395000  0.64152000  1.0
  Co  Co4  1  0.02224000  0.06335000  0.14115000  1.0
  Co  Co5  1  0.46736000  0.57016000  0.36423000  1.0
  Co  Co6  1  0.97837000  0.43540000  0.14144000  1.0
  Co  Co7  1  0.52230000  0.93612000  0.35752000  1.0
  Co  Co8  1  0.99789000  0.74970000  0.85860000  1.0
  Co  Co9  1  0.50029000  0.24976000  0.64171000  1.0
  Co  Co10  1  0.00053000  0.25042000  0.14144000  1.0
  Co  Co11  1  0.50275000  0.74915000  0.35871000  1.0
  H  H12  1  0.38087000  0.96595000  0.22083000  1.0
  H  H13  1  0.11066000  0.46837000  0.28201000  1.0
  H  H14  1  0.60982000  0.52838000  0.21943000  1.0
  H  H15  1  0.88475000  0.03046000  0.28107000  1.0
  H  H16  1  0.61649000  0.03052000  0.78087000  1.0
  H  H17  1  0.88052000  0.52924000  0.72023000  1.0
  H  H18  1  0.38358000  0.46956000  0.78052000  1.0
  H  H19  1  0.11552000  0.96876000  0.71854000  1.0
  H  H20  1  0.30476000  0.96926000  0.13557000  1.0
  H  H21  1  0.18590000  0.47056000  0.36765000  1.0
  H  H22  1  0.68933000  0.52680000  0.13471000  1.0
  H  H23  1  0.80638000  0.02896000  0.36604000  1.0
  H  H24  1  0.69359000  0.02836000  0.86604000  1.0
  H  H25  1  0.80531000  0.52616000  0.63470000  1.0
  H  H26  1  0.30628000  0.47138000  0.86576000  1.0
  H  H27  1  0.19400000  0.97073000  0.63372000  1.0
  H  H28  1  0.30003000  0.74247000  0.13362000  1.0
  H  H29  1  0.20464000  0.24413000  0.36476000  1.0
  H  H30  1  0.69859000  0.75341000  0.13627000  1.0
  H  H31  1  0.80103000  0.25567000  0.36552000  1.0
  H  H32  1  0.69936000  0.25510000  0.86621000  1.0
  H  H33  1  0.80059000  0.75289000  0.63272000  1.0
  H  H34  1  0.30081000  0.24463000  0.86574000  1.0
  H  H35  1  0.19927000  0.74394000  0.63371000  1.0
  H  H36  1  0.62414000  0.67165000  0.86798000  1.0
  H  H37  1  0.87457000  0.17120000  0.63223000  1.0
  H  H38  1  0.37262000  0.82900000  0.86808000  1.0
  H  H39  1  0.12613000  0.32826000  0.63265000  1.0
  H  H40  1  0.37410000  0.32858000  0.13325000  1.0
  H  H41  1  0.12799000  0.82606000  0.37286000  1.0
  H  H42  1  0.62490000  0.17169000  0.13183000  1.0
  H  H43  1  0.87599000  0.67115000  0.36219000  1.0
  H  H44  1  0.49406000  0.87120000  0.83098000  1.0
  H  H45  1  0.00517000  0.37038000  0.66933000  1.0
  H  H46  1  0.50299000  0.62950000  0.83115000  1.0
  H  H47  1  0.99519000  0.12881000  0.66899000  1.0
  H  H48  1  0.50458000  0.12915000  0.17010000  1.0
  H  H49  1  0.99782000  0.63285000  0.32152000  1.0
  H  H50  1  0.49521000  0.37026000  0.17187000  1.0
  H  H51  1  0.00803000  0.87276000  0.33426000  1.0
  H  H52  1  0.37429000  0.74076000  0.21921000  1.0
  H  H53  1  0.12930000  0.24373000  0.27931000  1.0
  H  H54  1  0.62184000  0.75330000  0.22128000  1.0
  H  H55  1  0.87713000  0.25559000  0.28018000  1.0
  H  H56  1  0.62398000  0.25566000  0.78082000  1.0
  H  H57  1  0.87340000  0.75439000  0.71861000  1.0
  H  H58  1  0.37640000  0.24442000  0.78030000  1.0
  H  H59  1  0.12272000  0.74368000  0.71885000  1.0
  H  H60  1  0.65433000  0.92691000  0.83298000  1.0
  H  H61  1  0.84508000  0.42650000  0.66718000  1.0
  H  H62  1  0.34276000  0.57368000  0.83343000  1.0
  H  H63  1  0.15536000  0.07264000  0.66674000  1.0
  H  H64  1  0.34454000  0.07296000  0.16737000  1.0
  H  H65  1  0.15767000  0.57632000  0.32019000  1.0
  H  H66  1  0.65553000  0.42619000  0.16943000  1.0
  H  H67  1  0.84776000  0.92861000  0.33660000  1.0
  H  H68  1  0.11416000  0.96855000  0.00194000  1.0
  H  H69  1  0.38252000  0.46828000  0.49974000  1.0
  H  H70  1  0.88431000  0.53018000  0.00210000  1.0
  H  H71  1  0.61234000  0.03189000  0.49805000  1.0
  H  H72  1  0.88719000  0.03072000  0.99824000  1.0
  H  H73  1  0.62460000  0.52726000  0.49708000  1.0
  H  H74  1  0.11354000  0.46850000  0.99857000  1.0
  H  H75  1  0.38602000  0.96799000  0.50034000  1.0
  H  H76  1  0.20393000  0.96778000  0.08265000  1.0
  H  H77  1  0.29325000  0.46829000  0.41855000  1.0
  H  H78  1  0.79368000  0.52924000  0.08276000  1.0
  H  H79  1  0.70222000  0.03180000  0.41716000  1.0
  H  H80  1  0.79694000  0.03081000  0.91758000  1.0
  H  H81  1  0.70810000  0.52765000  0.57954000  1.0
  H  H82  1  0.20315000  0.46878000  0.91759000  1.0
  H  H83  1  0.29591000  0.96839000  0.58113000  1.0
  H  H84  1  0.17734000  0.75020000  0.97927000  1.0
  H  H85  1  0.32165000  0.24929000  0.52036000  1.0
  H  H86  1  0.82180000  0.74907000  0.98178000  1.0
  H  H87  1  0.67876000  0.24972000  0.52049000  1.0
  H  H88  1  0.82138000  0.24871000  0.02079000  1.0
  H  H89  1  0.68752000  0.74609000  0.47662000  1.0
  H  H90  1  0.17911000  0.25033000  0.02044000  1.0
  H  H91  1  0.32450000  0.74904000  0.47978000  1.0
  H  H92  1  0.78411000  0.72782000  0.86814000  1.0
  H  H93  1  0.71462000  0.22780000  0.63212000  1.0
  H  H94  1  0.21264000  0.77269000  0.86830000  1.0
  H  H95  1  0.28606000  0.27163000  0.63258000  1.0
  H  H96  1  0.21423000  0.27194000  0.13243000  1.0
  H  H97  1  0.28743000  0.76893000  0.37158000  1.0
  H  H98  1  0.78501000  0.22802000  0.13142000  1.0
  H  H99  1  0.71605000  0.72758000  0.36238000  1.0
  H  H100  1  0.27213000  0.74847000  0.05892000  1.0
  H  H101  1  0.22684000  0.24860000  0.44061000  1.0
  H  H102  1  0.72645000  0.74908000  0.06140000  1.0
  H  H103  1  0.77385000  0.25044000  0.44070000  1.0
  H  H104  1  0.72610000  0.24962000  0.94121000  1.0
  H  H105  1  0.77746000  0.74706000  0.55781000  1.0
  H  H106  1  0.27410000  0.24981000  0.94066000  1.0
  H  H107  1  0.22900000  0.74860000  0.55930000  1.0
  H  H108  1  0.06492000  0.05429000  0.93173000  1.0
  H  H109  1  0.44217000  0.55468000  0.56614000  1.0
  H  H110  1  0.93376000  0.44494000  0.93275000  1.0
  H  H111  1  0.56407000  0.94535000  0.56792000  1.0
  H  H112  1  0.93554000  0.94518000  0.06762000  1.0
  H  H113  1  0.56332000  0.45874000  0.43463000  1.0
  H  H114  1  0.06478000  0.55423000  0.06823000  1.0
  H  H115  1  0.43196000  0.05342000  0.43040000  1.0
  H  H116  1  0.91730000  0.01086000  0.76980000  1.0
  H  H117  1  0.58240000  0.51072000  0.72986000  1.0
  H  H118  1  0.08082000  0.49000000  0.77069000  1.0
  H  H119  1  0.41527000  0.98922000  0.72960000  1.0
  H  H120  1  0.08133000  0.98867000  0.23001000  1.0
  H  H121  1  0.42291000  0.49740000  0.26948000  1.0
  H  H122  1  0.91212000  0.50982000  0.22887000  1.0
  H  H123  1  0.58935000  0.01425000  0.27039000  1.0
  H  H124  1  0.93788000  0.09701000  0.74582000  1.0
  H  H125  1  0.55963000  0.59655000  0.75388000  1.0
  H  H126  1  0.06095000  0.40395000  0.74653000  1.0
  H  H127  1  0.43767000  0.90358000  0.75411000  1.0
  H  H128  1  0.05975000  0.90267000  0.25401000  1.0
  H  H129  1  0.43528000  0.40843000  0.24935000  1.0
  H  H130  1  0.93364000  0.59539000  0.25360000  1.0
  H  H131  1  0.56312000  0.09947000  0.24608000  1.0
  H  H132  1  0.82878000  0.07738000  0.77829000  1.0
  H  H133  1  0.67042000  0.57782000  0.72277000  1.0
  H  H134  1  0.16997000  0.42384000  0.77885000  1.0
  H  H135  1  0.32801000  0.92180000  0.72181000  1.0
  H  H136  1  0.16959000  0.92183000  0.22208000  1.0
  H  H137  1  0.32858000  0.43617000  0.28100000  1.0
  H  H138  1  0.82503000  0.57723000  0.22047000  1.0
  H  H139  1  0.67297000  0.08376000  0.27886000  1.0
  H  H140  1  0.96572000  0.28931000  0.76333000  1.0
  H  H141  1  0.53317000  0.78832000  0.73707000  1.0
  H  H142  1  0.03486000  0.21169000  0.76331000  1.0
  H  H143  1  0.46520000  0.71024000  0.73644000  1.0
  H  H144  1  0.03259000  0.71037000  0.23640000  1.0
  H  H145  1  0.46806000  0.22077000  0.26540000  1.0
  H  H146  1  0.96419000  0.78833000  0.23660000  1.0
  H  H147  1  0.54280000  0.29537000  0.26705000  1.0
  H  H148  1  0.01824000  0.19439000  0.91590000  1.0
  H  H149  1  0.48756000  0.69480000  0.58274000  1.0
  H  H150  1  0.98134000  0.30514000  0.91648000  1.0
  H  H151  1  0.51754000  0.80533000  0.58387000  1.0
  H  H152  1  0.98184000  0.80505000  0.08369000  1.0
  H  H153  1  0.52805000  0.31729000  0.41677000  1.0
  H  H154  1  0.01805000  0.69425000  0.08409000  1.0
  H  H155  1  0.47526000  0.19455000  0.41612000  1.0
  H  H156  1  0.86229000  0.19827000  0.79580000  1.0
  H  H157  1  0.63836000  0.69859000  0.70446000  1.0
  H  H158  1  0.13759000  0.30277000  0.79627000  1.0
  H  H159  1  0.36149000  0.80110000  0.70387000  1.0
  H  H160  1  0.13656000  0.80110000  0.20413000  1.0
  H  H161  1  0.36839000  0.31188000  0.29806000  1.0
  H  H162  1  0.86033000  0.69796000  0.20376000  1.0
  H  H163  1  0.63893000  0.20135000  0.29902000  1.0
  H  H164  1  0.89247000  0.24979000  0.84913000  1.0
  H  H165  1  0.60808000  0.75066000  0.65138000  1.0
  H  H166  1  0.10725000  0.25049000  0.84926000  1.0
  H  H167  1  0.39283000  0.74964000  0.65061000  1.0
  H  H168  1  0.10640000  0.74949000  0.15086000  1.0
  H  H169  1  0.39740000  0.26195000  0.35227000  1.0
  H  H170  1  0.89127000  0.74967000  0.15055000  1.0
  H  H171  1  0.60844000  0.25024000  0.35359000  1.0
  C  C172  1  0.82420000  0.86554000  0.85423000  1.0
  C  C173  1  0.67526000  0.36557000  0.64582000  1.0
  C  C174  1  0.17289000  0.63481000  0.85449000  1.0
  C  C175  1  0.32530000  0.13378000  0.64593000  1.0
  C  C176  1  0.17487000  0.13403000  0.14576000  1.0
  C  C177  1  0.32481000  0.63264000  0.34944000  1.0
  C  C178  1  0.82480000  0.36540000  0.14635000  1.0
  C  C179  1  0.67663000  0.86646000  0.35308000  1.0
  C  C180  1  0.42381000  0.85124000  0.27811000  1.0
  C  C181  1  0.07396000  0.35412000  0.22277000  1.0
  C  C182  1  0.56800000  0.64253000  0.27832000  1.0
  C  C183  1  0.92759000  0.14477000  0.22274000  1.0
  C  C184  1  0.57415000  0.14515000  0.72291000  1.0
  C  C185  1  0.92418000  0.64451000  0.77733000  1.0
  C  C186  1  0.42634000  0.35501000  0.72251000  1.0
  C  C187  1  0.07155000  0.85415000  0.77653000  1.0
  C  C188  1  0.72934000  0.83103000  0.85088000  1.0
  C  C189  1  0.76986000  0.33078000  0.64932000  1.0
  C  C190  1  0.26763000  0.66954000  0.85117000  1.0
  C  C191  1  0.23062000  0.16851000  0.64928000  1.0
  C  C192  1  0.26941000  0.16881000  0.14950000  1.0
  C  C193  1  0.23269000  0.66898000  0.34593000  1.0
  C  C194  1  0.73015000  0.33075000  0.14997000  1.0
  C  C195  1  0.77164000  0.83186000  0.34995000  1.0
  C  C196  1  0.38162000  0.85318000  0.22568000  1.0
  C  C197  1  0.11614000  0.35597000  0.27515000  1.0
  C  C198  1  0.61152000  0.64091000  0.22597000  1.0
  C  C199  1  0.88512000  0.14315000  0.27514000  1.0
  C  C200  1  0.61613000  0.14323000  0.77533000  1.0
  C  C201  1  0.88171000  0.64203000  0.72494000  1.0
  C  C202  1  0.38408000  0.35685000  0.77490000  1.0
  C  C203  1  0.11470000  0.85608000  0.72424000  1.0
  C  C204  1  0.54635000  0.76691000  0.84925000  1.0
  C  C205  1  0.95242000  0.26630000  0.65106000  1.0
  C  C206  1  0.45051000  0.73377000  0.84932000  1.0
  C  C207  1  0.04808000  0.23302000  0.65107000  1.0
  C  C208  1  0.45185000  0.23332000  0.15198000  1.0
  C  C209  1  0.05028000  0.73402000  0.34704000  1.0
  C  C210  1  0.54754000  0.26655000  0.15202000  1.0
  C  C211  1  0.95471000  0.76745000  0.34793000  1.0
  C  C212  1  0.29595000  0.85618000  0.12748000  1.0
  C  C213  1  0.20207000  0.35757000  0.37315000  1.0
  C  C214  1  0.70066000  0.63988000  0.12841000  1.0
  C  C215  1  0.79730000  0.14208000  0.37278000  1.0
  C  C216  1  0.70291000  0.14146000  0.87314000  1.0
  C  C217  1  0.79753000  0.63917000  0.62629000  1.0
  C  C218  1  0.29706000  0.35826000  0.87274000  1.0
  C  C219  1  0.20317000  0.85758000  0.62657000  1.0
  C  C220  1  0.36293000  0.91725000  0.20114000  1.0
  C  C221  1  0.13144000  0.41957000  0.30081000  1.0
  C  C222  1  0.62961000  0.57743000  0.20063000  1.0
  C  C223  1  0.86631000  0.07953000  0.30019000  1.0
  C  C224  1  0.63475000  0.07944000  0.80020000  1.0
  C  C225  1  0.86305000  0.57801000  0.70043000  1.0
  C  C226  1  0.36530000  0.42056000  0.79981000  1.0
  C  C227  1  0.13396000  0.91975000  0.69934000  1.0
  C  C228  1  0.32065000  0.91869000  0.15308000  1.0
  C  C229  1  0.17365000  0.42031000  0.34890000  1.0
  C  C230  1  0.67375000  0.57696000  0.15292000  1.0
  C  C231  1  0.82284000  0.07910000  0.34803000  1.0
  C  C232  1  0.67759000  0.07864000  0.84814000  1.0
  C  C233  1  0.82140000  0.57667000  0.65219000  1.0
  C  C234  1  0.32230000  0.42118000  0.84776000  1.0
  C  C235  1  0.17764000  0.92043000  0.65153000  1.0
  C  C236  1  0.31775000  0.79214000  0.15199000  1.0
  C  C237  1  0.18378000  0.29392000  0.34743000  1.0
  C  C238  1  0.67926000  0.70337000  0.15369000  1.0
  C  C239  1  0.81952000  0.20567000  0.34780000  1.0
  C  C240  1  0.68104000  0.20522000  0.84830000  1.0
  C  C241  1  0.81834000  0.70316000  0.65106000  1.0
  C  C242  1  0.31906000  0.29458000  0.84785000  1.0
  C  C243  1  0.18085000  0.79392000  0.65149000  1.0
  C  C244  1  0.62993000  0.72746000  0.85913000  1.0
  C  C245  1  0.86883000  0.22699000  0.64112000  1.0
  C  C246  1  0.36688000  0.77320000  0.85924000  1.0
  C  C247  1  0.13176000  0.27240000  0.64133000  1.0
  C  C248  1  0.36830000  0.27272000  0.14194000  1.0
  C  C249  1  0.13379000  0.77159000  0.36038000  1.0
  C  C250  1  0.63091000  0.22729000  0.14125000  1.0
  C  C251  1  0.87060000  0.72755000  0.35543000  1.0
  C  C252  1  0.55709000  0.83926000  0.83945000  1.0
  C  C253  1  0.94202000  0.33866000  0.66083000  1.0
  C  C254  1  0.43992000  0.66141000  0.83965000  1.0
  C  C255  1  0.05839000  0.16058000  0.66061000  1.0
  C  C256  1  0.44144000  0.16091000  0.16155000  1.0
  C  C257  1  0.06090000  0.66311000  0.33252000  1.0
  C  C258  1  0.55817000  0.33867000  0.16256000  1.0
  C  C259  1  0.94457000  0.84049000  0.34096000  1.0
  C  C260  1  0.35918000  0.79053000  0.20027000  1.0
  C  C261  1  0.14196000  0.29303000  0.29931000  1.0
  C  C262  1  0.63625000  0.70396000  0.20163000  1.0
  C  C263  1  0.86196000  0.20630000  0.29975000  1.0
  C  C264  1  0.63901000  0.20620000  0.80021000  1.0
  C  C265  1  0.85901000  0.70467000  0.69950000  1.0
  C  C266  1  0.36120000  0.29379000  0.79974000  1.0
  C  C267  1  0.13809000  0.79309000  0.69947000  1.0
  C  C268  1  0.64691000  0.87091000  0.84038000  1.0
  C  C269  1  0.85235000  0.37049000  0.65984000  1.0
  C  C270  1  0.35015000  0.62971000  0.84071000  1.0
  C  C271  1  0.14807000  0.12872000  0.65957000  1.0
  C  C272  1  0.35183000  0.12904000  0.16020000  1.0
  C  C273  1  0.15033000  0.63108000  0.33160000  1.0
  C  C274  1  0.64791000  0.37037000  0.16142000  1.0
  C  C275  1  0.85472000  0.87216000  0.34203000  1.0
  C  C276  1  0.08131000  0.85780000  0.93738000  1.0
  C  C277  1  0.41623000  0.35687000  0.56315000  1.0
  C  C278  1  0.91702000  0.64206000  0.93851000  1.0
  C  C279  1  0.58274000  0.14258000  0.56288000  1.0
  C  C280  1  0.91843000  0.14170000  0.06267000  1.0
  C  C281  1  0.59461000  0.64023000  0.43261000  1.0
  C  C282  1  0.08292000  0.35728000  0.06285000  1.0
  C  C283  1  0.41914000  0.85667000  0.43664000  1.0
  C  C284  1  0.13935000  0.85930000  0.98539000  1.0
  C  C285  1  0.35837000  0.35870000  0.51517000  1.0
  C  C286  1  0.85934000  0.63978000  0.98670000  1.0
  C  C287  1  0.63947000  0.14088000  0.51448000  1.0
  C  C288  1  0.86052000  0.13983000  0.01468000  1.0
  C  C289  1  0.65032000  0.63681000  0.48127000  1.0
  C  C290  1  0.14016000  0.35929000  0.01466000  1.0
  C  C291  1  0.36151000  0.85844000  0.48480000  1.0
  C  C292  1  0.14951000  0.92051000  0.01454000  1.0
  C  C293  1  0.34774000  0.42038000  0.48657000  1.0
  C  C294  1  0.84899000  0.57797000  0.01523000  1.0
  C  C295  1  0.64837000  0.07958000  0.48532000  1.0
  C  C296  1  0.85116000  0.07847000  0.98563000  1.0
  C  C297  1  0.65868000  0.57535000  0.51040000  1.0
  C  C298  1  0.14939000  0.42080000  0.98571000  1.0
  C  C299  1  0.35093000  0.92011000  0.51343000  1.0
  C  C300  1  0.20125000  0.91985000  0.05995000  1.0
  C  C301  1  0.29629000  0.42020000  0.44110000  1.0
  C  C302  1  0.79682000  0.57766000  0.06059000  1.0
  C  C303  1  0.70014000  0.07974000  0.43988000  1.0
  C  C304  1  0.79920000  0.07872000  0.94031000  1.0
  C  C305  1  0.70690000  0.57574000  0.55693000  1.0
  C  C306  1  0.20099000  0.42073000  0.94021000  1.0
  C  C307  1  0.29903000  0.92010000  0.55885000  1.0
  C  C308  1  0.18423000  0.79755000  0.00236000  1.0
  C  C309  1  0.31430000  0.29700000  0.49766000  1.0
  C  C310  1  0.81464000  0.70123000  0.00434000  1.0
  C  C311  1  0.68496000  0.20232000  0.49741000  1.0
  C  C312  1  0.81493000  0.20130000  0.99775000  1.0
  C  C313  1  0.69359000  0.69846000  0.49948000  1.0
  C  C314  1  0.18551000  0.29785000  0.99748000  1.0
  C  C315  1  0.31711000  0.79682000  0.50237000  1.0
  C  C316  1  0.72017000  0.75867000  0.85975000  1.0
  C  C317  1  0.77872000  0.25843000  0.64049000  1.0
  C  C318  1  0.27667000  0.74190000  0.85993000  1.0
  C  C319  1  0.22186000  0.24094000  0.64071000  1.0
  C  C320  1  0.27826000  0.24125000  0.14091000  1.0
  C  C321  1  0.22368000  0.73984000  0.36010000  1.0
  C  C322  1  0.72107000  0.25859000  0.14044000  1.0
  C  C323  1  0.78041000  0.75893000  0.35622000  1.0
  C  C324  1  0.24545000  0.85791000  0.07780000  1.0
  C  C325  1  0.25266000  0.35845000  0.42274000  1.0
  C  C326  1  0.75244000  0.63921000  0.07901000  1.0
  C  C327  1  0.74562000  0.14121000  0.42213000  1.0
  C  C328  1  0.75404000  0.14032000  0.92257000  1.0
  C  C329  1  0.74977000  0.63753000  0.57584000  1.0
  C  C330  1  0.24602000  0.35919000  0.92226000  1.0
  C  C331  1  0.25478000  0.85844000  0.57714000  1.0
  C  C332  1  0.23663000  0.79702000  0.04747000  1.0
  C  C333  1  0.26201000  0.29703000  0.45252000  1.0
  C  C334  1  0.76191000  0.70077000  0.04941000  1.0
  C  C335  1  0.73744000  0.20230000  0.45227000  1.0
  C  C336  1  0.76231000  0.20137000  0.95273000  1.0
  C  C337  1  0.74291000  0.69858000  0.54552000  1.0
  C  C338  1  0.23789000  0.29799000  0.95232000  1.0
  C  C339  1  0.26435000  0.79701000  0.54744000  1.0
  C  C340  1  0.02955000  0.07946000  0.89977000  1.0
  C  C341  1  0.47608000  0.57978000  0.59854000  1.0
  C  C342  1  0.96921000  0.42012000  0.90065000  1.0
  C  C343  1  0.52868000  0.92025000  0.59993000  1.0
  C  C344  1  0.97046000  0.92001000  0.09972000  1.0
  C  C345  1  0.52891000  0.43297000  0.40274000  1.0
  C  C346  1  0.02864000  0.57923000  0.10004000  1.0
  C  C347  1  0.46814000  0.07954000  0.39908000  1.0
  C  C348  1  0.95259000  0.08520000  0.82685000  1.0
  C  C349  1  0.54898000  0.58532000  0.67260000  1.0
  C  C350  1  0.04627000  0.41514000  0.82762000  1.0
  C  C351  1  0.45169000  0.91455000  0.67295000  1.0
  C  C352  1  0.04661000  0.91429000  0.17289000  1.0
  C  C353  1  0.45246000  0.42613000  0.32934000  1.0
  C  C354  1  0.95002000  0.58469000  0.17256000  1.0
  C  C355  1  0.54796000  0.08752000  0.32707000  1.0
  C  C356  1  0.90645000  0.06683000  0.77752000  1.0
  C  C357  1  0.59288000  0.56682000  0.72249000  1.0
  C  C358  1  0.09222000  0.43404000  0.77826000  1.0
  C  C359  1  0.40549000  0.93305000  0.72229000  1.0
  C  C360  1  0.09198000  0.93264000  0.22242000  1.0
  C  C361  1  0.40702000  0.44285000  0.27954000  1.0
  C  C362  1  0.90250000  0.56600000  0.22152000  1.0
  C  C363  1  0.59608000  0.07061000  0.27796000  1.0
  C  C364  1  0.00011000  0.25042000  0.78844000  1.0
  C  C365  1  0.49961000  0.74951000  0.71162000  1.0
  C  C366  1  0.99844000  0.74946000  0.21140000  1.0
  C  C367  1  0.50447000  0.25750000  0.29137000  1.0
  C  C368  1  0.00711000  0.14872000  0.89207000  1.0
  C  C369  1  0.49793000  0.64902000  0.60660000  1.0
  C  C370  1  0.99215000  0.35099000  0.89275000  1.0
  C  C371  1  0.50643000  0.85101000  0.60770000  1.0
  C  C372  1  0.99271000  0.85076000  0.10752000  1.0
  C  C373  1  0.51265000  0.36317000  0.39374000  1.0
  C  C374  1  0.00622000  0.64847000  0.10776000  1.0
  C  C375  1  0.48888000  0.14925000  0.39221000  1.0
  C  C376  1  0.92236000  0.21423000  0.82017000  1.0
  C  C377  1  0.57838000  0.71439000  0.67993000  1.0
  C  C378  1  0.07741000  0.28634000  0.82050000  1.0
  C  C379  1  0.42200000  0.78534000  0.67964000  1.0
  C  C380  1  0.07653000  0.78524000  0.17968000  1.0
  C  C381  1  0.42822000  0.29613000  0.32268000  1.0
  C  C382  1  0.92067000  0.71384000  0.17946000  1.0
  C  C383  1  0.57835000  0.21723000  0.32316000  1.0
  N  N384  1  0.99511000  0.04053000  0.85925000  1.0
  N  N385  1  0.50826000  0.54075000  0.63956000  1.0
  N  N386  1  0.00339000  0.45942000  0.86019000  1.0
  N  N387  1  0.49413000  0.95918000  0.64047000  1.0
  N  N388  1  0.00450000  0.95893000  0.14033000  1.0
  N  N389  1  0.49033000  0.47164000  0.36302000  1.0
  N  N390  1  0.99321000  0.54016000  0.14031000  1.0
  N  N391  1  0.50542000  0.04164000  0.35863000  1.0
  N  N392  1  0.95816000  0.15167000  0.84604000  1.0
  N  N393  1  0.54425000  0.65188000  0.65340000  1.0
  N  N394  1  0.04116000  0.34853000  0.84666000  1.0
  N  N395  1  0.45749000  0.84804000  0.65379000  1.0
  N  N396  1  0.04121000  0.84782000  0.15368000  1.0
  N  N397  1  0.46414000  0.35941000  0.34768000  1.0
  N  N398  1  0.95628000  0.65127000  0.15355000  1.0
  N  N399  1  0.53957000  0.15371000  0.34671000  1.0
  O  O400  1  0.90142000  0.83048000  0.86016000  1.0
  O  O401  1  0.59779000  0.33082000  0.64009000  1.0
  O  O402  1  0.09529000  0.66961000  0.85981000  1.0
  O  O403  1  0.40277000  0.16867000  0.64053000  1.0
  O  O404  1  0.09732000  0.16870000  0.13992000  1.0
  O  O405  1  0.40218000  0.66133000  0.36798000  1.0
  O  O406  1  0.90206000  0.33049000  0.13997000  1.0
  O  O407  1  0.59905000  0.83159000  0.35793000  1.0
  O  O408  1  0.45700000  0.91003000  0.29486000  1.0
  O  O409  1  0.04055000  0.41273000  0.20564000  1.0
  O  O410  1  0.52869000  0.58614000  0.29434000  1.0
  O  O411  1  0.96309000  0.08642000  0.20639000  1.0
  O  O412  1  0.54084000  0.08653000  0.70579000  1.0
  O  O413  1  0.95958000  0.58636000  0.79420000  1.0
  O  O414  1  0.45986000  0.41361000  0.70539000  1.0
  O  O415  1  0.03718000  0.91267000  0.79332000  1.0
  O  O416  1  0.04208000  0.91612000  0.92331000  1.0
  O  O417  1  0.45425000  0.41534000  0.57768000  1.0
  O  O418  1  0.95705000  0.58407000  0.92432000  1.0
  O  O419  1  0.54467000  0.08417000  0.57756000  1.0
  O  O420  1  0.95844000  0.08361000  0.07651000  1.0
  O  O421  1  0.56402000  0.58116000  0.41440000  1.0
  O  O422  1  0.04486000  0.41562000  0.07770000  1.0
  O  O423  1  0.45525000  0.91535000  0.42130000  1.0
  O  O424  1  0.07615000  0.79980000  0.91414000  1.0
  O  O425  1  0.42238000  0.29851000  0.58588000  1.0
  O  O426  1  0.92107000  0.70014000  0.91523000  1.0
  O  O427  1  0.57779000  0.20072000  0.58597000  1.0
  O  O428  1  0.92258000  0.19964000  0.08603000  1.0
  O  O429  1  0.58227000  0.70031000  0.41328000  1.0
  O  O430  1  0.07736000  0.29887000  0.08560000  1.0
  O  O431  1  0.42663000  0.79793000  0.41439000  1.0
  O  O432  1  0.42208000  0.79326000  0.30175000  1.0
  O  O433  1  0.07585000  0.29618000  0.19936000  1.0
  O  O434  1  0.57555000  0.70011000  0.30262000  1.0
  O  O435  1  0.92362000  0.20216000  0.19870000  1.0
  O  O436  1  0.57624000  0.20307000  0.69943000  1.0
  O  O437  1  0.92086000  0.70232000  0.80085000  1.0
  O  O438  1  0.42428000  0.29713000  0.69905000  1.0
  O  O439  1  0.07373000  0.79633000  0.80009000  1.0
  O  O440  1  0.83108000  0.93291000  0.85230000  1.0
  O  O441  1  0.66893000  0.43296000  0.64737000  1.0
  O  O442  1  0.16660000  0.56738000  0.85311000  1.0
  O  O443  1  0.33176000  0.06639000  0.64744000  1.0
  O  O444  1  0.16866000  0.06658000  0.14733000  1.0
  O  O445  1  0.33465000  0.56724000  0.33831000  1.0
  O  O446  1  0.83140000  0.43273000  0.14846000  1.0
  O  O447  1  0.66993000  0.93393000  0.35181000  1.0
