# generated using pymatgen
data_ZnH2C3N3O2
_symmetry_space_group_name_H-M   'P 1'
_cell_length_a   7.67054000
_cell_length_b   9.74965000
_cell_length_c   13.49220000
_cell_angle_alpha   89.99990000
_cell_angle_beta   90.00010000
_cell_angle_gamma   90.00000000
_symmetry_Int_Tables_number   1
_chemical_formula_structural   ZnH2C3N3O2
_chemical_formula_sum   'Zn8 H16 C24 N24 O16'
_cell_volume   1009.01526057
_cell_formula_units_Z   8
loop_
 _symmetry_equiv_pos_site_id
 _symmetry_equiv_pos_as_xyz
  1  'x, y, z'
loop_
 _atom_site_type_symbol
 _atom_site_label
 _atom_site_symmetry_multiplicity
 _atom_site_fract_x
 _atom_site_fract_y
 _atom_site_fract_z
 _atom_site_occupancy
  Zn  Zn0  1  0.57491000  0.94186000  0.00084000  1.0
  Zn  Zn1  1  0.42509000  0.05813000  0.50084000  1.0
  Zn  Zn2  1  0.92509000  0.44186000  0.00084000  1.0
  Zn  Zn3  1  0.07491000  0.55814000  0.50084000  1.0
  Zn  Zn4  1  0.98694000  0.74452000  0.73010000  1.0
  Zn  Zn5  1  0.01306000  0.25548000  0.23010000  1.0
  Zn  Zn6  1  0.51306000  0.24452000  0.73010000  1.0
  Zn  Zn7  1  0.48694000  0.75548000  0.23010000  1.0
  H  H8  1  0.26248000  0.17863000  0.05026000  1.0
  H  H9  1  0.73751000  0.82137000  0.55026000  1.0
  H  H10  1  0.23752000  0.67863000  0.05026000  1.0
  H  H11  1  0.76248000  0.32137000  0.55026000  1.0
  H  H12  1  0.35639000  0.60753000  0.73654000  1.0
  H  H13  1  0.64361000  0.39247000  0.23654000  1.0
  H  H14  1  0.14361000  0.10753000  0.73654000  1.0
  H  H15  1  0.85639000  0.89247000  0.23654000  1.0
  H  H16  1  0.16703000  0.93590000  0.90756000  1.0
  H  H17  1  0.83297000  0.06410000  0.40756000  1.0
  H  H18  1  0.33298000  0.43590000  0.90756000  1.0
  H  H19  1  0.66703000  0.56410000  0.40756000  1.0
  H  H20  1  0.19682000  0.97040000  0.32081000  1.0
  H  H21  1  0.80318000  0.02960000  0.82081000  1.0
  H  H22  1  0.30317000  0.47040000  0.32081000  1.0
  H  H23  1  0.69682000  0.52960000  0.82082000  1.0
  C  C24  1  0.27659000  0.10565000  0.11056000  1.0
  C  C25  1  0.72341000  0.89435000  0.61056000  1.0
  C  C26  1  0.22341000  0.60565000  0.11056000  1.0
  C  C27  1  0.77658000  0.39435000  0.61056000  1.0
  C  C28  1  0.34951000  0.69023000  0.79057000  1.0
  C  C29  1  0.65048000  0.30977000  0.29057000  1.0
  C  C30  1  0.15049000  0.19023000  0.79057000  1.0
  C  C31  1  0.84951000  0.80977000  0.29057000  1.0
  C  C32  1  0.25174000  0.85779000  0.87639000  1.0
  C  C33  1  0.74826000  0.14220000  0.37639000  1.0
  C  C34  1  0.24826000  0.35780000  0.87639000  1.0
  C  C35  1  0.75175000  0.64220000  0.37639000  1.0
  C  C36  1  0.82373000  0.72145000  0.96600000  1.0
  C  C37  1  0.17626000  0.27855000  0.46600000  1.0
  C  C38  1  0.67627000  0.22145000  0.96600000  1.0
  C  C39  1  0.32373000  0.77855000  0.46600000  1.0
  C  C40  1  0.71500000  0.67448000  0.05717000  1.0
  C  C41  1  0.28500000  0.32552000  0.55717000  1.0
  C  C42  1  0.78500000  0.17449000  0.05718000  1.0
  C  C43  1  0.21500000  0.82552000  0.55717000  1.0
  C  C44  1  0.24308000  0.00064000  0.24834000  1.0
  C  C45  1  0.75692000  0.99936000  0.74834000  1.0
  C  C46  1  0.25692000  0.50064000  0.24834000  1.0
  C  C47  1  0.74308000  0.49936000  0.74834000  1.0
  N  N48  1  0.48018000  0.72769000  0.84901000  1.0
  N  N49  1  0.51982000  0.27231000  0.34901000  1.0
  N  N50  1  0.01982000  0.22769000  0.84900000  1.0
  N  N51  1  0.98018000  0.77231000  0.34900000  1.0
  N  N52  1  0.38575000  0.00012000  0.10876000  1.0
  N  N53  1  0.61425000  0.99988000  0.60877000  1.0
  N  N54  1  0.11425000  0.50012000  0.10877000  1.0
  N  N55  1  0.88575000  0.49988000  0.60877000  1.0
  N  N56  1  0.20351000  0.76803000  0.80508000  1.0
  N  N57  1  0.79649000  0.23196000  0.30508000  1.0
  N  N58  1  0.29649000  0.26803000  0.80508000  1.0
  N  N59  1  0.70351000  0.73196000  0.30508000  1.0
  N  N60  1  0.36436000  0.93287000  0.19764000  1.0
  N  N61  1  0.63564000  0.06713000  0.69764000  1.0
  N  N62  1  0.13564000  0.43287000  0.19764000  1.0
  N  N63  1  0.86436000  0.56713000  0.69764000  1.0
  N  N64  1  0.41677000  0.83620000  0.90362000  1.0
  N  N65  1  0.58323000  0.16380000  0.40362000  1.0
  N  N66  1  0.08323000  0.33621000  0.90362000  1.0
  N  N67  1  0.91677000  0.66380000  0.40362000  1.0
  N  N68  1  0.18498000  0.11003000  0.19672000  1.0
  N  N69  1  0.81503000  0.88997000  0.69672000  1.0
  N  N70  1  0.31503000  0.61003000  0.19672000  1.0
  N  N71  1  0.68497000  0.38997000  0.69672000  1.0
  O  O72  1  0.81102000  0.84440000  0.93842000  1.0
  O  O73  1  0.18898000  0.15560000  0.43842000  1.0
  O  O74  1  0.68898000  0.34440000  0.93842000  1.0
  O  O75  1  0.31102000  0.65560000  0.43842000  1.0
  O  O76  1  0.73412000  0.55588000  0.09060000  1.0
  O  O77  1  0.26589000  0.44412000  0.59061000  1.0
  O  O78  1  0.76589000  0.05588000  0.09061000  1.0
  O  O79  1  0.23412000  0.94412000  0.59061000  1.0
  O  O80  1  0.61144000  0.76575000  0.09246000  1.0
  O  O81  1  0.38856000  0.23425000  0.59246000  1.0
  O  O82  1  0.88856000  0.26575000  0.09246000  1.0
  O  O83  1  0.11144000  0.73425000  0.59246000  1.0
  O  O84  1  0.92028000  0.63051000  0.92619000  1.0
  O  O85  1  0.07972000  0.36950000  0.42619000  1.0
  O  O86  1  0.57972000  0.13050000  0.92619000  1.0
  O  O87  1  0.42028000  0.86950000  0.42619000  1.0
