# generated using pymatgen
data_CdH10C5S2IN
_symmetry_space_group_name_H-M   'P 1'
_cell_length_a   7.39676000
_cell_length_b   9.09041000
_cell_length_c   15.51930000
_cell_angle_alpha   89.99990000
_cell_angle_beta   83.79340000
_cell_angle_gamma   89.99970000
_symmetry_Int_Tables_number   1
_chemical_formula_structural   CdH10C5S2IN
_chemical_formula_sum   'Cd4 H40 C20 S8 I4 N4'
_cell_volume   1037.39470690
_cell_formula_units_Z   4
loop_
 _symmetry_equiv_pos_site_id
 _symmetry_equiv_pos_as_xyz
  1  'x, y, z'
loop_
 _atom_site_type_symbol
 _atom_site_label
 _atom_site_symmetry_multiplicity
 _atom_site_fract_x
 _atom_site_fract_y
 _atom_site_fract_z
 _atom_site_occupancy
  Cd  Cd0  1  0.74706000  0.03504000  0.02581000  1.0
  Cd  Cd1  1  0.25294000  0.53504000  0.47419000  1.0
  Cd  Cd2  1  0.25294000  0.96496000  0.97419000  1.0
  Cd  Cd3  1  0.74706000  0.46496000  0.52581000  1.0
  H  H4  1  0.20000000  0.33009000  0.29194000  1.0
  H  H5  1  0.80000000  0.83009000  0.20806000  1.0
  H  H6  1  0.80000000  0.66991000  0.70806000  1.0
  H  H7  1  0.20001000  0.16991000  0.79194000  1.0
  H  H8  1  0.97761000  0.26037000  0.28723000  1.0
  H  H9  1  0.02238000  0.76036000  0.21277000  1.0
  H  H10  1  0.02238000  0.73964000  0.71277000  1.0
  H  H11  1  0.97762000  0.23964000  0.78723000  1.0
  H  H12  1  0.15267000  0.09573000  0.37708000  1.0
  H  H13  1  0.84732000  0.59573000  0.12292000  1.0
  H  H14  1  0.84732000  0.90427000  0.62292000  1.0
  H  H15  1  0.15268000  0.40427000  0.87708000  1.0
  H  H16  1  0.32349000  0.06982000  0.28862000  1.0
  H  H17  1  0.67650000  0.56982000  0.21138000  1.0
  H  H18  1  0.67651000  0.93018000  0.71138000  1.0
  H  H19  1  0.32350000  0.43018000  0.78862000  1.0
  H  H20  1  0.10053000  0.00059000  0.28240000  1.0
  H  H21  1  0.89946000  0.50059000  0.21760000  1.0
  H  H22  1  0.89946000  0.99941000  0.71760000  1.0
  H  H23  1  0.10054000  0.49941000  0.78240000  1.0
  H  H24  1  0.43099000  0.25673000  0.18508000  1.0
  H  H25  1  0.56901000  0.75673000  0.31492000  1.0
  H  H26  1  0.56901000  0.74327000  0.81492000  1.0
  H  H27  1  0.43100000  0.24327000  0.68508000  1.0
  H  H28  1  0.37845000  0.21733000  0.07886000  1.0
  H  H29  1  0.62154000  0.71732000  0.42114000  1.0
  H  H30  1  0.62154000  0.78268000  0.92114000  1.0
  H  H31  1  0.37846000  0.28267000  0.57886000  1.0
  H  H32  1  0.49489000  0.47245000  0.08791000  1.0
  H  H33  1  0.50510000  0.97244000  0.41209000  1.0
  H  H34  1  0.50511000  0.52756000  0.91209000  1.0
  H  H35  1  0.49489000  0.02755000  0.58791000  1.0
  H  H36  1  0.31749000  0.51768000  0.17024000  1.0
  H  H37  1  0.68249000  0.01768000  0.32976000  1.0
  H  H38  1  0.68250000  0.48232000  0.82977000  1.0
  H  H39  1  0.31750000  0.98232000  0.67024000  1.0
  H  H40  1  0.26572000  0.47607000  0.06349000  1.0
  H  H41  1  0.73426000  0.97606000  0.43652000  1.0
  H  H42  1  0.73428000  0.52394000  0.93652000  1.0
  H  H43  1  0.26573000  0.02394000  0.56348000  1.0
  C  C44  1  0.02720000  0.19890000  0.12399000  1.0
  C  C45  1  0.97280000  0.69890000  0.37601000  1.0
  C  C46  1  0.97280000  0.80110000  0.87601000  1.0
  C  C47  1  0.02720000  0.30110000  0.62399000  1.0
  C  C48  1  0.12240000  0.23798000  0.26855000  1.0
  C  C49  1  0.87760000  0.73798000  0.23145000  1.0
  C  C50  1  0.87761000  0.76202000  0.73145000  1.0
  C  C51  1  0.12240000  0.26202000  0.76855000  1.0
  C  C52  1  0.17831000  0.09210000  0.30608000  1.0
  C  C53  1  0.82168000  0.59209000  0.19392000  1.0
  C  C54  1  0.82169000  0.90791000  0.69392000  1.0
  C  C55  1  0.17832000  0.40791000  0.80608000  1.0
  C  C56  1  0.33917000  0.28482000  0.13644000  1.0
  C  C57  1  0.66083000  0.78482000  0.36356000  1.0
  C  C58  1  0.66083000  0.71518000  0.86356000  1.0
  C  C59  1  0.33917000  0.21518000  0.63644000  1.0
  C  C60  1  0.35398000  0.44751000  0.11348000  1.0
  C  C61  1  0.64601000  0.94750000  0.38652000  1.0
  C  C62  1  0.64602000  0.55249000  0.88652000  1.0
  C  C63  1  0.35399000  0.05249000  0.61348000  1.0
  S  S64  1  0.06863000  0.20532000  0.01094000  1.0
  S  S65  1  0.93137000  0.70532000  0.48906000  1.0
  S  S66  1  0.93137000  0.79468000  0.98906000  1.0
  S  S67  1  0.06864000  0.29468000  0.51094000  1.0
  S  S68  1  0.81592000  0.14389000  0.16990000  1.0
  S  S69  1  0.18407000  0.64389000  0.33010000  1.0
  S  S70  1  0.18407000  0.85612000  0.83010000  1.0
  S  S71  1  0.81593000  0.35611000  0.66990000  1.0
  I  I72  1  0.57540000  0.14120000  0.88739000  1.0
  I  I73  1  0.42460000  0.64120000  0.61261000  1.0
  I  I74  1  0.42459000  0.85880000  0.11261000  1.0
  I  I75  1  0.57541000  0.35880000  0.38739000  1.0
  N  N76  1  0.15514000  0.24030000  0.17313000  1.0
  N  N77  1  0.84486000  0.74030000  0.32687000  1.0
  N  N78  1  0.84486000  0.75970000  0.82687000  1.0
  N  N79  1  0.15515000  0.25970000  0.67313000  1.0
