# generated using pymatgen
data_TbH13C13O9
_symmetry_space_group_name_H-M   'P 1'
_cell_length_a   11.90200000
_cell_length_b   12.34380000
_cell_length_c   12.47300000
_cell_angle_alpha   90.00000000
_cell_angle_beta   98.97410000
_cell_angle_gamma   90.00000000
_symmetry_Int_Tables_number   1
_chemical_formula_structural   TbH13C13O9
_chemical_formula_sum   'Tb4 H52 C52 O36'
_cell_volume   1810.05061828
_cell_formula_units_Z   4
loop_
 _symmetry_equiv_pos_site_id
 _symmetry_equiv_pos_as_xyz
  1  'x, y, z'
loop_
 _atom_site_type_symbol
 _atom_site_label
 _atom_site_symmetry_multiplicity
 _atom_site_fract_x
 _atom_site_fract_y
 _atom_site_fract_z
 _atom_site_occupancy
  Tb  Tb0  1  0.37477000  0.44539000  0.13022000  1.0
  Tb  Tb1  1  0.62523000  0.94539000  0.86978000  1.0
  Tb  Tb2  1  0.63818000  0.22972000  0.18224000  1.0
  Tb  Tb3  1  0.36182000  0.72973000  0.81776000  1.0
  H  H4  1  0.31771000  0.40823000  0.46931000  1.0
  H  H5  1  0.68229000  0.90823000  0.53069000  1.0
  H  H6  1  0.48100000  0.33580000  0.79616000  1.0
  H  H7  1  0.51900000  0.83580000  0.20384000  1.0
  H  H8  1  0.65964000  0.28006000  0.52807000  1.0
  H  H9  1  0.34036000  0.78007000  0.47193000  1.0
  H  H10  1  0.30271000  0.29935000  0.79714000  1.0
  H  H11  1  0.69729000  0.79935000  0.20286000  1.0
  H  H12  1  0.10232000  0.34011000  0.73746000  1.0
  H  H13  1  0.89768000  0.84011000  0.26254000  1.0
  H  H14  1  0.12401000  0.48046000  0.77151000  1.0
  H  H15  1  0.87599000  0.98046000  0.22849000  1.0
  H  H16  1  0.14163000  0.38023000  0.87589000  1.0
  H  H17  1  0.85837000  0.88023000  0.12411000  1.0
  H  H18  1  0.65213000  0.37660000  0.85985000  1.0
  H  H19  1  0.34787000  0.87660000  0.14015000  1.0
  H  H20  1  0.85539000  0.36959000  0.84956000  1.0
  H  H21  1  0.14461000  0.86959000  0.15044000  1.0
  H  H22  1  0.86034000  0.22751000  0.87339000  1.0
  H  H23  1  0.13966000  0.72751000  0.12661000  1.0
  H  H24  1  0.83058000  0.31828000  0.97719000  1.0
  H  H25  1  0.16942000  0.81828000  0.02280000  1.0
  H  H26  1  0.00877000  0.53404000  0.91649000  1.0
  H  H27  1  0.99123000  0.03404000  0.08351000  1.0
  H  H28  1  0.70362000  0.60713000  0.04792000  1.0
  H  H29  1  0.29638000  0.10713000  0.95208000  1.0
  H  H30  1  0.02120000  0.56218000  0.26351000  1.0
  H  H31  1  0.97880000  0.06218000  0.73649000  1.0
  H  H32  1  0.63498000  0.62504000  0.19611000  1.0
  H  H33  1  0.36502000  0.12504000  0.80389000  1.0
  H  H34  1  0.68081000  0.66136000  0.39692000  1.0
  H  H35  1  0.31919000  0.16136000  0.60308000  1.0
  H  H36  1  0.71384000  0.52111000  0.41905000  1.0
  H  H37  1  0.28616000  0.02111000  0.58095000  1.0
  H  H38  1  0.57212000  0.56276000  0.36416000  1.0
  H  H39  1  0.42788000  0.06276000  0.63584000  1.0
  H  H40  1  0.62909000  0.54862000  0.88043000  1.0
  H  H41  1  0.37091000  0.04862000  0.11957000  1.0
  H  H42  1  0.67306000  0.50513000  0.69195000  1.0
  H  H43  1  0.32694000  0.00513000  0.30805000  1.0
  H  H44  1  0.69950000  0.64553000  0.67306000  1.0
  H  H45  1  0.30050000  0.14552000  0.32694000  1.0
  H  H46  1  0.56055000  0.60031000  0.68976000  1.0
  H  H47  1  0.43945000  0.10031000  0.31024000  1.0
  H  H48  1  0.82144000  0.11759000  0.07649000  1.0
  H  H49  1  0.17856000  0.61759000  0.92351000  1.0
  H  H50  1  0.89225000  0.20436000  0.15685000  1.0
  H  H51  1  0.10775000  0.70436000  0.84315000  1.0
  H  H52  1  0.73947000  0.06794000  0.34985000  1.0
  H  H53  1  0.26053000  0.56794000  0.65015000  1.0
  H  H54  1  0.69641000  0.17201000  0.40366000  1.0
  H  H55  1  0.30359000  0.67201000  0.59634000  1.0
  C  C56  1  0.48781000  0.34160000  0.48751000  1.0
  C  C57  1  0.51219000  0.84160000  0.51248000  1.0
  C  C58  1  0.39070000  0.37950000  0.52575000  1.0
  C  C59  1  0.60930000  0.87950000  0.47425000  1.0
  C  C60  1  0.38866000  0.37594000  0.63708000  1.0
  C  C61  1  0.61134000  0.87594000  0.36292000  1.0
  C  C62  1  0.48284000  0.33883000  0.70958000  1.0
  C  C63  1  0.51716000  0.83883000  0.29042000  1.0
  C  C64  1  0.58097000  0.30621000  0.66916000  1.0
  C  C65  1  0.41903000  0.80621000  0.33084000  1.0
  C  C66  1  0.58253000  0.30495000  0.55789000  1.0
  C  C67  1  0.41747000  0.80495000  0.44211000  1.0
  C  C68  1  0.49167000  0.34030000  0.36915000  1.0
  C  C69  1  0.50833000  0.84030000  0.63085000  1.0
  C  C70  1  0.27773000  0.38429000  0.78112000  1.0
  C  C71  1  0.72227000  0.88429000  0.21888000  1.0
  C  C72  1  0.35747000  0.45467000  0.86176000  1.0
  C  C73  1  0.64253000  0.95467000  0.13824000  1.0
  C  C74  1  0.15307000  0.39758000  0.79205000  1.0
  C  C75  1  0.84693000  0.89758000  0.20795000  1.0
  C  C76  1  0.69101000  0.29777000  0.84591000  1.0
  C  C77  1  0.30899000  0.79777000  0.15409000  1.0
  C  C78  1  0.62866000  0.21319000  0.90480000  1.0
  C  C79  1  0.37134000  0.71319000  0.09520000  1.0
  C  C80  1  0.81761000  0.30288000  0.88963000  1.0
  C  C81  1  0.18239000  0.80288000  0.11037000  1.0
  C  C82  1  0.02831000  0.54863000  0.09157000  1.0
  C  C83  1  0.97169000  0.04863000  0.90843000  1.0
  C  C84  1  0.96754000  0.55136000  0.98646000  1.0
  C  C85  1  0.03246000  0.05136000  0.01354000  1.0
  C  C86  1  0.85100000  0.57267000  0.97068000  1.0
  C  C87  1  0.14900000  0.07267000  0.02932000  1.0
  C  C88  1  0.79455000  0.59069000  0.05960000  1.0
  C  C89  1  0.20546000  0.09069000  0.94040000  1.0
  C  C90  1  0.85745000  0.58735000  0.16475000  1.0
  C  C91  1  0.14255000  0.08735000  0.83525000  1.0
  C  C92  1  0.97404000  0.56677000  0.18158000  1.0
  C  C93  1  0.02596000  0.06677000  0.81842000  1.0
  C  C94  1  0.15204000  0.52370000  0.10716000  1.0
  C  C95  1  0.84796000  0.02370000  0.89284000  1.0
  C  C96  1  0.69203000  0.57165000  0.25079000  1.0
  C  C97  1  0.30797000  0.07165000  0.74921000  1.0
  C  C98  1  0.67443000  0.45569000  0.20832000  1.0
  C  C99  1  0.32557000  0.95569000  0.79168000  1.0
  C  C100  1  0.66290000  0.57919000  0.36527000  1.0
  C  C101  1  0.33710000  0.07919000  0.63473000  1.0
  C  C102  1  0.68312000  0.60099000  0.83788000  1.0
  C  C103  1  0.31688000  0.10099000  0.16212000  1.0
  C  C104  1  0.66264000  0.71815000  0.86816000  1.0
  C  C105  1  0.33736000  0.21815000  0.13184000  1.0
  C  C106  1  0.65188000  0.58737000  0.71521000  1.0
  C  C107  1  0.34812000  0.08737000  0.28479000  1.0
  O  O108  1  0.56816000  0.28115000  0.33722000  1.0
  O  O109  1  0.43185000  0.78115000  0.66278000  1.0
  O  O110  1  0.41972000  0.39758000  0.30817000  1.0
  O  O111  1  0.58028000  0.89758000  0.69183000  1.0
  O  O112  1  0.28925000  0.41010000  0.67062000  1.0
  O  O113  1  0.71075000  0.91010000  0.32938000  1.0
  O  O114  1  0.38779000  0.54687000  0.83218000  1.0
  O  O115  1  0.61221000  0.04687000  0.16782000  1.0
  O  O116  1  0.38998000  0.41318000  0.95403000  1.0
  O  O117  1  0.61002000  0.91318000  0.04597000  1.0
  O  O118  1  0.68047000  0.27770000  0.73216000  1.0
  O  O119  1  0.31953000  0.77770000  0.26784000  1.0
  O  O120  1  0.62138000  0.23715000  0.00192000  1.0
  O  O121  1  0.37862000  0.73715000  0.99808000  1.0
  O  O122  1  0.58845000  0.12819000  0.85629000  1.0
  O  O123  1  0.41155000  0.62819000  0.14371000  1.0
  O  O124  1  0.20556000  0.49774000  0.19944000  1.0
  O  O125  1  0.79444000  0.99774000  0.80057000  1.0
  O  O126  1  0.20510000  0.52792000  0.02385000  1.0
  O  O127  1  0.79490000  0.02792000  0.97616000  1.0
  O  O128  1  0.79996000  0.57122000  0.86443000  1.0
  O  O129  1  0.20004000  0.07122000  0.13557000  1.0
  O  O130  1  0.74300000  0.78542000  0.88483000  1.0
  O  O131  1  0.25700000  0.28541000  0.11517000  1.0
  O  O132  1  0.55906000  0.74652000  0.87028000  1.0
  O  O133  1  0.44094000  0.24652000  0.12972000  1.0
  O  O134  1  0.80865000  0.60369000  0.25652000  1.0
  O  O135  1  0.19135000  0.10369000  0.74348000  1.0
  O  O136  1  0.75253000  0.38574000  0.22951000  1.0
  O  O137  1  0.24747000  0.88574000  0.77049000  1.0
  O  O138  1  0.57694000  0.43017000  0.15473000  1.0
  O  O139  1  0.42306000  0.93017000  0.84527000  1.0
  O  O140  1  0.81976000  0.16718000  0.14043000  1.0
  O  O141  1  0.18024000  0.66718000  0.85957000  1.0
  O  O142  1  0.74382000  0.14759000  0.35110000  1.0
  O  O143  1  0.25618000  0.64759000  0.64890000  1.0
