# generated using pymatgen
data_NaH22C12S2N(O3F2)3
_symmetry_space_group_name_H-M   'P 1'
_cell_length_a   8.06724000
_cell_length_b   8.94194000
_cell_length_c   15.85340000
_cell_angle_alpha   80.72320000
_cell_angle_beta   88.89470000
_cell_angle_gamma   68.64820000
_symmetry_Int_Tables_number   1
_chemical_formula_structural   NaH22C12S2N(O3F2)3
_chemical_formula_sum   'Na2 H44 C24 S4 N2 O18 F12'
_cell_volume   1050.22142975
_cell_formula_units_Z   2
loop_
 _symmetry_equiv_pos_site_id
 _symmetry_equiv_pos_as_xyz
  1  'x, y, z'
loop_
 _atom_site_type_symbol
 _atom_site_label
 _atom_site_symmetry_multiplicity
 _atom_site_fract_x
 _atom_site_fract_y
 _atom_site_fract_z
 _atom_site_occupancy
  Na  Na0  1  0.29895000  0.16401000  0.74933000  1.0
  Na  Na1  1  0.70104000  0.83599000  0.25067000  1.0
  H  H2  1  0.17490000  0.25985000  0.47057000  1.0
  H  H3  1  0.82510000  0.74015000  0.52943000  1.0
  H  H4  1  0.35294000  0.27658000  0.53025000  1.0
  H  H5  1  0.64706000  0.72342000  0.46975000  1.0
  H  H6  1  0.12972000  0.40632000  0.54170000  1.0
  H  H7  1  0.87028000  0.59368000  0.45830000  1.0
  H  H8  1  0.06061000  0.02721000  0.64652000  1.0
  H  H9  1  0.93938000  0.97279000  0.35348000  1.0
  H  H10  1  0.98314000  0.14894000  0.54373000  1.0
  H  H11  1  0.01686000  0.85106000  0.45627000  1.0
  H  H12  1  0.89104000  0.40132000  0.61542000  1.0
  H  H13  1  0.10896000  0.59868000  0.38458000  1.0
  H  H14  1  0.77309000  0.26906000  0.64963000  1.0
  H  H15  1  0.22690000  0.73095000  0.35037000  1.0
  H  H16  1  0.74102000  0.43224000  0.77617000  1.0
  H  H17  1  0.25898000  0.56776000  0.22383000  1.0
  H  H18  1  0.91529000  0.50451000  0.74215000  1.0
  H  H19  1  0.08471000  0.49549000  0.25785000  1.0
  H  H20  1  0.89437000  0.45772000  0.90194000  1.0
  H  H21  1  0.10562000  0.54228000  0.09806000  1.0
  H  H22  1  0.93520000  0.24749000  0.89987000  1.0
  H  H23  1  0.06480000  0.75252000  0.10013000  1.0
  H  H24  1  0.21587000  0.13022000  0.96945000  1.0
  H  H25  1  0.78413000  0.86979000  0.03055000  1.0
  H  H26  1  0.18875000  0.32494000  0.99555000  1.0
  H  H27  1  0.81125000  0.67507000  0.00445000  1.0
  H  H28  1  0.45407000  0.32663000  0.91354000  1.0
  H  H29  1  0.54592000  0.67337000  0.08646000  1.0
  H  H30  1  0.50472000  0.15779000  0.99972000  1.0
  H  H31  1  0.49529000  0.84221000  0.00027000  1.0
  H  H32  1  0.76985000  0.05233000  0.90211000  1.0
  H  H33  1  0.23015000  0.94767000  0.09789000  1.0
  H  H34  1  0.66142000  0.22193000  0.82004000  1.0
  H  H35  1  0.33857000  0.77807000  0.17995000  1.0
  H  H36  1  0.86588000  0.97707000  0.76383000  1.0
  H  H37  1  0.13411000  0.02292000  0.23617000  1.0
  H  H38  1  0.73432000  0.86305000  0.80919000  1.0
  H  H39  1  0.26567000  0.13695000  0.19081000  1.0
  H  H40  1  0.67329000  0.82571000  0.67047000  1.0
  H  H41  1  0.32671000  0.17428000  0.32953000  1.0
  H  H42  1  0.78588000  0.95154000  0.61809000  1.0
  H  H43  1  0.21412000  0.04846000  0.38191000  1.0
  H  H44  1  0.55182000  0.00266000  0.59471000  1.0
  H  H45  1  0.44818000  0.99733000  0.40528000  1.0
  C  C46  1  0.21486000  0.28292000  0.53191000  1.0
  C  C47  1  0.78514000  0.71708000  0.46809000  1.0
  C  C48  1  0.03701000  0.14683000  0.60754000  1.0
  C  C49  1  0.96299000  0.85317000  0.39246000  1.0
  C  C50  1  0.90540000  0.27939000  0.64994000  1.0
  C  C51  1  0.09460000  0.72061000  0.35006000  1.0
  C  C52  1  0.88680000  0.39918000  0.77628000  1.0
  C  C53  1  0.11320000  0.60082000  0.22372000  1.0
  C  C54  1  0.96078000  0.35545000  0.86733000  1.0
  C  C55  1  0.03922000  0.64455000  0.13267000  1.0
  C  C56  1  0.23834000  0.24475000  0.94709000  1.0
  C  C57  1  0.76166000  0.75525000  0.05291000  1.0
  C  C58  1  0.43401000  0.21178000  0.93701000  1.0
  C  C59  1  0.56599000  0.78822000  0.06299000  1.0
  C  C60  1  0.67063000  0.09763000  0.84791000  1.0
  C  C61  1  0.32937000  0.90237000  0.15208000  1.0
  C  C62  1  0.73056000  0.98612000  0.78248000  1.0
  C  C63  1  0.26942000  0.01388000  0.21752000  1.0
  C  C64  1  0.65833000  0.95236000  0.64468000  1.0
  C  C65  1  0.34166000  0.04763000  0.35532000  1.0
  C  C66  1  0.22418000  0.72035000  0.91089000  1.0
  C  C67  1  0.77586000  0.27965000  0.08913000  1.0
  C  C68  1  0.37474000  0.65811000  0.60069000  1.0
  C  C69  1  0.62525000  0.34189000  0.39931000  1.0
  S  S70  1  0.37804000  0.73348000  0.82153000  1.0
  S  S71  1  0.62197000  0.26653000  0.17847000  1.0
  S  S72  1  0.26467000  0.59316000  0.69747000  1.0
  S  S73  1  0.73533000  0.40683000  0.30254000  1.0
  N  N74  1  0.39188000  0.58491000  0.77505000  1.0
  N  N75  1  0.60812000  0.41509000  0.22496000  1.0
  O  O76  1  0.20827000  0.16106000  0.60062000  1.0
  O  O77  1  0.79172000  0.83894000  0.39938000  1.0
  O  O78  1  0.97104000  0.25964000  0.73576000  1.0
  O  O79  1  0.02896000  0.74036000  0.26424000  1.0
  O  O80  1  0.14833000  0.31957000  0.86591000  1.0
  O  O81  1  0.85167000  0.68044000  0.13409000  1.0
  O  O82  1  0.49955000  0.10267000  0.87643000  1.0
  O  O83  1  0.50045000  0.89734000  0.12357000  1.0
  O  O84  1  0.60807000  0.05201000  0.70965000  1.0
  O  O85  1  0.39191000  0.94797000  0.29035000  1.0
  O  O86  1  0.28829000  0.89447000  0.77269000  1.0
  O  O87  1  0.71171000  0.10552000  0.22731000  1.0
  O  O88  1  0.54747000  0.69672000  0.86471000  1.0
  O  O89  1  0.45255000  0.30328000  0.13528000  1.0
  O  O90  1  0.08653000  0.71468000  0.69094000  1.0
  O  O91  1  0.91346000  0.28532000  0.30907000  1.0
  O  O92  1  0.28844000  0.42814000  0.68928000  1.0
  O  O93  1  0.71156000  0.57186000  0.31072000  1.0
  F  F94  1  0.17243000  0.85995000  0.94513000  1.0
  F  F95  1  0.82764000  0.14005000  0.05489000  1.0
  F  F96  1  0.07596000  0.70266000  0.88321000  1.0
  F  F97  1  0.92406000  0.29735000  0.11682000  1.0
  F  F98  1  0.30777000  0.59384000  0.97343000  1.0
  F  F99  1  0.69228000  0.40615000  0.02658000  1.0
  F  F100  1  0.35290000  0.81688000  0.59164000  1.0
  F  F101  1  0.64707000  0.18312000  0.40836000  1.0
  F  F102  1  0.55153000  0.56856000  0.60496000  1.0
  F  F103  1  0.44846000  0.43144000  0.39504000  1.0
  F  F104  1  0.30152000  0.63455000  0.52984000  1.0
  F  F105  1  0.69846000  0.36544000  0.47016000  1.0
