# generated using pymatgen
data_KH24C18I3(O3F7)2
_symmetry_space_group_name_H-M   'P 1'
_cell_length_a   9.61278000
_cell_length_b   12.17610000
_cell_length_c   14.65699561
_cell_angle_alpha   101.15820979
_cell_angle_beta   109.09298113
_cell_angle_gamma   90.01030000
_symmetry_Int_Tables_number   1
_chemical_formula_structural   KH24C18I3(O3F7)2
_chemical_formula_sum   'K2 H48 C36 I6 O12 F28'
_cell_volume   1586.79295204
_cell_formula_units_Z   2
loop_
 _symmetry_equiv_pos_site_id
 _symmetry_equiv_pos_as_xyz
  1  'x, y, z'
loop_
 _atom_site_type_symbol
 _atom_site_label
 _atom_site_symmetry_multiplicity
 _atom_site_fract_x
 _atom_site_fract_y
 _atom_site_fract_z
 _atom_site_occupancy
  K  K0  1  0.50000000  0.00000000  0.00000000  1.0
  K  K1  1  0.50000000  0.50000000  0.00000000  1.0
  H  H2  1  0.08658000  0.01614000  0.88417000  1.0
  H  H3  1  0.20249000  0.48383000  0.11588000  1.0
  H  H4  1  0.91342000  0.98386000  0.11583000  1.0
  H  H5  1  0.79751000  0.51617000  0.88412000  1.0
  H  H6  1  0.00342000  0.87536000  0.84601000  1.0
  H  H7  1  0.15747000  0.62457000  0.15416000  1.0
  H  H8  1  0.99657000  0.12464000  0.15399000  1.0
  H  H9  1  0.84253000  0.37543000  0.84584000  1.0
  H  H10  1  0.19738000  0.81828000  0.76777000  1.0
  H  H11  1  0.42939000  0.68176000  0.23223000  1.0
  H  H12  1  0.80262000  0.18172000  0.23223000  1.0
  H  H13  1  0.57060000  0.31824000  0.76777000  1.0
  H  H14  1  0.08338000  0.92210000  0.71611000  1.0
  H  H15  1  0.36702000  0.57793000  0.28395000  1.0
  H  H16  1  0.91661000  0.07791000  0.28389000  1.0
  H  H17  1  0.63298000  0.42207000  0.71605000  1.0
  H  H18  1  0.26968000  0.99055000  0.66414000  1.0
  H  H19  1  0.60524000  0.50952000  0.33591000  1.0
  H  H20  1  0.73032000  0.00945000  0.33586000  1.0
  H  H21  1  0.39476000  0.49048000  0.66409000  1.0
  H  H22  1  0.39611000  0.89193000  0.71398000  1.0
  H  H23  1  0.68198000  0.60814000  0.28605000  1.0
  H  H24  1  0.60388000  0.10807000  0.28601000  1.0
  H  H25  1  0.31802000  0.39186000  0.71395000  1.0
  H  H26  1  0.52104000  0.06825000  0.70272000  1.0
  H  H27  1  0.81807000  0.43189000  0.29723000  1.0
  H  H28  1  0.47896000  0.93175000  0.29728000  1.0
  H  H29  1  0.18193000  0.56811000  0.70277000  1.0
  H  H30  1  0.44022000  0.14765000  0.78687000  1.0
  H  H31  1  0.65326000  0.35240000  0.21320000  1.0
  H  H32  1  0.55978000  0.85235000  0.21313000  1.0
  H  H33  1  0.34673000  0.64760000  0.78680000  1.0
  H  H34  1  0.68992000  0.20198000  0.90014000  1.0
  H  H35  1  0.78963000  0.29795000  0.09980000  1.0
  H  H36  1  0.31008000  0.79802000  0.09986000  1.0
  H  H37  1  0.21037000  0.70205000  0.90020000  1.0
  H  H38  1  0.76769000  0.11500000  0.81838000  1.0
  H  H39  1  0.94906000  0.38494000  0.18146000  1.0
  H  H40  1  0.23231000  0.88500000  0.18162000  1.0
  H  H41  1  0.05094000  0.61506000  0.81854000  1.0
  H  H42  1  0.14435000  0.00661000  0.05421000  1.0
  H  H43  1  0.09032000  0.49344000  0.94594000  1.0
  H  H44  1  0.85565000  0.99339000  0.94579000  1.0
  H  H45  1  0.90968000  0.50656000  0.05406000  1.0
  H  H46  1  0.05909000  0.86658000  0.01817000  1.0
  H  H47  1  0.04104000  0.63341000  0.98208000  1.0
  H  H48  1  0.94091000  0.13342000  0.98183000  1.0
  H  H49  1  0.95896000  0.36659000  0.01792000  1.0
  C  C50  1  0.10822000  0.92668000  0.86733000  1.0
  C  C51  1  0.24092000  0.57331000  0.13276000  1.0
  C  C52  1  0.89178000  0.07332000  0.13267000  1.0
  C  C53  1  0.75908000  0.42669000  0.86724000  1.0
  C  C54  1  0.16871000  0.90633000  0.78320000  1.0
  C  C55  1  0.38539000  0.59370000  0.21684000  1.0
  C  C56  1  0.83129000  0.09367000  0.21680000  1.0
  C  C57  1  0.61461000  0.40630000  0.78316000  1.0
  C  C58  1  0.35535000  0.97555000  0.73135000  1.0
  C  C59  1  0.62382000  0.52454000  0.26868000  1.0
  C  C60  1  0.64465000  0.02445000  0.26865000  1.0
  C  C61  1  0.37618000  0.47546000  0.73132000  1.0
  C  C62  1  0.48018000  0.06490000  0.76436000  1.0
  C  C63  1  0.71564000  0.43517000  0.23563000  1.0
  C  C64  1  0.51982000  0.93510000  0.23564000  1.0
  C  C65  1  0.28436000  0.56483000  0.76437000  1.0
  C  C66  1  0.72105000  0.11608000  0.87825000  1.0
  C  C67  1  0.84265000  0.38385000  0.12164000  1.0
  C  C68  1  0.27894000  0.88392000  0.12175000  1.0
  C  C69  1  0.15735000  0.61615000  0.87836000  1.0
  C  C70  1  0.16379000  0.91690000  0.03543000  1.0
  C  C71  1  0.12847000  0.58317000  0.96474000  1.0
  C  C72  1  0.83621000  0.08310000  0.96457000  1.0
  C  C73  1  0.87153000  0.41683000  0.03526000  1.0
  C  C74  1  0.89617000  0.23278000  0.63484000  1.0
  C  C75  1  0.26150000  0.26735000  0.36522000  1.0
  C  C76  1  0.10383000  0.76722000  0.36516000  1.0
  C  C77  1  0.73850000  0.73265000  0.63478000  1.0
  C  C78  1  0.91272000  0.34357000  0.60056000  1.0
  C  C79  1  0.31228000  0.15657000  0.39951000  1.0
  C  C80  1  0.08728000  0.65643000  0.39944000  1.0
  C  C81  1  0.68771000  0.84343000  0.60048000  1.0
  C  C82  1  0.79537000  0.36135000  0.50265000  1.0
  C  C83  1  0.29273000  0.13874000  0.49744000  1.0
  C  C84  1  0.20463000  0.63865000  0.49735000  1.0
  C  C85  1  0.70727000  0.86126000  0.50256000  1.0
  I  I86  1  0.30978000  0.24998000  0.99988000  1.0
  I  I87  1  0.69022000  0.75002000  0.00012000  1.0
  I  I88  1  0.06690000  0.23187000  0.77953000  1.0
  I  I89  1  0.28766000  0.26827000  0.22045000  1.0
  I  I90  1  0.93310000  0.76813000  0.22047000  1.0
  I  I91  1  0.71234000  0.73174000  0.77955000  1.0
  O  O92  1  0.21387000  0.89758000  0.95223000  1.0
  O  O93  1  0.26170000  0.60251000  0.04783000  1.0
  O  O94  1  0.78613000  0.10242000  0.04777000  1.0
  O  O95  1  0.73831000  0.39749000  0.95217000  1.0
  O  O96  1  0.29592000  0.98102000  0.80927000  1.0
  O  O97  1  0.48662000  0.51908000  0.19079000  1.0
  O  O98  1  0.70408000  0.01898000  0.19073000  1.0
  O  O99  1  0.51338000  0.48092000  0.80921000  1.0
  O  O100  1  0.59523000  0.03797000  0.84550000  1.0
  O  O101  1  0.74960000  0.46202000  0.15442000  1.0
  O  O102  1  0.40477000  0.96203000  0.15450000  1.0
  O  O103  1  0.25040000  0.53798000  0.84558000  1.0
  F  F104  1  0.90527000  0.14404000  0.56422000  1.0
  F  F105  1  0.34103000  0.35611000  0.43587000  1.0
  F  F106  1  0.09473000  0.85596000  0.43578000  1.0
  F  F107  1  0.65897000  0.64390000  0.56413000  1.0
  F  F108  1  0.75778000  0.22343000  0.64221000  1.0
  F  F109  1  0.11575000  0.27662000  0.35789000  1.0
  F  F110  1  0.24222000  0.77657000  0.35779000  1.0
  F  F111  1  0.88425000  0.72338000  0.64211000  1.0
  F  F112  1  0.04741000  0.34989000  0.58835000  1.0
  F  F113  1  0.45915000  0.15026000  0.41160000  1.0
  F  F114  1  0.95259000  0.65011000  0.41165000  1.0
  F  F115  1  0.54086000  0.84974000  0.58841000  1.0
  F  F116  1  0.90693000  0.43240000  0.67255000  1.0
  F  F117  1  0.23461000  0.06774000  0.32754000  1.0
  F  F118  1  0.09307000  0.56760000  0.32745000  1.0
  F  F119  1  0.76539000  0.93226000  0.67246000  1.0
  F  F120  1  0.83143000  0.45968000  0.48269000  1.0
  F  F121  1  0.34869000  0.04038000  0.51731000  1.0
  F  F122  1  0.16857000  0.54032000  0.51731000  1.0
  F  F123  1  0.65131000  0.95962000  0.48269000  1.0
  F  F124  1  0.65933000  0.36618000  0.51046000  1.0
  F  F125  1  0.14892000  0.13385000  0.48972000  1.0
  F  F126  1  0.34067000  0.63382000  0.48954000  1.0
  F  F127  1  0.85108000  0.86615000  0.51028000  1.0
  F  F128  1  0.79192000  0.27771000  0.42587000  1.0
  F  F129  1  0.36592000  0.22232000  0.57430000  1.0
  F  F130  1  0.20808000  0.72228000  0.57413000  1.0
  F  F131  1  0.63408000  0.77768000  0.42570000  1.0
