# generated using pymatgen
data_CoH9C10N3O2
_symmetry_space_group_name_H-M   'P 1'
_cell_length_a   4.83251000
_cell_length_b   9.69996000
_cell_length_c   22.33780000
_cell_angle_alpha   89.99990000
_cell_angle_beta   90.00000000
_cell_angle_gamma   99.91090000
_symmetry_Int_Tables_number   1
_chemical_formula_structural   CoH9C10N3O2
_chemical_formula_sum   'Co4 H36 C40 N12 O8'
_cell_volume   1031.46169851
_cell_formula_units_Z   4
loop_
 _symmetry_equiv_pos_site_id
 _symmetry_equiv_pos_as_xyz
  1  'x, y, z'
loop_
 _atom_site_type_symbol
 _atom_site_label
 _atom_site_symmetry_multiplicity
 _atom_site_fract_x
 _atom_site_fract_y
 _atom_site_fract_z
 _atom_site_occupancy
  Co  Co0  1  0.92295000  0.16630000  0.68463000  1.0
  Co  Co1  1  0.07704000  0.33370000  0.18463000  1.0
  Co  Co2  1  0.07704000  0.83370000  0.31537000  1.0
  Co  Co3  1  0.92295000  0.66630000  0.81537000  1.0
  H  H4  1  0.42374000  0.31030000  0.78287000  1.0
  H  H5  1  0.57626000  0.18970000  0.28287000  1.0
  H  H6  1  0.57626000  0.68970000  0.21713000  1.0
  H  H7  1  0.42374000  0.81030000  0.71713000  1.0
  H  H8  1  0.76480000  0.30013000  0.86477000  1.0
  H  H9  1  0.23521000  0.19987000  0.36478000  1.0
  H  H10  1  0.23521000  0.69987000  0.13522000  1.0
  H  H11  1  0.76480000  0.80013000  0.63523000  1.0
  H  H12  1  0.75530000  0.08542000  0.92531000  1.0
  H  H13  1  0.24470000  0.41458000  0.42531000  1.0
  H  H14  1  0.24470000  0.91458000  0.07469000  1.0
  H  H15  1  0.75530000  0.58542000  0.57469000  1.0
  H  H16  1  0.41295000  0.86830000  0.90309000  1.0
  H  H17  1  0.58705000  0.63170000  0.40309000  1.0
  H  H18  1  0.58705000  0.13170000  0.09691000  1.0
  H  H19  1  0.41295000  0.36830000  0.59691000  1.0
  H  H20  1  0.69633000  0.99523000  0.57895000  1.0
  H  H21  1  0.30367000  0.50477000  0.07895000  1.0
  H  H22  1  0.30367000  0.00477000  0.42105000  1.0
  H  H23  1  0.69633000  0.49523000  0.92105000  1.0
  H  H24  1  0.38905000  0.19222000  0.50786000  1.0
  H  H25  1  0.61095000  0.30778000  0.00786000  1.0
  H  H26  1  0.61096000  0.80778000  0.49214000  1.0
  H  H27  1  0.38904000  0.69222000  0.99214000  1.0
  H  H28  1  0.73220000  0.23294000  0.53846000  1.0
  H  H29  1  0.26780000  0.26707000  0.03846000  1.0
  H  H30  1  0.26780000  0.76706000  0.46154000  1.0
  H  H31  1  0.73220000  0.73293000  0.96154000  1.0
  H  H32  1  0.25622000  0.82055000  0.57098000  1.0
  H  H33  1  0.74378000  0.67945000  0.07098000  1.0
  H  H34  1  0.74378000  0.17945000  0.42902000  1.0
  H  H35  1  0.25622000  0.32055000  0.92902000  1.0
  H  H36  1  0.09896000  0.93857000  0.52757000  1.0
  H  H37  1  0.90104000  0.56143000  0.02757000  1.0
  H  H38  1  0.90104000  0.06143000  0.47243000  1.0
  H  H39  1  0.09896000  0.43857000  0.97243000  1.0
  C  C40  1  0.22279000  0.09347000  0.79736000  1.0
  C  C41  1  0.77721000  0.40654000  0.29736000  1.0
  C  C42  1  0.77721000  0.90654000  0.20264000  1.0
  C  C43  1  0.22279000  0.59346000  0.70265000  1.0
  C  C44  1  0.41493000  0.21585000  0.80953000  1.0
  C  C45  1  0.58508000  0.28415000  0.30953000  1.0
  C  C46  1  0.58507000  0.78415000  0.19047000  1.0
  C  C47  1  0.41493000  0.71585000  0.69047000  1.0
  C  C48  1  0.60506000  0.20884000  0.85548000  1.0
  C  C49  1  0.39494000  0.29116000  0.35548000  1.0
  C  C50  1  0.39494000  0.79116000  0.14452000  1.0
  C  C51  1  0.60506000  0.70884000  0.64452000  1.0
  C  C52  1  0.60157000  0.08542000  0.88955000  1.0
  C  C53  1  0.39843000  0.41458000  0.38955000  1.0
  C  C54  1  0.39843000  0.91458000  0.11045000  1.0
  C  C55  1  0.60157000  0.58542000  0.61045000  1.0
  C  C56  1  0.41272000  0.96376000  0.87754000  1.0
  C  C57  1  0.58728000  0.53624000  0.37754000  1.0
  C  C58  1  0.58728000  0.03624000  0.12246000  1.0
  C  C59  1  0.41272000  0.46376000  0.62246000  1.0
  C  C60  1  0.22478000  0.96854000  0.82995000  1.0
  C  C61  1  0.77523000  0.53146000  0.32995000  1.0
  C  C62  1  0.77522000  0.03146000  0.17005000  1.0
  C  C63  1  0.22478000  0.46854000  0.67005000  1.0
  C  C64  1  0.37696000  0.08833000  0.61954000  1.0
  C  C65  1  0.62303000  0.41167000  0.11954000  1.0
  C  C66  1  0.62303000  0.91167000  0.38046000  1.0
  C  C67  1  0.37697000  0.58833000  0.88046000  1.0
  C  C68  1  0.50075000  0.02932000  0.56510000  1.0
  C  C69  1  0.49925000  0.47068000  0.06510000  1.0
  C  C70  1  0.49925000  0.97069000  0.43490000  1.0
  C  C71  1  0.50075000  0.52931000  0.93490000  1.0
  C  C72  1  0.57838000  0.14804000  0.51883000  1.0
  C  C73  1  0.42162000  0.35196000  0.01883000  1.0
  C  C74  1  0.42162000  0.85196000  0.48117000  1.0
  C  C75  1  0.57838000  0.64804000  0.98117000  1.0
  C  C76  1  0.29986000  0.90553000  0.53794000  1.0
  C  C77  1  0.70014000  0.59447000  0.03794000  1.0
  C  C78  1  0.70014000  0.09447000  0.46206000  1.0
  C  C79  1  0.29986000  0.40553000  0.96206000  1.0
  N  N80  1  0.01703000  0.06180000  0.75450000  1.0
  N  N81  1  0.98298000  0.43820000  0.25450000  1.0
  N  N82  1  0.98298000  0.93820000  0.24550000  1.0
  N  N83  1  0.01702000  0.56180000  0.74550000  1.0
  N  N84  1  0.90174000  0.92760000  0.75944000  1.0
  N  N85  1  0.09826000  0.57240000  0.25944000  1.0
  N  N86  1  0.09826000  0.07240000  0.24056000  1.0
  N  N87  1  0.90174000  0.42760000  0.74056000  1.0
  N  N88  1  0.02281000  0.86861000  0.80426000  1.0
  N  N89  1  0.97718000  0.63139000  0.30426000  1.0
  N  N90  1  0.97718000  0.13139000  0.19574000  1.0
  N  N91  1  0.02281000  0.36861000  0.69574000  1.0
  O  O92  1  0.11625000  0.09888000  0.61686000  1.0
  O  O93  1  0.88375000  0.40112000  0.11686000  1.0
  O  O94  1  0.88375000  0.90111000  0.38314000  1.0
  O  O95  1  0.11625000  0.59889000  0.88314000  1.0
  O  O96  1  0.52462000  0.13184000  0.66521000  1.0
  O  O97  1  0.47538000  0.36816000  0.16521000  1.0
  O  O98  1  0.47538000  0.86816000  0.33479000  1.0
  O  O99  1  0.52462000  0.63184000  0.83479000  1.0
