# generated using pymatgen
data_Cu4H24C29N8
_symmetry_space_group_name_H-M   'P 1'
_cell_length_a   25.95790000
_cell_length_b   25.98880000
_cell_length_c   26.13850000
_cell_angle_alpha   89.90870000
_cell_angle_beta   90.01550000
_cell_angle_gamma   89.60180000
_symmetry_Int_Tables_number   1
_chemical_formula_structural   Cu4H24C29N8
_chemical_formula_sum   'Cu12 H72 C87 N24'
_cell_volume   17632.96665035
_cell_formula_units_Z   3
loop_
 _symmetry_equiv_pos_site_id
 _symmetry_equiv_pos_as_xyz
  1  'x, y, z'
loop_
 _atom_site_type_symbol
 _atom_site_label
 _atom_site_symmetry_multiplicity
 _atom_site_fract_x
 _atom_site_fract_y
 _atom_site_fract_z
 _atom_site_occupancy
  Cu  Cu0  1  0.78802000  0.78591000  0.86867000  1.0
  Cu  Cu1  1  0.87294000  0.78357000  0.78181000  1.0
  Cu  Cu2  1  0.78625000  0.87123000  0.78199000  1.0
  Cu  Cu3  1  0.77957000  0.21679000  0.13202000  1.0
  Cu  Cu4  1  0.86466000  0.21782000  0.21908000  1.0
  Cu  Cu5  1  0.77899000  0.13090000  0.21812000  1.0
  Cu  Cu6  1  0.21289000  0.78544000  0.13155000  1.0
  Cu  Cu7  1  0.12757000  0.78618000  0.21849000  1.0
  Cu  Cu8  1  0.21612000  0.87041000  0.21801000  1.0
  Cu  Cu9  1  0.21559000  0.21918000  0.86511000  1.0
  Cu  Cu10  1  0.12806000  0.22186000  0.78041000  1.0
  Cu  Cu11  1  0.21171000  0.13131000  0.78174000  1.0
  H  H12  1  0.82418000  0.69073000  0.93642000  1.0
  H  H13  1  0.93936000  0.68652000  0.81647000  1.0
  H  H14  1  0.68771000  0.93610000  0.81484000  1.0
  H  H15  1  0.69179000  0.82116000  0.93512000  1.0
  H  H16  1  0.93808000  0.81691000  0.68542000  1.0
  H  H17  1  0.82350000  0.93890000  0.68802000  1.0
  H  H18  1  0.81432000  0.31265000  0.06564000  1.0
  H  H19  1  0.92865000  0.31604000  0.18643000  1.0
  H  H20  1  0.68413000  0.06381000  0.18222000  1.0
  H  H21  1  0.68650000  0.17984000  0.06295000  1.0
  H  H22  1  0.93299000  0.17989000  0.31314000  1.0
  H  H23  1  0.81326000  0.06451000  0.31382000  1.0
  H  H24  1  0.17622000  0.69060000  0.06540000  1.0
  H  H25  1  0.06205000  0.68862000  0.18634000  1.0
  H  H26  1  0.31276000  0.93511000  0.18235000  1.0
  H  H27  1  0.30707000  0.82021000  0.06251000  1.0
  H  H28  1  0.05991000  0.82616000  0.31198000  1.0
  H  H29  1  0.18371000  0.93717000  0.31378000  1.0
  H  H30  1  0.18492000  0.31609000  0.93102000  1.0
  H  H31  1  0.06223000  0.31857000  0.81861000  1.0
  H  H32  1  0.30720000  0.06245000  0.81580000  1.0
  H  H33  1  0.31112000  0.18153000  0.93160000  1.0
  H  H34  1  0.06240000  0.19032000  0.68353000  1.0
  H  H35  1  0.17144000  0.06349000  0.68948000  1.0
  H  H36  1  0.97309000  0.60618000  0.86018000  1.0
  H  H37  1  0.01308000  0.53649000  0.90593000  1.0
  H  H38  1  0.89743000  0.61625000  0.95021000  1.0
  H  H39  1  0.93817000  0.55770000  0.99488000  1.0
  H  H40  1  0.96264000  0.39328000  0.14402000  1.0
  H  H41  1  0.00998000  0.45639000  0.09875000  1.0
  H  H42  1  0.88962000  0.38594000  0.05172000  1.0
  H  H43  1  0.93005000  0.45266000  0.01213000  1.0
  H  H44  1  0.02797000  0.60972000  0.14435000  1.0
  H  H45  1  0.98248000  0.54514000  0.09809000  1.0
  H  H46  1  0.10135000  0.61763000  0.05234000  1.0
  H  H47  1  0.06825000  0.54774000  0.01702000  1.0
  H  H48  1  0.14366000  0.39592000  0.96690000  1.0
  H  H49  1  0.09971000  0.46348000  0.01130000  1.0
  H  H50  1  0.05076000  0.39066000  0.89408000  1.0
  H  H51  1  0.00728000  0.44660000  0.93978000  1.0
  H  H52  1  0.60846000  0.96976000  0.85734000  1.0
  H  H53  1  0.54191000  0.01385000  0.90248000  1.0
  H  H54  1  0.61724000  0.89562000  0.94873000  1.0
  H  H55  1  0.55009000  0.93245000  0.98772000  1.0
  H  H56  1  0.38703000  0.02734000  0.85800000  1.0
  H  H57  1  0.45387000  0.98336000  0.90291000  1.0
  H  H58  1  0.38215000  0.10465000  0.94679000  1.0
  H  H59  1  0.44682000  0.06537000  0.98740000  1.0
  H  H60  1  0.60692000  0.02933000  0.13859000  1.0
  H  H61  1  0.54256000  0.98381000  0.09269000  1.0
  H  H62  1  0.61494000  0.10353000  0.04722000  1.0
  H  H63  1  0.54822000  0.06600000  0.00811000  1.0
  H  H64  1  0.38956000  0.96864000  0.13852000  1.0
  H  H65  1  0.45457000  0.01359000  0.09283000  1.0
  H  H66  1  0.38069000  0.89497000  0.04707000  1.0
  H  H67  1  0.44804000  0.93192000  0.00811000  1.0
  H  H68  1  0.96969000  0.85793000  0.60376000  1.0
  H  H69  1  0.01233000  0.90409000  0.53632000  1.0
  H  H70  1  0.89847000  0.95220000  0.61557000  1.0
  H  H71  1  0.93548000  0.99307000  0.55392000  1.0
  H  H72  1  0.14372000  0.96987000  0.39570000  1.0
  H  H73  1  0.09778000  0.01458000  0.46236000  1.0
  H  H74  1  0.04782000  0.90201000  0.38379000  1.0
  H  H75  1  0.00919000  0.93784000  0.44716000  1.0
  H  H76  1  0.03009000  0.14889000  0.60085000  1.0
  H  H77  1  0.98577000  0.10129000  0.53537000  1.0
  H  H78  1  0.09635000  0.05176000  0.61751000  1.0
  H  H79  1  0.06398000  0.01333000  0.55244000  1.0
  H  H80  1  0.85400000  0.03277000  0.39598000  1.0
  H  H81  1  0.90021000  0.99021000  0.46380000  1.0
  H  H82  1  0.94726000  0.10437000  0.38492000  1.0
  H  H83  1  0.98901000  0.06606000  0.44550000  1.0
  C  C84  1  0.84842000  0.69681000  0.90314000  1.0
  C  C85  1  0.89221000  0.66891000  0.88715000  1.0
  C  C86  1  0.90721000  0.69429000  0.84190000  1.0
  C  C87  1  0.69549000  0.90407000  0.84042000  1.0
  C  C88  1  0.66989000  0.88906000  0.88555000  1.0
  C  C89  1  0.69790000  0.84545000  0.90187000  1.0
  C  C90  1  0.90584000  0.84270000  0.69257000  1.0
  C  C91  1  0.89115000  0.88829000  0.66703000  1.0
  C  C92  1  0.84747000  0.90509000  0.69435000  1.0
  C  C93  1  0.83836000  0.30654000  0.09913000  1.0
  C  C94  1  0.88186000  0.33410000  0.11548000  1.0
  C  C95  1  0.89664000  0.30857000  0.16087000  1.0
  C  C96  1  0.69118000  0.09627000  0.15710000  1.0
  C  C97  1  0.66604000  0.11097000  0.11149000  1.0
  C  C98  1  0.69269000  0.15540000  0.09614000  1.0
  C  C99  1  0.89965000  0.15583000  0.30638000  1.0
  C  C100  1  0.88355000  0.11172000  0.33314000  1.0
  C  C101  1  0.83842000  0.09702000  0.30718000  1.0
  C  C102  1  0.15222000  0.69713000  0.09881000  1.0
  C  C103  1  0.10859000  0.66995000  0.11545000  1.0
  C  C104  1  0.09401000  0.69580000  0.16062000  1.0
  C  C105  1  0.30478000  0.90308000  0.15708000  1.0
  C  C106  1  0.32935000  0.88815000  0.11130000  1.0
  C  C107  1  0.30157000  0.84452000  0.09583000  1.0
  C  C108  1  0.09413000  0.84907000  0.30548000  1.0
  C  C109  1  0.11162000  0.89242000  0.33247000  1.0
  C  C110  1  0.15744000  0.90563000  0.30687000  1.0
  C  C111  1  0.15869000  0.31005000  0.89931000  1.0
  C  C112  1  0.11346000  0.33708000  0.88571000  1.0
  C  C113  1  0.09607000  0.31093000  0.84191000  1.0
  C  C114  1  0.30156000  0.09573000  0.84021000  1.0
  C  C115  1  0.32870000  0.11100000  0.88432000  1.0
  C  C116  1  0.30319000  0.15650000  0.89936000  1.0
  C  C117  1  0.09341000  0.16327000  0.69147000  1.0
  C  C118  1  0.10624000  0.11664000  0.66698000  1.0
  C  C119  1  0.14897000  0.09843000  0.69501000  1.0
  C  C120  1  0.99922000  0.00260000  0.49976000  1.0
  C  C121  1  0.99980000  0.50020000  0.00410000  1.0
  C  C122  1  0.49831000  0.99881000  0.99767000  1.0
  C  C123  1  0.91519000  0.62563000  0.91343000  1.0
  C  C124  1  0.95602000  0.59708000  0.89735000  1.0
  C  C125  1  0.98075000  0.55539000  0.92534000  1.0
  C  C126  1  0.96908000  0.53918000  0.97307000  1.0
  C  C127  1  0.90593000  0.37651000  0.08921000  1.0
  C  C128  1  0.94710000  0.40336000  0.10637000  1.0
  C  C129  1  0.97506000  0.44326000  0.07954000  1.0
  C  C130  1  0.96423000  0.46442000  0.03353000  1.0
  C  C131  1  0.08489000  0.62710000  0.08972000  1.0
  C  C132  1  0.04428000  0.59951000  0.10707000  1.0
  C  C133  1  0.01827000  0.55822000  0.08042000  1.0
  C  C134  1  0.03286000  0.53564000  0.03611000  1.0
  C  C135  1  0.08815000  0.37994000  0.91043000  1.0
  C  C136  1  0.10573000  0.40626000  0.95161000  1.0
  C  C137  1  0.07865000  0.44674000  0.97918000  1.0
  C  C138  1  0.03004000  0.46342000  0.97068000  1.0
  C  C139  1  0.62666000  0.91247000  0.91154000  1.0
  C  C140  1  0.59861000  0.95333000  0.89463000  1.0
  C  C141  1  0.55694000  0.97932000  0.92136000  1.0
  C  C142  1  0.53594000  0.96628000  0.96689000  1.0
  C  C143  1  0.37144000  0.08678000  0.91047000  1.0
  C  C144  1  0.39790000  0.04452000  0.89461000  1.0
  C  C145  1  0.43936000  0.01823000  0.92149000  1.0
  C  C146  1  0.46071000  0.03140000  0.96679000  1.0
  C  C147  1  0.62416000  0.08675000  0.08456000  1.0
  C  C148  1  0.59709000  0.04545000  0.10111000  1.0
  C  C149  1  0.55649000  0.01872000  0.07402000  1.0
  C  C150  1  0.53510000  0.03173000  0.02857000  1.0
  C  C151  1  0.37168000  0.91170000  0.08442000  1.0
  C  C152  1  0.39932000  0.95253000  0.10107000  1.0
  C  C153  1  0.44026000  0.97891000  0.07412000  1.0
  C  C154  1  0.46144000  0.96598000  0.02862000  1.0
  C  C155  1  0.91459000  0.91416000  0.62419000  1.0
  C  C156  1  0.95415000  0.89623000  0.59522000  1.0
  C  C157  1  0.97941000  0.92375000  0.55394000  1.0
  C  C158  1  0.96736000  0.97142000  0.53682000  1.0
  C  C159  1  0.08627000  0.91672000  0.37527000  1.0
  C  C160  1  0.10512000  0.95556000  0.40426000  1.0
  C  C161  1  0.07806000  0.98160000  0.44550000  1.0
  C  C162  1  0.03067000  0.97001000  0.46331000  1.0
  C  C163  1  0.08218000  0.09087000  0.62449000  1.0
  C  C164  1  0.04423000  0.10976000  0.59396000  1.0
  C  C165  1  0.01896000  0.08198000  0.55293000  1.0
  C  C166  1  0.03143000  0.03445000  0.53587000  1.0
  C  C167  1  0.90953000  0.08811000  0.37603000  1.0
  C  C168  1  0.89205000  0.04833000  0.40471000  1.0
  C  C169  1  0.91976000  0.02284000  0.44598000  1.0
  C  C170  1  0.96749000  0.03448000  0.46280000  1.0
  N  N171  1  0.87484000  0.73385000  0.83215000  1.0
  N  N172  1  0.83824000  0.73545000  0.87016000  1.0
  N  N173  1  0.73689000  0.83548000  0.86925000  1.0
  N  N174  1  0.73539000  0.87201000  0.83114000  1.0
  N  N175  1  0.83696000  0.87212000  0.73273000  1.0
  N  N176  1  0.87338000  0.83345000  0.73166000  1.0
  N  N177  1  0.86461000  0.26914000  0.17028000  1.0
  N  N178  1  0.82828000  0.26790000  0.13200000  1.0
  N  N179  1  0.73042000  0.16614000  0.12982000  1.0
  N  N180  1  0.72949000  0.12930000  0.16762000  1.0
  N  N181  1  0.82876000  0.12986000  0.26838000  1.0
  N  N182  1  0.86669000  0.16657000  0.26791000  1.0
  N  N183  1  0.12639000  0.73502000  0.16970000  1.0
  N  N184  1  0.16269000  0.73579000  0.13140000  1.0
  N  N185  1  0.26370000  0.83446000  0.12958000  1.0
  N  N186  1  0.26571000  0.87093000  0.16757000  1.0
  N  N187  1  0.16621000  0.87266000  0.26809000  1.0
  N  N188  1  0.12699000  0.83735000  0.26726000  1.0
  N  N189  1  0.12828000  0.27171000  0.83047000  1.0
  N  N190  1  0.16712000  0.27120000  0.86627000  1.0
  N  N191  1  0.26423000  0.16732000  0.86692000  1.0
  N  N192  1  0.26318000  0.12943000  0.83029000  1.0
  N  N193  1  0.16067000  0.13155000  0.73279000  1.0
  N  N194  1  0.12595000  0.17173000  0.73068000  1.0
