# generated using pymatgen
data_NiH26C32(N2O)4
_symmetry_space_group_name_H-M   'P 1'
_cell_length_a   8.91097000
_cell_length_b   9.46165000
_cell_length_c   9.53370000
_cell_angle_alpha   106.88900000
_cell_angle_beta   113.61200000
_cell_angle_gamma   92.29190000
_symmetry_Int_Tables_number   1
_chemical_formula_structural   NiH26C32(N2O)4
_chemical_formula_sum   'Ni1 H26 C32 N8 O4'
_cell_volume   693.45072870
_cell_formula_units_Z   1
loop_
 _symmetry_equiv_pos_site_id
 _symmetry_equiv_pos_as_xyz
  1  'x, y, z'
loop_
 _atom_site_type_symbol
 _atom_site_label
 _atom_site_symmetry_multiplicity
 _atom_site_fract_x
 _atom_site_fract_y
 _atom_site_fract_z
 _atom_site_occupancy
  Ni  Ni0  1  0.50000000  0.50000000  0.50000000  1.0
  H  H1  1  0.01053000  0.76138000  0.52201000  1.0
  H  H2  1  0.98946000  0.23861000  0.47798000  1.0
  H  H3  1  0.82041000  0.44497000  0.76024000  1.0
  H  H4  1  0.17959000  0.55502000  0.23977000  1.0
  H  H5  1  0.20430000  0.41013000  0.81483000  1.0
  H  H6  1  0.79570000  0.58986000  0.18517000  1.0
  H  H7  1  0.11392000  0.47046000  0.95223000  1.0
  H  H8  1  0.88608000  0.52953000  0.04777000  1.0
  H  H9  1  0.27351000  0.59568000  0.95650000  1.0
  H  H10  1  0.72649000  0.40432000  0.04350000  1.0
  H  H11  1  0.38051000  0.79735000  0.52629000  1.0
  H  H12  1  0.61950000  0.20266000  0.47371000  1.0
  H  H13  1  0.38686000  0.02414000  0.73571000  1.0
  H  H14  1  0.61315000  0.97587000  0.26429000  1.0
  H  H15  1  0.59404000  0.79295000  0.08589000  1.0
  H  H16  1  0.40596000  0.20706000  0.91411000  1.0
  H  H17  1  0.58344000  0.57779000  0.85781000  1.0
  H  H18  1  0.41657000  0.42222000  0.14220000  1.0
  H  H19  1  0.67493000  0.21675000  0.74503000  1.0
  H  H20  1  0.32507000  0.78325000  0.25497000  1.0
  H  H21  1  0.76504000  0.11996000  0.97448000  1.0
  H  H22  1  0.23497000  0.88004000  0.02552000  1.0
  H  H23  1  0.15856000  0.96545000  0.84665000  1.0
  H  H24  1  0.84145000  0.03455000  0.15336000  1.0
  H  H25  1  0.06174000  0.08037000  0.63350000  1.0
  H  H26  1  0.93827000  0.91963000  0.36650000  1.0
  C  C27  1  0.79919000  0.64931000  0.52972000  1.0
  C  C28  1  0.20081000  0.35069000  0.47028000  1.0
  C  C29  1  0.96896000  0.69169000  0.57742000  1.0
  C  C30  1  0.03104000  0.30830000  0.42258000  1.0
  C  C31  1  0.03550000  0.56063000  0.75654000  1.0
  C  C32  1  0.96450000  0.43937000  0.24346000  1.0
  C  C33  1  0.86512000  0.51747000  0.70962000  1.0
  C  C34  1  0.13488000  0.48254000  0.29038000  1.0
  C  C35  1  0.66194000  0.69436000  0.40308000  1.0
  C  C36  1  0.33807000  0.30564000  0.59693000  1.0
  C  C37  1  0.16385000  0.50709000  0.87798000  1.0
  C  C38  1  0.83614000  0.49290000  0.12201000  1.0
  C  C39  1  0.42999000  0.80180000  0.65223000  1.0
  C  C40  1  0.57002000  0.19821000  0.34777000  1.0
  C  C41  1  0.43186000  0.92879000  0.77179000  1.0
  C  C42  1  0.56814000  0.07122000  0.22821000  1.0
  C  C43  1  0.49443000  0.93234000  0.93375000  1.0
  C  C44  1  0.50556000  0.06766000  0.06625000  1.0
  C  C45  1  0.54734000  0.80170000  0.96449000  1.0
  C  C46  1  0.45266000  0.19830000  0.03552000  1.0
  C  C47  1  0.54260000  0.68024000  0.83786000  1.0
  C  C48  1  0.45739000  0.31976000  0.16214000  1.0
  C  C49  1  0.78372000  0.16142000  0.77256000  1.0
  C  C50  1  0.21627000  0.83857000  0.22743000  1.0
  C  C51  1  0.83389000  0.10524000  0.90091000  1.0
  C  C52  1  0.16611000  0.89476000  0.09908000  1.0
  C  C53  1  0.97128000  0.03155000  0.93310000  1.0
  C  C54  1  0.02872000  0.96845000  0.06690000  1.0
  C  C55  1  0.05175000  0.02142000  0.83159000  1.0
  C  C56  1  0.94825000  0.97859000  0.16841000  1.0
  C  C57  1  0.99486000  0.08364000  0.70814000  1.0
  C  C58  1  0.00514000  0.91637000  0.29186000  1.0
  N  N59  1  0.74990000  0.56160000  0.59778000  1.0
  N  N60  1  0.25010000  0.43840000  0.40222000  1.0
  N  N61  1  0.08639000  0.64861000  0.68966000  1.0
  N  N62  1  0.91362000  0.35138000  0.31034000  1.0
  N  N63  1  0.48740000  0.67999000  0.68408000  1.0
  N  N64  1  0.51260000  0.32002000  0.31592000  1.0
  N  N65  1  0.86245000  0.15280000  0.67665000  1.0
  N  N66  1  0.13754000  0.84720000  0.32334000  1.0
  O  O67  1  0.51275000  0.64194000  0.37367000  1.0
  O  O68  1  0.48725000  0.35806000  0.62633000  1.0
  O  O69  1  0.70046000  0.77566000  0.33551000  1.0
  O  O70  1  0.29954000  0.22434000  0.66449000  1.0
