# generated using pymatgen
data_AgH16C23IN2
_symmetry_space_group_name_H-M   'P 1'
_cell_length_a   9.36094000
_cell_length_b   13.55080000
_cell_length_c   34.82550000
_cell_angle_alpha   93.51080000
_cell_angle_beta   90.00000000
_cell_angle_gamma   89.99980000
_symmetry_Int_Tables_number   1
_chemical_formula_structural   AgH16C23IN2
_chemical_formula_sum   'Ag8 H128 C184 I8 N16'
_cell_volume   4409.26234650
_cell_formula_units_Z   8
loop_
 _symmetry_equiv_pos_site_id
 _symmetry_equiv_pos_as_xyz
  1  'x, y, z'
loop_
 _atom_site_type_symbol
 _atom_site_label
 _atom_site_symmetry_multiplicity
 _atom_site_fract_x
 _atom_site_fract_y
 _atom_site_fract_z
 _atom_site_occupancy
  Ag  Ag0  1  0.48823000  0.23263000  0.02188000  1.0
  Ag  Ag1  1  0.98823000  0.26737000  0.47812000  1.0
  Ag  Ag2  1  0.51177000  0.76737000  0.97812000  1.0
  Ag  Ag3  1  0.01177000  0.73263000  0.52188000  1.0
  Ag  Ag4  1  0.52643000  0.58890000  0.02409000  1.0
  Ag  Ag5  1  0.02643000  0.91110000  0.47591000  1.0
  Ag  Ag6  1  0.47357000  0.41110000  0.97591000  1.0
  Ag  Ag7  1  0.97357000  0.08890000  0.52409000  1.0
  H  H8  1  0.31185000  0.09830000  0.95319000  1.0
  H  H9  1  0.81185000  0.40170000  0.54681000  1.0
  H  H10  1  0.68814000  0.90170000  0.04681000  1.0
  H  H11  1  0.18815000  0.59830000  0.45319000  1.0
  H  H12  1  0.86163000  0.10415000  0.98047000  1.0
  H  H13  1  0.36163000  0.39584000  0.51953000  1.0
  H  H14  1  0.13837000  0.89584000  0.01953000  1.0
  H  H15  1  0.63837000  0.60416000  0.48047000  1.0
  H  H16  1  0.92592000  0.18551000  0.04454000  1.0
  H  H17  1  0.42593000  0.31448000  0.45547000  1.0
  H  H18  1  0.07407000  0.81448000  0.95546000  1.0
  H  H19  1  0.57407000  0.68551000  0.54453000  1.0
  H  H20  1  0.18466000  0.20931000  0.06109000  1.0
  H  H21  1  0.68466000  0.29069000  0.43891000  1.0
  H  H22  1  0.81534000  0.79069000  0.93891000  1.0
  H  H23  1  0.31534000  0.70931000  0.56109000  1.0
  H  H24  1  0.23618000  0.94540000  0.92273000  1.0
  H  H25  1  0.73618000  0.55460000  0.57727000  1.0
  H  H26  1  0.76382000  0.05460000  0.07727000  1.0
  H  H27  1  0.26382000  0.44540000  0.42273000  1.0
  H  H28  1  0.18458000  0.86617000  0.85884000  1.0
  H  H29  1  0.68458000  0.63383000  0.64116000  1.0
  H  H30  1  0.81542000  0.13383000  0.14116000  1.0
  H  H31  1  0.31542000  0.36617000  0.35884000  1.0
  H  H32  1  0.80834000  0.04636000  0.85085000  1.0
  H  H33  1  0.30834000  0.45365000  0.64915000  1.0
  H  H34  1  0.19166000  0.95364000  0.14915000  1.0
  H  H35  1  0.69166000  0.54636000  0.35085000  1.0
  H  H36  1  0.85795000  0.12512000  0.91507000  1.0
  H  H37  1  0.35795000  0.37489000  0.58493000  1.0
  H  H38  1  0.14205000  0.87488000  0.08493000  1.0
  H  H39  1  0.64205000  0.62512000  0.41507000  1.0
  H  H40  1  0.71030000  0.90744000  0.76929000  1.0
  H  H41  1  0.21030000  0.59256000  0.73071000  1.0
  H  H42  1  0.28970000  0.09255000  0.23071000  1.0
  H  H43  1  0.78970000  0.40745000  0.26929000  1.0
  H  H44  1  0.63559000  0.03169000  0.72432000  1.0
  H  H45  1  0.13559000  0.46831000  0.77568000  1.0
  H  H46  1  0.36441000  0.96831000  0.27568000  1.0
  H  H47  1  0.86441000  0.53169000  0.22432000  1.0
  H  H48  1  0.03314000  0.18820000  0.74533000  1.0
  H  H49  1  0.53314000  0.31180000  0.75467000  1.0
  H  H50  1  0.96686000  0.81180000  0.25467000  1.0
  H  H51  1  0.46686000  0.68820000  0.24533000  1.0
  H  H52  1  0.10128000  0.06760000  0.79206000  1.0
  H  H53  1  0.60128000  0.43240000  0.70793000  1.0
  H  H54  1  0.89872000  0.93240000  0.20793000  1.0
  H  H55  1  0.39872000  0.56760000  0.29206000  1.0
  H  H56  1  0.89949000  0.31514000  0.73329000  1.0
  H  H57  1  0.39949000  0.18486000  0.76671000  1.0
  H  H58  1  0.10051000  0.68486000  0.26671000  1.0
  H  H59  1  0.60051000  0.81514000  0.23329000  1.0
  H  H60  1  0.72998000  0.38746000  0.62908000  1.0
  H  H61  1  0.22998000  0.11254000  0.87092000  1.0
  H  H62  1  0.27001000  0.61253000  0.37092000  1.0
  H  H63  1  0.77001000  0.88747000  0.12908000  1.0
  H  H64  1  0.62243000  0.21911000  0.61734000  1.0
  H  H65  1  0.12243000  0.28089000  0.88266000  1.0
  H  H66  1  0.37757000  0.78089000  0.38266000  1.0
  H  H67  1  0.87757000  0.71911000  0.11734000  1.0
  H  H68  1  0.66605000  0.09237000  0.66528000  1.0
  H  H69  1  0.16605000  0.40763000  0.83472000  1.0
  H  H70  1  0.33395000  0.90763000  0.33472000  1.0
  H  H71  1  0.83395000  0.59237000  0.16528000  1.0
  H  H72  1  0.86404000  0.63385000  0.77398000  1.0
  H  H73  1  0.36403000  0.86615000  0.72602000  1.0
  H  H74  1  0.13597000  0.36615000  0.22602000  1.0
  H  H75  1  0.63597000  0.13385000  0.27398000  1.0
  H  H76  1  0.86534000  0.55754000  0.70762000  1.0
  H  H77  1  0.36533000  0.94246000  0.79238000  1.0
  H  H78  1  0.13466000  0.44246000  0.29238000  1.0
  H  H79  1  0.63466000  0.05754000  0.20762000  1.0
  H  H80  1  0.09001000  0.81205000  0.66950000  1.0
  H  H81  1  0.59000000  0.68795000  0.83050000  1.0
  H  H82  1  0.90999000  0.18795000  0.33050000  1.0
  H  H83  1  0.40999000  0.31205000  0.16950000  1.0
  H  H84  1  0.08400000  0.88850000  0.73535000  1.0
  H  H85  1  0.58400000  0.61151000  0.76465000  1.0
  H  H86  1  0.91600000  0.11151000  0.26465000  1.0
  H  H87  1  0.41600000  0.38849000  0.23535000  1.0
  H  H88  1  0.96701000  0.76201000  0.61303000  1.0
  H  H89  1  0.46701000  0.73799000  0.88697000  1.0
  H  H90  1  0.03299000  0.23799000  0.38697000  1.0
  H  H91  1  0.53299000  0.26201000  0.11303000  1.0
  H  H92  1  0.04606000  0.50962000  0.54301000  1.0
  H  H93  1  0.54606000  0.99039000  0.95699000  1.0
  H  H94  1  0.95394000  0.49038000  0.45699000  1.0
  H  H95  1  0.45394000  0.00961000  0.04301000  1.0
  H  H96  1  0.04577000  0.40312000  0.59890000  1.0
  H  H97  1  0.54576000  0.09688000  0.90110000  1.0
  H  H98  1  0.95423000  0.59688000  0.40110000  1.0
  H  H99  1  0.45423000  0.90312000  0.09890000  1.0
  H  H100  1  0.01016000  0.48190000  0.66515000  1.0
  H  H101  1  0.51016000  0.01810000  0.83485000  1.0
  H  H102  1  0.98984000  0.51810000  0.33485000  1.0
  H  H103  1  0.48984000  0.98190000  0.16515000  1.0
  H  H104  1  0.81351000  0.76481000  0.86067000  1.0
  H  H105  1  0.31351000  0.73519000  0.63933000  1.0
  H  H106  1  0.18649000  0.23519000  0.13933000  1.0
  H  H107  1  0.68650000  0.26481000  0.36067000  1.0
  H  H108  1  0.85613000  0.63709000  0.90731000  1.0
  H  H109  1  0.35614000  0.86290000  0.59269000  1.0
  H  H110  1  0.14386000  0.36290000  0.09269000  1.0
  H  H111  1  0.64386000  0.13710000  0.40731000  1.0
  H  H112  1  0.25758000  0.56329000  0.85168000  1.0
  H  H113  1  0.75758000  0.93670000  0.64832000  1.0
  H  H114  1  0.74242000  0.43670000  0.14832000  1.0
  H  H115  1  0.24242000  0.06330000  0.35168000  1.0
  H  H116  1  0.20925000  0.68574000  0.80380000  1.0
  H  H117  1  0.70925000  0.81426000  0.69620000  1.0
  H  H118  1  0.79075000  0.31426000  0.19620000  1.0
  H  H119  1  0.29075000  0.18574000  0.30381000  1.0
  H  H120  1  0.31252000  0.53552000  0.91534000  1.0
  H  H121  1  0.81252000  0.96448000  0.58466000  1.0
  H  H122  1  0.68748000  0.46448000  0.08466000  1.0
  H  H123  1  0.18748000  0.03552000  0.41534000  1.0
  H  H124  1  0.16025000  0.33192000  0.98887000  1.0
  H  H125  1  0.66025000  0.16808000  0.51113000  1.0
  H  H126  1  0.83975000  0.66808000  0.01114000  1.0
  H  H127  1  0.33975000  0.83192000  0.48887000  1.0
  H  H128  1  0.90692000  0.35525000  0.96690000  1.0
  H  H129  1  0.40692000  0.14475000  0.53310000  1.0
  H  H130  1  0.09308000  0.64475000  0.03310000  1.0
  H  H131  1  0.59308000  0.85525000  0.46690000  1.0
  H  H132  1  0.85889000  0.47377000  0.91669000  1.0
  H  H133  1  0.35889000  0.02622000  0.58331000  1.0
  H  H134  1  0.14111000  0.52622000  0.08331000  1.0
  H  H135  1  0.64111000  0.97378000  0.41669000  1.0
  C  C136  1  0.22311000  0.11251000  0.97314000  1.0
  C  C137  1  0.72311000  0.38749000  0.52685000  1.0
  C  C138  1  0.77689000  0.88749000  0.02686000  1.0
  C  C139  1  0.27689000  0.61251000  0.47314000  1.0
  C  C140  1  0.08208000  0.09052000  0.96175000  1.0
  C  C141  1  0.58208000  0.40948000  0.53825000  1.0
  C  C142  1  0.91792000  0.90948000  0.03825000  1.0
  C  C143  1  0.41792000  0.59052000  0.46175000  1.0
  C  C144  1  0.97317000  0.11838000  0.98797000  1.0
  C  C145  1  0.47317000  0.38162000  0.51203000  1.0
  C  C146  1  0.02682000  0.88162000  0.01203000  1.0
  C  C147  1  0.52682000  0.61838000  0.48797000  1.0
  C  C148  1  0.00841000  0.16315000  0.02374000  1.0
  C  C149  1  0.50841000  0.33685000  0.47626000  1.0
  C  C150  1  0.99159000  0.83685000  0.97626000  1.0
  C  C151  1  0.49159000  0.66315000  0.52374000  1.0
  C  C152  1  0.15208000  0.17715000  0.03297000  1.0
  C  C153  1  0.65208000  0.32285000  0.46703000  1.0
  C  C154  1  0.84792000  0.82285000  0.96703000  1.0
  C  C155  1  0.34792000  0.67715000  0.53297000  1.0
  C  C156  1  0.05067000  0.04114000  0.92384000  1.0
  C  C157  1  0.55067000  0.45886000  0.57616000  1.0
  C  C158  1  0.94933000  0.95886000  0.07615000  1.0
  C  C159  1  0.44933000  0.54115000  0.42384000  1.0
  C  C160  1  0.14145000  0.96757000  0.90720000  1.0
  C  C161  1  0.64145000  0.53243000  0.59280000  1.0
  C  C162  1  0.85855000  0.03243000  0.09280000  1.0
  C  C163  1  0.35855000  0.46757000  0.40720000  1.0
  C  C164  1  0.11181000  0.92208000  0.87122000  1.0
  C  C165  1  0.61181000  0.57792000  0.62878000  1.0
  C  C166  1  0.88819000  0.07792000  0.12878000  1.0
  C  C167  1  0.38819000  0.42208000  0.37122000  1.0
  C  C168  1  0.99087000  0.94879000  0.85021000  1.0
  C  C169  1  0.49087000  0.55121000  0.64979000  1.0
  C  C170  1  0.00913000  0.05121000  0.14979000  1.0
  C  C171  1  0.50913000  0.44879000  0.35021000  1.0
  C  C172  1  0.90142000  0.02319000  0.86680000  1.0
  C  C173  1  0.40142000  0.47681000  0.63320000  1.0
  C  C174  1  0.09858000  0.97681000  0.13320000  1.0
  C  C175  1  0.59858000  0.52319000  0.36680000  1.0
  C  C176  1  0.92937000  0.06749000  0.90305000  1.0
  C  C177  1  0.42937000  0.43251000  0.59695000  1.0
  C  C178  1  0.07063000  0.93251000  0.09695000  1.0
  C  C179  1  0.57063000  0.56749000  0.40304000  1.0
  C  C180  1  0.96028000  0.90574000  0.81096000  1.0
  C  C181  1  0.46027000  0.59427000  0.68904000  1.0
  C  C182  1  0.03973000  0.09427000  0.18904000  1.0
  C  C183  1  0.53973000  0.40573000  0.31096000  1.0
  C  C184  1  0.97888000  0.80789000  0.80008000  1.0
  C  C185  1  0.47888000  0.69211000  0.69992000  1.0
  C  C186  1  0.02112000  0.19211000  0.19992000  1.0
  C  C187  1  0.52112000  0.30789000  0.30008000  1.0
  C  C188  1  0.91154000  0.97854000  0.78359000  1.0
  C  C189  1  0.41154000  0.52146000  0.71641000  1.0
  C  C190  1  0.08846000  0.02146000  0.21641000  1.0
  C  C191  1  0.58846000  0.47854000  0.28359000  1.0
  C  C192  1  0.78047000  0.96951000  0.76414000  1.0
  C  C193  1  0.28047000  0.53049000  0.73586000  1.0
  C  C194  1  0.21953000  0.03049000  0.23586000  1.0
  C  C195  1  0.71953000  0.46951000  0.26413000  1.0
  C  C196  1  0.73915000  0.03952000  0.73860000  1.0
  C  C197  1  0.23915000  0.46048000  0.76140000  1.0
  C  C198  1  0.26085000  0.96048000  0.26140000  1.0
  C  C199  1  0.76085000  0.53952000  0.23860000  1.0
  C  C200  1  0.82868000  0.11968000  0.73123000  1.0
  C  C201  1  0.32868000  0.38032000  0.76877000  1.0
  C  C202  1  0.17132000  0.88032000  0.26877000  1.0
  C  C203  1  0.67132000  0.61968000  0.23123000  1.0
  C  C204  1  0.95961000  0.12843000  0.75109000  1.0
  C  C205  1  0.45961000  0.37157000  0.74891000  1.0
  C  C206  1  0.04039000  0.87157000  0.24891000  1.0
  C  C207  1  0.54039000  0.62843000  0.25109000  1.0
  C  C208  1  0.99906000  0.06006000  0.77721000  1.0
  C  C209  1  0.49906000  0.43994000  0.72279000  1.0
  C  C210  1  0.00095000  0.93994000  0.22279000  1.0
  C  C211  1  0.50094000  0.56006000  0.27721000  1.0
  C  C212  1  0.79093000  0.19213000  0.70300000  1.0
  C  C213  1  0.29093000  0.30787000  0.79699000  1.0
  C  C214  1  0.20908000  0.80787000  0.29699000  1.0
  C  C215  1  0.70907000  0.69213000  0.20301000  1.0
  C  C216  1  0.84065000  0.29028000  0.70734000  1.0
  C  C217  1  0.34066000  0.20972000  0.79266000  1.0
  C  C218  1  0.15934000  0.70972000  0.29266000  1.0
  C  C219  1  0.65935000  0.79028000  0.20734000  1.0
  C  C220  1  0.74437000  0.33112000  0.64981000  1.0
  C  C221  1  0.24437000  0.16888000  0.85019000  1.0
  C  C222  1  0.25563000  0.66888000  0.35019000  1.0
  C  C223  1  0.75563000  0.83112000  0.14981000  1.0
  C  C224  1  0.68477000  0.23719000  0.64328000  1.0
  C  C225  1  0.18478000  0.26281000  0.85672000  1.0
  C  C226  1  0.31522000  0.76280000  0.35672000  1.0
  C  C227  1  0.81523000  0.73720000  0.14328000  1.0
  C  C228  1  0.70842000  0.16704000  0.67015000  1.0
  C  C229  1  0.20843000  0.33296000  0.82985000  1.0
  C  C230  1  0.29158000  0.83296000  0.32985000  1.0
  C  C231  1  0.79158000  0.66704000  0.17015000  1.0
  C  C232  1  0.97278000  0.76732000  0.75969000  1.0
  C  C233  1  0.47277000  0.73268000  0.74032000  1.0
  C  C234  1  0.02723000  0.23268000  0.24031000  1.0
  C  C235  1  0.52723000  0.26732000  0.25968000  1.0
  C  C236  1  0.91237000  0.67339000  0.75093000  1.0
  C  C237  1  0.41236000  0.82661000  0.74907000  1.0
  C  C238  1  0.08764000  0.32661000  0.24907000  1.0
  C  C239  1  0.58764000  0.17339000  0.25093000  1.0
  C  C240  1  0.91368000  0.63023000  0.71367000  1.0
  C  C241  1  0.41367000  0.86977000  0.78633000  1.0
  C  C242  1  0.08633000  0.36977000  0.28633000  1.0
  C  C243  1  0.58632000  0.13023000  0.21367000  1.0
  C  C244  1  0.97797000  0.67914000  0.68362000  1.0
  C  C245  1  0.47796000  0.82086000  0.81638000  1.0
  C  C246  1  0.02204000  0.32086000  0.31638000  1.0
  C  C247  1  0.52204000  0.17914000  0.18362000  1.0
  C  C248  1  0.03655000  0.77360000  0.69207000  1.0
  C  C249  1  0.53655000  0.72640000  0.80793000  1.0
  C  C250  1  0.96345000  0.22640000  0.30793000  1.0
  C  C251  1  0.46345000  0.27360000  0.19207000  1.0
  C  C252  1  0.03397000  0.81672000  0.72931000  1.0
  C  C253  1  0.53396000  0.68328000  0.77069000  1.0
  C  C254  1  0.96604000  0.18328000  0.27069000  1.0
  C  C255  1  0.46604000  0.31672000  0.22931000  1.0
  C  C256  1  0.99083000  0.62966000  0.64496000  1.0
  C  C257  1  0.49082000  0.87034000  0.85504000  1.0
  C  C258  1  0.00918000  0.37034000  0.35504000  1.0
  C  C259  1  0.50918000  0.12966000  0.14496000  1.0
  C  C260  1  0.98616000  0.68232000  0.61146000  1.0
  C  C261  1  0.48616000  0.81769000  0.88854000  1.0
  C  C262  1  0.01384000  0.31768000  0.38854000  1.0
  C  C263  1  0.51384000  0.18232000  0.11146000  1.0
  C  C264  1  0.02750000  0.54146000  0.57214000  1.0
  C  C265  1  0.52751000  0.95854000  0.92786000  1.0
  C  C266  1  0.97250000  0.45854000  0.42786000  1.0
  C  C267  1  0.47249000  0.04146000  0.07214000  1.0
  C  C268  1  0.02877000  0.48259000  0.60354000  1.0
  C  C269  1  0.52877000  0.01741000  0.89646000  1.0
  C  C270  1  0.97122000  0.51741000  0.39646000  1.0
  C  C271  1  0.47123000  0.98259000  0.10354000  1.0
  C  C272  1  0.01007000  0.52686000  0.64023000  1.0
  C  C273  1  0.51007000  0.97314000  0.85977000  1.0
  C  C274  1  0.98993000  0.47314000  0.35977000  1.0
  C  C275  1  0.48993000  0.02686000  0.14023000  1.0
  C  C276  1  0.00776000  0.73391000  0.82887000  1.0
  C  C277  1  0.50776000  0.76609000  0.67113000  1.0
  C  C278  1  0.99224000  0.26609000  0.17113000  1.0
  C  C279  1  0.49224000  0.23391000  0.32887000  1.0
  C  C280  1  0.90989000  0.71944000  0.85851000  1.0
  C  C281  1  0.40989000  0.78056000  0.64149000  1.0
  C  C282  1  0.09011000  0.28056000  0.14149000  1.0
  C  C283  1  0.59011000  0.21944000  0.35851000  1.0
  C  C284  1  0.93454000  0.64811000  0.88478000  1.0
  C  C285  1  0.43455000  0.85189000  0.61522000  1.0
  C  C286  1  0.06546000  0.35189000  0.11522000  1.0
  C  C287  1  0.56546000  0.14812000  0.38478000  1.0
  C  C288  1  0.05939000  0.59039000  0.88303000  1.0
  C  C289  1  0.55940000  0.90961000  0.61697000  1.0
  C  C290  1  0.94061000  0.40961000  0.11697000  1.0
  C  C291  1  0.44061000  0.09039000  0.38303000  1.0
  C  C292  1  0.15907000  0.60648000  0.85379000  1.0
  C  C293  1  0.65907000  0.89352000  0.64621000  1.0
  C  C294  1  0.84093000  0.39352000  0.14621000  1.0
  C  C295  1  0.34093000  0.10648000  0.35379000  1.0
  C  C296  1  0.13201000  0.67563000  0.82669000  1.0
  C  C297  1  0.63201000  0.82437000  0.67331000  1.0
  C  C298  1  0.86799000  0.32437000  0.17331000  1.0
  C  C299  1  0.36799000  0.17563000  0.32670000  1.0
  C  C300  1  0.08207000  0.51544000  0.91144000  1.0
  C  C301  1  0.58207000  0.98456000  0.58856000  1.0
  C  C302  1  0.91793000  0.48456000  0.08856000  1.0
  C  C303  1  0.41793000  0.01544000  0.41144000  1.0
  C  C304  1  0.21925000  0.49577000  0.92526000  1.0
  C  C305  1  0.71925000  0.00423000  0.57474000  1.0
  C  C306  1  0.78075000  0.50423000  0.07474000  1.0
  C  C307  1  0.28075000  0.99578000  0.42526000  1.0
  C  C308  1  0.13448000  0.38241000  0.96671000  1.0
  C  C309  1  0.63448000  0.11759000  0.53329000  1.0
  C  C310  1  0.86552000  0.61759000  0.03329000  1.0
  C  C311  1  0.36552000  0.88242000  0.46671000  1.0
  C  C312  1  0.99444000  0.39626000  0.95470000  1.0
  C  C313  1  0.49444000  0.10374000  0.54530000  1.0
  C  C314  1  0.00557000  0.60374000  0.04530000  1.0
  C  C315  1  0.50557000  0.89626000  0.45470000  1.0
  C  C316  1  0.96796000  0.46272000  0.92659000  1.0
  C  C317  1  0.46797000  0.03728000  0.57341000  1.0
  C  C318  1  0.03204000  0.53728000  0.07341000  1.0
  C  C319  1  0.53204000  0.96272000  0.42659000  1.0
  I  I320  1  0.40521000  0.41968000  0.05936000  1.0
  I  I321  1  0.90521000  0.08032000  0.44064000  1.0
  I  I322  1  0.59478000  0.58032000  0.94064000  1.0
  I  I323  1  0.09479000  0.91968000  0.55936000  1.0
  I  I324  1  0.64006000  0.24581000  0.95555000  1.0
  I  I325  1  0.14006000  0.25419000  0.54445000  1.0
  I  I326  1  0.35993000  0.75419000  0.04445000  1.0
  I  I327  1  0.85994000  0.74581000  0.45555000  1.0
  N  N328  1  0.25775000  0.15372000  0.00787000  1.0
  N  N329  1  0.75775000  0.34628000  0.49213000  1.0
  N  N330  1  0.74225000  0.84628000  0.99213000  1.0
  N  N331  1  0.24225000  0.65372000  0.50787000  1.0
  N  N332  1  0.81958000  0.35826000  0.68162000  1.0
  N  N333  1  0.31958000  0.14174000  0.81838000  1.0
  N  N334  1  0.18042000  0.64174000  0.31838000  1.0
  N  N335  1  0.68042000  0.85827000  0.18162000  1.0
  N  N336  1  0.00378000  0.63967000  0.57593000  1.0
  N  N337  1  0.50379000  0.86033000  0.92407000  1.0
  N  N338  1  0.99622000  0.36033000  0.42407000  1.0
  N  N339  1  0.49621000  0.13967000  0.07593000  1.0
  N  N340  1  0.24515000  0.43100000  0.95201000  1.0
  N  N341  1  0.74516000  0.06900000  0.54799000  1.0
  N  N342  1  0.75485000  0.56900000  0.04799000  1.0
  N  N343  1  0.25485000  0.93100000  0.45201000  1.0
