# generated using pymatgen
data_Zr3H11C33N3O16
_symmetry_space_group_name_H-M   'P 1'
_cell_length_a   14.35680000
_cell_length_b   14.37640000
_cell_length_c   14.38150000
_cell_angle_alpha   87.81220000
_cell_angle_beta   87.78140000
_cell_angle_gamma   87.78980000
_symmetry_Int_Tables_number   1
_chemical_formula_structural   Zr3H11C33N3O16
_chemical_formula_sum   'Zr6 H22 C66 N6 O32'
_cell_volume   2961.89629795
_cell_formula_units_Z   2
loop_
 _symmetry_equiv_pos_site_id
 _symmetry_equiv_pos_as_xyz
  1  'x, y, z'
loop_
 _atom_site_type_symbol
 _atom_site_label
 _atom_site_symmetry_multiplicity
 _atom_site_fract_x
 _atom_site_fract_y
 _atom_site_fract_z
 _atom_site_occupancy
  Zr  Zr0  1  0.76874000  0.97055000  0.84302000  1.0
  Zr  Zr1  1  0.75295000  0.79766000  0.03182000  1.0
  Zr  Zr2  1  0.99671000  0.01257000  0.90044000  1.0
  Zr  Zr3  1  0.94202000  0.78178000  0.85864000  1.0
  Zr  Zr4  1  0.81064000  0.02535000  0.07362000  1.0
  Zr  Zr5  1  0.98403000  0.83942000  0.08617000  1.0
  H  H6  1  0.12357000  0.18257000  0.56079000  1.0
  H  H7  1  0.14246000  0.17068000  0.37324000  1.0
  H  H8  1  0.63628000  0.62527000  0.37064000  1.0
  H  H9  1  0.62178000  0.63570000  0.55868000  1.0
  H  H10  1  0.15464000  0.50014000  0.21435000  1.0
  H  H11  1  0.14246000  0.31253000  0.23324000  1.0
  H  H12  1  0.59606000  0.30975000  0.72614000  1.0
  H  H13  1  0.60616000  0.49788000  0.71143000  1.0
  H  H14  1  0.47107000  0.15404000  0.24552000  1.0
  H  H15  1  0.28322000  0.17219000  0.23325000  1.0
  H  H16  1  0.28165000  0.66413000  0.68433000  1.0
  H  H17  1  0.47002000  0.64952000  0.69417000  1.0
  H  H18  1  0.74208000  0.77096000  0.83211000  1.0
  H  H19  1  0.83829000  0.14203000  0.91865000  1.0
  H  H20  1  0.11366000  0.85756000  0.92820000  1.0
  H  H21  1  0.82891000  0.86718000  0.20304000  1.0
  H  H22  1  0.27601000  0.88553000  0.42874000  1.0
  H  H23  1  0.47025000  0.93531000  0.49900000  1.0
  H  H24  1  0.33856000  0.30445000  0.94660000  1.0
  H  H25  1  0.40892000  0.49854000  0.99611000  1.0
  H  H26  1  0.90650000  0.43823000  0.55933000  1.0
  H  H27  1  0.85644000  0.36794000  0.36552000  1.0
  C  C28  1  0.99793000  0.26920000  0.52929000  1.0
  C  C29  1  0.08161000  0.21893000  0.50870000  1.0
  C  C30  1  0.09064000  0.21203000  0.41184000  1.0
  C  C31  1  0.01368000  0.25966000  0.37293000  1.0
  C  C32  1  0.76226000  0.53795000  0.39839000  1.0
  C  C33  1  0.67961000  0.58868000  0.42144000  1.0
  C  C34  1  0.67259000  0.59444000  0.51861000  1.0
  C  C35  1  0.74999000  0.54578000  0.55534000  1.0
  C  C36  1  0.24065000  0.46840000  0.08846000  1.0
  C  C37  1  0.19068000  0.44793000  0.17224000  1.0
  C  C38  1  0.18362000  0.35106000  0.18124000  1.0
  C  C39  1  0.23085000  0.31201000  0.10415000  1.0
  C  C40  1  0.50867000  0.33756000  0.85192000  1.0
  C  C41  1  0.55935000  0.36061000  0.76935000  1.0
  C  C42  1  0.56497000  0.45784000  0.76228000  1.0
  C  C43  1  0.51626000  0.49463000  0.83958000  1.0
  C  C44  1  0.43984000  0.02789000  0.33115000  1.0
  C  C45  1  0.41900000  0.11168000  0.28142000  1.0
  C  C46  1  0.32199000  0.12032000  0.27431000  1.0
  C  C47  1  0.28322000  0.04294000  0.32120000  1.0
  C  C48  1  0.30919000  0.79064000  0.59819000  1.0
  C  C49  1  0.33245000  0.70768000  0.64804000  1.0
  C  C50  1  0.42980000  0.70065000  0.65351000  1.0
  C  C51  1  0.46650000  0.77836000  0.60552000  1.0
  C  C52  1  0.89222000  0.13515000  0.74397000  1.0
  C  C53  1  0.67902000  0.89755000  0.70712000  1.0
  C  C54  1  0.86897000  0.64647000  0.76816000  1.0
  C  C55  1  0.63789000  0.11725000  0.95283000  1.0
  C  C56  1  0.86319000  0.66706000  0.17830000  1.0
  C  C57  1  0.07867000  0.91833000  0.21232000  1.0
  C  C58  1  0.61749000  0.70719000  0.95877000  1.0
  C  C59  1  0.65418000  0.92132000  0.19674000  1.0
  C  C60  1  0.12283000  0.10707000  0.97977000  1.0
  C  C61  1  0.08906000  0.89174000  0.72826000  1.0
  C  C62  1  0.10689000  0.68290000  0.98195000  1.0
  C  C63  1  0.88994000  0.15161000  0.16792000  1.0
  C  C64  1  0.15505000  0.87550000  0.65210000  1.0
  C  C65  1  0.22542000  0.84135000  0.61400000  1.0
  C  C66  1  0.62334000  0.85168000  0.64206000  1.0
  C  C67  1  0.55417000  0.81570000  0.61456000  1.0
  C  C68  1  0.12962000  0.96897000  0.27697000  1.0
  C  C69  1  0.19640000  0.00553000  0.30865000  1.0
  C  C70  1  0.52115000  0.97420000  0.31316000  1.0
  C  C71  1  0.58839000  0.93682000  0.27269000  1.0
  C  C72  1  0.34216000  0.91994000  0.43084000  1.0
  C  C73  1  0.40440000  0.90029000  0.49727000  1.0
  C  C74  1  0.52393000  0.25378000  0.90258000  1.0
  C  C75  1  0.56169000  0.18323000  0.93653000  1.0
  C  C76  1  0.52514000  0.58228000  0.87683000  1.0
  C  C77  1  0.55259000  0.65145000  0.91273000  1.0
  C  C78  1  0.21853000  0.22504000  0.06714000  1.0
  C  C79  1  0.18729000  0.15805000  0.03065000  1.0
  C  C80  1  0.22294000  0.54951000  0.03461000  1.0
  C  C81  1  0.18269000  0.61685000  0.99733000  1.0
  C  C82  1  0.34069000  0.37058000  0.98090000  1.0
  C  C83  1  0.40719000  0.43276000  0.96115000  1.0
  C  C84  1  0.84696000  0.59080000  0.24404000  1.0
  C  C85  1  0.81294000  0.55310000  0.31458000  1.0
  C  C86  1  0.78722000  0.55443000  0.64297000  1.0
  C  C87  1  0.82305000  0.58162000  0.71226000  1.0
  C  C88  1  0.94054000  0.21638000  0.21881000  1.0
  C  C89  1  0.97671000  0.24770000  0.28593000  1.0
  C  C90  1  0.94411000  0.25138000  0.61049000  1.0
  C  C91  1  0.90736000  0.21087000  0.67795000  1.0
  C  C92  1  0.87146000  0.43654000  0.49358000  1.0
  C  C93  1  0.89084000  0.36988000  0.43158000  1.0
  N  N94  1  0.96036000  0.30033000  0.44495000  1.0
  N  N95  1  0.80191000  0.50625000  0.48166000  1.0
  N  N96  1  0.27143000  0.38397000  0.05073000  1.0
  N  N97  1  0.47676000  0.42090000  0.89143000  1.0
  N  N98  1  0.35542000  0.98981000  0.36177000  1.0
  N  N99  1  0.39257000  0.83045000  0.56657000  1.0
  O  O100  1  0.96427000  0.11494000  0.79231000  1.0
  O  O101  1  0.63867000  0.91359000  0.78689000  1.0
  O  O102  1  0.88468000  0.72654000  0.72841000  1.0
  O  O103  1  0.66319000  0.07279000  0.87934000  1.0
  O  O104  1  0.67753000  0.11063000  0.03007000  1.0
  O  O105  1  0.89128000  0.63025000  0.85214000  1.0
  O  O106  1  0.76333000  0.91939000  0.69144000  1.0
  O  O107  1  0.81608000  0.09222000  0.74938000  1.0
  O  O108  1  0.75215000  0.93398000  0.98579000  1.0
  O  O109  1  0.90533000  0.92457000  0.84214000  1.0
  O  O110  1  0.77968000  0.80850000  0.86972000  1.0
  O  O111  1  0.84851000  0.07561000  0.93133000  1.0
  O  O112  1  0.78942000  0.69257000  0.13428000  1.0
  O  O113  1  0.11012000  0.91853000  0.12752000  1.0
  O  O114  1  0.69753000  0.66728000  0.97473000  1.0
  O  O115  1  0.70266000  0.99319000  0.17621000  1.0
  O  O116  1  0.03793000  0.13861000  0.97949000  1.0
  O  O117  1  0.04455000  0.81824000  0.75343000  1.0
  O  O118  1  0.08668000  0.73144000  0.05377000  1.0
  O  O119  1  0.89025000  0.06682000  0.19938000  1.0
  O  O120  1  0.06394000  0.68812000  0.90591000  1.0
  O  O121  1  0.84459000  0.17523000  0.09519000  1.0
  O  O122  1  0.60138000  0.79130000  0.98091000  1.0
  O  O123  1  0.08242000  0.96898000  0.76796000  1.0
  O  O124  1  0.14677000  0.03413000  0.93486000  1.0
  O  O125  1  0.65925000  0.84526000  0.15382000  1.0
  O  O126  1  0.94056000  0.70667000  0.17155000  1.0
  O  O127  1  0.00574000  0.87319000  0.23604000  1.0
  O  O128  1  0.94457000  0.97320000  0.03417000  1.0
  O  O129  1  0.89594000  0.78090000  0.99501000  1.0
  O  O130  1  0.04712000  0.87024000  0.93830000  1.0
  O  O131  1  0.84159000  0.87739000  0.13663000  1.0
