# generated using pymatgen
data_CoH8C8S2(BrN)2
_symmetry_space_group_name_H-M   'P 1'
_cell_length_a   7.36123000
_cell_length_b   9.49521000
_cell_length_c   9.49526000
_cell_angle_alpha   112.82300000
_cell_angle_beta   97.71420000
_cell_angle_gamma   97.71310000
_symmetry_Int_Tables_number   1
_chemical_formula_structural   CoH8C8S2(BrN)2
_chemical_formula_sum   'Co2 H16 C16 S4 Br4 N4'
_cell_volume   593.44605326
_cell_formula_units_Z   2
loop_
 _symmetry_equiv_pos_site_id
 _symmetry_equiv_pos_as_xyz
  1  'x, y, z'
loop_
 _atom_site_type_symbol
 _atom_site_label
 _atom_site_symmetry_multiplicity
 _atom_site_fract_x
 _atom_site_fract_y
 _atom_site_fract_z
 _atom_site_occupancy
  Co  Co0  1  0.25000000  0.87848000  0.12152000  1.0
  Co  Co1  1  0.75000000  0.12152000  0.87848000  1.0
  H  H2  1  0.75000000  0.35320000  0.64681000  1.0
  H  H3  1  0.25000000  0.64680000  0.35319000  1.0
  H  H4  1  0.58825000  0.38946000  0.21023000  1.0
  H  H5  1  0.91176000  0.78977000  0.61054000  1.0
  H  H6  1  0.41176000  0.61053000  0.78977000  1.0
  H  H7  1  0.08825000  0.21022000  0.38946000  1.0
  H  H8  1  0.75000000  0.66756000  0.33245000  1.0
  H  H9  1  0.25000000  0.33244000  0.66755000  1.0
  H  H10  1  0.73826000  0.12387000  0.49542000  1.0
  H  H11  1  0.76174000  0.50459000  0.87613000  1.0
  H  H12  1  0.26175000  0.87613000  0.50458000  1.0
  H  H13  1  0.23825000  0.49541000  0.12387000  1.0
  H  H14  1  0.57467000  0.97159000  0.34463000  1.0
  H  H15  1  0.92533000  0.65538000  0.02841000  1.0
  H  H16  1  0.42533000  0.02841000  0.65538000  1.0
  H  H17  1  0.07467000  0.34462000  0.97159000  1.0
  C  C18  1  0.57152000  0.18465000  0.34313000  1.0
  C  C19  1  0.92849000  0.65687000  0.81535000  1.0
  C  C20  1  0.42849000  0.81534000  0.65687000  1.0
  C  C21  1  0.07151000  0.34313000  0.18465000  1.0
  C  C22  1  0.66042000  0.35223000  0.41982000  1.0
  C  C23  1  0.83958000  0.58019000  0.64777000  1.0
  C  C24  1  0.33958000  0.64777000  0.58018000  1.0
  C  C25  1  0.16042000  0.41982000  0.35223000  1.0
  C  C26  1  0.75000000  0.42217000  0.57784000  1.0
  C  C27  1  0.25000000  0.57783000  0.42216000  1.0
  C  C28  1  0.65835000  0.44299000  0.33284000  1.0
  C  C29  1  0.84166000  0.66717000  0.55701000  1.0
  C  C30  1  0.34165000  0.55701000  0.66716000  1.0
  C  C31  1  0.15834000  0.33283000  0.44299000  1.0
  C  C32  1  0.75000000  0.59876000  0.40125000  1.0
  C  C33  1  0.25000000  0.40124000  0.59875000  1.0
  S  S34  1  0.40130000  0.12067000  0.17957000  1.0
  S  S35  1  0.09870000  0.82043000  0.87933000  1.0
  S  S36  1  0.59870000  0.87933000  0.82043000  1.0
  S  S37  1  0.90130000  0.17957000  0.12067000  1.0
  Br  Br38  1  0.45841000  0.71029000  0.13059000  1.0
  Br  Br39  1  0.04159000  0.86941000  0.28970000  1.0
  Br  Br40  1  0.54158000  0.28970000  0.86940000  1.0
  Br  Br41  1  0.95841000  0.13059000  0.71030000  1.0
  N  N42  1  0.62659000  0.08922000  0.40372000  1.0
  N  N43  1  0.87341000  0.59628000  0.91078000  1.0
  N  N44  1  0.37341000  0.91077000  0.59628000  1.0
  N  N45  1  0.12658000  0.40372000  0.08922000  1.0
