# generated using pymatgen
data_CuH20C25N2O3
_symmetry_space_group_name_H-M   'P 1'
_cell_length_a   5.17993000
_cell_length_b   10.09220000
_cell_length_c   19.91470000
_cell_angle_alpha   80.11350000
_cell_angle_beta   89.99860000
_cell_angle_gamma   89.99970000
_symmetry_Int_Tables_number   1
_chemical_formula_structural   CuH20C25N2O3
_chemical_formula_sum   'Cu2 H40 C50 N4 O6'
_cell_volume   1025.61835593
_cell_formula_units_Z   2
loop_
 _symmetry_equiv_pos_site_id
 _symmetry_equiv_pos_as_xyz
  1  'x, y, z'
loop_
 _atom_site_type_symbol
 _atom_site_label
 _atom_site_symmetry_multiplicity
 _atom_site_fract_x
 _atom_site_fract_y
 _atom_site_fract_z
 _atom_site_occupancy
  Cu  Cu0  1  0.39316000  0.43563000  0.81518000  1.0
  Cu  Cu1  1  0.89312000  0.56437000  0.18481000  1.0
  H  H2  1  0.97288000  0.62703000  0.66653000  1.0
  H  H3  1  0.47283000  0.37300000  0.33346000  1.0
  H  H4  1  0.15456000  0.54544000  0.56537000  1.0
  H  H5  1  0.65453000  0.45459000  0.43461000  1.0
  H  H6  1  0.18099000  0.37576000  0.49400000  1.0
  H  H7  1  0.68091000  0.62425000  0.50599000  1.0
  H  H8  1  0.01979000  0.16743000  0.45777000  1.0
  H  H9  1  0.51968000  0.83258000  0.54222000  1.0
  H  H10  1  0.62991000  0.05220000  0.51464000  1.0
  H  H11  1  0.12981000  0.94780000  0.48535000  1.0
  H  H12  1  0.42240000  0.13380000  0.60925000  1.0
  H  H13  1  0.92230000  0.86621000  0.39075000  1.0
  H  H14  1  0.25233000  0.21713000  0.67698000  1.0
  H  H15  1  0.75221000  0.78287000  0.32302000  1.0
  H  H16  1  0.88851000  0.23511000  0.75297000  1.0
  H  H17  1  0.38844000  0.76488000  0.24702000  1.0
  H  H18  1  0.26804000  0.08016000  0.85581000  1.0
  H  H19  1  0.76800000  0.91985000  0.14419000  1.0
  H  H20  1  0.93402000  0.04320000  0.84936000  1.0
  H  H21  1  0.43397000  0.95681000  0.15064000  1.0
  H  H22  1  0.83893000  0.05996000  0.70208000  1.0
  H  H23  1  0.33888000  0.94003000  0.29794000  1.0
  H  H24  1  0.94007000  0.91341000  0.61887000  1.0
  H  H25  1  0.44004000  0.08658000  0.38115000  1.0
  H  H26  1  0.32342000  0.76005000  0.63675000  1.0
  H  H27  1  0.82338000  0.23994000  0.36325000  1.0
  H  H28  1  0.60495000  0.76030000  0.73673000  1.0
  H  H29  1  0.10490000  0.23968000  0.26327000  1.0
  H  H30  1  0.50960000  0.91276000  0.81956000  1.0
  H  H31  1  0.00957000  0.08722000  0.18044000  1.0
  H  H32  1  0.19938000  0.51944000  0.94030000  1.0
  H  H33  1  0.69936000  0.48053000  0.05970000  1.0
  H  H34  1  0.32485000  0.68092000  0.01789000  1.0
  H  H35  1  0.82486000  0.31904000  0.98211000  1.0
  H  H36  1  0.73131000  0.81573000  0.99202000  1.0
  H  H37  1  0.23136000  0.18426000  0.00798000  1.0
  H  H38  1  0.99080000  0.78464000  0.88838000  1.0
  H  H39  1  0.49082000  0.21537000  0.11162000  1.0
  H  H40  1  0.83657000  0.61912000  0.81740000  1.0
  H  H41  1  0.33652000  0.38087000  0.18261000  1.0
  C  C42  1  0.57295000  0.35558000  0.66687000  1.0
  C  C43  1  0.07287000  0.64442000  0.33312000  1.0
  C  C44  1  0.69058000  0.46871000  0.68909000  1.0
  C  C45  1  0.19050000  0.53129000  0.31090000  1.0
  C  C46  1  0.89441000  0.53881000  0.64901000  1.0
  C  C47  1  0.39436000  0.46121000  0.35097000  1.0
  C  C48  1  0.99359000  0.49303000  0.59382000  1.0
  C  C49  1  0.49353000  0.50699000  0.40617000  1.0
  C  C50  1  0.89507000  0.37444000  0.57291000  1.0
  C  C51  1  0.39499000  0.62558000  0.42708000  1.0
  C  C52  1  0.01412000  0.32290000  0.51898000  1.0
  C  C53  1  0.51404000  0.67711000  0.48101000  1.0
  C  C54  1  0.92320000  0.20743000  0.49859000  1.0
  C  C55  1  0.42309000  0.79259000  0.50141000  1.0
  C  C56  1  0.70533000  0.14227000  0.53123000  1.0
  C  C57  1  0.20524000  0.85774000  0.46877000  1.0
  C  C58  1  0.58653000  0.18993000  0.58473000  1.0
  C  C59  1  0.08644000  0.81008000  0.41526000  1.0
  C  C60  1  0.67817000  0.30661000  0.60813000  1.0
  C  C61  1  0.17808000  0.69339000  0.39186000  1.0
  C  C62  1  0.35586000  0.28920000  0.70236000  1.0
  C  C63  1  0.85578000  0.71079000  0.29764000  1.0
  C  C64  1  0.04306000  0.23115000  0.79119000  1.0
  C  C65  1  0.54299000  0.76886000  0.20881000  1.0
  C  C66  1  0.93790000  0.29569000  0.85005000  1.0
  C  C67  1  0.43782000  0.70433000  0.14994000  1.0
  C  C68  1  0.10586000  0.08279000  0.81992000  1.0
  C  C69  1  0.60581000  0.91721000  0.18009000  1.0
  C  C70  1  0.16710000  0.99646000  0.76730000  1.0
  C  C71  1  0.66706000  0.00353000  0.23272000  1.0
  C  C72  1  0.00873000  0.99538000  0.71015000  1.0
  C  C73  1  0.50868000  0.00462000  0.28986000  1.0
  C  C74  1  0.06532000  0.91201000  0.66304000  1.0
  C  C75  1  0.56529000  0.08799000  0.33698000  1.0
  C  C76  1  0.27970000  0.82669000  0.67283000  1.0
  C  C77  1  0.77966000  0.17330000  0.32718000  1.0
  C  C78  1  0.43867000  0.82700000  0.72923000  1.0
  C  C79  1  0.93865000  0.17299000  0.27077000  1.0
  C  C80  1  0.38351000  0.91212000  0.77569000  1.0
  C  C81  1  0.88347000  0.08788000  0.22432000  1.0
  C  C82  1  0.37191000  0.58127000  0.93109000  1.0
  C  C83  1  0.87190000  0.41871000  0.06891000  1.0
  C  C84  1  0.44250000  0.67129000  0.97351000  1.0
  C  C85  1  0.94253000  0.32869000  0.02649000  1.0
  C  C86  1  0.66821000  0.74629000  0.95896000  1.0
  C  C87  1  0.16826000  0.25370000  0.04105000  1.0
  C  C88  1  0.81314000  0.72890000  0.90210000  1.0
  C  C89  1  0.31316000  0.27110000  0.09789000  1.0
  C  C90  1  0.72989000  0.63686000  0.86207000  1.0
  C  C91  1  0.22985000  0.36314000  0.13793000  1.0
  N  N92  1  0.26858000  0.30667000  0.76159000  1.0
  N  N93  1  0.76851000  0.69332000  0.23841000  1.0
  N  N94  1  0.51175000  0.56465000  0.87594000  1.0
  N  N95  1  0.01171000  0.43534000  0.12406000  1.0
  O  O96  1  0.62885000  0.51476000  0.74418000  1.0
  O  O97  1  0.12876000  0.48523000  0.25582000  1.0
  O  O98  1  0.08326000  0.38509000  0.87065000  1.0
  O  O99  1  0.58327000  0.61493000  0.12934000  1.0
  O  O100  1  0.72506000  0.25824000  0.87612000  1.0
  O  O101  1  0.22503000  0.74175000  0.12388000  1.0
