# generated using pymatgen
data_CdH17C18N5O7
_symmetry_space_group_name_H-M   'P 1'
_cell_length_a   9.44824000
_cell_length_b   10.65220000
_cell_length_c   10.68040000
_cell_angle_alpha   106.85700000
_cell_angle_beta   95.49570000
_cell_angle_gamma   104.24700000
_symmetry_Int_Tables_number   1
_chemical_formula_structural   CdH17C18N5O7
_chemical_formula_sum   'Cd2 H34 C36 N10 O14'
_cell_volume   980.77676207
_cell_formula_units_Z   2
loop_
 _symmetry_equiv_pos_site_id
 _symmetry_equiv_pos_as_xyz
  1  'x, y, z'
loop_
 _atom_site_type_symbol
 _atom_site_label
 _atom_site_symmetry_multiplicity
 _atom_site_fract_x
 _atom_site_fract_y
 _atom_site_fract_z
 _atom_site_occupancy
  Cd  Cd0  1  0.43861000  0.80625000  0.03412000  1.0
  Cd  Cd1  1  0.56140000  0.19375000  0.96588000  1.0
  H  H2  1  0.10350000  0.79601000  0.06273000  1.0
  H  H3  1  0.89649000  0.20399000  0.93727000  1.0
  H  H4  1  0.95510000  0.85902000  0.23741000  1.0
  H  H5  1  0.04489000  0.14097000  0.76259000  1.0
  H  H6  1  0.31527000  0.51078000  0.96309000  1.0
  H  H7  1  0.68473000  0.48923000  0.03692000  1.0
  H  H8  1  0.36810000  0.09537000  0.50920000  1.0
  H  H9  1  0.63190000  0.90462000  0.49080000  1.0
  H  H10  1  0.49975000  0.02240000  0.32015000  1.0
  H  H11  1  0.50025000  0.97760000  0.67984000  1.0
  H  H12  1  0.14732000  0.08512000  0.59646000  1.0
  H  H13  1  0.85268000  0.91488000  0.40353000  1.0
  H  H14  1  0.77186000  0.83334000  0.00008000  1.0
  H  H15  1  0.22815000  0.16665000  0.99991000  1.0
  H  H16  1  0.92237000  0.77781000  0.82403000  1.0
  H  H17  1  0.07763000  0.22218000  0.17596000  1.0
  H  H18  1  0.25349000  0.58202000  0.09446000  1.0
  H  H19  1  0.74650000  0.41798000  0.90555000  1.0
  H  H20  1  0.51265000  0.61182000  0.53732000  1.0
  H  H21  1  0.48734000  0.38818000  0.46267000  1.0
  H  H22  1  0.37849000  0.67086000  0.72660000  1.0
  H  H23  1  0.62151000  0.32914000  0.27340000  1.0
  H  H24  1  0.73204000  0.58972000  0.45756000  1.0
  H  H25  1  0.26797000  0.41029000  0.54244000  1.0
  H  H26  1  0.02683000  0.74023000  0.65504000  1.0
  H  H27  1  0.97316000  0.25978000  0.34497000  1.0
  H  H28  1  0.24792000  0.75350000  0.56269000  1.0
  H  H29  1  0.75208000  0.24651000  0.43732000  1.0
  H  H30  1  0.37530000  0.69583000  0.36743000  1.0
  H  H31  1  0.62469000  0.30417000  0.63256000  1.0
  H  H32  1  0.97316000  0.47607000  0.11428000  1.0
  H  H33  1  0.02683000  0.52393000  0.88573000  1.0
  H  H34  1  0.83150000  0.52425000  0.29374000  1.0
  H  H35  1  0.16850000  0.47576000  0.70629000  1.0
  C  C36  1  0.15734000  0.86231000  0.16322000  1.0
  C  C37  1  0.84266000  0.13768000  0.83678000  1.0
  C  C38  1  0.07560000  0.89753000  0.26187000  1.0
  C  C39  1  0.92440000  0.10246000  0.73813000  1.0
  C  C40  1  0.14949000  0.98151000  0.39102000  1.0
  C  C41  1  0.85051000  0.01848000  0.60898000  1.0
  C  C42  1  0.30546000  0.02852000  0.41133000  1.0
  C  C43  1  0.69455000  0.97147000  0.58866000  1.0
  C  C44  1  0.37901000  0.98897000  0.30686000  1.0
  C  C45  1  0.62099000  0.01102000  0.69314000  1.0
  C  C46  1  0.07415000  0.02010000  0.50248000  1.0
  C  C47  1  0.92586000  0.97989000  0.49752000  1.0
  C  C48  1  0.71914000  0.78331000  0.89599000  1.0
  C  C49  1  0.28086000  0.21668000  0.10401000  1.0
  C  C50  1  0.80202000  0.75189000  0.79734000  1.0
  C  C51  1  0.19798000  0.24811000  0.20265000  1.0
  C  C52  1  0.72930000  0.68609000  0.66407000  1.0
  C  C53  1  0.27069000  0.31391000  0.33592000  1.0
  C  C54  1  0.57393000  0.65863000  0.63900000  1.0
  C  C55  1  0.42606000  0.34136000  0.36100000  1.0
  C  C56  1  0.49901000  0.69244000  0.74344000  1.0
  C  C57  1  0.50099000  0.30755000  0.25656000  1.0
  C  C58  1  0.80496000  0.64669000  0.55328000  1.0
  C  C59  1  0.19504000  0.35332000  0.44672000  1.0
  C  C60  1  0.95372000  0.67988000  0.56003000  1.0
  C  C61  1  0.04628000  0.32013000  0.43998000  1.0
  C  C62  1  0.02756000  0.64340000  0.44688000  1.0
  C  C63  1  0.97245000  0.35662000  0.55313000  1.0
  C  C64  1  0.18333000  0.69024000  0.46461000  1.0
  C  C65  1  0.81668000  0.30977000  0.53539000  1.0
  C  C66  1  0.25486000  0.65858000  0.35671000  1.0
  C  C67  1  0.74514000  0.34141000  0.64328000  1.0
  C  C68  1  0.03223000  0.53633000  0.21514000  1.0
  C  C69  1  0.96776000  0.46367000  0.78486000  1.0
  C  C70  1  0.95207000  0.56326000  0.31720000  1.0
  C  C71  1  0.04793000  0.43675000  0.68281000  1.0
  N  N72  1  0.24492000  0.90341000  0.84917000  1.0
  N  N73  1  0.75508000  0.09660000  0.15083000  1.0
  N  N74  1  0.60165000  0.67906000  0.21081000  1.0
  N  N75  1  0.39836000  0.32094000  0.78918000  1.0
  N  N76  1  0.30716000  0.90622000  0.18451000  1.0
  N  N77  1  0.69284000  0.09377000  0.81549000  1.0
  N  N78  1  0.56961000  0.75314000  0.87034000  1.0
  N  N79  1  0.43039000  0.24685000  0.12966000  1.0
  N  N80  1  0.18118000  0.58332000  0.23290000  1.0
  N  N81  1  0.81881000  0.41668000  0.76710000  1.0
  O  O82  1  0.38419000  0.95954000  0.89837000  1.0
  O  O83  1  0.61581000  0.04046000  0.10163000  1.0
  O  O84  1  0.18809000  0.78400000  0.85396000  1.0
  O  O85  1  0.81191000  0.21601000  0.14604000  1.0
  O  O86  1  0.17063000  0.96434000  0.79886000  1.0
  O  O87  1  0.82937000  0.03566000  0.20113000  1.0
  O  O88  1  0.55469000  0.78555000  0.24068000  1.0
  O  O89  1  0.44531000  0.21445000  0.75932000  1.0
  O  O90  1  0.60334000  0.61281000  0.29013000  1.0
  O  O91  1  0.39667000  0.38719000  0.70987000  1.0
  O  O92  1  0.64480000  0.64398000  0.10025000  1.0
  O  O93  1  0.35520000  0.35602000  0.89974000  1.0
  O  O94  1  0.28327000  0.59217000  0.00778000  1.0
  O  O95  1  0.71673000  0.40784000  0.99223000  1.0
