# generated using pymatgen
data_Sm2H22C8S3(NO10)2
_symmetry_space_group_name_H-M   'P 1'
_cell_length_a   6.58740000
_cell_length_b   12.55700000
_cell_length_c   13.44740000
_cell_angle_alpha   79.53130000
_cell_angle_beta   75.82050000
_cell_angle_gamma   74.79310000
_symmetry_Int_Tables_number   1
_chemical_formula_structural   Sm2H22C8S3(NO10)2
_chemical_formula_sum   'Sm4 H44 C16 S6 N4 O40'
_cell_volume   1032.45800619
_cell_formula_units_Z   2
loop_
 _symmetry_equiv_pos_site_id
 _symmetry_equiv_pos_as_xyz
  1  'x, y, z'
loop_
 _atom_site_type_symbol
 _atom_site_label
 _atom_site_symmetry_multiplicity
 _atom_site_fract_x
 _atom_site_fract_y
 _atom_site_fract_z
 _atom_site_occupancy
  Sm  Sm0  1  0.77989000  0.95019000  0.36790000  1.0
  Sm  Sm1  1  0.09798000  0.54977000  0.13208000  1.0
  Sm  Sm2  1  0.22011000  0.04981000  0.63210000  1.0
  Sm  Sm3  1  0.90202000  0.45023000  0.86792000  1.0
  H  H4  1  0.95396000  0.13502000  0.23902000  1.0
  H  H5  1  0.32783000  0.36504000  0.26103000  1.0
  H  H6  1  0.04604000  0.86498000  0.76098000  1.0
  H  H7  1  0.67217000  0.63496000  0.73897000  1.0
  H  H8  1  0.72128000  0.17011000  0.22097000  1.0
  H  H9  1  0.11227000  0.32989000  0.27905000  1.0
  H  H10  1  0.27872000  0.82989000  0.77903000  1.0
  H  H11  1  0.88773000  0.67011000  0.72095000  1.0
  H  H12  1  0.86138000  0.81755000  0.18192000  1.0
  H  H13  1  0.86072000  0.68251000  0.31808000  1.0
  H  H14  1  0.13862000  0.18245000  0.81808000  1.0
  H  H15  1  0.13928000  0.31749000  0.68192000  1.0
  H  H16  1  0.46450000  0.64265000  0.41801000  1.0
  H  H17  1  0.52506000  0.85746000  0.08204000  1.0
  H  H18  1  0.53550000  0.35735000  0.58199000  1.0
  H  H19  1  0.47494000  0.14254000  0.91796000  1.0
  H  H20  1  0.29404000  0.70920000  0.62730000  1.0
  H  H21  1  0.63056000  0.79074000  0.87281000  1.0
  H  H22  1  0.70596000  0.29080000  0.37269000  1.0
  H  H23  1  0.36944000  0.20926000  0.12719000  1.0
  H  H24  1  0.14659000  0.75374000  0.52563000  1.0
  H  H25  1  0.42585000  0.74627000  0.97441000  1.0
  H  H26  1  0.85341000  0.24626000  0.47437000  1.0
  H  H27  1  0.57415000  0.25373000  0.02559000  1.0
  H  H28  1  0.54703000  0.53686000  0.62666000  1.0
  H  H29  1  0.71062000  0.96304000  0.87337000  1.0
  H  H30  1  0.45297000  0.46314000  0.37334000  1.0
  H  H31  1  0.28938000  0.03696000  0.12662000  1.0
  H  H32  1  0.71245000  0.61659000  0.53493000  1.0
  H  H33  1  0.86393000  0.88328000  0.96516000  1.0
  H  H34  1  0.28755000  0.38341000  0.46507000  1.0
  H  H35  1  0.13607000  0.11672000  0.03484000  1.0
  H  H36  1  0.14194000  0.59027000  0.46604000  1.0
  H  H37  1  0.19818000  0.90979000  0.03392000  1.0
  H  H38  1  0.85806000  0.40974000  0.53396000  1.0
  H  H39  1  0.80182000  0.09021000  0.96608000  1.0
  H  H40  1  0.19914000  0.52383000  0.58930000  1.0
  H  H41  1  0.31222000  0.97622000  0.91067000  1.0
  H  H42  1  0.80086000  0.47617000  0.41070000  1.0
  H  H43  1  0.68778000  0.02378000  0.08932000  1.0
  H  H44  1  0.61106000  0.86171000  0.22217000  1.0
  H  H45  1  0.69484000  0.63832000  0.27782000  1.0
  H  H46  1  0.38893000  0.13829000  0.77783000  1.0
  H  H47  1  0.30516000  0.36168000  0.72218000  1.0
  C  C48  1  0.43344000  0.81351000  0.49567000  1.0
  C  C49  1  0.74260000  0.68648000  0.00442000  1.0
  C  C50  1  0.56656000  0.18649000  0.50433000  1.0
  C  C51  1  0.25740000  0.31352000  0.99558000  1.0
  C  C52  1  0.30812000  0.72452000  0.54311000  1.0
  C  C53  1  0.57567000  0.77548000  0.95700000  1.0
  C  C54  1  0.69188000  0.27548000  0.45689000  1.0
  C  C55  1  0.42433000  0.22452000  0.04300000  1.0
  C  C56  1  0.60847000  0.55885000  0.54395000  1.0
  C  C57  1  0.71128000  0.94110000  0.95609000  1.0
  C  C58  1  0.39153000  0.44115000  0.45605000  1.0
  C  C59  1  0.28872000  0.05890000  0.04391000  1.0
  C  C60  1  0.26921000  0.54402000  0.50729000  1.0
  C  C61  1  0.32046000  0.95604000  0.99270000  1.0
  C  C62  1  0.73079000  0.45598000  0.49271000  1.0
  C  C63  1  0.67954000  0.04396000  0.00730000  1.0
  S  S64  1  0.78668000  0.91178000  0.64205000  1.0
  S  S65  1  0.34056000  0.58825000  0.85790000  1.0
  S  S66  1  0.21332000  0.08822000  0.35795000  1.0
  S  S67  1  0.65944000  0.41175000  0.14210000  1.0
  S  S68  1  0.26210000  0.74997000  0.24995000  1.0
  S  S69  1  0.73790000  0.25003000  0.75005000  1.0
  N  N70  1  0.41767000  0.61902000  0.49781000  1.0
  N  N71  1  0.53441000  0.88101000  0.00223000  1.0
  N  N72  1  0.58233000  0.38098000  0.50219000  1.0
  N  N73  1  0.46559000  0.11899000  0.99776000  1.0
  O  O74  1  0.59188000  0.79355000  0.42056000  1.0
  O  O75  1  0.80621000  0.70646000  0.07944000  1.0
  O  O76  1  0.40812000  0.20645000  0.57944000  1.0
  O  O77  1  0.19379000  0.29354000  0.92056000  1.0
  O  O78  1  0.36984000  0.90400000  0.53365000  1.0
  O  O79  1  0.80726000  0.59598000  0.96646000  1.0
  O  O80  1  0.63016000  0.09600000  0.46635000  1.0
  O  O81  1  0.19274000  0.40402000  0.03354000  1.0
  O  O82  1  0.82270000  0.86723000  0.54224000  1.0
  O  O83  1  0.23216000  0.63280000  0.95771000  1.0
  O  O84  1  0.17730000  0.13277000  0.45776000  1.0
  O  O85  1  0.76783000  0.36720000  0.04229000  1.0
  O  O86  1  0.87021000  0.81953000  0.71967000  1.0
  O  O87  1  0.40954000  0.68049000  0.78030000  1.0
  O  O88  1  0.12979000  0.18047000  0.28033000  1.0
  O  O89  1  0.59046000  0.31951000  0.21970000  1.0
  O  O90  1  0.55444000  0.95666000  0.68220000  1.0
  O  O91  1  0.19339000  0.54336000  0.81773000  1.0
  O  O92  1  0.44556000  0.04334000  0.31781000  1.0
  O  O93  1  0.80661000  0.45664000  0.18227000  1.0
  O  O94  1  0.90241000  0.00187000  0.62836000  1.0
  O  O95  1  0.53270000  0.49815000  0.87163000  1.0
  O  O96  1  0.09759000  0.99813000  0.37164000  1.0
  O  O97  1  0.46730000  0.50185000  0.12837000  1.0
  O  O98  1  0.83990000  0.10344000  0.22558000  1.0
  O  O99  1  0.16872000  0.39659000  0.27446000  1.0
  O  O100  1  0.16010000  0.89656000  0.77442000  1.0
  O  O101  1  0.83128000  0.60341000  0.72554000  1.0
  O  O102  1  0.75349000  0.88041000  0.21078000  1.0
  O  O103  1  0.84458000  0.61967000  0.28918000  1.0
  O  O104  1  0.24651000  0.11959000  0.78923000  1.0
  O  O105  1  0.15542000  0.38033000  0.71082000  1.0
  O  O106  1  0.07013000  0.78019000  0.33511000  1.0
  O  O107  1  0.18579000  0.71980000  0.16467000  1.0
  O  O108  1  0.92987000  0.21981000  0.66488000  1.0
  O  O109  1  0.81421000  0.28020000  0.83533000  1.0
  O  O110  1  0.36346000  0.84606000  0.20881000  1.0
  O  O111  1  0.41814000  0.65382000  0.29122000  1.0
  O  O112  1  0.63654000  0.15394000  0.79119000  1.0
  O  O113  1  0.58186000  0.34618000  0.70877000  1.0
