# generated using pymatgen
data_BaH11PtC19N7
_symmetry_space_group_name_H-M   'P 1'
_cell_length_a   8.70731000
_cell_length_b   8.70734000
_cell_length_c   13.54250000
_cell_angle_alpha   83.02080000
_cell_angle_beta   83.02080000
_cell_angle_gamma   77.37700000
_symmetry_Int_Tables_number   1
_chemical_formula_structural   BaH11PtC19N7
_chemical_formula_sum   'Ba2 H22 Pt2 C38 N14'
_cell_volume   989.72642619
_cell_formula_units_Z   2
loop_
 _symmetry_equiv_pos_site_id
 _symmetry_equiv_pos_as_xyz
  1  'x, y, z'
loop_
 _atom_site_type_symbol
 _atom_site_label
 _atom_site_symmetry_multiplicity
 _atom_site_fract_x
 _atom_site_fract_y
 _atom_site_fract_z
 _atom_site_occupancy
  Ba  Ba0  1  0.89379000  0.10621000  0.25000000  1.0
  Ba  Ba1  1  0.10621000  0.89379000  0.75000000  1.0
  H  H2  1  0.63131000  0.67830000  0.99501000  1.0
  H  H3  1  0.32171000  0.36868000  0.50499000  1.0
  H  H4  1  0.36868000  0.32169000  0.00498000  1.0
  H  H5  1  0.67830000  0.63132000  0.49501000  1.0
  H  H6  1  0.01019000  0.17135000  0.99440000  1.0
  H  H7  1  0.82866000  0.98980000  0.50561000  1.0
  H  H8  1  0.98982000  0.82866000  0.00560000  1.0
  H  H9  1  0.17133000  0.01019000  0.49439000  1.0
  H  H10  1  0.81675000  0.62462000  0.84407000  1.0
  H  H11  1  0.37539000  0.18325000  0.65594000  1.0
  H  H12  1  0.18324000  0.37539000  0.15593000  1.0
  H  H13  1  0.62461000  0.81676000  0.34406000  1.0
  H  H14  1  0.01086000  0.36265000  0.84177000  1.0
  H  H15  1  0.63735000  0.98914000  0.65824000  1.0
  H  H16  1  0.98915000  0.63736000  0.15823000  1.0
  H  H17  1  0.36264000  0.01086000  0.34176000  1.0
  H  H18  1  0.45462000  0.68428000  0.09737000  1.0
  H  H19  1  0.31572000  0.54536000  0.40264000  1.0
  H  H20  1  0.54537000  0.31572000  0.90264000  1.0
  H  H21  1  0.68428000  0.45464000  0.59736000  1.0
  H  H22  1  0.27030000  0.72969000  0.25001000  1.0
  H  H23  1  0.72969000  0.27031000  0.75000000  1.0
  Pt  Pt24  1  0.00001000  0.50000000  0.50000000  1.0
  Pt  Pt25  1  0.50000000  0.00000000  0.00000000  1.0
  C  C26  1  0.99646000  0.69619000  0.40952000  1.0
  C  C27  1  0.30380000  0.00354000  0.09048000  1.0
  C  C28  1  0.00356000  0.30380000  0.59048000  1.0
  C  C29  1  0.69619000  0.99646000  0.90953000  1.0
  C  C30  1  0.05001000  0.36783000  0.38681000  1.0
  C  C31  1  0.63216000  0.95001000  0.11319000  1.0
  C  C32  1  0.95001000  0.63216000  0.61319000  1.0
  C  C33  1  0.36783000  0.04998000  0.88682000  1.0
  C  C34  1  0.71387000  0.56472000  0.99336000  1.0
  C  C35  1  0.43529000  0.28612000  0.50665000  1.0
  C  C36  1  0.28612000  0.43528000  0.00664000  1.0
  C  C37  1  0.56471000  0.71388000  0.49335000  1.0
  C  C38  1  0.92548000  0.28420000  0.99168000  1.0
  C  C39  1  0.71581000  0.07451000  0.50832000  1.0
  C  C40  1  0.07452000  0.71581000  0.00832000  1.0
  C  C41  1  0.28419000  0.92548000  0.49167000  1.0
  C  C42  1  0.81918000  0.53588000  0.90843000  1.0
  C  C43  1  0.46414000  0.18081000  0.59158000  1.0
  C  C44  1  0.18081000  0.46413000  0.09157000  1.0
  C  C45  1  0.53587000  0.81919000  0.40842000  1.0
  C  C46  1  0.92697000  0.39187000  0.90671000  1.0
  C  C47  1  0.60814000  0.07302000  0.59330000  1.0
  C  C48  1  0.07303000  0.60814000  0.09329000  1.0
  C  C49  1  0.39186000  0.92698000  0.40670000  1.0
  C  C50  1  0.60372000  0.47562000  0.16698000  1.0
  C  C51  1  0.52439000  0.39627000  0.33303000  1.0
  C  C52  1  0.39627000  0.52438000  0.83302000  1.0
  C  C53  1  0.47561000  0.60374000  0.66697000  1.0
  C  C54  1  0.47471000  0.60437000  0.16483000  1.0
  C  C55  1  0.39564000  0.52528000  0.33517000  1.0
  C  C56  1  0.52528000  0.39563000  0.83517000  1.0
  C  C57  1  0.60435000  0.47472000  0.66483000  1.0
  C  C58  1  0.37036000  0.62964000  0.25000000  1.0
  C  C59  1  0.62964000  0.37036000  0.75000000  1.0
  C  C60  1  0.71739000  0.44943000  0.07563000  1.0
  C  C61  1  0.55057000  0.28261000  0.42437000  1.0
  C  C62  1  0.28261000  0.55057000  0.92437000  1.0
  C  C63  1  0.44943000  0.71738000  0.57563000  1.0
  N  N64  1  0.99389000  0.81561000  0.35881000  1.0
  N  N65  1  0.18438000  0.00610000  0.14118000  1.0
  N  N66  1  0.00612000  0.18439000  0.64119000  1.0
  N  N67  1  0.81561000  0.99389000  0.85882000  1.0
  N  N68  1  0.07992000  0.28493000  0.32190000  1.0
  N  N69  1  0.71506000  0.92010000  0.17809000  1.0
  N  N70  1  0.92010000  0.71505000  0.67809000  1.0
  N  N71  1  0.28494000  0.07990000  0.82191000  1.0
  N  N72  1  0.82469000  0.31106000  0.07408000  1.0
  N  N73  1  0.68894000  0.17530000  0.42593000  1.0
  N  N74  1  0.17531000  0.68895000  0.92592000  1.0
  N  N75  1  0.31106000  0.82469000  0.57407000  1.0
  N  N76  1  0.62713000  0.37287000  0.25000000  1.0
  N  N77  1  0.37287000  0.62713000  0.75000000  1.0
