# generated using pymatgen
data_Zn3H18C28(NO3)4
_symmetry_space_group_name_H-M   'P 1'
_cell_length_a   15.31930000
_cell_length_b   15.31930000
_cell_length_c   22.75940000
_cell_angle_alpha   90.00000000
_cell_angle_beta   89.99990000
_cell_angle_gamma   89.99980000
_symmetry_Int_Tables_number   1
_chemical_formula_structural   Zn3H18C28(NO3)4
_chemical_formula_sum   'Zn12 H72 C112 N16 O48'
_cell_volume   5341.19767006
_cell_formula_units_Z   4
loop_
 _symmetry_equiv_pos_site_id
 _symmetry_equiv_pos_as_xyz
  1  'x, y, z'
loop_
 _atom_site_type_symbol
 _atom_site_label
 _atom_site_symmetry_multiplicity
 _atom_site_fract_x
 _atom_site_fract_y
 _atom_site_fract_z
 _atom_site_occupancy
  Zn  Zn0  1  0.78135000  0.78136000  0.25000000  1.0
  Zn  Zn1  1  0.71864000  0.28136000  0.00000000  1.0
  Zn  Zn2  1  0.21865000  0.21864000  0.75000000  1.0
  Zn  Zn3  1  0.28136000  0.71864000  0.50000000  1.0
  Zn  Zn4  1  0.74395000  0.83502000  0.10666000  1.0
  Zn  Zn5  1  0.66498000  0.24395000  0.85666000  1.0
  Zn  Zn6  1  0.25605000  0.16498000  0.60666000  1.0
  Zn  Zn7  1  0.33502000  0.75605000  0.35666000  1.0
  Zn  Zn8  1  0.75605000  0.33502000  0.14334000  1.0
  Zn  Zn9  1  0.16498000  0.25605000  0.89334000  1.0
  Zn  Zn10  1  0.24395000  0.66498000  0.64334000  1.0
  Zn  Zn11  1  0.83502000  0.74395000  0.39334000  1.0
  H  H12  1  0.84931000  0.02604000  0.29743000  1.0
  H  H13  1  0.47396000  0.34930000  0.04743000  1.0
  H  H14  1  0.15070000  0.97396000  0.79743000  1.0
  H  H15  1  0.52604000  0.65070000  0.54743000  1.0
  H  H16  1  0.65070000  0.52604000  0.95257000  1.0
  H  H17  1  0.97396000  0.15070000  0.70257000  1.0
  H  H18  1  0.34930000  0.47396000  0.45257000  1.0
  H  H19  1  0.02604000  0.84930000  0.20257000  1.0
  H  H20  1  0.86092000  0.17988000  0.33301000  1.0
  H  H21  1  0.32012000  0.36091000  0.08301000  1.0
  H  H22  1  0.13909000  0.82012000  0.83301000  1.0
  H  H23  1  0.67988000  0.63909000  0.58301000  1.0
  H  H24  1  0.63909000  0.67988000  0.91699000  1.0
  H  H25  1  0.82013000  0.13908000  0.66699000  1.0
  H  H26  1  0.36091000  0.32012000  0.41699000  1.0
  H  H27  1  0.17987000  0.86091000  0.16699000  1.0
  H  H28  1  0.76861000  0.12621000  0.12919000  1.0
  H  H29  1  0.37378000  0.26862000  0.87919000  1.0
  H  H30  1  0.23138000  0.87379000  0.62919000  1.0
  H  H31  1  0.62621000  0.73138000  0.37919000  1.0
  H  H32  1  0.73138000  0.62621000  0.12081000  1.0
  H  H33  1  0.87379000  0.23138000  0.87082000  1.0
  H  H34  1  0.26862000  0.37379000  0.62082000  1.0
  H  H35  1  0.12621000  0.76862000  0.37081000  1.0
  H  H36  1  0.86408000  0.30880000  0.35620000  1.0
  H  H37  1  0.19120000  0.36408000  0.10620000  1.0
  H  H38  1  0.13592000  0.69120000  0.85619000  1.0
  H  H39  1  0.80880000  0.63591000  0.60619000  1.0
  H  H40  1  0.63592000  0.80880000  0.89381000  1.0
  H  H41  1  0.69121000  0.13593000  0.64380000  1.0
  H  H42  1  0.36408000  0.19121000  0.39380000  1.0
  H  H43  1  0.30879000  0.86408000  0.14380000  1.0
  H  H44  1  0.85989000  0.46874000  0.37921000  1.0
  H  H45  1  0.03127000  0.35989000  0.12921000  1.0
  H  H46  1  0.14010000  0.53127000  0.87921000  1.0
  H  H47  1  0.96874000  0.64010000  0.62921000  1.0
  H  H48  1  0.64010000  0.96874000  0.87079000  1.0
  H  H49  1  0.53128000  0.14011000  0.62079000  1.0
  H  H50  1  0.35989000  0.03127000  0.37079000  1.0
  H  H51  1  0.46873000  0.85990000  0.12079000  1.0
  H  H52  1  0.76143000  0.51318000  0.20482000  1.0
  H  H53  1  0.98682000  0.26144000  0.95483000  1.0
  H  H54  1  0.23857000  0.48682000  0.70483000  1.0
  H  H55  1  0.01318000  0.73857000  0.45482000  1.0
  H  H56  1  0.73858000  0.01318000  0.04518000  1.0
  H  H57  1  0.48682000  0.23856000  0.79517000  1.0
  H  H58  1  0.26143000  0.98682000  0.54517000  1.0
  H  H59  1  0.51318000  0.76142000  0.29517000  1.0
  H  H60  1  0.94010000  0.66301000  0.20168000  1.0
  H  H61  1  0.83699000  0.44010000  0.95168000  1.0
  H  H62  1  0.05990000  0.33699000  0.70169000  1.0
  H  H63  1  0.16301000  0.55990000  0.45168000  1.0
  H  H64  1  0.55989000  0.16301000  0.04832000  1.0
  H  H65  1  0.33698000  0.05990000  0.79832000  1.0
  H  H66  1  0.44010000  0.83698000  0.54832000  1.0
  H  H67  1  0.66301000  0.94010000  0.29832000  1.0
  H  H68  1  0.01645000  0.69255000  0.14489000  1.0
  H  H69  1  0.80746000  0.51644000  0.89489000  1.0
  H  H70  1  0.98356000  0.30746000  0.64490000  1.0
  H  H71  1  0.19254000  0.48355000  0.39489000  1.0
  H  H72  1  0.48355000  0.19254000  0.10511000  1.0
  H  H73  1  0.30745000  0.98355000  0.85511000  1.0
  H  H74  1  0.51645000  0.80745000  0.60511000  1.0
  H  H75  1  0.69254000  0.01645000  0.35510000  1.0
  H  H76  1  0.93533000  0.61259000  0.13110000  1.0
  H  H77  1  0.88741000  0.43532000  0.88109000  1.0
  H  H78  1  0.06468000  0.38741000  0.63110000  1.0
  H  H79  1  0.11259000  0.56468000  0.38109000  1.0
  H  H80  1  0.56467000  0.11259000  0.11891000  1.0
  H  H81  1  0.38740000  0.06467000  0.86891000  1.0
  H  H82  1  0.43532000  0.88741000  0.61890000  1.0
  H  H83  1  0.61259000  0.93533000  0.36890000  1.0
  C  C84  1  0.79300000  0.97090000  0.19136000  1.0
  C  C85  1  0.52910000  0.29301000  0.94135000  1.0
  C  C86  1  0.20699000  0.02910000  0.69135000  1.0
  C  C87  1  0.47090000  0.70699000  0.44135000  1.0
  C  C88  1  0.70699000  0.47090000  0.05865000  1.0
  C  C89  1  0.02911000  0.20699000  0.80865000  1.0
  C  C90  1  0.29301000  0.52910000  0.55865000  1.0
  C  C91  1  0.97089000  0.79301000  0.30865000  1.0
  C  C92  1  0.80707000  0.06383000  0.21103000  1.0
  C  C93  1  0.43617000  0.30707000  0.96103000  1.0
  C  C94  1  0.19293000  0.93617000  0.71103000  1.0
  C  C95  1  0.56383000  0.69293000  0.46103000  1.0
  C  C96  1  0.69293000  0.56383000  0.03897000  1.0
  C  C97  1  0.93617000  0.19293000  0.78898000  1.0
  C  C98  1  0.30707000  0.43617000  0.53898000  1.0
  C  C99  1  0.06383000  0.80707000  0.28897000  1.0
  C  C100  1  0.83430000  0.08077000  0.26859000  1.0
  C  C101  1  0.41923000  0.33429000  0.01859000  1.0
  C  C102  1  0.16571000  0.91922000  0.76859000  1.0
  C  C103  1  0.58078000  0.66571000  0.51859000  1.0
  C  C104  1  0.66571000  0.58078000  0.98141000  1.0
  C  C105  1  0.91923000  0.16570000  0.73141000  1.0
  C  C106  1  0.33429000  0.41922000  0.48141000  1.0
  C  C107  1  0.08077000  0.83429000  0.23141000  1.0
  C  C108  1  0.84012000  0.16642000  0.28819000  1.0
  C  C109  1  0.33358000  0.34012000  0.03819000  1.0
  C  C110  1  0.15988000  0.83358000  0.78818000  1.0
  C  C111  1  0.66642000  0.65988000  0.53819000  1.0
  C  C112  1  0.65988000  0.66642000  0.96181000  1.0
  C  C113  1  0.83359000  0.15987000  0.71182000  1.0
  C  C114  1  0.34012000  0.33358000  0.46181000  1.0
  C  C115  1  0.16642000  0.84012000  0.21181000  1.0
  C  C116  1  0.81682000  0.23413000  0.24987000  1.0
  C  C117  1  0.26587000  0.31682000  0.99987000  1.0
  C  C118  1  0.18318000  0.76587000  0.74987000  1.0
  C  C119  1  0.73413000  0.68318000  0.49987000  1.0
  C  C120  1  0.68318000  0.73413000  0.00013000  1.0
  C  C121  1  0.76588000  0.18318000  0.75014000  1.0
  C  C122  1  0.31682000  0.26587000  0.50013000  1.0
  C  C123  1  0.23413000  0.81682000  0.25013000  1.0
  C  C124  1  0.78869000  0.13520000  0.17476000  1.0
  C  C125  1  0.36480000  0.28869000  0.92476000  1.0
  C  C126  1  0.21131000  0.86480000  0.67476000  1.0
  C  C127  1  0.63520000  0.71131000  0.42476000  1.0
  C  C128  1  0.71131000  0.63520000  0.07524000  1.0
  C  C129  1  0.86480000  0.21131000  0.82524000  1.0
  C  C130  1  0.28869000  0.36480000  0.57524000  1.0
  C  C131  1  0.13520000  0.78869000  0.32524000  1.0
  C  C132  1  0.81576000  0.32710000  0.26757000  1.0
  C  C133  1  0.17290000  0.31576000  0.01758000  1.0
  C  C134  1  0.18424000  0.67290000  0.76757000  1.0
  C  C135  1  0.82710000  0.68424000  0.51757000  1.0
  C  C136  1  0.68424000  0.82710000  0.98243000  1.0
  C  C137  1  0.67291000  0.18423000  0.73243000  1.0
  C  C138  1  0.31576000  0.17290000  0.48242000  1.0
  C  C139  1  0.32710000  0.81576000  0.23243000  1.0
  C  C140  1  0.84188000  0.35543000  0.32337000  1.0
  C  C141  1  0.14457000  0.34188000  0.07337000  1.0
  C  C142  1  0.15812000  0.64457000  0.82337000  1.0
  C  C143  1  0.85543000  0.65812000  0.57337000  1.0
  C  C144  1  0.65812000  0.85543000  0.92663000  1.0
  C  C145  1  0.64458000  0.15812000  0.67663000  1.0
  C  C146  1  0.34188000  0.14458000  0.42663000  1.0
  C  C147  1  0.35542000  0.84188000  0.17663000  1.0
  C  C148  1  0.83966000  0.44398000  0.33645000  1.0
  C  C149  1  0.05603000  0.33966000  0.08645000  1.0
  C  C150  1  0.16034000  0.55602000  0.83645000  1.0
  C  C151  1  0.94398000  0.66034000  0.58644000  1.0
  C  C152  1  0.66034000  0.94398000  0.91356000  1.0
  C  C153  1  0.55603000  0.16034000  0.66355000  1.0
  C  C154  1  0.33966000  0.05603000  0.41355000  1.0
  C  C155  1  0.44397000  0.83966000  0.16355000  1.0
  C  C156  1  0.81109000  0.50313000  0.29388000  1.0
  C  C157  1  0.99687000  0.31109000  0.04388000  1.0
  C  C158  1  0.18891000  0.49687000  0.79388000  1.0
  C  C159  1  0.00313000  0.68891000  0.54387000  1.0
  C  C160  1  0.68891000  0.00313000  0.95613000  1.0
  C  C161  1  0.49688000  0.18891000  0.70612000  1.0
  C  C162  1  0.31109000  0.99687000  0.45612000  1.0
  C  C163  1  0.50312000  0.81109000  0.20612000  1.0
  C  C164  1  0.78498000  0.47007000  0.23940000  1.0
  C  C165  1  0.02993000  0.28499000  0.98940000  1.0
  C  C166  1  0.21502000  0.52993000  0.73940000  1.0
  C  C167  1  0.97007000  0.71502000  0.48940000  1.0
  C  C168  1  0.71502000  0.97007000  0.01060000  1.0
  C  C169  1  0.52993000  0.21501000  0.76060000  1.0
  C  C170  1  0.28498000  0.02993000  0.51060000  1.0
  C  C171  1  0.47007000  0.78498000  0.26060000  1.0
  C  C172  1  0.80885000  0.59971000  0.30598000  1.0
  C  C173  1  0.90029000  0.30886000  0.05598000  1.0
  C  C174  1  0.19115000  0.40028000  0.80598000  1.0
  C  C175  1  0.09972000  0.69114000  0.55598000  1.0
  C  C176  1  0.69115000  0.09972000  0.94402000  1.0
  C  C177  1  0.40029000  0.19114000  0.69401000  1.0
  C  C178  1  0.30885000  0.90029000  0.44402000  1.0
  C  C179  1  0.59971000  0.80885000  0.19402000  1.0
  C  C180  1  0.88665000  0.74239000  0.13158000  1.0
  C  C181  1  0.75761000  0.38666000  0.88158000  1.0
  C  C182  1  0.11334000  0.25760000  0.63158000  1.0
  C  C183  1  0.24240000  0.61333000  0.38157000  1.0
  C  C184  1  0.61333000  0.24240000  0.11842000  1.0
  C  C185  1  0.25760000  0.11334000  0.86842000  1.0
  C  C186  1  0.38666000  0.75760000  0.61841000  1.0
  C  C187  1  0.74239000  0.88666000  0.36842000  1.0
  C  C188  1  0.94889000  0.67394000  0.15459000  1.0
  C  C189  1  0.82606000  0.44889000  0.90458000  1.0
  C  C190  1  0.05111000  0.32606000  0.65459000  1.0
  C  C191  1  0.17395000  0.55111000  0.40458000  1.0
  C  C192  1  0.55111000  0.17395000  0.09542000  1.0
  C  C193  1  0.32606000  0.05111000  0.84542000  1.0
  C  C194  1  0.44889000  0.82606000  0.59541000  1.0
  C  C195  1  0.67394000  0.94889000  0.34541000  1.0
  N  N196  1  0.79260000  0.21756000  0.19407000  1.0
  N  N197  1  0.28244000  0.29259000  0.94407000  1.0
  N  N198  1  0.20740000  0.78244000  0.69407000  1.0
  N  N199  1  0.71756000  0.70740000  0.44406000  1.0
  N  N200  1  0.70740000  0.71756000  0.05594000  1.0
  N  N201  1  0.78244000  0.20740000  0.80593000  1.0
  N  N202  1  0.29260000  0.28244000  0.55594000  1.0
  N  N203  1  0.21756000  0.79259000  0.30593000  1.0
  N  N204  1  0.78745000  0.38475000  0.22677000  1.0
  N  N205  1  0.11525000  0.28744000  0.97677000  1.0
  N  N206  1  0.21256000  0.61525000  0.72677000  1.0
  N  N207  1  0.88475000  0.71256000  0.47677000  1.0
  N  N208  1  0.71256000  0.88475000  0.02323000  1.0
  N  N209  1  0.61526000  0.21255000  0.77323000  1.0
  N  N210  1  0.28745000  0.11525000  0.52323000  1.0
  N  N211  1  0.38474000  0.78744000  0.27323000  1.0
  O  O212  1  0.79064000  0.91573000  0.23256000  1.0
  O  O213  1  0.58427000  0.29064000  0.98256000  1.0
  O  O214  1  0.20936000  0.08427000  0.73256000  1.0
  O  O215  1  0.41573000  0.70935000  0.48256000  1.0
  O  O216  1  0.70936000  0.41573000  0.01744000  1.0
  O  O217  1  0.08428000  0.20936000  0.76744000  1.0
  O  O218  1  0.29064000  0.58427000  0.51744000  1.0
  O  O219  1  0.91573000  0.79064000  0.26744000  1.0
  O  O220  1  0.78282000  0.95722000  0.13655000  1.0
  O  O221  1  0.54278000  0.28282000  0.88654000  1.0
  O  O222  1  0.21718000  0.04278000  0.63654000  1.0
  O  O223  1  0.45722000  0.71719000  0.38655000  1.0
  O  O224  1  0.71718000  0.45722000  0.11345000  1.0
  O  O225  1  0.04278000  0.21718000  0.86346000  1.0
  O  O226  1  0.28282000  0.54278000  0.61346000  1.0
  O  O227  1  0.95721000  0.78282000  0.36346000  1.0
  O  O228  1  0.77745000  0.64749000  0.26595000  1.0
  O  O229  1  0.85250000  0.27745000  0.01595000  1.0
  O  O230  1  0.22256000  0.35250000  0.76595000  1.0
  O  O231  1  0.14749000  0.72255000  0.51594000  1.0
  O  O232  1  0.72256000  0.14750000  0.98405000  1.0
  O  O233  1  0.35251000  0.22255000  0.73405000  1.0
  O  O234  1  0.27745000  0.85251000  0.48405000  1.0
  O  O235  1  0.64749000  0.77745000  0.23405000  1.0
  O  O236  1  0.83947000  0.62286000  0.35566000  1.0
  O  O237  1  0.87714000  0.33948000  0.10565000  1.0
  O  O238  1  0.16053000  0.37715000  0.85566000  1.0
  O  O239  1  0.12286000  0.66053000  0.60566000  1.0
  O  O240  1  0.66053000  0.12286000  0.89435000  1.0
  O  O241  1  0.37715000  0.16053000  0.64434000  1.0
  O  O242  1  0.33947000  0.87715000  0.39434000  1.0
  O  O243  1  0.62285000  0.83947000  0.14434000  1.0
  O  O244  1  0.81393000  0.75501000  0.16114000  1.0
  O  O245  1  0.74499000  0.31394000  0.91114000  1.0
  O  O246  1  0.18607000  0.24499000  0.66114000  1.0
  O  O247  1  0.25501000  0.68606000  0.41114000  1.0
  O  O248  1  0.68606000  0.25501000  0.08886000  1.0
  O  O249  1  0.24499000  0.18606000  0.83886000  1.0
  O  O250  1  0.31394000  0.74499000  0.58886000  1.0
  O  O251  1  0.75501000  0.81394000  0.33886000  1.0
  O  O252  1  0.90023000  0.78189000  0.08460000  1.0
  O  O253  1  0.71810000  0.40023000  0.83460000  1.0
  O  O254  1  0.09976000  0.21810000  0.58460000  1.0
  O  O255  1  0.28190000  0.59977000  0.33460000  1.0
  O  O256  1  0.59977000  0.28190000  0.16540000  1.0
  O  O257  1  0.21809000  0.09976000  0.91539000  1.0
  O  O258  1  0.40023000  0.71810000  0.66540000  1.0
  O  O259  1  0.78189000  0.90024000  0.41539000  1.0
