# generated using pymatgen
data_AgH6C7NO2
_symmetry_space_group_name_H-M   'P 1'
_cell_length_a   5.41299000
_cell_length_b   7.62004000
_cell_length_c   16.96180000
_cell_angle_alpha   89.99970000
_cell_angle_beta   89.99880000
_cell_angle_gamma   86.58640000
_symmetry_Int_Tables_number   1
_chemical_formula_structural   AgH6C7NO2
_chemical_formula_sum   'Ag4 H24 C28 N4 O8'
_cell_volume   698.38543024
_cell_formula_units_Z   4
loop_
 _symmetry_equiv_pos_site_id
 _symmetry_equiv_pos_as_xyz
  1  'x, y, z'
loop_
 _atom_site_type_symbol
 _atom_site_label
 _atom_site_symmetry_multiplicity
 _atom_site_fract_x
 _atom_site_fract_y
 _atom_site_fract_z
 _atom_site_occupancy
  Ag  Ag0  1  0.89318000  0.94939000  0.27786000  1.0
  Ag  Ag1  1  0.60681000  0.05059000  0.77786000  1.0
  Ag  Ag2  1  0.10681000  0.05061000  0.72213000  1.0
  Ag  Ag3  1  0.39318000  0.94941000  0.22214000  1.0
  H  H4  1  0.19368000  0.32372000  0.56566000  1.0
  H  H5  1  0.30630000  0.67625000  0.06567000  1.0
  H  H6  1  0.80633000  0.67630000  0.43434000  1.0
  H  H7  1  0.69369000  0.32373000  0.93433000  1.0
  H  H8  1  0.09572000  0.46746000  0.43582000  1.0
  H  H9  1  0.40432000  0.53253000  0.93583000  1.0
  H  H10  1  0.90430000  0.53255000  0.56418000  1.0
  H  H11  1  0.59567000  0.46745000  0.06418000  1.0
  H  H12  1  0.39981000  0.44230000  0.32640000  1.0
  H  H13  1  0.10025000  0.55769000  0.82641000  1.0
  H  H14  1  0.60020000  0.55771000  0.67359000  1.0
  H  H15  1  0.89974000  0.44228000  0.17360000  1.0
  H  H16  1  0.88530000  0.11136000  0.47172000  1.0
  H  H17  1  0.61471000  0.88862000  0.97173000  1.0
  H  H18  1  0.11470000  0.88864000  0.52828000  1.0
  H  H19  1  0.38530000  0.11138000  0.02827000  1.0
  H  H20  1  0.00685000  0.23528000  0.34792000  1.0
  H  H21  1  0.49319000  0.76468000  0.84792000  1.0
  H  H22  1  0.99315000  0.76472000  0.65208000  1.0
  H  H23  1  0.50682000  0.23531000  0.15208000  1.0
  H  H24  1  0.80358000  0.33128000  0.28455000  1.0
  H  H25  1  0.69648000  0.66871000  0.78455000  1.0
  H  H26  1  0.19641000  0.66872000  0.71545000  1.0
  H  H27  1  0.30351000  0.33128000  0.21545000  1.0
  C  C28  1  0.32099000  0.30884000  0.51616000  1.0
  C  C29  1  0.17902000  0.69114000  0.01617000  1.0
  C  C30  1  0.67901000  0.69117000  0.48384000  1.0
  C  C31  1  0.82098000  0.30885000  0.98384000  1.0
  C  C32  1  0.26670000  0.38652000  0.44337000  1.0
  C  C33  1  0.23331000  0.61347000  0.94338000  1.0
  C  C34  1  0.73331000  0.61350000  0.55662000  1.0
  C  C35  1  0.76667000  0.38651000  0.05662000  1.0
  C  C36  1  0.43438000  0.36826000  0.38089000  1.0
  C  C37  1  0.06567000  0.63174000  0.88089000  1.0
  C  C38  1  0.56563000  0.63175000  0.61911000  1.0
  C  C39  1  0.93432000  0.36825000  0.11912000  1.0
  C  C40  1  0.65598000  0.26617000  0.39070000  1.0
  C  C41  1  0.84406000  0.73382000  0.89070000  1.0
  C  C42  1  0.34402000  0.73384000  0.60930000  1.0
  C  C43  1  0.15594000  0.26617000  0.10930000  1.0
  C  C44  1  0.71137000  0.18870000  0.46375000  1.0
  C  C45  1  0.78867000  0.81130000  0.96375000  1.0
  C  C46  1  0.28864000  0.81131000  0.53625000  1.0
  C  C47  1  0.21134000  0.18871000  0.03625000  1.0
  C  C48  1  0.54777000  0.21374000  0.52696000  1.0
  C  C49  1  0.95223000  0.78624000  0.02697000  1.0
  C  C50  1  0.45224000  0.78626000  0.47303000  1.0
  C  C51  1  0.04777000  0.21376000  0.97303000  1.0
  C  C52  1  0.62808000  0.14800000  0.60699000  1.0
  C  C53  1  0.87190000  0.85198000  0.10699000  1.0
  C  C54  1  0.37191000  0.85202000  0.39301000  1.0
  C  C55  1  0.12810000  0.14802000  0.89301000  1.0
  N  N56  1  0.82793000  0.23946000  0.32794000  1.0
  N  N57  1  0.67212000  0.76053000  0.82794000  1.0
  N  N58  1  0.17208000  0.76054000  0.67206000  1.0
  N  N59  1  0.32787000  0.23947000  0.17206000  1.0
  O  O60  1  0.48907000  0.19453000  0.66599000  1.0
  O  O61  1  0.01089000  0.80544000  0.16599000  1.0
  O  O62  1  0.51092000  0.80548000  0.33401000  1.0
  O  O63  1  0.98911000  0.19455000  0.83401000  1.0
  O  O64  1  0.83190000  0.05812000  0.61179000  1.0
  O  O65  1  0.66808000  0.94187000  0.11179000  1.0
  O  O66  1  0.16811000  0.94190000  0.38821000  1.0
  O  O67  1  0.33193000  0.05814000  0.88821000  1.0
