# generated using pymatgen
data_Zn2H43(C7O2)6
_symmetry_space_group_name_H-M   'P 1'
_cell_length_a   17.80930000
_cell_length_b   17.87640000
_cell_length_c   19.43180000
_cell_angle_alpha   79.04910000
_cell_angle_beta   74.30330000
_cell_angle_gamma   63.65730000
_symmetry_Int_Tables_number   1
_chemical_formula_structural   Zn2H43(C7O2)6
_chemical_formula_sum   'Zn4 H86 C84 O24'
_cell_volume   5319.69839050
_cell_formula_units_Z   2
loop_
 _symmetry_equiv_pos_site_id
 _symmetry_equiv_pos_as_xyz
  1  'x, y, z'
loop_
 _atom_site_type_symbol
 _atom_site_label
 _atom_site_symmetry_multiplicity
 _atom_site_fract_x
 _atom_site_fract_y
 _atom_site_fract_z
 _atom_site_occupancy
  Zn  Zn0  1  0.41904000  0.58137000  0.44091000  1.0
  Zn  Zn1  1  0.43325000  0.45107000  0.58011000  1.0
  Zn  Zn2  1  0.54929000  0.55360000  0.53632000  1.0
  Zn  Zn3  1  0.59033000  0.41048000  0.44014000  1.0
  H  H4  1  0.36577000  0.52869000  0.26204000  1.0
  H  H5  1  0.12715000  0.33044000  0.38510000  1.0
  H  H6  1  0.87061000  0.71199000  0.56165000  1.0
  H  H7  1  0.01432000  0.29806000  0.36594000  1.0
  H  H8  1  0.85912000  0.32941000  0.38381000  1.0
  H  H9  1  0.79018000  0.53655000  0.50320000  1.0
  H  H10  1  0.17105000  0.41390000  0.43912000  1.0
  H  H11  1  0.82477000  0.61959000  0.52223000  1.0
  H  H12  1  0.40265000  0.44049000  0.80430000  1.0
  H  H13  1  0.63726000  0.39398000  0.08651000  1.0
  H  H14  1  0.64064000  0.40076000  0.21333000  1.0
  H  H15  1  0.39690000  0.45063000  0.93248000  1.0
  H  H16  1  0.73326000  0.18280000  0.52132000  1.0
  H  H17  1  0.78501000  0.09864000  0.58246000  1.0
  H  H18  1  0.71592000  0.28658000  0.59927000  1.0
  H  H19  1  0.76218000  0.20559000  0.66315000  1.0
  H  H20  1  0.90189000  0.15022000  0.57194000  1.0
  H  H21  1  0.87119000  0.25690000  0.58350000  1.0
  H  H22  1  0.85520000  0.23036000  0.50697000  1.0
  H  H23  1  0.74496000  0.82896000  0.59384000  1.0
  H  H24  1  0.67629000  0.77564000  0.62893000  1.0
  H  H25  1  0.69560000  0.77183000  0.75323000  1.0
  H  H26  1  0.32758000  0.10922000  0.40464000  1.0
  H  H27  1  0.79693000  0.72263000  0.69467000  1.0
  H  H28  1  0.76362000  0.82552000  0.71866000  1.0
  H  H29  1  0.18660000  0.06875000  0.46938000  1.0
  H  H30  1  0.17967000  0.97989000  0.44703000  1.0
  H  H31  1  0.14834000  0.14563000  0.35317000  1.0
  H  H32  1  0.14356000  0.05707000  0.33005000  1.0
  H  H33  1  0.02300000  0.06765000  0.43955000  1.0
  H  H34  1  0.99508000  0.16027000  0.38113000  1.0
  H  H35  1  0.02668000  0.15816000  0.46060000  1.0
  H  H36  1  0.40562000  0.87095000  0.64294000  1.0
  H  H37  1  0.47146000  0.20188000  0.48530000  1.0
  H  H38  1  0.45455000  0.88284000  0.70711000  1.0
  H  H39  1  0.53017000  0.72663000  0.72708000  1.0
  H  H40  1  0.41801000  0.75745000  0.74304000  1.0
  H  H41  1  0.48431000  0.71382000  0.66116000  1.0
  H  H42  1  0.15357000  0.38254000  0.57892000  1.0
  H  H43  1  0.22390000  0.40480000  0.61441000  1.0
  H  H44  1  0.28051000  0.28426000  0.49848000  1.0
  H  H45  1  0.34957000  0.30762000  0.53338000  1.0
  H  H46  1  0.30002000  0.24858000  0.65611000  1.0
  H  H47  1  0.34029000  0.17258000  0.59342000  1.0
  H  H48  1  0.32716000  0.84405000  0.40266000  1.0
  H  H49  1  0.22798000  0.22727000  0.62323000  1.0
  H  H50  1  0.18860000  0.61975000  0.66788000  1.0
  H  H51  1  0.11147000  0.71792000  0.70058000  1.0
  H  H52  1  0.29270000  0.68233000  0.60983000  1.0
  H  H53  1  0.21684000  0.78119000  0.63887000  1.0
  H  H54  1  0.21508000  0.72241000  0.76849000  1.0
  H  H55  1  0.32082000  0.70677000  0.72167000  1.0
  H  H56  1  0.29001000  0.62223000  0.73967000  1.0
  H  H57  1  0.95177000  0.83078000  0.49503000  1.0
  H  H58  1  0.03119000  0.83030000  0.53560000  1.0
  H  H59  1  0.50962000  0.79522000  0.53000000  1.0
  H  H60  1  0.91589000  0.90956000  0.63522000  1.0
  H  H61  1  0.89902000  0.96524000  0.55046000  1.0
  H  H62  1  0.83581000  0.90963000  0.59638000  1.0
  H  H63  1  0.32058000  0.64513000  0.99245000  1.0
  H  H64  1  0.38893000  0.68895000  0.93145000  1.0
  H  H65  1  0.38908000  0.75820000  0.03309000  1.0
  H  H66  1  0.28299000  0.79072000  0.02122000  1.0
  H  H67  1  0.32000000  0.71517000  0.09283000  1.0
  H  H68  1  0.68386000  0.52087000  0.84297000  1.0
  H  H69  1  0.62753000  0.50948000  0.93277000  1.0
  H  H70  1  0.41109000  0.15990000  0.44919000  1.0
  H  H71  1  0.61745000  0.64553000  0.95849000  1.0
  H  H72  1  0.72670000  0.57831000  0.92588000  1.0
  H  H73  1  0.66912000  0.66167000  0.86800000  1.0
  H  H74  1  0.51638000  0.28696000  0.97728000  1.0
  H  H75  1  0.43643000  0.35490000  0.04236000  1.0
  H  H76  1  0.61268000  0.22072000  0.06426000  1.0
  H  H77  1  0.53565000  0.28855000  0.12937000  1.0
  H  H78  1  0.43001000  0.23004000  0.12929000  1.0
  H  H79  1  0.52603000  0.14898000  0.15037000  1.0
  H  H80  1  0.50608000  0.16215000  0.06320000  1.0
  H  H81  1  0.55763000  0.58035000  0.73778000  1.0
  H  H82  1  0.25298000  0.53230000  0.22602000  1.0
  H  H83  1  0.31365000  0.42867000  0.19797000  1.0
  H  H84  1  0.18109000  0.57601000  0.12425000  1.0
  H  H85  1  0.24873000  0.47955000  0.08659000  1.0
  H  H86  1  0.18622000  0.40254000  0.18993000  1.0
  H  H87  1  0.10239000  0.48436000  0.15250000  1.0
  H  H88  1  0.12197000  0.49610000  0.23371000  1.0
  H  H89  1  0.66582000  0.01544000  0.64751000  1.0
  C  C90  1  0.54257000  0.28046000  0.53193000  1.0
  C  C91  1  0.50084000  0.45384000  0.02731000  1.0
  C  C92  1  0.47050000  0.52421000  0.98346000  1.0
  C  C93  1  0.44538000  0.71990000  0.47304000  1.0
  C  C94  1  0.48041000  0.50983000  0.76328000  1.0
  C  C95  1  0.42155000  0.81150000  0.46714000  1.0
  C  C96  1  0.55865000  0.18981000  0.54683000  1.0
  C  C97  1  0.34056000  0.95162000  0.42191000  1.0
  C  C98  1  0.35920000  0.86740000  0.42810000  1.0
  C  C99  1  0.46207000  0.84055000  0.50069000  1.0
  C  C100  1  0.44445000  0.92636000  0.49536000  1.0
  C  C101  1  0.50017000  0.45663000  0.10276000  1.0
  C  C102  1  0.38442000  0.98266000  0.45251000  1.0
  C  C103  1  0.48696000  0.95895000  0.52840000  1.0
  C  C104  1  0.47739000  0.04302000  0.50879000  1.0
  C  C105  1  0.26930000  0.55814000  0.53934000  1.0
  C  C106  1  0.41947000  0.09525000  0.46353000  1.0
  C  C107  1  0.37229000  0.06771000  0.43832000  1.0
  C  C108  1  0.53689000  0.91113000  0.58155000  1.0
  C  C109  1  0.58323000  0.94139000  0.60653000  1.0
  C  C110  1  0.57912000  0.02374000  0.58360000  1.0
  C  C111  1  0.52363000  0.07570000  0.53632000  1.0
  C  C112  1  0.57801000  0.42297000  0.12558000  1.0
  C  C113  1  0.62496000  0.05526000  0.61039000  1.0
  C  C114  1  0.61523000  0.13712000  0.59212000  1.0
  C  C115  1  0.51480000  0.15918000  0.51948000  1.0
  C  C116  1  0.81684000  0.43536000  0.44519000  1.0
  C  C117  1  0.72441000  0.45298000  0.45943000  1.0
  C  C118  1  0.17569000  0.58147000  0.54646000  1.0
  C  C119  1  0.96492000  0.35083000  0.39559000  1.0
  C  C120  1  0.87958000  0.36757000  0.40543000  1.0
  C  C121  1  0.84093000  0.48585000  0.47245000  1.0
  C  C122  1  0.92760000  0.47089000  0.46256000  1.0
  C  C123  1  0.58022000  0.42642000  0.19578000  1.0
  C  C124  1  0.99085000  0.40058000  0.42432000  1.0
  C  C125  1  0.95385000  0.52315000  0.49035000  1.0
  C  C126  1  0.04241000  0.49948000  0.48563000  1.0
  C  C127  1  0.10341000  0.42910000  0.44623000  1.0
  C  C128  1  0.07877000  0.38266000  0.41601000  1.0
  C  C129  1  0.48603000  0.50377000  0.68672000  1.0
  C  C130  1  0.89266000  0.59991000  0.51987000  1.0
  C  C131  1  0.91759000  0.65196000  0.54200000  1.0
  C  C132  1  0.00523000  0.62902000  0.54133000  1.0
  C  C133  1  0.06838000  0.54964000  0.51672000  1.0
  C  C134  1  0.51732000  0.55950000  0.85154000  1.0
  C  C135  1  0.02845000  0.68380000  0.56669000  1.0
  C  C136  1  0.11362000  0.66076000  0.56822000  1.0
  C  C137  1  0.15361000  0.52621000  0.52377000  1.0
  C  C138  1  0.50474000  0.47750000  0.31781000  1.0
  C  C139  1  0.50329000  0.46639000  0.24431000  1.0
  C  C140  1  0.42474000  0.49855000  0.22323000  1.0
  C  C141  1  0.42284000  0.49211000  0.15334000  1.0
  C  C142  1  0.73785000  0.16449000  0.57805000  1.0
  C  C143  1  0.76384000  0.22166000  0.60535000  1.0
  C  C144  1  0.85292000  0.21433000  0.56476000  1.0
  C  C145  1  0.52151000  0.55268000  0.78036000  1.0
  C  C146  1  0.69987000  0.81763000  0.64171000  1.0
  C  C147  1  0.74128000  0.78251000  0.70600000  1.0
  C  C148  1  0.19355000  0.03510000  0.42415000  1.0
  C  C149  1  0.13273000  0.09155000  0.37564000  1.0
  C  C150  1  0.03945000  0.12099000  0.41642000  1.0
  C  C151  1  0.46218000  0.84164000  0.66768000  1.0
  C  C152  1  0.47480000  0.75463000  0.70139000  1.0
  C  C153  1  0.21657000  0.38531000  0.56699000  1.0
  C  C154  1  0.28839000  0.30141000  0.54680000  1.0
  C  C155  1  0.28911000  0.23373000  0.60830000  1.0
  C  C156  1  0.43493000  0.47314000  0.81822000  1.0
  C  C157  1  0.16666000  0.68809000  0.65717000  1.0
  C  C158  1  0.23870000  0.71334000  0.65334000  1.0
  C  C159  1  0.26767000  0.68995000  0.72474000  1.0
  C  C160  1  0.96650000  0.83205000  0.54637000  1.0
  C  C161  1  0.90028000  0.90832000  0.58463000  1.0
  C  C162  1  0.37022000  0.66777000  0.98797000  1.0
  C  C163  1  0.33881000  0.73699000  0.03683000  1.0
  C  C164  1  0.63622000  0.55549000  0.88844000  1.0
  C  C165  1  0.66373000  0.61397000  0.91157000  1.0
  C  C166  1  0.50617000  0.31912000  0.02428000  1.0
  C  C167  1  0.43214000  0.47880000  0.88922000  1.0
  C  C168  1  0.54329000  0.25561000  0.08387000  1.0
  C  C169  1  0.49909000  0.19585000  0.10799000  1.0
  C  C170  1  0.28272000  0.49529000  0.17878000  1.0
  C  C171  1  0.21572000  0.50853000  0.13779000  1.0
  C  C172  1  0.15313000  0.47100000  0.18086000  1.0
  C  C173  1  0.47318000  0.52138000  0.90746000  1.0
  O  O174  1  0.49759000  0.49737000  0.49935000  1.0
  O  O175  1  0.44395000  0.46801000  0.67314000  1.0
  O  O176  1  0.57137000  0.42780000  0.34245000  1.0
  O  O177  1  0.53277000  0.53509000  0.64048000  1.0
  O  O178  1  0.43927000  0.53679000  0.35003000  1.0
  O  O179  1  0.65512000  0.17089000  0.62090000  1.0
  O  O180  1  0.62854000  0.89754000  0.65894000  1.0
  O  O181  1  0.28052000  0.00764000  0.38290000  1.0
  O  O182  1  0.53818000  0.83435000  0.61235000  1.0
  O  O183  1  0.21909000  0.44835000  0.50787000  1.0
  O  O184  1  0.13681000  0.71470000  0.59018000  1.0
  O  O185  1  0.30051000  0.59741000  0.48690000  1.0
  O  O186  1  0.96503000  0.75811000  0.59200000  1.0
  O  O187  1  0.44400000  0.59962000  0.01040000  1.0
  O  O188  1  0.55596000  0.60534000  0.86553000  1.0
  O  O189  1  0.54581000  0.37739000  0.99768000  1.0
  O  O190  1  0.34739000  0.51925000  0.13085000  1.0
  O  O191  1  0.70466000  0.40431000  0.43464000  1.0
  O  O192  1  0.47448000  0.33082000  0.56975000  1.0
  O  O193  1  0.49253000  0.67486000  0.51767000  1.0
  O  O194  1  0.59686000  0.29875000  0.48265000  1.0
  O  O195  1  0.41719000  0.69300000  0.43344000  1.0
  O  O196  1  0.30848000  0.50260000  0.58437000  1.0
  O  O197  1  0.67184000  0.51536000  0.49581000  1.0
