# generated using pymatgen
data_SrH17C16(NO5)2
_symmetry_space_group_name_H-M   'P 1'
_cell_length_a   8.58346000
_cell_length_b   10.30190000
_cell_length_c   11.46320000
_cell_angle_alpha   87.35260000
_cell_angle_beta   88.87120000
_cell_angle_gamma   75.66990000
_symmetry_Int_Tables_number   1
_chemical_formula_structural   SrH17C16(NO5)2
_chemical_formula_sum   'Sr2 H34 C32 N4 O20'
_cell_volume   981.02162056
_cell_formula_units_Z   2
loop_
 _symmetry_equiv_pos_site_id
 _symmetry_equiv_pos_as_xyz
  1  'x, y, z'
loop_
 _atom_site_type_symbol
 _atom_site_label
 _atom_site_symmetry_multiplicity
 _atom_site_fract_x
 _atom_site_fract_y
 _atom_site_fract_z
 _atom_site_occupancy
  Sr  Sr0  1  0.30290000  0.47594000  0.96359000  1.0
  Sr  Sr1  1  0.69711000  0.52406000  0.03641000  1.0
  H  H2  1  0.48384000  0.95825000  0.79084000  1.0
  H  H3  1  0.51615000  0.04177000  0.20916000  1.0
  H  H4  1  0.37937000  0.68407000  0.16013000  1.0
  H  H5  1  0.62064000  0.31593000  0.83987000  1.0
  H  H6  1  0.48554000  0.56005000  0.23091000  1.0
  H  H7  1  0.51447000  0.43995000  0.76908000  1.0
  H  H8  1  0.10561000  0.40115000  0.16856000  1.0
  H  H9  1  0.89438000  0.59886000  0.83143000  1.0
  H  H10  1  0.12876000  0.74032000  0.05750000  1.0
  H  H11  1  0.87123000  0.25969000  0.94250000  1.0
  H  H12  1  0.02090000  0.64022000  0.10595000  1.0
  H  H13  1  0.97911000  0.35978000  0.89405000  1.0
  H  H14  1  0.17804000  0.18981000  0.06039000  1.0
  H  H15  1  0.82195000  0.81019000  0.93960000  1.0
  H  H16  1  0.76382000  0.24434000  0.33630000  1.0
  H  H17  1  0.23619000  0.75566000  0.66371000  1.0
  H  H18  1  0.95730000  0.22043000  0.17106000  1.0
  H  H19  1  0.04270000  0.77958000  0.82894000  1.0
  H  H20  1  0.12274000  0.79741000  0.26004000  1.0
  H  H21  1  0.87726000  0.20259000  0.73996000  1.0
  H  H22  1  0.92917000  0.82002000  0.42263000  1.0
  H  H23  1  0.07084000  0.17998000  0.57738000  1.0
  H  H24  1  0.66819000  0.86698000  0.49360000  1.0
  H  H25  1  0.33181000  0.13302000  0.50638000  1.0
  H  H26  1  0.60290000  0.98220000  0.60769000  1.0
  H  H27  1  0.39709000  0.01779000  0.39230000  1.0
  H  H28  1  0.81160000  0.89792000  0.59510000  1.0
  H  H29  1  0.18839000  0.10207000  0.40489000  1.0
  H  H30  1  0.26667000  0.55363000  0.50996000  1.0
  H  H31  1  0.73335000  0.44637000  0.49004000  1.0
  H  H32  1  0.86550000  0.44318000  0.68281000  1.0
  H  H33  1  0.13452000  0.55681000  0.31719000  1.0
  H  H34  1  0.28808000  0.30425000  0.18556000  1.0
  H  H35  1  0.71192000  0.69576000  0.81443000  1.0
  C  C36  1  0.83180000  0.03419000  0.38941000  1.0
  C  C37  1  0.16820000  0.96581000  0.61059000  1.0
  C  C38  1  0.84414000  0.14706000  0.31927000  1.0
  C  C39  1  0.15586000  0.85294000  0.68073000  1.0
  C  C40  1  0.95292000  0.13286000  0.22694000  1.0
  C  C41  1  0.04708000  0.86714000  0.77306000  1.0
  C  C42  1  0.05308000  0.00624000  0.20221000  1.0
  C  C43  1  0.94691000  0.99377000  0.79779000  1.0
  C  C44  1  0.04278000  0.89531000  0.27521000  1.0
  C  C45  1  0.95722000  0.10469000  0.72479000  1.0
  C  C46  1  0.93373000  0.90805000  0.36779000  1.0
  C  C47  1  0.06628000  0.09195000  0.63221000  1.0
  C  C48  1  0.16152000  0.98825000  0.10214000  1.0
  C  C49  1  0.83847000  0.01175000  0.89786000  1.0
  C  C50  1  0.32085000  0.89726000  0.96154000  1.0
  C  C51  1  0.67915000  0.10274000  0.03846000  1.0
  C  C52  1  0.30455000  0.03578000  0.94973000  1.0
  C  C53  1  0.69545000  0.96423000  0.05026000  1.0
  C  C54  1  0.37429000  0.12221000  0.86970000  1.0
  C  C55  1  0.62570000  0.87779000  0.13030000  1.0
  C  C56  1  0.42501000  0.78887000  0.89429000  1.0
  C  C57  1  0.57498000  0.21115000  0.10571000  1.0
  C  C58  1  0.70047000  0.94267000  0.54664000  1.0
  C  C59  1  0.29952000  0.05732000  0.45335000  1.0
  C  C60  1  0.15010000  0.52999000  0.50454000  1.0
  C  C61  1  0.84990000  0.47001000  0.49547000  1.0
  C  C62  1  0.07477000  0.49796000  0.60773000  1.0
  C  C63  1  0.92523000  0.50203000  0.39228000  1.0
  C  C64  1  0.92405000  0.46815000  0.60255000  1.0
  C  C65  1  0.07595000  0.53185000  0.39745000  1.0
  C  C66  1  0.15442000  0.49727000  0.72278000  1.0
  C  C67  1  0.84558000  0.50273000  0.27723000  1.0
  N  N68  1  0.20401000  0.08971000  0.03927000  1.0
  N  N69  1  0.79598000  0.91029000  0.96073000  1.0
  N  N70  1  0.23167000  0.86973000  0.05612000  1.0
  N  N71  1  0.76833000  0.13028000  0.94388000  1.0
  O  O72  1  0.71808000  0.05634000  0.47490000  1.0
  O  O73  1  0.28192000  0.94366000  0.52511000  1.0
  O  O74  1  0.50721000  0.82096000  0.80773000  1.0
  O  O75  1  0.49279000  0.17905000  0.19227000  1.0
  O  O76  1  0.46754000  0.06589000  0.78445000  1.0
  O  O77  1  0.53246000  0.93411000  0.21555000  1.0
  O  O78  1  0.34622000  0.24470000  0.88457000  1.0
  O  O79  1  0.65378000  0.75530000  0.11543000  1.0
  O  O80  1  0.43436000  0.66854000  0.92839000  1.0
  O  O81  1  0.56565000  0.33146000  0.07161000  1.0
  O  O82  1  0.07102000  0.48595000  0.81636000  1.0
  O  O83  1  0.92898000  0.51405000  0.18364000  1.0
  O  O84  1  0.29660000  0.51055000  0.72641000  1.0
  O  O85  1  0.70341000  0.48944000  0.27359000  1.0
  O  O86  1  0.40074000  0.58651000  0.17173000  1.0
  O  O87  1  0.59927000  0.41349000  0.82827000  1.0
  O  O88  1  0.19997000  0.34060000  0.13024000  1.0
  O  O89  1  0.80002000  0.65940000  0.86976000  1.0
  O  O90  1  0.07858000  0.66632000  0.03732000  1.0
  O  O91  1  0.92141000  0.33369000  0.96268000  1.0
