# generated using pymatgen
data_CdSi2H36C32(N2Cl)2
_symmetry_space_group_name_H-M   'P 1'
_cell_length_a   10.63910000
_cell_length_b   12.44010000
_cell_length_c   14.91140000
_cell_angle_alpha   90.00010000
_cell_angle_beta   90.00060000
_cell_angle_gamma   74.23000000
_symmetry_Int_Tables_number   1
_chemical_formula_structural   CdSi2H36C32(N2Cl)2
_chemical_formula_sum   'Cd2 Si4 H72 C64 N8 Cl4'
_cell_volume   1899.26226230
_cell_formula_units_Z   2
loop_
 _symmetry_equiv_pos_site_id
 _symmetry_equiv_pos_as_xyz
  1  'x, y, z'
loop_
 _atom_site_type_symbol
 _atom_site_label
 _atom_site_symmetry_multiplicity
 _atom_site_fract_x
 _atom_site_fract_y
 _atom_site_fract_z
 _atom_site_occupancy
  Cd  Cd0  1  0.00000000  0.50000000  0.50000000  1.0
  Cd  Cd1  1  0.00000000  0.00000000  0.00000000  1.0
  Si  Si2  1  0.38496000  0.84334000  0.65204000  1.0
  Si  Si3  1  0.61504000  0.65666000  0.15203000  1.0
  Si  Si4  1  0.61504000  0.15667000  0.34796000  1.0
  Si  Si5  1  0.38496000  0.34333000  0.84797000  1.0
  H  H6  1  0.81039000  0.54086000  0.67472000  1.0
  H  H7  1  0.18962000  0.95913000  0.17471000  1.0
  H  H8  1  0.18961000  0.45915000  0.32529000  1.0
  H  H9  1  0.81039000  0.04086000  0.82529000  1.0
  H  H10  1  0.59408000  0.65503000  0.73192000  1.0
  H  H11  1  0.40593000  0.84497000  0.23192000  1.0
  H  H12  1  0.40592000  0.34497000  0.26808000  1.0
  H  H13  1  0.59408000  0.15503000  0.76808000  1.0
  H  H14  1  0.55435000  0.84518000  0.48543000  1.0
  H  H15  1  0.44564000  0.65483000  0.98542000  1.0
  H  H16  1  0.44564000  0.15483000  0.51458000  1.0
  H  H17  1  0.55437000  0.34516000  0.01458000  1.0
  H  H18  1  0.77082000  0.72008000  0.43883000  1.0
  H  H19  1  0.22917000  0.77993000  0.93882000  1.0
  H  H20  1  0.22918000  0.27993000  0.56117000  1.0
  H  H21  1  0.77083000  0.22006000  0.06118000  1.0
  H  H22  1  0.02897000  0.64730000  0.66942000  1.0
  H  H23  1  0.97102000  0.85270000  0.16942000  1.0
  H  H24  1  0.97103000  0.35270000  0.33058000  1.0
  H  H25  1  0.02898000  0.14730000  0.83058000  1.0
  H  H26  1  0.15877000  0.76981000  0.73023000  1.0
  H  H27  1  0.84123000  0.73019000  0.23022000  1.0
  H  H28  1  0.84123000  0.23019000  0.26977000  1.0
  H  H29  1  0.15877000  0.26981000  0.76978000  1.0
  H  H30  1  0.34599000  0.74814000  0.46980000  1.0
  H  H31  1  0.65401000  0.75185000  0.96979000  1.0
  H  H32  1  0.65402000  0.25185000  0.53020000  1.0
  H  H33  1  0.34600000  0.24814000  0.03021000  1.0
  H  H34  1  0.19349000  0.63959000  0.41770000  1.0
  H  H35  1  0.80651000  0.86041000  0.91770000  1.0
  H  H36  1  0.80652000  0.36040000  0.58229000  1.0
  H  H37  1  0.19350000  0.13959000  0.08230000  1.0
  H  H38  1  0.41833000  0.02910000  0.63250000  1.0
  H  H39  1  0.58166000  0.47090000  0.13250000  1.0
  H  H40  1  0.58166000  0.97091000  0.36750000  1.0
  H  H41  1  0.41833000  0.52910000  0.86751000  1.0
  H  H42  1  0.35521000  0.98549000  0.53221000  1.0
  H  H43  1  0.64478000  0.51451000  0.03221000  1.0
  H  H44  1  0.64478000  0.01452000  0.46779000  1.0
  H  H45  1  0.35522000  0.48549000  0.96779000  1.0
  H  H46  1  0.19578000  0.08032000  0.70204000  1.0
  H  H47  1  0.80421000  0.41968000  0.20204000  1.0
  H  H48  1  0.80421000  0.91968000  0.29796000  1.0
  H  H49  1  0.19578000  0.58031000  0.79797000  1.0
  H  H50  1  0.11310000  0.06091000  0.50570000  1.0
  H  H51  1  0.88690000  0.43908000  0.00570000  1.0
  H  H52  1  0.88690000  0.93908000  0.49429000  1.0
  H  H53  1  0.11310000  0.56091000  0.99430000  1.0
  H  H54  1  0.01024000  0.13046000  0.60121000  1.0
  H  H55  1  0.98975000  0.36953000  0.10122000  1.0
  H  H56  1  0.98975000  0.86954000  0.39878000  1.0
  H  H57  1  0.01025000  0.63045000  0.89878000  1.0
  H  H58  1  0.28211000  0.88055000  0.80194000  1.0
  H  H59  1  0.71790000  0.61944000  0.30194000  1.0
  H  H60  1  0.71789000  0.11945000  0.19806000  1.0
  H  H61  1  0.28211000  0.38055000  0.69806000  1.0
  H  H62  1  0.39907000  0.74916000  0.79564000  1.0
  H  H63  1  0.60094000  0.75084000  0.29564000  1.0
  H  H64  1  0.60093000  0.25085000  0.20436000  1.0
  H  H65  1  0.39907000  0.24915000  0.70437000  1.0
  H  H66  1  0.58336000  0.84824000  0.80391000  1.0
  H  H67  1  0.41664000  0.65177000  0.30391000  1.0
  H  H68  1  0.41664000  0.15178000  0.19609000  1.0
  H  H69  1  0.58336000  0.34823000  0.69610000  1.0
  H  H70  1  0.35247000  0.01154000  0.89960000  1.0
  H  H71  1  0.64753000  0.48846000  0.39959000  1.0
  H  H72  1  0.64752000  0.98848000  0.10040000  1.0
  H  H73  1  0.35248000  0.51153000  0.60041000  1.0
  H  H74  1  0.52896000  0.00413000  0.90906000  1.0
  H  H75  1  0.47104000  0.49587000  0.40905000  1.0
  H  H76  1  0.47103000  0.99589000  0.09094000  1.0
  H  H77  1  0.52896000  0.50411000  0.59095000  1.0
  C  C78  1  0.74821000  0.60912000  0.63535000  1.0
  C  C79  1  0.25179000  0.89089000  0.13535000  1.0
  C  C80  1  0.25179000  0.39089000  0.36465000  1.0
  C  C81  1  0.74821000  0.10911000  0.86465000  1.0
  C  C82  1  0.62838000  0.67422000  0.66645000  1.0
  C  C83  1  0.37162000  0.82578000  0.16645000  1.0
  C  C84  1  0.37161000  0.32578000  0.33355000  1.0
  C  C85  1  0.62839000  0.17422000  0.83355000  1.0
  C  C86  1  0.55293000  0.76148000  0.61343000  1.0
  C  C87  1  0.44706000  0.73852000  0.11342000  1.0
  C  C88  1  0.44706000  0.23852000  0.38657000  1.0
  C  C89  1  0.55295000  0.26148000  0.88658000  1.0
  C  C90  1  0.60610000  0.77856000  0.53029000  1.0
  C  C91  1  0.39389000  0.72144000  0.03028000  1.0
  C  C92  1  0.39390000  0.22145000  0.46971000  1.0
  C  C93  1  0.60611000  0.27855000  0.96972000  1.0
  C  C94  1  0.72666000  0.70960000  0.50319000  1.0
  C  C95  1  0.27333000  0.79040000  0.00319000  1.0
  C  C96  1  0.27334000  0.29040000  0.49681000  1.0
  C  C97  1  0.72667000  0.20959000  0.99681000  1.0
  C  C98  1  0.09810000  0.67473000  0.62708000  1.0
  C  C99  1  0.90189000  0.82527000  0.12707000  1.0
  C  C100  1  0.90190000  0.32527000  0.37292000  1.0
  C  C101  1  0.09810000  0.17473000  0.87293000  1.0
  C  C102  1  0.17413000  0.74052000  0.66101000  1.0
  C  C103  1  0.82586000  0.75948000  0.16101000  1.0
  C  C104  1  0.82587000  0.25948000  0.33899000  1.0
  C  C105  1  0.17414000  0.24052000  0.83900000  1.0
  C  C106  1  0.26765000  0.76784000  0.60578000  1.0
  C  C107  1  0.73235000  0.73216000  0.10577000  1.0
  C  C108  1  0.73235000  0.23216000  0.39422000  1.0
  C  C109  1  0.26765000  0.26784000  0.89423000  1.0
  C  C110  1  0.27461000  0.73124000  0.51640000  1.0
  C  C111  1  0.72539000  0.76876000  0.01639000  1.0
  C  C112  1  0.72540000  0.26876000  0.48360000  1.0
  C  C113  1  0.27461000  0.23124000  0.98361000  1.0
  C  C114  1  0.19246000  0.66844000  0.48694000  1.0
  C  C115  1  0.80754000  0.83156000  0.98694000  1.0
  C  C116  1  0.80755000  0.33155000  0.51306000  1.0
  C  C117  1  0.19247000  0.16844000  0.01307000  1.0
  C  C118  1  0.34420000  0.99045000  0.60569000  1.0
  C  C119  1  0.65580000  0.50955000  0.10569000  1.0
  C  C120  1  0.65580000  0.00956000  0.39430000  1.0
  C  C121  1  0.34420000  0.49045000  0.89431000  1.0
  C  C122  1  0.20928000  0.05614000  0.63146000  1.0
  C  C123  1  0.79071000  0.44386000  0.13146000  1.0
  C  C124  1  0.79071000  0.94387000  0.36854000  1.0
  C  C125  1  0.20929000  0.55613000  0.86854000  1.0
  C  C126  1  0.10591000  0.08347000  0.57672000  1.0
  C  C127  1  0.89408000  0.41652000  0.07673000  1.0
  C  C128  1  0.89408000  0.91652000  0.42327000  1.0
  C  C129  1  0.10592000  0.58347000  0.92328000  1.0
  C  C130  1  0.38156000  0.83852000  0.77829000  1.0
  C  C131  1  0.61844000  0.66148000  0.27829000  1.0
  C  C132  1  0.61843000  0.16149000  0.22171000  1.0
  C  C133  1  0.38157000  0.33851000  0.72171000  1.0
  C  C134  1  0.48094000  0.88631000  0.82179000  1.0
  C  C135  1  0.51906000  0.61369000  0.32179000  1.0
  C  C136  1  0.51905000  0.11370000  0.17821000  1.0
  C  C137  1  0.48094000  0.38630000  0.67821000  1.0
  C  C138  1  0.45296000  0.97181000  0.87953000  1.0
  C  C139  1  0.54705000  0.52819000  0.37952000  1.0
  C  C140  1  0.54703000  0.02821000  0.12047000  1.0
  C  C141  1  0.45296000  0.47180000  0.62048000  1.0
  N  N142  1  0.79604000  0.62571000  0.55458000  1.0
  N  N143  1  0.20395000  0.87429000  0.05458000  1.0
  N  N144  1  0.20396000  0.37429000  0.44542000  1.0
  N  N145  1  0.79605000  0.12570000  0.94542000  1.0
  N  N146  1  0.10800000  0.63820000  0.54199000  1.0
  N  N147  1  0.89200000  0.86180000  0.04199000  1.0
  N  N148  1  0.89201000  0.36180000  0.45801000  1.0
  N  N149  1  0.10800000  0.13820000  0.95801000  1.0
  Cl  Cl150  1  0.03450000  0.41244000  0.65900000  1.0
  Cl  Cl151  1  0.96550000  0.08755000  0.15900000  1.0
  Cl  Cl152  1  0.96549000  0.58756000  0.34100000  1.0
  Cl  Cl153  1  0.03450000  0.91244000  0.84100000  1.0
