# generated using pymatgen
data_Zn3H32C16S2(N3O8)2
_symmetry_space_group_name_H-M   'P 1'
_cell_length_a   8.41706000
_cell_length_b   9.46528000
_cell_length_c   9.57889000
_cell_angle_alpha   107.89700000
_cell_angle_beta   115.81300000
_cell_angle_gamma   90.26670000
_symmetry_Int_Tables_number   1
_chemical_formula_structural   Zn3H32C16S2(N3O8)2
_chemical_formula_sum   'Zn3 H32 C16 S2 N6 O16'
_cell_volume   645.16126691
_cell_formula_units_Z   1
loop_
 _symmetry_equiv_pos_site_id
 _symmetry_equiv_pos_as_xyz
  1  'x, y, z'
loop_
 _atom_site_type_symbol
 _atom_site_label
 _atom_site_symmetry_multiplicity
 _atom_site_fract_x
 _atom_site_fract_y
 _atom_site_fract_z
 _atom_site_occupancy
  Zn  Zn0  1  0.19275000  0.51529000  0.82867000  1.0
  Zn  Zn1  1  0.80725000  0.48470000  0.17132000  1.0
  Zn  Zn2  1  0.50000000  0.00000000  0.50000000  1.0
  H  H3  1  0.50833000  0.05635000  0.18074000  1.0
  H  H4  1  0.49167000  0.94365000  0.81926000  1.0
  H  H5  1  0.34243000  0.04058000  0.97917000  1.0
  H  H6  1  0.65757000  0.95943000  0.02083000  1.0
  H  H7  1  0.11212000  0.08295000  0.07301000  1.0
  H  H8  1  0.88788000  0.91705000  0.92699000  1.0
  H  H9  1  0.21440000  0.92542000  0.11514000  1.0
  H  H10  1  0.78560000  0.07458000  0.88486000  1.0
  H  H11  1  0.46020000  0.45801000  0.34522000  1.0
  H  H12  1  0.53980000  0.54200000  0.65478000  1.0
  H  H13  1  0.59082000  0.32152000  0.40602000  1.0
  H  H14  1  0.40917000  0.67848000  0.59398000  1.0
  H  H15  1  0.36275000  0.33527000  0.50396000  1.0
  H  H16  1  0.63725000  0.66474000  0.49604000  1.0
  H  H17  1  0.19123000  0.32449000  0.30599000  1.0
  H  H18  1  0.80877000  0.67552000  0.69401000  1.0
  H  H19  1  0.00299000  0.10327000  0.25566000  1.0
  H  H20  1  0.99701000  0.89673000  0.74434000  1.0
  H  H21  1  0.14893000  0.16482000  0.47049000  1.0
  H  H22  1  0.85107000  0.83518000  0.52951000  1.0
  H  H23  1  0.98641000  0.89816000  0.35640000  1.0
  H  H24  1  0.01358000  0.10184000  0.64360000  1.0
  H  H25  1  0.10010000  0.84372000  0.23709000  1.0
  H  H26  1  0.89990000  0.15628000  0.76291000  1.0
  H  H27  1  0.51434000  0.28639000  0.12677000  1.0
  H  H28  1  0.48566000  0.71361000  0.87323000  1.0
  H  H29  1  0.30113000  0.29184000  0.07498000  1.0
  H  H30  1  0.69887000  0.70816000  0.92502000  1.0
  H  H31  1  0.25821000  0.80217000  0.48442000  1.0
  H  H32  1  0.74179000  0.19784000  0.51559000  1.0
  H  H33  1  0.27038000  0.97803000  0.59999000  1.0
  H  H34  1  0.72962000  0.02198000  0.40001000  1.0
  C  C35  1  0.04056000  0.43025000  0.01602000  1.0
  C  C36  1  0.95946000  0.56975000  0.98397000  1.0
  C  C37  1  0.93888000  0.42734000  0.47998000  1.0
  C  C38  1  0.06112000  0.57264000  0.52003000  1.0
  C  C39  1  0.38227000  0.09108000  0.11119000  1.0
  C  C40  1  0.61773000  0.90892000  0.88881000  1.0
  C  C41  1  0.23643000  0.04806000  0.14894000  1.0
  C  C42  1  0.76357000  0.95194000  0.85106000  1.0
  C  C43  1  0.45630000  0.33814000  0.32915000  1.0
  C  C44  1  0.54369000  0.66186000  0.67085000  1.0
  C  C45  1  0.31722000  0.28549000  0.37060000  1.0
  C  C46  1  0.68278000  0.71451000  0.62940000  1.0
  C  C47  1  0.12733000  0.08490000  0.35042000  1.0
  C  C48  1  0.87267000  0.91510000  0.64959000  1.0
  C  C49  1  0.10962000  0.92609000  0.35074000  1.0
  C  C50  1  0.89038000  0.07391000  0.64926000  1.0
  S  S51  1  0.46366000  0.26596000  0.81447000  1.0
  S  S52  1  0.53634000  0.73404000  0.18553000  1.0
  N  N53  1  0.41387000  0.25702000  0.15404000  1.0
  N  N54  1  0.58613000  0.74299000  0.84597000  1.0
  N  N55  1  0.28230000  0.12010000  0.32493000  1.0
  N  N56  1  0.71770000  0.87990000  0.67508000  1.0
  N  N57  1  0.27019000  0.91212000  0.49153000  1.0
  N  N58  1  0.72981000  0.08788000  0.50847000  1.0
  O  O59  1  0.38528000  0.40058000  0.77957000  1.0
  O  O60  1  0.61473000  0.59942000  0.22043000  1.0
  O  O61  1  0.55540000  0.21087000  0.71045000  1.0
  O  O62  1  0.44461000  0.78914000  0.28955000  1.0
  O  O63  1  0.32344000  0.14854000  0.78246000  1.0
  O  O64  1  0.67657000  0.85146000  0.21754000  1.0
  O  O65  1  0.60017000  0.30905000  0.99338000  1.0
  O  O66  1  0.39984000  0.69096000  0.00662000  1.0
  O  O67  1  0.98757000  0.36499000  0.08800000  1.0
  O  O68  1  0.01243000  0.63500000  0.91200000  1.0
  O  O69  1  0.15716000  0.39097000  0.96625000  1.0
  O  O70  1  0.84284000  0.60902000  0.03375000  1.0
  O  O71  1  0.96301000  0.38340000  0.59918000  1.0
  O  O72  1  0.03699000  0.61659000  0.40081000  1.0
  O  O73  1  0.82323000  0.36324000  0.33082000  1.0
  O  O74  1  0.17675000  0.63674000  0.66916000  1.0
