# generated using pymatgen
data_CoH11C19(NO3)2
_symmetry_space_group_name_H-M   'P 1'
_cell_length_a   10.93310000
_cell_length_b   16.48940000
_cell_length_c   16.48845008
_cell_angle_alpha   120.00571777
_cell_angle_beta   90.00000001
_cell_angle_gamma   89.99990000
_symmetry_Int_Tables_number   1
_chemical_formula_structural   CoH11C19(NO3)2
_chemical_formula_sum   'Co3 H33 C57 N6 O18'
_cell_volume   2574.14859851
_cell_formula_units_Z   3
loop_
 _symmetry_equiv_pos_site_id
 _symmetry_equiv_pos_as_xyz
  1  'x, y, z'
loop_
 _atom_site_type_symbol
 _atom_site_label
 _atom_site_symmetry_multiplicity
 _atom_site_fract_x
 _atom_site_fract_y
 _atom_site_fract_z
 _atom_site_occupancy
  Co  Co0  1  0.00000000  0.32245000  0.00002000  1.0
  Co  Co1  1  0.00000000  0.67746000  0.67738000  1.0
  Co  Co2  1  0.00000000  0.00010000  0.32255000  1.0
  H  H3  1  0.00000000  0.71327000  0.21157000  1.0
  H  H4  1  0.00000000  0.49819000  0.28678000  1.0
  H  H5  1  0.00000000  0.78848000  0.50187000  1.0
  H  H6  1  1.00000000  0.21138000  0.71305000  1.0
  H  H7  1  0.00000000  0.50168000  0.78821000  1.0
  H  H8  1  0.00000000  0.28650000  0.49795000  1.0
  H  H9  1  0.00000000  0.99987000  0.84877000  1.0
  H  H10  1  0.00000000  0.84866000  0.00004000  1.0
  H  H11  1  0.00000000  0.15117000  0.15131000  1.0
  H  H12  1  0.40847000  0.40217000  0.15207000  1.0
  H  H13  1  0.59149000  0.74961000  0.59758000  1.0
  H  H14  1  0.40868000  0.84849000  0.25073000  1.0
  H  H15  1  0.59153000  0.40217000  0.15207000  1.0
  H  H16  1  0.40851000  0.74961000  0.59758000  1.0
  H  H17  1  0.59132000  0.84849000  0.25073000  1.0
  H  H18  1  0.40843000  0.15225000  0.40241000  1.0
  H  H19  1  0.59137000  0.25035000  0.84830000  1.0
  H  H20  1  0.40859000  0.59761000  0.74929000  1.0
  H  H21  1  0.59157000  0.15225000  0.40241000  1.0
  H  H22  1  0.40863000  0.25035000  0.84830000  1.0
  H  H23  1  0.59141000  0.59761000  0.74929000  1.0
  H  H24  1  0.18257000  0.39714000  0.14491000  1.0
  H  H25  1  0.81738000  0.74758000  0.60267000  1.0
  H  H26  1  0.18279000  0.85543000  0.25272000  1.0
  H  H27  1  0.81743000  0.39714000  0.14491000  1.0
  H  H28  1  0.18262000  0.74758000  0.60267000  1.0
  H  H29  1  0.81721000  0.85543000  0.25272000  1.0
  H  H30  1  0.18253000  0.14504000  0.39726000  1.0
  H  H31  1  0.81726000  0.25244000  0.85530000  1.0
  H  H32  1  0.18270000  0.60263000  0.74727000  1.0
  H  H33  1  0.81747000  0.14504000  0.39726000  1.0
  H  H34  1  0.18274000  0.25244000  0.85530000  1.0
  H  H35  1  0.81730000  0.60263000  0.74727000  1.0
  C  C36  1  0.00000000  0.08541000  0.00003000  1.0
  C  C37  1  0.00000000  0.91438000  0.91452000  1.0
  C  C38  1  0.00000000  0.99991000  0.08552000  1.0
  C  C39  1  0.00000000  0.59869000  0.23863000  1.0
  C  C40  1  0.00000000  0.63987000  0.40134000  1.0
  C  C41  1  0.00000000  0.76144000  0.36023000  1.0
  C  C42  1  0.99999000  0.23848000  0.59851000  1.0
  C  C43  1  0.99999000  0.36005000  0.76124000  1.0
  C  C44  1  0.99999000  0.40114000  0.63959000  1.0
  C  C45  1  0.00000000  0.69416000  0.26589000  1.0
  C  C46  1  0.00000000  0.57163000  0.30589000  1.0
  C  C47  1  1.00000000  0.73419000  0.42842000  1.0
  C  C48  1  0.99999000  0.26571000  0.69396000  1.0
  C  C49  1  0.99999000  0.42823000  0.73393000  1.0
  C  C50  1  0.99999000  0.30569000  0.57141000  1.0
  C  C51  1  1.00000000  0.99989000  0.91492000  1.0
  C  C52  1  0.00000000  0.91479000  0.00002000  1.0
  C  C53  1  0.00000000  0.08503000  0.08515000  1.0
  C  C54  1  0.36440000  0.36757000  0.08376000  1.0
  C  C55  1  0.63557000  0.71592000  0.63217000  1.0
  C  C56  1  0.36451000  0.91675000  0.28435000  1.0
  C  C57  1  0.63560000  0.36757000  0.08376000  1.0
  C  C58  1  0.36443000  0.71592000  0.63217000  1.0
  C  C59  1  0.63549000  0.91675000  0.28435000  1.0
  C  C60  1  0.36438000  0.08393000  0.36782000  1.0
  C  C61  1  0.63551000  0.28403000  0.91658000  1.0
  C  C62  1  0.36447000  0.63225000  0.71566000  1.0
  C  C63  1  0.63562000  0.08393000  0.36782000  1.0
  C  C64  1  0.36449000  0.28403000  0.91658000  1.0
  C  C65  1  0.63553000  0.63225000  0.71566000  1.0
  C  C66  1  0.00000000  0.17635000  0.99999000  1.0
  C  C67  1  0.00000000  0.82343000  0.82357000  1.0
  C  C68  1  0.00000000  0.99989000  0.17644000  1.0
  C  C69  1  0.23765000  0.36520000  0.08144000  1.0
  C  C70  1  0.76232000  0.71603000  0.63458000  1.0
  C  C71  1  0.23777000  0.91894000  0.28420000  1.0
  C  C72  1  0.76235000  0.36520000  0.08144000  1.0
  C  C73  1  0.23768000  0.71603000  0.63458000  1.0
  C  C74  1  0.76223000  0.91894000  0.28420000  1.0
  C  C75  1  0.23762000  0.08159000  0.36538000  1.0
  C  C76  1  0.76226000  0.28394000  0.91880000  1.0
  C  C77  1  0.23772000  0.63463000  0.71579000  1.0
  C  C78  1  0.76237000  0.08159000  0.36538000  1.0
  C  C79  1  0.23774000  0.28394000  0.91880000  1.0
  C  C80  1  0.76228000  0.63463000  0.71579000  1.0
  C  C81  1  0.43238000  0.32625000  0.00019000  1.0
  C  C82  1  0.56762000  0.67364000  0.67346000  1.0
  C  C83  1  0.43238000  0.00037000  0.32656000  1.0
  C  C84  1  0.56762000  0.32625000  0.00019000  1.0
  C  C85  1  0.43238000  0.67364000  0.67346000  1.0
  C  C86  1  0.56762000  0.00037000  0.32656000  1.0
  C  C87  1  0.00000000  0.53153000  0.13443000  1.0
  C  C88  1  0.00000000  0.60286000  0.46848000  1.0
  C  C89  1  0.99999000  0.86570000  0.39754000  1.0
  C  C90  1  0.00002000  0.13436000  0.53135000  1.0
  C  C91  1  0.00000000  0.39723000  0.86549000  1.0
  C  C92  1  0.00000000  0.46810000  0.60230000  1.0
  N  N93  1  0.17494000  0.32411000  0.00009000  1.0
  N  N94  1  0.82505000  0.67581000  0.67568000  1.0
  N  N95  1  0.17495000  0.00023000  0.32429000  1.0
  N  N96  1  0.82506000  0.32411000  0.00009000  1.0
  N  N97  1  0.17495000  0.67581000  0.67568000  1.0
  N  N98  1  0.82505000  0.00023000  0.32429000  1.0
  O  O99  1  0.00000000  0.44213000  0.11143000  1.0
  O  O100  1  0.00000000  0.66931000  0.55785000  1.0
  O  O101  1  0.00000000  0.88894000  0.33133000  1.0
  O  O102  1  0.99999000  0.11150000  0.44201000  1.0
  O  O103  1  0.00000000  0.33095000  0.88865000  1.0
  O  O104  1  0.00000000  0.55755000  0.66856000  1.0
  O  O105  1  0.00000000  0.17926000  0.92350000  1.0
  O  O106  1  0.00000000  0.74398000  0.82056000  1.0
  O  O107  1  0.00000000  0.07638000  0.25588000  1.0
  O  O108  1  0.00000000  0.92342000  0.17939000  1.0
  O  O109  1  0.00000000  0.25581000  0.07646000  1.0
  O  O110  1  1.00000000  0.82051000  0.74415000  1.0
  O  O111  1  0.99999000  0.56605000  0.08385000  1.0
  O  O112  1  0.99999000  0.51776000  0.43397000  1.0
  O  O113  1  0.99997000  0.91597000  0.48270000  1.0
  O  O114  1  0.00007000  0.08369000  0.56577000  1.0
  O  O115  1  0.00001000  0.48238000  0.91591000  1.0
  O  O116  1  0.00002000  0.43324000  0.51715000  1.0
