# generated using pymatgen
data_CoH4C6(NO2)2
_symmetry_space_group_name_H-M   'P 1'
_cell_length_a   8.86895000
_cell_length_b   9.33524000
_cell_length_c   10.47070000
_cell_angle_alpha   90.00000000
_cell_angle_beta   90.00010000
_cell_angle_gamma   89.99970000
_symmetry_Int_Tables_number   1
_chemical_formula_structural   CoH4C6(NO2)2
_chemical_formula_sum   'Co4 H16 C24 N8 O16'
_cell_volume   866.90879871
_cell_formula_units_Z   4
loop_
 _symmetry_equiv_pos_site_id
 _symmetry_equiv_pos_as_xyz
  1  'x, y, z'
loop_
 _atom_site_type_symbol
 _atom_site_label
 _atom_site_symmetry_multiplicity
 _atom_site_fract_x
 _atom_site_fract_y
 _atom_site_fract_z
 _atom_site_occupancy
  Co  Co0  1  0.79450000  0.55525000  0.27442000  1.0
  Co  Co1  1  0.70551000  0.44475000  0.77442000  1.0
  Co  Co2  1  0.29449000  0.94475000  0.72558000  1.0
  Co  Co3  1  0.20551000  0.05525000  0.22558000  1.0
  H  H4  1  0.04307000  0.34491000  0.17728000  1.0
  H  H5  1  0.45692000  0.65509000  0.67729000  1.0
  H  H6  1  0.54307000  0.15509000  0.82272000  1.0
  H  H7  1  0.95694000  0.84491000  0.32272000  1.0
  H  H8  1  0.43283000  0.20693000  0.05769000  1.0
  H  H9  1  0.06717000  0.79307000  0.55769000  1.0
  H  H10  1  0.93283000  0.29307000  0.94231000  1.0
  H  H11  1  0.56717000  0.70693000  0.44231000  1.0
  H  H12  1  0.34519000  0.22576000  0.44860000  1.0
  H  H13  1  0.15480000  0.77424000  0.94860000  1.0
  H  H14  1  0.84519000  0.27424000  0.55140000  1.0
  H  H15  1  0.65481000  0.72576000  0.05140000  1.0
  H  H16  1  0.55533000  0.40403000  0.47591000  1.0
  H  H17  1  0.94468000  0.59597000  0.97591000  1.0
  H  H18  1  0.05532000  0.09597000  0.52409000  1.0
  H  H19  1  0.44468000  0.90403000  0.02409000  1.0
  C  C20  1  0.00606000  0.30845000  0.27301000  1.0
  C  C21  1  0.49394000  0.69155000  0.77301000  1.0
  C  C22  1  0.50606000  0.19155000  0.72700000  1.0
  C  C23  1  0.99395000  0.80846000  0.22699000  1.0
  C  C24  1  0.67672000  0.39305000  0.05844000  1.0
  C  C25  1  0.82328000  0.60694000  0.55845000  1.0
  C  C26  1  0.17673000  0.10693000  0.94155000  1.0
  C  C27  1  0.32327000  0.89306000  0.44155000  1.0
  C  C28  1  0.57708000  0.34783000  0.16667000  1.0
  C  C29  1  0.92292000  0.65217000  0.66666667  1.0
  C  C30  1  0.07708000  0.15217000  0.83333000  1.0
  C  C31  1  0.42292000  0.84783000  0.33333333  1.0
  C  C32  1  0.45903000  0.25146000  0.15114000  1.0
  C  C33  1  0.04097000  0.74854000  0.65114000  1.0
  C  C34  1  0.95903000  0.24854000  0.84886000  1.0
  C  C35  1  0.54096000  0.75146000  0.34885000  1.0
  C  C36  1  0.40953000  0.26346000  0.36652000  1.0
  C  C37  1  0.09047000  0.73654000  0.86652000  1.0
  C  C38  1  0.90953000  0.23653000  0.63348000  1.0
  C  C39  1  0.59047000  0.76347000  0.13348000  1.0
  C  C40  1  0.52659000  0.36178000  0.38193000  1.0
  C  C41  1  0.97341000  0.63821000  0.88193000  1.0
  C  C42  1  0.02658000  0.13822000  0.61807000  1.0
  C  C43  1  0.47342000  0.86178000  0.11807000  1.0
  N  N44  1  0.60994000  0.40508000  0.28198000  1.0
  N  N45  1  0.89006000  0.59492000  0.78197000  1.0
  N  N46  1  0.10994000  0.09492000  0.71803000  1.0
  N  N47  1  0.39006000  0.90508000  0.21802000  1.0
  N  N48  1  0.37417000  0.20940000  0.25087000  1.0
  N  N49  1  0.12582000  0.79060000  0.75087000  1.0
  N  N50  1  0.87417000  0.29060000  0.74913000  1.0
  N  N51  1  0.62582000  0.70939000  0.24913000  1.0
  O  O52  1  0.92463000  0.39169000  0.33953000  1.0
  O  O53  1  0.57538000  0.60831000  0.83953000  1.0
  O  O54  1  0.42462000  0.10831000  0.66047000  1.0
  O  O55  1  0.07538000  0.89170000  0.16047000  1.0
  O  O56  1  0.04691000  0.18519000  0.31090000  1.0
  O  O57  1  0.45309000  0.81481000  0.81090000  1.0
  O  O58  1  0.54691000  0.31481000  0.68911000  1.0
  O  O59  1  0.95309000  0.68519000  0.18910000  1.0
  O  O60  1  0.78478000  0.47679000  0.08760000  1.0
  O  O61  1  0.71522000  0.52321000  0.58760000  1.0
  O  O62  1  0.28478000  0.02322000  0.91241000  1.0
  O  O63  1  0.21522000  0.97679000  0.41240000  1.0
  O  O64  1  0.64922000  0.34452000  0.94812000  1.0
  O  O65  1  0.85079000  0.65548000  0.44811000  1.0
  O  O66  1  0.14921000  0.15548000  0.05189000  1.0
  O  O67  1  0.35078000  0.84452000  0.55189000  1.0
