# generated using pymatgen
data_MgH6C12N2O3
_symmetry_space_group_name_H-M   'P 1'
_cell_length_a   6.86786000
_cell_length_b   33.29880000
_cell_length_c   33.30640000
_cell_angle_alpha   119.51900000
_cell_angle_beta   93.91780000
_cell_angle_gamma   93.95850000
_symmetry_Int_Tables_number   1
_chemical_formula_structural   MgH6C12N2O3
_chemical_formula_sum   'Mg6 H36 C72 N12 O18'
_cell_volume   6566.23984327
_cell_formula_units_Z   6
loop_
 _symmetry_equiv_pos_site_id
 _symmetry_equiv_pos_as_xyz
  1  'x, y, z'
loop_
 _atom_site_type_symbol
 _atom_site_label
 _atom_site_symmetry_multiplicity
 _atom_site_fract_x
 _atom_site_fract_y
 _atom_site_fract_z
 _atom_site_occupancy
  Mg  Mg0  1  0.74290000  0.69255000  0.32378000  1.0
  Mg  Mg1  1  0.05050000  0.63116000  0.30743000  1.0
  Mg  Mg2  1  0.41902000  0.67622000  0.36880000  1.0
  Mg  Mg3  1  0.32901000  0.30448000  0.67136000  1.0
  Mg  Mg4  1  0.02461000  0.36682000  0.69547000  1.0
  Mg  Mg5  1  0.65773000  0.32861000  0.63311000  1.0
  H  H6  1  0.80490000  0.43239000  0.82736000  1.0
  H  H7  1  0.37238000  0.39505000  0.56751000  1.0
  H  H8  1  0.97691000  0.17251000  0.60514000  1.0
  H  H9  1  0.62712000  0.46037000  0.89780000  1.0
  H  H10  1  0.16636000  0.43740000  0.53947000  1.0
  H  H11  1  0.72854000  0.10211000  0.56277000  1.0
  H  H12  1  0.08504000  0.39016000  0.80871000  1.0
  H  H13  1  0.69476000  0.41840000  0.60976000  1.0
  H  H14  1  0.27597000  0.19131000  0.58156000  1.0
  H  H15  1  0.45067000  0.52948000  0.01118000  1.0
  H  H16  1  0.92039000  0.48181000  0.47051000  1.0
  H  H17  1  0.43872000  0.98858000  0.51812000  1.0
  H  H18  1  0.28925000  0.56401000  0.08472000  1.0
  H  H19  1  0.72401000  0.52080000  0.43603000  1.0
  H  H20  1  0.20337000  0.91511000  0.47910000  1.0
  H  H21  1  0.43518000  0.51329000  0.10791000  1.0
  H  H22  1  0.92123000  0.59483000  0.48695000  1.0
  H  H23  1  0.32613000  0.89210000  0.40522000  1.0
  H  H24  1  0.26662000  0.54904000  0.18008000  1.0
  H  H25  1  0.71687000  0.63113000  0.45105000  1.0
  H  H26  1  0.08563000  0.81987000  0.36883000  1.0
  H  H27  1  0.97606000  0.59759000  0.18704000  1.0
  H  H28  1  0.37789000  0.58955000  0.40257000  1.0
  H  H29  1  0.78797000  0.81300000  0.41045000  1.0
  H  H30  1  0.69176000  0.46189000  0.04732000  1.0
  H  H31  1  0.22937000  0.58548000  0.53834000  1.0
  H  H32  1  0.64477000  0.95268000  0.41426000  1.0
  H  H33  1  0.53401000  0.39058000  0.97783000  1.0
  H  H34  1  0.14384000  0.58742000  0.60979000  1.0
  H  H35  1  0.55710000  0.02225000  0.41247000  1.0
  H  H36  1  0.68951000  0.35806000  0.90390000  1.0
  H  H37  1  0.33189000  0.54589000  0.64216000  1.0
  H  H38  1  0.78610000  0.09624000  0.45419000  1.0
  H  H39  1  0.00139000  0.39738000  0.90102000  1.0
  H  H40  1  0.60369000  0.50354000  0.60264000  1.0
  H  H41  1  0.10025000  0.09907000  0.49653000  1.0
  C  C42  1  0.66488000  0.38057000  0.73913000  1.0
  C  C43  1  0.28431000  0.35857000  0.61936000  1.0
  C  C44  1  0.92555000  0.26078000  0.64141000  1.0
  C  C45  1  0.54847000  0.39443000  0.77850000  1.0
  C  C46  1  0.15414000  0.38410000  0.60551000  1.0
  C  C47  1  0.76968000  0.22141000  0.61592000  1.0
  C  C48  1  0.64694000  0.42301000  0.82393000  1.0
  C  C49  1  0.22382000  0.40098000  0.57691000  1.0
  C  C50  1  0.82247000  0.17596000  0.59913000  1.0
  C  C51  1  0.54998000  0.43897000  0.86298000  1.0
  C  C52  1  0.11074000  0.42400000  0.56090000  1.0
  C  C53  1  0.68635000  0.13694000  0.57613000  1.0
  C  C54  1  0.34455000  0.42703000  0.85693000  1.0
  C  C55  1  0.91730000  0.42985000  0.57288000  1.0
  C  C56  1  0.48706000  0.14301000  0.57020000  1.0
  C  C57  1  0.24347000  0.39894000  0.81254000  1.0
  C  C58  1  0.84449000  0.41354000  0.60099000  1.0
  C  C59  1  0.43054000  0.18743000  0.58648000  1.0
  C  C60  1  0.34085000  0.38111000  0.77245000  1.0
  C  C61  1  0.95990000  0.39131000  0.61884000  1.0
  C  C62  1  0.56819000  0.22750000  0.60870000  1.0
  C  C63  1  0.21193000  0.47632000  0.97158000  1.0
  C  C64  1  0.73504000  0.49530000  0.52370000  1.0
  C  C65  1  0.23996000  0.02833000  0.50468000  1.0
  C  C66  1  0.30677000  0.51450000  0.01248000  1.0
  C  C67  1  0.79151000  0.49807000  0.48552000  1.0
  C  C68  1  0.29359000  0.98735000  0.50189000  1.0
  C  C69  1  0.21823000  0.53334000  0.05325000  1.0
  C  C70  1  0.68379000  0.51996000  0.46670000  1.0
  C  C71  1  0.16410000  0.94661000  0.47992000  1.0
  C  C72  1  0.03409000  0.51405000  0.05515000  1.0
  C  C73  1  0.51910000  0.54117000  0.48607000  1.0
  C  C74  1  0.97833000  0.94478000  0.45870000  1.0
  C  C75  1  0.71367000  0.55363000  0.14338000  1.0
  C  C76  1  0.15939000  0.58991000  0.44658000  1.0
  C  C77  1  0.56926000  0.85665000  0.41012000  1.0
  C  C78  1  0.51353000  0.53938000  0.14129000  1.0
  C  C79  1  0.97350000  0.60208000  0.46082000  1.0
  C  C80  1  0.37121000  0.85873000  0.39796000  1.0
  C  C81  1  0.42197000  0.55905000  0.18112000  1.0
  C  C82  1  0.86224000  0.62216000  0.44106000  1.0
  C  C83  1  0.23992000  0.81887000  0.37781000  1.0
  C  C84  1  0.52483000  0.59314000  0.22401000  1.0
  C  C85  1  0.93110000  0.63089000  0.40692000  1.0
  C  C86  1  0.30008000  0.77600000  0.36904000  1.0
  C  C87  1  0.41090000  0.61242000  0.26405000  1.0
  C  C88  1  0.79800000  0.65156000  0.38754000  1.0
  C  C89  1  0.14638000  0.73593000  0.34834000  1.0
  C  C90  1  0.73074000  0.60729000  0.22683000  1.0
  C  C91  1  0.12290000  0.61958000  0.39279000  1.0
  C  C92  1  0.50303000  0.77317000  0.38039000  1.0
  C  C93  1  0.82123000  0.58682000  0.18568000  1.0
  C  C94  1  0.23378000  0.59895000  0.41332000  1.0
  C  C95  1  0.63451000  0.81435000  0.40105000  1.0
  C  C96  1  0.93696000  0.47209000  0.01483000  1.0
  C  C97  1  0.46425000  0.54280000  0.52806000  1.0
  C  C98  1  0.92205000  0.98516000  0.45707000  1.0
  C  C99  1  0.75971000  0.44792000  0.01537000  1.0
  C  C100  1  0.31144000  0.56752000  0.55231000  1.0
  C  C101  1  0.74465000  0.98465000  0.43230000  1.0
  C  C102  1  0.67131000  0.40797000  0.97623000  1.0
  C  C103  1  0.26344000  0.56835000  0.59231000  1.0
  C  C104  1  0.69565000  0.02384000  0.43157000  1.0
  C  C105  1  0.75859000  0.38971000  0.93477000  1.0
  C  C106  1  0.36906000  0.54510000  0.61049000  1.0
  C  C107  1  0.82416000  0.06533000  0.45494000  1.0
  C  C108  1  0.93367000  0.41158000  0.93304000  1.0
  C  C109  1  0.52190000  0.52144000  0.58852000  1.0
  C  C110  1  0.00067000  0.06703000  0.47859000  1.0
  C  C111  1  0.02713000  0.45311000  0.97218000  1.0
  C  C112  1  0.57355000  0.51911000  0.54698000  1.0
  C  C113  1  0.05482000  0.02780000  0.48085000  1.0
  N  N114  1  0.22486000  0.44102000  0.89333000  1.0
  N  N115  1  0.78342000  0.45222000  0.55889000  1.0
  N  N116  1  0.33104000  0.10659000  0.54781000  1.0
  N  N117  1  0.31883000  0.46376000  0.93384000  1.0
  N  N118  1  0.85459000  0.47012000  0.53623000  1.0
  N  N119  1  0.38454000  0.06606000  0.52990000  1.0
  N  N120  1  0.96747000  0.53796000  0.09886000  1.0
  N  N121  1  0.42856000  0.56097000  0.46216000  1.0
  N  N122  1  0.86765000  0.90111000  0.43892000  1.0
  N  N123  1  0.78322000  0.53198000  0.09958000  1.0
  N  N124  1  0.25049000  0.56780000  0.46828000  1.0
  N  N125  1  0.68272000  0.90045000  0.43224000  1.0
  O  O126  1  0.23170000  0.59686000  0.25991000  1.0
  O  O127  1  0.63431000  0.66298000  0.40308000  1.0
  O  O128  1  0.97134000  0.74002000  0.33687000  1.0
  O  O129  1  0.49625000  0.64603000  0.30345000  1.0
  O  O130  1  0.85001000  0.65732000  0.35393000  1.0
  O  O131  1  0.19253000  0.69656000  0.34264000  1.0
  O  O132  1  0.83885000  0.63901000  0.26675000  1.0
  O  O133  1  0.19931000  0.62770000  0.36100000  1.0
  O  O134  1  0.57137000  0.73326000  0.37225000  1.0
  O  O135  1  0.84531000  0.39636000  0.74535000  1.0
  O  O136  1  0.44892000  0.34898000  0.60355000  1.0
  O  O137  1  0.09966000  0.25455000  0.65102000  1.0
  O  O138  1  0.57902000  0.35160000  0.69773000  1.0
  O  O139  1  0.22740000  0.34611000  0.64834000  1.0
  O  O140  1  0.88124000  0.30220000  0.65383000  1.0
  O  O141  1  0.23458000  0.35300000  0.73108000  1.0
  O  O142  1  0.88174000  0.37805000  0.64696000  1.0
  O  O143  1  0.50334000  0.26888000  0.62193000  1.0
