# generated using pymatgen
data_Zr6H13C52S10O32F7
_symmetry_space_group_name_H-M   'P 1'
_cell_length_a   16.44803835
_cell_length_b   16.45050000
_cell_length_c   16.45370000
_cell_angle_alpha   119.75200000
_cell_angle_beta   119.75078279
_cell_angle_gamma   88.69441794
_symmetry_Int_Tables_number   1
_chemical_formula_structural   Zr6H13C52S10O32F7
_chemical_formula_sum   'Zr6 H13 C52 S10 O32 F7'
_cell_volume   3204.83033753
_cell_formula_units_Z   1
loop_
 _symmetry_equiv_pos_site_id
 _symmetry_equiv_pos_as_xyz
  1  'x, y, z'
loop_
 _atom_site_type_symbol
 _atom_site_label
 _atom_site_symmetry_multiplicity
 _atom_site_fract_x
 _atom_site_fract_y
 _atom_site_fract_z
 _atom_site_occupancy
  Zr  Zr0  1  0.59760000  0.09749000  0.48548000  1.0
  Zr  Zr1  1  0.39843000  0.89824000  0.51002000  1.0
  Zr  Zr2  1  0.60720000  0.10680000  0.70953000  1.0
  Zr  Zr3  1  0.38951000  0.88900000  0.28670000  1.0
  Zr  Zr4  1  0.38911000  0.10732000  0.49810000  1.0
  Zr  Zr5  1  0.60773000  0.88893000  0.49813000  1.0
  H  H6  1  0.57675000  0.24764000  0.65465000  1.0
  H  H7  1  0.24845000  0.91934000  0.34104000  1.0
  H  H8  1  0.59018000  0.91865000  0.67316000  1.0
  H  H9  1  0.57763000  0.90603000  0.32242000  1.0
  H  H10  1  0.36205000  0.38903000  0.48771000  1.0
  H  H11  1  0.89950000  0.87300000  0.50948000  1.0
  H  H12  1  0.11726000  0.87443000  0.98575000  1.0
  H  H13  1  0.36413000  0.60553000  0.98679000  1.0
  H  H14  1  0.87135000  0.36439000  0.97360000  1.0
  H  H15  1  0.85187000  0.34546000  0.69309000  1.0
  H  H16  1  0.13134000  0.62453000  0.02157000  1.0
  H  H17  1  0.15068000  0.64404000  0.30218000  1.0
  H  H18  1  0.61088000  0.12389000  0.23218000  1.0
  C  C19  1  0.48467000  0.26140000  0.47895000  1.0
  C  C20  1  0.23516000  0.01225000  0.51689000  1.0
  C  C21  1  0.50521000  0.72794000  0.50255000  1.0
  C  C22  1  0.76843000  0.99173000  0.49292000  1.0
  C  C23  1  0.76554000  0.25947000  0.74663000  1.0
  C  C24  1  0.48634000  0.99369000  0.21746000  1.0
  C  C25  1  0.23649000  0.73034000  0.24841000  1.0
  C  C26  1  0.50151000  0.00906000  0.77713000  1.0
  C  C27  1  0.49605000  0.26983000  0.76870000  1.0
  C  C28  1  0.77757000  0.00285000  0.76796000  1.0
  C  C29  1  0.49392000  0.71890000  0.22787000  1.0
  C  C30  1  0.22654000  0.00047000  0.22703000  1.0
  C  C31  1  0.56279000  0.57745000  0.48982000  1.0
  C  C32  1  0.42360000  0.40779000  0.48553000  1.0
  C  C33  1  0.50137000  0.63619000  0.49635000  1.0
  C  C34  1  0.48642000  0.35109000  0.47998000  1.0
  C  C35  1  0.45168000  0.49026000  0.48862000  1.0
  C  C36  1  0.53559000  0.49399000  0.48538000  1.0
  C  C37  1  0.08775000  0.07326000  0.51090000  1.0
  C  C38  1  0.91852000  0.93472000  0.50772000  1.0
  C  C39  1  0.14641000  0.01176000  0.51716000  1.0
  C  C40  1  0.86095000  0.99657000  0.50011000  1.0
  C  C41  1  0.00161000  0.96331000  0.51204000  1.0
  C  C42  1  0.00492000  0.04672000  0.50783000  1.0
  C  C43  1  0.91676000  0.06980000  0.97355000  1.0
  C  C44  1  0.09275000  0.93667000  0.02222000  1.0
  C  C45  1  0.86709000  0.00414000  0.85729000  1.0
  C  C46  1  0.14000000  0.00283000  0.13763000  1.0
  C  C47  1  0.01136000  0.96166000  0.96261000  1.0
  C  C48  1  0.99891000  0.04674000  0.03474000  1.0
  C  C49  1  0.55981000  0.40542000  0.97455000  1.0
  C  C50  1  0.42618000  0.58085000  0.02332000  1.0
  C  C51  1  0.49424000  0.35595000  0.85829000  1.0
  C  C52  1  0.49318000  0.62904000  0.13872000  1.0
  C  C53  1  0.45070000  0.49899000  0.96369000  1.0
  C  C54  1  0.53621000  0.48698000  0.03581000  1.0
  C  C55  1  0.89968000  0.39274000  0.94238000  1.0
  C  C56  1  0.88881000  0.38216000  0.78381000  1.0
  C  C57  1  0.96920000  0.46291000  0.85807000  1.0
  C  C58  1  0.01996000  0.51332000  0.97696000  1.0
  C  C59  1  0.10309000  0.59619000  0.05284000  1.0
  C  C60  1  0.11393000  0.60707000  0.21145000  1.0
  C  C61  1  0.03313000  0.52664000  0.13721000  1.0
  C  C62  1  0.98259000  0.47588000  0.01828000  1.0
  C  C63  1  0.85388000  0.34681000  0.82725000  1.0
  C  C64  1  0.14918000  0.64203000  0.16798000  1.0
  C  C65  1  0.43084000  0.94335000  0.84823000  1.0
  C  C66  1  0.55164000  0.06491000  0.14786000  1.0
  C  C67  1  0.49727000  0.00935000  0.86400000  1.0
  C  C68  1  0.48534000  0.99719000  0.12950000  1.0
  C  C69  1  0.53122000  0.04525000  0.04476000  1.0
  C  C70  1  0.44918000  0.96264000  0.95025000  1.0
  S  S71  1  0.40816000  0.58861000  0.49685000  1.0
  S  S72  1  0.57976000  0.39656000  0.47825000  1.0
  S  S73  1  0.09989000  0.91967000  0.51993000  1.0
  S  S74  1  0.90668000  0.08999000  0.49871000  1.0
  S  S75  1  0.92226000  0.91208000  0.82194000  1.0
  S  S76  1  0.08676000  0.09603000  0.17510000  1.0
  S  S77  1  0.40120000  0.41008000  0.82297000  1.0
  S  S78  1  0.58622000  0.57559000  0.17617000  1.0
  S  S79  1  0.58369000  0.09733000  0.00652000  1.0
  S  S80  1  0.39736000  0.90943000  0.98767000  1.0
  O  O81  1  0.55251000  0.22328000  0.47530000  1.0
  O  O82  1  0.27234000  0.94367000  0.51960000  1.0
  O  O83  1  0.43843000  0.76683000  0.50876000  1.0
  O  O84  1  0.72865000  0.05775000  0.48577000  1.0
  O  O85  1  0.73458000  0.22930000  0.78713000  1.0
  O  O86  1  0.42049000  0.92544000  0.18659000  1.0
  O  O87  1  0.26664000  0.76123000  0.20774000  1.0
  O  O88  1  0.56997000  0.07523000  0.80880000  1.0
  O  O89  1  0.42689000  0.23758000  0.66667000  1.0
  O  O90  1  0.74344000  0.93201000  0.66601000  1.0
  O  O91  1  0.56468000  0.75376000  0.32986000  1.0
  O  O92  1  0.25959000  0.06956000  0.32917000  1.0
  O  O93  1  0.74014000  0.07182000  0.79950000  1.0
  O  O94  1  0.42433000  0.75546000  0.19525000  1.0
  O  O95  1  0.26058000  0.92852000  0.19461000  1.0
  O  O96  1  0.56735000  0.23479000  0.79995000  1.0
  O  O97  1  0.72653000  0.22233000  0.64169000  1.0
  O  O98  1  0.43570000  0.94007000  0.67525000  1.0
  O  O99  1  0.27366000  0.76941000  0.35325000  1.0
  O  O100  1  0.55560000  0.05997000  0.31891000  1.0
  O  O101  1  0.73513000  0.92255000  0.49326000  1.0
  O  O102  1  0.41798000  0.23034000  0.48413000  1.0
  O  O103  1  0.26692000  0.07857000  0.51163000  1.0
  O  O104  1  0.57413000  0.76201000  0.50231000  1.0
  O  O105  1  0.55456000  0.93126000  0.37178000  1.0
  O  O106  1  0.56494000  0.94164000  0.62371000  1.0
  O  O107  1  0.31947000  0.94212000  0.38576000  1.0
  O  O108  1  0.55388000  0.17662000  0.60946000  1.0
  O  O109  1  0.45678000  0.04713000  0.59037000  1.0
  O  O110  1  0.44871000  0.03935000  0.40469000  1.0
  O  O111  1  0.45731000  0.86608000  0.41518000  1.0
  O  O112  1  0.63007000  0.03901000  0.58033000  1.0
  F  F113  1  0.64083000  0.59665000  0.48826000  1.0
  F  F114  1  0.10585000  0.15009000  0.50696000  1.0
  F  F115  1  0.89050000  0.14766000  0.02505000  1.0
  F  F116  1  0.63867000  0.38017000  0.02596000  1.0
  F  F117  1  0.35642000  0.86757000  0.74740000  1.0
  F  F118  1  0.99848000  0.49268000  0.17801000  1.0
  F  F119  1  0.00330000  0.49773000  0.81738000  1.0
