# generated using pymatgen
data_AlH9C24N3(ClO2)3
_symmetry_space_group_name_H-M   'P 1'
_cell_length_a   3.95077000
_cell_length_b   15.71080000
_cell_length_c   15.82443659
_cell_angle_alpha   119.48752608
_cell_angle_beta   90.63749472
_cell_angle_gamma   96.65950000
_symmetry_Int_Tables_number   1
_chemical_formula_structural   AlH9C24N3(ClO2)3
_chemical_formula_sum   'Al1 H9 C24 N3 Cl3 O6'
_cell_volume   846.56951662
_cell_formula_units_Z   1
loop_
 _symmetry_equiv_pos_site_id
 _symmetry_equiv_pos_as_xyz
  1  'x, y, z'
loop_
 _atom_site_type_symbol
 _atom_site_label
 _atom_site_symmetry_multiplicity
 _atom_site_fract_x
 _atom_site_fract_y
 _atom_site_fract_z
 _atom_site_occupancy
  Al  Al0  1  0.98250000  0.99855000  0.50172000  1.0
  H  H1  1  0.51740000  0.08972000  0.95757000  1.0
  H  H2  1  0.40680000  0.36188000  0.40535000  1.0
  H  H3  1  0.36604000  0.54126000  0.12917000  1.0
  H  H4  1  0.45244000  0.73001000  0.49057000  1.0
  H  H5  1  0.44117000  0.54655000  0.40314000  1.0
  H  H6  1  0.60750000  0.01206000  0.24767000  1.0
  H  H7  1  0.56870000  0.09488000  0.14759000  1.0
  H  H8  1  0.49716000  0.26101000  0.76456000  1.0
  H  H9  1  0.46162000  0.35530000  0.94534000  1.0
  C  C10  1  0.51640000  0.06780000  0.65127000  1.0
  C  C11  1  0.41631000  0.84733000  0.41792000  1.0
  C  C12  1  0.51421000  0.08196000  0.43395000  1.0
  C  C13  1  0.51895000  0.12263000  0.75978000  1.0
  C  C14  1  0.51565000  0.13863000  0.38124000  1.0
  C  C15  1  0.39494000  0.73772000  0.35959000  1.0
  C  C16  1  0.52530000  0.07469000  0.81465000  1.0
  C  C17  1  0.50960000  0.12687000  0.91508000  1.0
  C  C18  1  0.45787000  0.23787000  0.42555000  1.0
  C  C19  1  0.44565000  0.28473000  0.37061000  1.0
  C  C20  1  0.36662000  0.68391000  0.25734000  1.0
  C  C21  1  0.37512000  0.58233000  0.20832000  1.0
  C  C22  1  0.42468000  0.68718000  0.41125000  1.0
  C  C23  1  0.42095000  0.58570000  0.36297000  1.0
  C  C24  1  0.56136000  0.08871000  0.28108000  1.0
  C  C25  1  0.54008000  0.13437000  0.22552000  1.0
  C  C26  1  0.50030000  0.22419000  0.80765000  1.0
  C  C27  1  0.48007000  0.27662000  0.90784000  1.0
  C  C28  1  0.48407000  0.22810000  0.96222000  1.0
  C  C29  1  0.46586000  0.28265000  0.06892000  1.0
  C  C30  1  0.48246000  0.23329000  0.27037000  1.0
  C  C31  1  0.46433000  0.28472000  0.21367000  1.0
  C  C32  1  0.40068000  0.53260000  0.26073000  1.0
  C  C33  1  0.41994000  0.42538000  0.20883000  1.0
  N  N34  1  0.48625000  0.23241000  0.11703000  1.0
  N  N35  1  0.42959000  0.38112000  0.26290000  1.0
  N  N36  1  0.43261000  0.37911000  0.11155000  1.0
  Cl  Cl37  1  0.56610000  0.95050000  0.75862000  1.0
  Cl  Cl38  1  0.34155000  0.74210000  0.18937000  1.0
  Cl  Cl39  1  0.41566000  0.30741000  0.54902000  1.0
  O  O40  1  0.72632000  0.02028000  0.41149000  1.0
  O  O41  1  0.76730000  0.09048000  0.61318000  1.0
  O  O42  1  0.66582000  0.89027000  0.48319000  1.0
  O  O43  1  0.29330000  0.09630000  0.49593000  1.0
  O  O44  1  0.19104000  0.89037000  0.40221000  1.0
  O  O45  1  0.25539000  0.00436000  0.60496000  1.0
