# generated using pymatgen
data_Zn4H8C40Br4Cl8O13
_symmetry_space_group_name_H-M   'P 1'
_cell_length_a   23.88366166
_cell_length_b   23.88390000
_cell_length_c   23.88200000
_cell_angle_alpha   66.89470000
_cell_angle_beta   72.31159312
_cell_angle_gamma   107.68506894
_symmetry_Int_Tables_number   1
_chemical_formula_structural   Zn4H8C40Br4Cl8O13
_chemical_formula_sum   'Zn8 H16 C80 Br8 Cl16 O26'
_cell_volume   10454.87844773
_cell_formula_units_Z   2
loop_
 _symmetry_equiv_pos_site_id
 _symmetry_equiv_pos_as_xyz
  1  'x, y, z'
loop_
 _atom_site_type_symbol
 _atom_site_label
 _atom_site_symmetry_multiplicity
 _atom_site_fract_x
 _atom_site_fract_y
 _atom_site_fract_z
 _atom_site_occupancy
  Zn  Zn0  1  0.05753000  0.09961000  0.45790000  1.0
  Zn  Zn1  1  0.05752000  0.95791000  0.48456000  1.0
  Zn  Zn2  1  0.94247000  0.95790000  0.59962000  1.0
  Zn  Zn3  1  0.94249000  0.98458000  0.45790000  1.0
  Zn  Zn4  1  0.94248000  0.40039000  0.04209000  1.0
  Zn  Zn5  1  0.05753000  0.54209000  0.90038000  1.0
  Zn  Zn6  1  0.94248000  0.54209000  0.01543000  1.0
  Zn  Zn7  1  0.05751000  0.51543000  0.04210000  1.0
  H  H8  1  0.92375000  0.27165000  0.96388000  1.0
  H  H9  1  0.07625000  0.46389000  0.77161000  1.0
  H  H10  1  0.92374000  0.03610000  0.72839000  1.0
  H  H11  1  0.07619000  0.22836000  0.53610000  1.0
  H  H12  1  0.07627000  0.61241000  0.15207000  1.0
  H  H13  1  0.92376000  0.65214000  0.11234000  1.0
  H  H14  1  0.07619000  0.84782000  0.38770000  1.0
  H  H15  1  0.92374000  0.88763000  0.34789000  1.0
  H  H16  1  0.73553000  0.27165000  0.15213000  1.0
  H  H17  1  0.73552000  0.46390000  0.11234000  1.0
  H  H18  1  0.26449000  0.03611000  0.38766000  1.0
  H  H19  1  0.26448000  0.22834000  0.34793000  1.0
  H  H20  1  0.26449000  0.65217000  0.77163000  1.0
  H  H21  1  0.26447000  0.61234000  0.96392000  1.0
  H  H22  1  0.73553000  0.88767000  0.53608000  1.0
  H  H23  1  0.73551000  0.84790000  0.72835000  1.0
  C  C24  1  0.18224000  0.09111000  0.40890000  1.0
  C  C25  1  0.00000000  0.86327000  0.63673000  1.0
  C  C26  1  0.99998000  0.09111000  0.59113000  1.0
  C  C27  1  0.81776000  0.90890000  0.59110000  1.0
  C  C28  1  0.00001000  0.13674000  0.36326000  1.0
  C  C29  1  0.99999000  0.90887000  0.40889000  1.0
  C  C30  1  0.00001000  0.40890000  0.90886000  1.0
  C  C31  1  0.00001000  0.63673000  0.86326000  1.0
  C  C32  1  0.81776000  0.40889000  0.09113000  1.0
  C  C33  1  0.00000000  0.59114000  0.09111000  1.0
  C  C34  1  0.00000000  0.36327000  0.13673000  1.0
  C  C35  1  0.18224000  0.59112000  0.90890000  1.0
  C  C36  1  0.00000000  0.19484000  0.30516000  1.0
  C  C37  1  0.00000000  0.30516000  0.19484000  1.0
  C  C38  1  0.95696000  0.18004000  0.27692000  1.0
  C  C39  1  0.04304000  0.31996000  0.22308000  1.0
  C  C40  1  0.95696000  0.23388000  0.22308000  1.0
  C  C41  1  0.04305000  0.26613000  0.27691000  1.0
  C  C42  1  0.00000000  0.80516000  0.69484000  1.0
  C  C43  1  0.00001000  0.69485000  0.80515000  1.0
  C  C44  1  0.95696000  0.77692000  0.76613000  1.0
  C  C45  1  0.04305000  0.72309000  0.73386000  1.0
  C  C46  1  0.95696000  0.72308000  0.81997000  1.0
  C  C47  1  0.04304000  0.77692000  0.68004000  1.0
  C  C48  1  0.00000000  0.37143000  0.87140000  1.0
  C  C49  1  0.95695000  0.29974000  0.90821000  1.0
  C  C50  1  0.95703000  0.26502000  0.87326000  1.0
  C  C51  1  0.99999000  0.30056000  0.80054000  1.0
  C  C52  1  0.04296000  0.37327000  0.76500000  1.0
  C  C53  1  0.04305000  0.40823000  0.79971000  1.0
  C  C54  1  0.99999000  0.26532000  0.76530000  1.0
  C  C55  1  0.99999000  0.23470000  0.73467000  1.0
  C  C56  1  0.99997000  0.19945000  0.69945000  1.0
  C  C57  1  0.95702000  0.12674000  0.73500000  1.0
  C  C58  1  0.95693000  0.09178000  0.70029000  1.0
  C  C59  1  0.99997000  0.12858000  0.62859000  1.0
  C  C60  1  0.04300000  0.20027000  0.59177000  1.0
  C  C61  1  0.04292000  0.23499000  0.62673000  1.0
  C  C62  1  0.00002000  0.62863000  0.12855000  1.0
  C  C63  1  0.04307000  0.63488000  0.15718000  1.0
  C  C64  1  0.04297000  0.66974000  0.19199000  1.0
  C  C65  1  0.00001000  0.69948000  0.19942000  1.0
  C  C66  1  0.95704000  0.69205000  0.16968000  1.0
  C  C67  1  0.95696000  0.65726000  0.13480000  1.0
  C  C68  1  0.00000000  0.73471000  0.23467000  1.0
  C  C69  1  0.99999000  0.76531000  0.26532000  1.0
  C  C70  1  0.99997000  0.80052000  0.30058000  1.0
  C  C71  1  0.04292000  0.80793000  0.33034000  1.0
  C  C72  1  0.04300000  0.84272000  0.36522000  1.0
  C  C73  1  0.99997000  0.87138000  0.37144000  1.0
  C  C74  1  0.95693000  0.86515000  0.34279000  1.0
  C  C75  1  0.95702000  0.83028000  0.30799000  1.0
  C  C76  1  0.74283000  0.37142000  0.12859000  1.0
  C  C77  1  0.70794000  0.29973000  0.15725000  1.0
  C  C78  1  0.63828000  0.26503000  0.19203000  1.0
  C  C79  1  0.60110000  0.30055000  0.19946000  1.0
  C  C80  1  0.63827000  0.37326000  0.16970000  1.0
  C  C81  1  0.70794000  0.40823000  0.13482000  1.0
  C  C82  1  0.53062000  0.26530000  0.23471000  1.0
  C  C83  1  0.46938000  0.23467000  0.26534000  1.0
  C  C84  1  0.39890000  0.19943000  0.30059000  1.0
  C  C85  1  0.36173000  0.12673000  0.33033000  1.0
  C  C86  1  0.29206000  0.09176000  0.36521000  1.0
  C  C87  1  0.25718000  0.12857000  0.37145000  1.0
  C  C88  1  0.29206000  0.20025000  0.34283000  1.0
  C  C89  1  0.36173000  0.23496000  0.30802000  1.0
  C  C90  1  0.25717000  0.62860000  0.87143000  1.0
  C  C91  1  0.29207000  0.65727000  0.79972000  1.0
  C  C92  1  0.36173000  0.69206000  0.76502000  1.0
  C  C93  1  0.39890000  0.69947000  0.80056000  1.0
  C  C94  1  0.36172000  0.66969000  0.87328000  1.0
  C  C95  1  0.29205000  0.63482000  0.90825000  1.0
  C  C96  1  0.46938000  0.73471000  0.76531000  1.0
  C  C97  1  0.53062000  0.76534000  0.73467000  1.0
  C  C98  1  0.60110000  0.80058000  0.69943000  1.0
  C  C99  1  0.63828000  0.83033000  0.62671000  1.0
  C  C100  1  0.70795000  0.86520000  0.59175000  1.0
  C  C101  1  0.74282000  0.87143000  0.62857000  1.0
  C  C102  1  0.70793000  0.84279000  0.70026000  1.0
  C  C103  1  0.63827000  0.80800000  0.73496000  1.0
  Br  Br104  1  0.89628000  0.08749000  0.30879000  1.0
  Br  Br105  1  0.10372000  0.41251000  0.19121000  1.0
  Br  Br106  1  0.89628000  0.20508000  0.19121000  1.0
  Br  Br107  1  0.10372000  0.29493000  0.30879000  1.0
  Br  Br108  1  0.89628000  0.80879000  0.79495000  1.0
  Br  Br109  1  0.10372000  0.69121000  0.70505000  1.0
  Br  Br110  1  0.89628000  0.69120000  0.91253000  1.0
  Br  Br111  1  0.10373000  0.80880000  0.58747000  1.0
  Cl  Cl112  1  0.09607000  0.41896000  0.67683000  1.0
  Cl  Cl113  1  0.90392000  0.17687000  0.91897000  1.0
  Cl  Cl114  1  0.09602000  0.32316000  0.58101000  1.0
  Cl  Cl115  1  0.90393000  0.08104000  0.82317000  1.0
  Cl  Cl116  1  0.90392000  0.72709000  0.17710000  1.0
  Cl  Cl117  1  0.09609000  0.67715000  0.22704000  1.0
  Cl  Cl118  1  0.90393000  0.82290000  0.27291000  1.0
  Cl  Cl119  1  0.09602000  0.77287000  0.32294000  1.0
  Cl  Cl120  1  0.59581000  0.41897000  0.17708000  1.0
  Cl  Cl121  1  0.59582000  0.17686000  0.22710000  1.0
  Cl  Cl122  1  0.40418000  0.32313000  0.27298000  1.0
  Cl  Cl123  1  0.40420000  0.08104000  0.32290000  1.0
  Cl  Cl124  1  0.40418000  0.67708000  0.91899000  1.0
  Cl  Cl125  1  0.40420000  0.72714000  0.67684000  1.0
  Cl  Cl126  1  0.59580000  0.77294000  0.82315000  1.0
  Cl  Cl127  1  0.59583000  0.82292000  0.58100000  1.0
  O  O128  1  0.00000000  0.00000000  0.50000000  1.0
  O  O129  1  0.15336000  0.12730000  0.41391000  1.0
  O  O130  1  0.03976000  0.88581000  0.57445000  1.0
  O  O131  1  0.95878000  0.02604000  0.62731000  1.0
  O  O132  1  0.15336000  0.02606000  0.43273000  1.0
  O  O133  1  0.04120000  0.12728000  0.52606000  1.0
  O  O134  1  0.96022000  0.88579000  0.65397000  1.0
  O  O135  1  0.84664000  0.91392000  0.62729000  1.0
  O  O136  1  0.96025000  0.07445000  0.38580000  1.0
  O  O137  1  0.84665000  0.93275000  0.52604000  1.0
  O  O138  1  0.03977000  0.15396000  0.38579000  1.0
  O  O139  1  0.04120000  0.91390000  0.43274000  1.0
  O  O140  1  0.95879000  0.93274000  0.41391000  1.0
  O  O141  1  0.00000000  0.50000000  0.00000000  1.0
  O  O142  1  0.95879000  0.37271000  0.97394000  1.0
  O  O143  1  0.03978000  0.61421000  0.84603000  1.0
  O  O144  1  0.84665000  0.47395000  0.06727000  1.0
  O  O145  1  0.04122000  0.47396000  0.87269000  1.0
  O  O146  1  0.84665000  0.37270000  0.08610000  1.0
  O  O147  1  0.96025000  0.61420000  0.92554000  1.0
  O  O148  1  0.95879000  0.58610000  0.06726000  1.0
  O  O149  1  0.03974000  0.42555000  0.11422000  1.0
  O  O150  1  0.04120000  0.56727000  0.08609000  1.0
  O  O151  1  0.96024000  0.34604000  0.11420000  1.0
  O  O152  1  0.15335000  0.58609000  0.87271000  1.0
  O  O153  1  0.15334000  0.56725000  0.97397000  1.0
