# generated using pymatgen
data_ZnH14C26(NO)4
_symmetry_space_group_name_H-M   'P 1'
_cell_length_a   5.71727000
_cell_length_b   10.72870460
_cell_length_c   16.79170000
_cell_angle_alpha   84.27174673
_cell_angle_beta   81.11750000
_cell_angle_gamma   75.29364001
_symmetry_Int_Tables_number   1
_chemical_formula_structural   ZnH14C26(NO)4
_chemical_formula_sum   'Zn2 H28 C52 N8 O8'
_cell_volume   982.31207787
_cell_formula_units_Z   2
loop_
 _symmetry_equiv_pos_site_id
 _symmetry_equiv_pos_as_xyz
  1  'x, y, z'
loop_
 _atom_site_type_symbol
 _atom_site_label
 _atom_site_symmetry_multiplicity
 _atom_site_fract_x
 _atom_site_fract_y
 _atom_site_fract_z
 _atom_site_occupancy
  Zn  Zn0  1  0.76425000  0.49357000  0.61750000  1.0
  Zn  Zn1  1  0.23575000  0.50643000  0.38250000  1.0
  H  H2  1  0.06957000  0.59801000  0.72491000  1.0
  H  H3  1  0.93043000  0.40199000  0.27509000  1.0
  H  H4  1  0.10222000  0.59049000  0.87194000  1.0
  H  H5  1  0.89777000  0.40952000  0.12805000  1.0
  H  H6  1  0.87553000  0.44976000  0.96898000  1.0
  H  H7  1  0.12446000  0.55025000  0.03102000  1.0
  H  H8  1  0.38642000  0.33872000  0.57802000  1.0
  H  H9  1  0.61358000  0.66128000  0.42198000  1.0
  H  H10  1  0.15511000  0.18592000  0.65413000  1.0
  H  H11  1  0.84488000  0.81408000  0.34586000  1.0
  H  H12  1  0.17628000  0.13850000  0.80473000  1.0
  H  H13  1  0.82370000  0.86150000  0.19527000  1.0
  H  H14  1  0.61458000  0.24294000  0.16141000  1.0
  H  H15  1  0.38543000  0.75705000  0.83859000  1.0
  H  H16  1  0.36466000  0.11360000  0.24908000  1.0
  H  H17  1  0.63537000  0.88638000  0.75092000  1.0
  H  H18  1  0.08650000  0.01289000  0.19173000  1.0
  H  H19  1  0.91353000  0.98709000  0.80826000  1.0
  H  H20  1  0.05008000  0.04334000  0.04504000  1.0
  H  H21  1  0.94991000  0.95666000  0.95496000  1.0
  H  H22  1  0.31001000  0.14325000  0.49331000  1.0
  H  H23  1  0.68998000  0.85676000  0.50669000  1.0
  H  H24  1  0.42424000  0.93136000  0.43076000  1.0
  H  H25  1  0.57576000  0.06865000  0.56924000  1.0
  H  H26  1  0.16359000  0.88352000  0.33894000  1.0
  H  H27  1  0.83641000  0.11648000  0.66106000  1.0
  H  H28  1  0.78543000  0.05093000  0.30838000  1.0
  H  H29  1  0.21458000  0.94907000  0.69162000  1.0
  C  C30  1  0.96928000  0.54207000  0.76864000  1.0
  C  C31  1  0.03072000  0.45793000  0.23136000  1.0
  C  C32  1  0.98836000  0.53599000  0.85134000  1.0
  C  C33  1  0.01164000  0.46401000  0.14866000  1.0
  C  C34  1  0.86417000  0.45995000  0.90445000  1.0
  C  C35  1  0.13582000  0.54005000  0.09555000  1.0
  C  C36  1  0.71775000  0.39279000  0.87461000  1.0
  C  C37  1  0.28225000  0.60721000  0.12539000  1.0
  C  C38  1  0.70194000  0.40817000  0.79120000  1.0
  C  C39  1  0.29806000  0.59184000  0.20880000  1.0
  C  C40  1  0.54499000  0.34577000  0.75716000  1.0
  C  C41  1  0.45503000  0.65423000  0.24284000  1.0
  C  C42  1  0.39284000  0.31477000  0.64244000  1.0
  C  C43  1  0.60717000  0.68524000  0.35755000  1.0
  C  C44  1  0.26402000  0.22895000  0.68595000  1.0
  C  C45  1  0.73600000  0.77105000  0.31405000  1.0
  C  C46  1  0.27487000  0.20343000  0.76806000  1.0
  C  C47  1  0.72511000  0.79657000  0.23194000  1.0
  C  C48  1  0.41624000  0.26356000  0.80595000  1.0
  C  C49  1  0.58377000  0.73644000  0.19404000  1.0
  C  C50  1  0.43116000  0.24597000  0.89239000  1.0
  C  C51  1  0.56885000  0.75403000  0.10761000  1.0
  C  C52  1  0.58404000  0.30910000  0.92635000  1.0
  C  C53  1  0.41596000  0.69090000  0.07365000  1.0
  C  C54  1  0.47813000  0.21696000  0.05175000  1.0
  C  C55  1  0.52185000  0.78305000  0.94825000  1.0
  C  C56  1  0.49620000  0.19735000  0.13556000  1.0
  C  C57  1  0.50380000  0.80264000  0.86444000  1.0
  C  C58  1  0.35631000  0.12515000  0.18428000  1.0
  C  C59  1  0.64371000  0.87483000  0.81571000  1.0
  C  C60  1  0.19582000  0.06882000  0.15149000  1.0
  C  C61  1  0.80418000  0.93118000  0.84850000  1.0
  C  C62  1  0.17487000  0.08511000  0.07039000  1.0
  C  C63  1  0.82511000  0.91490000  0.92961000  1.0
  C  C64  1  0.31613000  0.15887000  0.01824000  1.0
  C  C65  1  0.68387000  0.84113000  0.98175000  1.0
  C  C66  1  0.92738000  0.34148000  0.47337000  1.0
  C  C67  1  0.07261000  0.65852000  0.52665000  1.0
  C  C68  1  0.98501000  0.21344000  0.43702000  1.0
  C  C69  1  0.01499000  0.78657000  0.56299000  1.0
  C  C70  1  0.19523000  0.12053000  0.45359000  1.0
  C  C71  1  0.80478000  0.87947000  0.54642000  1.0
  C  C72  1  0.25996000  0.00302000  0.41779000  1.0
  C  C73  1  0.74004000  0.99698000  0.58221000  1.0
  C  C74  1  0.11256000  0.97666000  0.36576000  1.0
  C  C75  1  0.88743000  0.02334000  0.63425000  1.0
  C  C76  1  0.90288000  0.06894000  0.34908000  1.0
  C  C77  1  0.09711000  0.93106000  0.65092000  1.0
  C  C78  1  0.83719000  0.18811000  0.38424000  1.0
  C  C79  1  0.16280000  0.81190000  0.61577000  1.0
  C  C80  1  0.61666000  0.28872000  0.36225000  1.0
  C  C81  1  0.38334000  0.71127000  0.63775000  1.0
  N  N82  1  0.83051000  0.47935000  0.73955000  1.0
  N  N83  1  0.16950000  0.52065000  0.26045000  1.0
  N  N84  1  0.52906000  0.37124000  0.67773000  1.0
  N  N85  1  0.47095000  0.62877000  0.32227000  1.0
  N  N86  1  0.60694000  0.29322000  0.00467000  1.0
  N  N87  1  0.39308000  0.70678000  0.99533000  1.0
  N  N88  1  0.29735000  0.17410000  0.93832000  1.0
  N  N89  1  0.70264000  0.82590000  0.06167000  1.0
  O  O90  1  0.89233000  0.33758000  0.55026000  1.0
  O  O91  1  0.10769000  0.66242000  0.44975000  1.0
  O  O92  1  0.92174000  0.44225000  0.42648000  1.0
  O  O93  1  0.07828000  0.55775000  0.57353000  1.0
  O  O94  1  0.47856000  0.35281000  0.42096000  1.0
  O  O95  1  0.52145000  0.64720000  0.57905000  1.0
  O  O96  1  0.58255000  0.30605000  0.28973000  1.0
  O  O97  1  0.41740000  0.69395000  0.71028000  1.0
