# generated using pymatgen
data_CdH26C39N6O5
_symmetry_space_group_name_H-M   'P 1'
_cell_length_a   10.58120000
_cell_length_b   14.68630000
_cell_length_c   21.96880000
_cell_angle_alpha   87.41510000
_cell_angle_beta   82.80000000
_cell_angle_gamma   68.89220000
_symmetry_Int_Tables_number   1
_chemical_formula_structural   CdH26C39N6O5
_chemical_formula_sum   'Cd4 H104 C156 N24 O20'
_cell_volume   3159.75008947
_cell_formula_units_Z   4
loop_
 _symmetry_equiv_pos_site_id
 _symmetry_equiv_pos_as_xyz
  1  'x, y, z'
loop_
 _atom_site_type_symbol
 _atom_site_label
 _atom_site_symmetry_multiplicity
 _atom_site_fract_x
 _atom_site_fract_y
 _atom_site_fract_z
 _atom_site_occupancy
  Cd  Cd0  1  0.78879000  0.00718000  0.35050000  1.0
  Cd  Cd1  1  0.79567000  0.99290000  0.85050000  1.0
  Cd  Cd2  1  0.32114000  0.00552000  0.37370000  1.0
  Cd  Cd3  1  0.32648000  0.99450000  0.87367000  1.0
  H  H4  1  0.09608000  0.04607000  0.29341000  1.0
  H  H5  1  0.14188000  0.95389000  0.79342000  1.0
  H  H6  1  0.24316000  0.99945000  0.25395000  1.0
  H  H7  1  0.24241000  0.00049000  0.75400000  1.0
  H  H8  1  0.03764000  0.06457000  0.41987000  1.0
  H  H9  1  0.10237000  0.93537000  0.91985000  1.0
  H  H10  1  0.12247000  0.11168000  0.45660000  1.0
  H  H11  1  0.23435000  0.88818000  0.95653000  1.0
  H  H12  1  0.39282000  0.78095000  0.32715000  1.0
  H  H13  1  0.17357000  0.21894000  0.82720000  1.0
  H  H14  1  0.21928000  0.91864000  0.49275000  1.0
  H  H15  1  0.13767000  0.08149000  0.99290000  1.0
  H  H16  1  0.21349000  0.76325000  0.54306000  1.0
  H  H17  1  0.97648000  0.23698000  0.04309000  1.0
  H  H18  1  0.40468000  0.61625000  0.37159000  1.0
  H  H19  1  0.02067000  0.38369000  0.87151000  1.0
  H  H20  1  0.14142000  0.64844000  0.64948000  1.0
  H  H21  1  0.79016000  0.35160000  0.14949000  1.0
  H  H22  1  0.03711000  0.63986000  0.75839000  1.0
  H  H23  1  0.67708000  0.36019000  0.25837000  1.0
  H  H24  1  0.17379000  0.33882000  0.75185000  1.0
  H  H25  1  0.51273000  0.66124000  0.25181000  1.0
  H  H26  1  0.28415000  0.33583000  0.64359000  1.0
  H  H27  1  0.62014000  0.66417000  0.14352000  1.0
  H  H28  1  0.52491000  0.39914000  0.36887000  1.0
  H  H29  1  0.92362000  0.60086000  0.86893000  1.0
  H  H30  1  0.65969000  0.23898000  0.31554000  1.0
  H  H31  1  0.89858000  0.76098000  0.81557000  1.0
  H  H32  1  0.56961000  0.08071000  0.46355000  1.0
  H  H33  1  0.65038000  0.91937000  0.96356000  1.0
  H  H34  1  0.43286000  0.23341000  0.52391000  1.0
  H  H35  1  0.66629000  0.76677000  0.02399000  1.0
  H  H36  1  0.47342000  0.08336000  0.25043000  1.0
  H  H37  1  0.55670000  0.91672000  0.75034000  1.0
  H  H38  1  0.46880000  0.23667000  0.19585000  1.0
  H  H39  1  0.70580000  0.76350000  0.69581000  1.0
  H  H40  1  0.18996000  0.39725000  0.34797000  1.0
  H  H41  1  0.58789000  0.60270000  0.84792000  1.0
  H  H42  1  0.20112000  0.23608000  0.39518000  1.0
  H  H43  1  0.43760000  0.76383000  0.89514000  1.0
  H  H44  1  0.52313000  0.34573000  0.07865000  1.0
  H  H45  1  0.86915000  0.65399000  0.57857000  1.0
  H  H46  1  0.63462000  0.35150000  0.97202000  1.0
  H  H47  1  0.98628000  0.64815000  0.47192000  1.0
  H  H48  1  0.47080000  0.65387000  0.96982000  1.0
  H  H49  1  0.12465000  0.34578000  0.46979000  1.0
  H  H50  1  0.35413000  0.66033000  0.07558000  1.0
  H  H51  1  0.01470000  0.33937000  0.57561000  1.0
  H  H52  1  0.08766000  0.62082000  0.34776000  1.0
  H  H53  1  0.70841000  0.37915000  0.84791000  1.0
  H  H54  1  0.92839000  0.78531000  0.38899000  1.0
  H  H55  1  0.71377000  0.21464000  0.88911000  1.0
  H  H56  1  0.01290000  0.92505000  0.23007000  1.0
  H  H57  1  0.93763000  0.07502000  0.73009000  1.0
  H  H58  1  0.17340000  0.76770000  0.18192000  1.0
  H  H59  1  0.94049000  0.23241000  0.68193000  1.0
  H  H60  1  0.57758000  0.97799000  0.53811000  1.0
  H  H61  1  0.55536000  0.02213000  0.03820000  1.0
  H  H62  1  0.19198000  0.18196000  0.61615000  1.0
  H  H63  1  0.37370000  0.81800000  0.11600000  1.0
  H  H64  1  0.29857000  0.20014000  0.70748000  1.0
  H  H65  1  0.49830000  0.79971000  0.20740000  1.0
  H  H66  1  0.68436000  0.99786000  0.62818000  1.0
  H  H67  1  0.68188000  0.00211000  0.12834000  1.0
  H  H68  1  0.54828000  0.19092000  0.73589000  1.0
  H  H69  1  0.73915000  0.80897000  0.23587000  1.0
  H  H70  1  0.67417000  0.07320000  0.72329000  1.0
  H  H71  1  0.74744000  0.92663000  0.22303000  1.0
  H  H72  1  0.83478000  0.81538000  0.54211000  1.0
  H  H73  1  0.65042000  0.18457000  0.04215000  1.0
  H  H74  1  0.00036000  0.04426000  0.53048000  1.0
  H  H75  1  0.04470000  0.95565000  0.03053000  1.0
  H  H76  1  0.93420000  0.75874000  0.64068000  1.0
  H  H77  1  0.69308000  0.24109000  0.14078000  1.0
  H  H78  1  0.10210000  0.98747000  0.62664000  1.0
  H  H79  1  0.08961000  0.01235000  0.12670000  1.0
  H  H80  1  0.17815000  0.85516000  0.69974000  1.0
  H  H81  1  0.03343000  0.14496000  0.19975000  1.0
  H  H82  1  0.11744000  0.75821000  0.70640000  1.0
  H  H83  1  0.87567000  0.24179000  0.20639000  1.0
  H  H84  1  0.91205000  0.58302000  0.21679000  1.0
  H  H85  1  0.49530000  0.41686000  0.71682000  1.0
  H  H86  1  0.01117000  0.40177000  0.22265000  1.0
  H  H87  1  0.41308000  0.59805000  0.72273000  1.0
  H  H88  1  0.88582000  0.73626000  0.15864000  1.0
  H  H89  1  0.62173000  0.26365000  0.65850000  1.0
  H  H90  1  0.15999000  0.24351000  0.17608000  1.0
  H  H91  1  0.40321000  0.75642000  0.67620000  1.0
  H  H92  1  0.93519000  0.82145000  0.06382000  1.0
  H  H93  1  0.75629000  0.17860000  0.56370000  1.0
  H  H94  1  0.43579000  0.37917000  0.82616000  1.0
  H  H95  1  0.81510000  0.62102000  0.32631000  1.0
  H  H96  1  0.04645000  0.81503000  0.95760000  1.0
  H  H97  1  0.86140000  0.18507000  0.45754000  1.0
  H  H98  1  0.42828000  0.14182000  0.98179000  1.0
  H  H99  1  0.56973000  0.85831000  0.48194000  1.0
  H  H100  1  0.31696000  0.14779000  0.08811000  1.0
  H  H101  1  0.46426000  0.85228000  0.58821000  1.0
  H  H102  1  0.47000000  0.22583000  0.88585000  1.0
  H  H103  1  0.69588000  0.77438000  0.38600000  1.0
  H  H104  1  0.19598000  0.72054000  0.86889000  1.0
  H  H105  1  0.91633000  0.27967000  0.36880000  1.0
  H  H106  1  0.33656000  0.56036000  0.82024000  1.0
  H  H107  1  0.89663000  0.43993000  0.32025000  1.0
  C  C108  1  0.35478000  0.77260000  0.37473000  1.0
  C  C109  1  0.12718000  0.22737000  0.87478000  1.0
  C  C110  1  0.25636000  0.85051000  0.46721000  1.0
  C  C111  1  0.10671000  0.14958000  0.96733000  1.0
  C  C112  1  0.25409000  0.76433000  0.49518000  1.0
  C  C113  1  0.01827000  0.23581000  0.99522000  1.0
  C  C114  1  0.30977000  0.67802000  0.46110000  1.0
  C  C115  1  0.98762000  0.32206000  0.96107000  1.0
  C  C116  1  0.35992000  0.68252000  0.39918000  1.0
  C  C117  1  0.04217000  0.31748000  0.89916000  1.0
  C  C118  1  0.31992000  0.58362000  0.49073000  1.0
  C  C119  1  0.90334000  0.41648000  0.99067000  1.0
  C  C120  1  0.28022000  0.49628000  0.57407000  1.0
  C  C121  1  0.77646000  0.50376000  0.07406000  1.0
  C  C122  1  0.39517000  0.41864000  0.48583000  1.0
  C  C123  1  0.81354000  0.58147000  0.98584000  1.0
  C  C124  1  0.14997000  0.57909000  0.67160000  1.0
  C  C125  1  0.72939000  0.42095000  0.17163000  1.0
  C  C126  1  0.09246000  0.57342000  0.73162000  1.0
  C  C127  1  0.66613000  0.42663000  0.23163000  1.0
  C  C128  1  0.16842000  0.40682000  0.72796000  1.0
  C  C129  1  0.57545000  0.59323000  0.22795000  1.0
  C  C130  1  0.22981000  0.40451000  0.66776000  1.0
  C  C131  1  0.63454000  0.59553000  0.16775000  1.0
  C  C132  1  0.21998000  0.49295000  0.63844000  1.0
  C  C133  1  0.71313000  0.50710000  0.13846000  1.0
  C  C134  1  0.46904000  0.32759000  0.45083000  1.0
  C  C135  1  0.79636000  0.67252000  0.95085000  1.0
  C  C136  1  0.53218000  0.32983000  0.39103000  1.0
  C  C137  1  0.86163000  0.67023000  0.89105000  1.0
  C  C138  1  0.60719000  0.24165000  0.36169000  1.0
  C  C139  1  0.84863000  0.75836000  0.86170000  1.0
  C  C140  1  0.55756000  0.15269000  0.44466000  1.0
  C  C141  1  0.71017000  0.84738000  0.94468000  1.0
  C  C142  1  0.48081000  0.23719000  0.47757000  1.0
  C  C143  1  0.71789000  0.76292000  0.97763000  1.0
  C  C144  1  0.41173000  0.15402000  0.27080000  1.0
  C  C145  1  0.56598000  0.84603000  0.77075000  1.0
  C  C146  1  0.40952000  0.23957000  0.24040000  1.0
  C  C147  1  0.64954000  0.76052000  0.74037000  1.0
  C  C148  1  0.32821000  0.32943000  0.26745000  1.0
  C  C149  1  0.65823000  0.67063000  0.76743000  1.0
  C  C150  1  0.25348000  0.32903000  0.32484000  1.0
  C  C151  1  0.58315000  0.67097000  0.82483000  1.0
  C  C152  1  0.26072000  0.23970000  0.35154000  1.0
  C  C153  1  0.50092000  0.76026000  0.85154000  1.0
  C  C154  1  0.31794000  0.42226000  0.23507000  1.0
  C  C155  1  0.74067000  0.57776000  0.73506000  1.0
  C  C156  1  0.22983000  0.58759000  0.23234000  1.0
  C  C157  1  0.81733000  0.41243000  0.73236000  1.0
  C  C158  1  0.36578000  0.50307000  0.14974000  1.0
  C  C159  1  0.86930000  0.49678000  0.64977000  1.0
  C  C160  1  0.43150000  0.50275000  0.08613000  1.0
  C  C161  1  0.93459000  0.49696000  0.58614000  1.0
  C  C162  1  0.51069000  0.41520000  0.05582000  1.0
  C  C163  1  0.92612000  0.58449000  0.55576000  1.0
  C  C164  1  0.57186000  0.41910000  0.99627000  1.0
  C  C165  1  0.99108000  0.58056000  0.49618000  1.0
  C  C166  1  0.48129000  0.58615000  0.99489000  1.0
  C  C167  1  0.06745000  0.41353000  0.49486000  1.0
  C  C168  1  0.41602000  0.59034000  0.05438000  1.0
  C  C169  1  0.00655000  0.40936000  0.55438000  1.0
  C  C170  1  0.14235000  0.68224000  0.26122000  1.0
  C  C171  1  0.82418000  0.31785000  0.76126000  1.0
  C  C172  1  0.07396000  0.68698000  0.32059000  1.0
  C  C173  1  0.76074000  0.31305000  0.82067000  1.0
  C  C174  1  0.98630000  0.77760000  0.34357000  1.0
  C  C175  1  0.76377000  0.22241000  0.84365000  1.0
  C  C176  1  0.03301000  0.85635000  0.25487000  1.0
  C  C177  1  0.88894000  0.14372000  0.75491000  1.0
  C  C178  1  0.12215000  0.76927000  0.22822000  1.0
  C  C179  1  0.89084000  0.23083000  0.72825000  1.0
  C  C180  1  0.30877000  0.07386000  0.51545000  1.0
  C  C181  1  0.38259000  0.92613000  0.01538000  1.0
  C  C182  1  0.37665000  0.07870000  0.57116000  1.0
  C  C183  1  0.45520000  0.92129000  0.07112000  1.0
  C  C184  1  0.51556000  0.02690000  0.57515000  1.0
  C  C185  1  0.54222000  0.97315000  0.07520000  1.0
  C  C186  1  0.29960000  0.14126000  0.61959000  1.0
  C  C187  1  0.44062000  0.85869000  0.11952000  1.0
  C  C188  1  0.36003000  0.15243000  0.66996000  1.0
  C  C189  1  0.51215000  0.84745000  0.16991000  1.0
  C  C190  1  0.57600000  0.03858000  0.62591000  1.0
  C  C191  1  0.61425000  0.96139000  0.12598000  1.0
  C  C192  1  0.49951000  0.10189000  0.67392000  1.0
  C  C193  1  0.60115000  0.89795000  0.17391000  1.0
  C  C194  1  0.56367000  0.11346000  0.72909000  1.0
  C  C195  1  0.67714000  0.88640000  0.22900000  1.0
  C  C196  1  0.86458000  0.95845000  0.46832000  1.0
  C  C197  1  0.82322000  0.04168000  0.96830000  1.0
  C  C198  1  0.91385000  0.93145000  0.52962000  1.0
  C  C199  1  0.84546000  0.06853000  0.02964000  1.0
  C  C200  1  0.89409000  0.85182000  0.56140000  1.0
  C  C201  1  0.74610000  0.14810000  0.06146000  1.0
  C  C202  1  0.98595000  0.98151000  0.55431000  1.0
  C  C203  1  0.96754000  0.01837000  0.05437000  1.0
  C  C204  1  0.95013000  0.82059000  0.61600000  1.0
  C  C205  1  0.77084000  0.17922000  0.11611000  1.0
  C  C206  1  0.04302000  0.94938000  0.60856000  1.0
  C  C207  1  0.99247000  0.05048000  0.10864000  1.0
  C  C208  1  0.02751000  0.86783000  0.63951000  1.0
  C  C209  1  0.89549000  0.13205000  0.13959000  1.0
  C  C210  1  0.98514000  0.88632000  0.75415000  1.0
  C  C211  1  0.87178000  0.11363000  0.25419000  1.0
  C  C212  1  0.08607000  0.83737000  0.69886000  1.0
  C  C213  1  0.92359000  0.16262000  0.19889000  1.0
  C  C214  1  0.50227000  0.08165000  0.78972000  1.0
  C  C215  1  0.58417000  0.91841000  0.28965000  1.0
  C  C216  1  0.11052000  0.48476000  0.08298000  1.0
  C  C217  1  0.59545000  0.51524000  0.58305000  1.0
  C  C218  1  0.04441000  0.48825000  0.14397000  1.0
  C  C219  1  0.53295000  0.51166000  0.64405000  1.0
  C  C220  1  0.09397000  0.57293000  0.04940000  1.0
  C  C221  1  0.66686000  0.42711000  0.54939000  1.0
  C  C222  1  0.96310000  0.58076000  0.17020000  1.0
  C  C223  1  0.54409000  0.41914000  0.67023000  1.0
  C  C224  1  0.06268000  0.39904000  0.17615000  1.0
  C  C225  1  0.46190000  0.60085000  0.67624000  1.0
  C  C226  1  0.19416000  0.39317000  0.05567000  1.0
  C  C227  1  0.58736000  0.60687000  0.55576000  1.0
  C  C228  1  0.21409000  0.30518000  0.08973000  1.0
  C  C229  1  0.51917000  0.69483000  0.58985000  1.0
  C  C230  1  0.15848000  0.56939000  0.98807000  1.0
  C  C231  1  0.72774000  0.43070000  0.48805000  1.0
  C  C232  1  0.94837000  0.66577000  0.13800000  1.0
  C  C233  1  0.61402000  0.33416000  0.63795000  1.0
  C  C234  1  0.01316000  0.66459000  0.07719000  1.0
  C  C235  1  0.67750000  0.33544000  0.57712000  1.0
  C  C236  1  0.14252000  0.65755000  0.95483000  1.0
  C  C237  1  0.79998000  0.34255000  0.45479000  1.0
  C  C238  1  0.14503000  0.31093000  0.15009000  1.0
  C  C239  1  0.45587000  0.68902000  0.65020000  1.0
  C  C240  1  0.34366000  0.29824000  0.96746000  1.0
  C  C241  1  0.64171000  0.70191000  0.46756000  1.0
  C  C242  1  0.99870000  0.75135000  0.04277000  1.0
  C  C243  1  0.74976000  0.24872000  0.54267000  1.0
  C  C244  1  0.25870000  0.38965000  0.99436000  1.0
  C  C245  1  0.64822000  0.61046000  0.49443000  1.0
  C  C246  1  0.23959000  0.47765000  0.96030000  1.0
  C  C247  1  0.71710000  0.52247000  0.46034000  1.0
  C  C248  1  0.38635000  0.38157000  0.87310000  1.0
  C  C249  1  0.76793000  0.61865000  0.37323000  1.0
  C  C250  1  0.30406000  0.47417000  0.89910000  1.0
  C  C251  1  0.77813000  0.52603000  0.39916000  1.0
  C  C252  1  0.06086000  0.74796000  0.98365000  1.0
  C  C253  1  0.80866000  0.25214000  0.48357000  1.0
  C  C254  1  0.36383000  0.21165000  0.00280000  1.0
  C  C255  1  0.57518000  0.78846000  0.50293000  1.0
  C  C256  1  0.30128000  0.21522000  0.06198000  1.0
  C  C257  1  0.51616000  0.78484000  0.56210000  1.0
  C  C258  1  0.40608000  0.29652000  0.90602000  1.0
  C  C259  1  0.70257000  0.70369000  0.40615000  1.0
  C  C260  1  0.20840000  0.65228000  0.89374000  1.0
  C  C261  1  0.86053000  0.34790000  0.39370000  1.0
  C  C262  1  0.28598000  0.56354000  0.86701000  1.0
  C  C263  1  0.84931000  0.43669000  0.36702000  1.0
  N  N264  1  0.34460000  0.41119000  0.54434000  1.0
  N  N265  1  0.75566000  0.58888000  0.04435000  1.0
  N  N266  1  0.26564000  0.58447000  0.54947000  1.0
  N  N267  1  0.85000000  0.41559000  0.04943000  1.0
  N  N268  1  0.38481000  0.50287000  0.45687000  1.0
  N  N269  1  0.88738000  0.49726000  0.95684000  1.0
  N  N270  1  0.30613000  0.85486000  0.40842000  1.0
  N  N271  1  0.16082000  0.14515000  0.90853000  1.0
  N  N272  1  0.62115000  0.15471000  0.38800000  1.0
  N  N273  1  0.77578000  0.84531000  0.88801000  1.0
  N  N274  1  0.09976000  0.48915000  0.76020000  1.0
  N  N275  1  0.58909000  0.51090000  0.26019000  1.0
  N  N276  1  0.33803000  0.15331000  0.32526000  1.0
  N  N277  1  0.49156000  0.84669000  0.82521000  1.0
  N  N278  1  0.23948000  0.50568000  0.26426000  1.0
  N  N279  1  0.74517000  0.49440000  0.76423000  1.0
  N  N280  1  0.38446000  0.41688000  0.17830000  1.0
  N  N281  1  0.80203000  0.58301000  0.67831000  1.0
  N  N282  1  0.29064000  0.59026000  0.17528000  1.0
  N  N283  1  0.88104000  0.40965000  0.67533000  1.0
  N  N284  1  0.96492000  0.86080000  0.31123000  1.0
  N  N285  1  0.82546000  0.13923000  0.81129000  1.0
  N  N286  1  0.55898000  0.50263000  0.96557000  1.0
  N  N287  1  0.06170000  0.49701000  0.46551000  1.0
  O  O288  1  0.38448000  0.02192000  0.47018000  1.0
  O  O289  1  0.40641000  0.97805000  0.97012000  1.0
  O  O290  1  0.18185000  0.12324000  0.51731000  1.0
  O  O291  1  0.30512000  0.87668000  0.01724000  1.0
  O  O292  1  0.38244000  0.08029000  0.79149000  1.0
  O  O293  1  0.46289000  0.91993000  0.29148000  1.0
  O  O294  1  0.18796000  0.99333000  0.29161000  1.0
  O  O295  1  0.18089000  0.00672000  0.79159000  1.0
  O  O296  1  0.10274000  0.09974000  0.41414000  1.0
  O  O297  1  0.20261000  0.90010000  0.91409000  1.0
  O  O298  1  0.56953000  0.05964000  0.83545000  1.0
  O  O299  1  0.62959000  0.94039000  0.33533000  1.0
  O  O300  1  0.85825000  0.91870000  0.74935000  1.0
  O  O301  1  0.77720000  0.08129000  0.24943000  1.0
  O  O302  1  0.03499000  0.89202000  0.80315000  1.0
  O  O303  1  0.92750000  0.10785000  0.30314000  1.0
  O  O304  1  0.90861000  0.01656000  0.43418000  1.0
  O  O305  1  0.92537000  0.98374000  0.93409000  1.0
  O  O306  1  0.78306000  0.92191000  0.45082000  1.0
  O  O307  1  0.70512000  0.07815000  0.95083000  1.0
