# generated using pymatgen
data_ZnH24C31NO7
_symmetry_space_group_name_H-M   'P 1'
_cell_length_a   16.01650000
_cell_length_b   18.33760000
_cell_length_c   19.49630000
_cell_angle_alpha   90.07750000
_cell_angle_beta   91.01390000
_cell_angle_gamma   90.76800000
_symmetry_Int_Tables_number   1
_chemical_formula_structural   ZnH24C31NO7
_chemical_formula_sum   'Zn2 H48 C62 N2 O14'
_cell_volume   5724.72652498
_cell_formula_units_Z   2
loop_
 _symmetry_equiv_pos_site_id
 _symmetry_equiv_pos_as_xyz
  1  'x, y, z'
loop_
 _atom_site_type_symbol
 _atom_site_label
 _atom_site_symmetry_multiplicity
 _atom_site_fract_x
 _atom_site_fract_y
 _atom_site_fract_z
 _atom_site_occupancy
  Zn  Zn0  1  0.50392000  0.42245000  0.49803000  1.0
  Zn  Zn1  1  0.50269000  0.57649000  0.49573000  1.0
  H  H2  1  0.91907000  0.39583000  0.48730000  1.0
  H  H3  1  0.59491000  0.68527000  0.57066000  1.0
  H  H4  1  0.61065000  0.18044000  0.58533000  1.0
  H  H5  1  0.61051000  0.81964000  0.58220000  1.0
  H  H6  1  0.41202000  0.15912000  0.43237000  1.0
  H  H7  1  0.42498000  0.83787000  0.41836000  1.0
  H  H8  1  0.49754000  0.06880000  0.39843000  1.0
  H  H9  1  0.50015000  0.93495000  0.39522000  1.0
  H  H10  1  0.54866000  0.93038000  0.61366000  1.0
  H  H11  1  0.54694000  0.06470000  0.61676000  1.0
  H  H12  1  0.06203000  0.40769000  0.46191000  1.0
  H  H13  1  0.94127000  0.49910000  0.40758000  1.0
  H  H14  1  0.08393000  0.53351000  0.40966000  1.0
  H  H15  1  0.06722000  0.60950000  0.46299000  1.0
  H  H16  1  0.07946000  0.39316000  0.55017000  1.0
  H  H17  1  0.92524000  0.59041000  0.43344000  1.0
  H  H18  1  0.93683000  0.41057000  0.57578000  1.0
  H  H19  1  0.53607000  0.59688000  0.84929000  1.0
  H  H20  1  0.39668000  0.39576000  0.83108000  1.0
  H  H21  1  0.47884000  0.38143000  0.93475000  1.0
  H  H22  1  0.42467000  0.61061000  0.93182000  1.0
  H  H23  1  0.37214000  0.35848000  0.42718000  1.0
  H  H24  1  0.47442000  0.38196000  0.06122000  1.0
  H  H25  1  0.40687000  0.63720000  0.39192000  1.0
  H  H26  1  0.03026000  0.44952000  0.65750000  1.0
  H  H27  1  0.16577000  0.60875000  0.62147000  1.0
  H  H28  1  0.84949000  0.50968000  0.63771000  1.0
  H  H29  1  0.94706000  0.66919000  0.62204000  1.0
  H  H30  1  0.70883000  0.66983000  0.63120000  1.0
  H  H31  1  0.71698000  0.70099000  0.71773000  1.0
  H  H32  1  0.78941000  0.63779000  0.68612000  1.0
  H  H33  1  0.69112000  0.56705000  0.75544000  1.0
  H  H34  1  0.66646000  0.54634000  0.66892000  1.0
  H  H35  1  0.41859000  0.61112000  0.05841000  1.0
  H  H36  1  0.54927000  0.63569000  0.67062000  1.0
  H  H37  1  0.57771000  0.66039000  0.75579000  1.0
  H  H38  1  0.30445000  0.32254000  0.58600000  1.0
  H  H39  1  0.27279000  0.27999000  0.66366000  1.0
  H  H40  1  0.20625000  0.34315000  0.62146000  1.0
  H  H41  1  0.27605000  0.40580000  0.72099000  1.0
  H  H42  1  0.31217000  0.44367000  0.64416000  1.0
  H  H43  1  0.43900000  0.36344000  0.65136000  1.0
  H  H44  1  0.40259000  0.32768000  0.72980000  1.0
  H  H45  1  0.50805000  0.60622000  0.15031000  1.0
  H  H46  1  0.40054000  0.38972000  0.15892000  1.0
  H  H47  1  0.52835000  0.60508000  0.27708000  1.0
  H  H48  1  0.42490000  0.38809000  0.28501000  1.0
  H  H49  1  0.59318000  0.31514000  0.57728000  1.0
  C  C50  1  0.49430000  0.49509000  0.36441000  1.0
  C  C51  1  0.43277000  0.43987000  0.80769000  1.0
  C  C52  1  0.46395000  0.49673000  0.84904000  1.0
  C  C53  1  0.48851000  0.49688000  0.70599000  1.0
  C  C54  1  0.46424000  0.43170000  0.96178000  1.0
  C  C55  1  0.43647000  0.56049000  0.96031000  1.0
  C  C56  1  0.34026000  0.50177000  0.50125000  1.0
  C  C57  1  0.46152000  0.43202000  0.03303000  1.0
  C  C58  1  0.43319000  0.56073000  0.03158000  1.0
  C  C59  1  0.44758000  0.49679000  0.06956000  1.0
  C  C60  1  0.45369000  0.49625000  0.92406000  1.0
  C  C61  1  0.95678000  0.55543000  0.57829000  1.0
  C  C62  1  0.48811000  0.55878000  0.17981000  1.0
  C  C63  1  0.42993000  0.43671000  0.18437000  1.0
  C  C64  1  0.50034000  0.55822000  0.25055000  1.0
  C  C65  1  0.44293000  0.43569000  0.25504000  1.0
  C  C66  1  0.47909000  0.49621000  0.28881000  1.0
  C  C67  1  0.45365000  0.49775000  0.14515000  1.0
  C  C68  1  0.55459000  0.27793000  0.54614000  1.0
  C  C69  1  0.55808000  0.72169000  0.53842000  1.0
  C  C70  1  0.56356000  0.20265000  0.55045000  1.0
  C  C71  1  0.56605000  0.79705000  0.54465000  1.0
  C  C72  1  0.05358000  0.54466000  0.58673000  1.0
  C  C73  1  0.51382000  0.15668000  0.50846000  1.0
  C  C74  1  0.51864000  0.84232000  0.50141000  1.0
  C  C75  1  0.49917000  0.49846000  0.62957000  1.0
  C  C76  1  0.45519000  0.19034000  0.46516000  1.0
  C  C77  1  0.46528000  0.80765000  0.45347000  1.0
  C  C78  1  0.44886000  0.26587000  0.46402000  1.0
  C  C79  1  0.46096000  0.73198000  0.44961000  1.0
  C  C80  1  0.50789000  0.03863000  0.44591000  1.0
  C  C81  1  0.50927000  0.96308000  0.44413000  1.0
  C  C82  1  0.52322000  0.92261000  0.50435000  1.0
  C  C83  1  0.83061000  0.50964000  0.51334000  1.0
  C  C84  1  0.52088000  0.07661000  0.50796000  1.0
  C  C85  1  0.53879000  0.96053000  0.56607000  1.0
  C  C86  1  0.53780000  0.03647000  0.56785000  1.0
  C  C87  1  0.66481000  0.50271000  0.50276000  1.0
  C  C88  1  0.04774000  0.42886000  0.51310000  1.0
  C  C89  1  0.05123000  0.55161000  0.45559000  1.0
  C  C90  1  0.95637000  0.53975000  0.44756000  1.0
  C  C91  1  0.95291000  0.43081000  0.52443000  1.0
  C  C92  1  0.75499000  0.50510000  0.50850000  1.0
  C  C93  1  0.08513000  0.50719000  0.51745000  1.0
  C  C94  1  0.17559000  0.50569000  0.51568000  1.0
  C  C95  1  0.92128000  0.51011000  0.51602000  1.0
  C  C96  1  0.38300000  0.29976000  0.41894000  1.0
  C  C97  1  0.40550000  0.69732000  0.39534000  1.0
  C  C98  1  0.07759000  0.49251000  0.64549000  1.0
  C  C99  1  0.10431000  0.61499000  0.59524000  1.0
  C  C100  1  0.91244000  0.53549000  0.64443000  1.0
  C  C101  1  0.93238000  0.63881000  0.57395000  1.0
  C  C102  1  0.57624000  0.61492000  0.71877000  1.0
  C  C103  1  0.66654000  0.59051000  0.70728000  1.0
  C  C104  1  0.72335000  0.65312000  0.68418000  1.0
  C  C105  1  0.25070000  0.50297000  0.50914000  1.0
  C  C106  1  0.40305000  0.37658000  0.69694000  1.0
  C  C107  1  0.31267000  0.39368000  0.67521000  1.0
  C  C108  1  0.27177000  0.33131000  0.63440000  1.0
  C  C109  1  0.52145000  0.55469000  0.74693000  1.0
  C  C110  1  0.44432000  0.43843000  0.73677000  1.0
  C  C111  1  0.50845000  0.55344000  0.81752000  1.0
  N  N112  1  0.49875000  0.30945000  0.50360000  1.0
  N  N113  1  0.50656000  0.68919000  0.49211000  1.0
  O  O114  1  0.48242000  0.43462000  0.39557000  1.0
  O  O115  1  0.36282000  0.73443000  0.35656000  1.0
  O  O116  1  0.14526000  0.49422000  0.67471000  1.0
  O  O117  1  0.08076000  0.67380000  0.57344000  1.0
  O  O118  1  0.94064000  0.55256000  0.70104000  1.0
  O  O119  1  0.89166000  0.66447000  0.52711000  1.0
  O  O120  1  0.51747000  0.55458000  0.39347000  1.0
  O  O121  1  0.37630000  0.44172000  0.51387000  1.0
  O  O122  1  0.37463000  0.56116000  0.48226000  1.0
  O  O123  1  0.52498000  0.44074000  0.60045000  1.0
  O  O124  1  0.48082000  0.55728000  0.59826000  1.0
  O  O125  1  0.63109000  0.44186000  0.48609000  1.0
  O  O126  1  0.62804000  0.56242000  0.51527000  1.0
  O  O127  1  0.34309000  0.26352000  0.37663000  1.0
