# generated using pymatgen
data_KCrH31C25O12
_symmetry_space_group_name_H-M   'P 1'
_cell_length_a   10.48800000
_cell_length_b   10.55800000
_cell_length_c   13.88580000
_cell_angle_alpha   95.16480000
_cell_angle_beta   108.45500000
_cell_angle_gamma   97.56180000
_symmetry_Int_Tables_number   1
_chemical_formula_structural   KCrH31C25O12
_chemical_formula_sum   'K2 Cr2 H62 C50 O24'
_cell_volume   1431.60068632
_cell_formula_units_Z   2
loop_
 _symmetry_equiv_pos_site_id
 _symmetry_equiv_pos_as_xyz
  1  'x, y, z'
loop_
 _atom_site_type_symbol
 _atom_site_label
 _atom_site_symmetry_multiplicity
 _atom_site_fract_x
 _atom_site_fract_y
 _atom_site_fract_z
 _atom_site_occupancy
  K  K0  1  0.02195000  0.35727000  0.74613000  1.0
  K  K1  1  0.97804000  0.64272000  0.25387000  1.0
  Cr  Cr2  1  0.51415000  0.14233000  0.76093000  1.0
  Cr  Cr3  1  0.48585000  0.85766000  0.23907000  1.0
  H  H4  1  0.00252000  0.71186000  0.86656000  1.0
  H  H5  1  0.99747000  0.28815000  0.13344000  1.0
  H  H6  1  0.17217000  0.79164000  0.88475000  1.0
  H  H7  1  0.82782000  0.20837000  0.11524000  1.0
  H  H8  1  0.15141000  0.67981000  0.70997000  1.0
  H  H9  1  0.84859000  0.32019000  0.29002000  1.0
  H  H10  1  0.03762000  0.79140000  0.70851000  1.0
  H  H11  1  0.96237000  0.20860000  0.29148000  1.0
  H  H12  1  0.99115000  0.59484000  0.54448000  1.0
  H  H13  1  0.00885000  0.40516000  0.45552000  1.0
  H  H14  1  0.85934000  0.68157000  0.55142000  1.0
  H  H15  1  0.14065000  0.31843000  0.44858000  1.0
  H  H16  1  0.75845000  0.48063000  0.43948000  1.0
  H  H17  1  0.24155000  0.51937000  0.56052000  1.0
  H  H18  1  0.71035000  0.47653000  0.55154000  1.0
  H  H19  1  0.28965000  0.52347000  0.44846000  1.0
  H  H20  1  0.72204000  0.24856000  0.40793000  1.0
  H  H21  1  0.27797000  0.75144000  0.59207000  1.0
  H  H22  1  0.66702000  0.24621000  0.51717000  1.0
  H  H23  1  0.33298000  0.75379000  0.48282000  1.0
  H  H24  1  0.91859000  0.13882000  0.49940000  1.0
  H  H25  1  0.08141000  0.86118000  0.50060000  1.0
  H  H26  1  0.75252000  0.04537000  0.47245000  1.0
  H  H27  1  0.24748000  0.95463000  0.52755000  1.0
  H  H28  1  0.83479000  0.92667000  0.61308000  1.0
  H  H29  1  0.16520000  0.07333000  0.38692000  1.0
  H  H30  1  0.00476000  0.01500000  0.64372000  1.0
  H  H31  1  0.99524000  0.98500000  0.35628000  1.0
  H  H32  1  0.95462000  0.92491000  0.79347000  1.0
  H  H33  1  0.04538000  0.07509000  0.20653000  1.0
  H  H34  1  0.82848000  0.02648000  0.78285000  1.0
  H  H35  1  0.17151000  0.97353000  0.21714000  1.0
  H  H36  1  0.96056000  0.14253000  0.95100000  1.0
  H  H37  1  0.03943000  0.85747000  0.04900000  1.0
  H  H38  1  0.08527000  0.03883000  0.96029000  1.0
  H  H39  1  0.91473000  0.96118000  0.03971000  1.0
  H  H40  1  0.26039000  0.22767000  0.96899000  1.0
  H  H41  1  0.73961000  0.77233000  0.03101000  1.0
  H  H42  1  0.19547000  0.23704000  0.07302000  1.0
  H  H43  1  0.80453000  0.76297000  0.92697000  1.0
  H  H44  1  0.26350000  0.47005000  0.09751000  1.0
  H  H45  1  0.73650000  0.52995000  0.90249000  1.0
  H  H46  1  0.32121000  0.46000000  0.98947000  1.0
  H  H47  1  0.67878000  0.54000000  0.01052000  1.0
  H  H48  1  0.08261000  0.59325000  0.00526000  1.0
  H  H49  1  0.91739000  0.40676000  0.99474000  1.0
  H  H50  1  0.25287000  0.67311000  0.02884000  1.0
  H  H51  1  0.74712000  0.32689000  0.97116000  1.0
  H  H52  1  0.54356000  0.44067000  0.60034000  1.0
  H  H53  1  0.45644000  0.55933000  0.39966000  1.0
  H  H54  1  0.67155000  0.66422000  0.64676000  1.0
  H  H55  1  0.32844000  0.33578000  0.35323000  1.0
  H  H56  1  0.62852000  0.81751000  0.77564000  1.0
  H  H57  1  0.37148000  0.18248000  0.22435000  1.0
  H  H58  1  0.46005000  0.74447000  0.85976000  1.0
  H  H59  1  0.53995000  0.25553000  0.14024000  1.0
  H  H60  1  0.32951000  0.52108000  0.81074000  1.0
  H  H61  1  0.67049000  0.47892000  0.18926000  1.0
  H  H62  1  0.30091000  0.15214000  0.57825000  1.0
  H  H63  1  0.69910000  0.84786000  0.42176000  1.0
  H  H64  1  0.45567000  0.25455000  0.58185000  1.0
  H  H65  1  0.54433000  0.74544000  0.41816000  1.0
  C  C66  1  0.09540000  0.70461000  0.84609000  1.0
  C  C67  1  0.90460000  0.29540000  0.15391000  1.0
  C  C68  1  0.06189000  0.69779000  0.73171000  1.0
  C  C69  1  0.93810000  0.30221000  0.26829000  1.0
  C  C70  1  0.90414000  0.59460000  0.57290000  1.0
  C  C71  1  0.09586000  0.40540000  0.42710000  1.0
  C  C72  1  0.79707000  0.47724000  0.52262000  1.0
  C  C73  1  0.20293000  0.52276000  0.47738000  1.0
  C  C74  1  0.75722000  0.24925000  0.49196000  1.0
  C  C75  1  0.24278000  0.75075000  0.50804000  1.0
  C  C76  1  0.82315000  0.13267000  0.51822000  1.0
  C  C77  1  0.17685000  0.86733000  0.48177000  1.0
  C  C78  1  0.90603000  0.01515000  0.65671000  1.0
  C  C79  1  0.09397000  0.98485000  0.34328000  1.0
  C  C80  1  0.92531000  0.01693000  0.76925000  1.0
  C  C81  1  0.07469000  0.98307000  0.23075000  1.0
  C  C82  1  0.05439000  0.12915000  0.93380000  1.0
  C  C83  1  0.94561000  0.87085000  0.06620000  1.0
  C  C84  1  0.16883000  0.23895000  0.98958000  1.0
  C  C85  1  0.83116000  0.76105000  0.01042000  1.0
  C  C86  1  0.23139000  0.46729000  0.01341000  1.0
  C  C87  1  0.76861000  0.53272000  0.98658000  1.0
  C  C88  1  0.17597000  0.58853000  0.98537000  1.0
  C  C89  1  0.82402000  0.41148000  0.01463000  1.0
  C  C90  1  0.42842000  0.46478000  0.70310000  1.0
  C  C91  1  0.57158000  0.53522000  0.29690000  1.0
  C  C92  1  0.52580000  0.50663000  0.65791000  1.0
  C  C93  1  0.47420000  0.49337000  0.34209000  1.0
  C  C94  1  0.59714000  0.63285000  0.68334000  1.0
  C  C95  1  0.40285000  0.36715000  0.31666000  1.0
  C  C96  1  0.57322000  0.71885000  0.75563000  1.0
  C  C97  1  0.42678000  0.28115000  0.24437000  1.0
  C  C98  1  0.47777000  0.67808000  0.80232000  1.0
  C  C99  1  0.52224000  0.32192000  0.19769000  1.0
  C  C100  1  0.40552000  0.55232000  0.77574000  1.0
  C  C101  1  0.59449000  0.44768000  0.22427000  1.0
  C  C102  1  0.33970000  0.33297000  0.67031000  1.0
  C  C103  1  0.66031000  0.66703000  0.32970000  1.0
  C  C104  1  0.38544000  0.22818000  0.62309000  1.0
  C  C105  1  0.61457000  0.77182000  0.37692000  1.0
  C  C106  1  0.66436000  0.26062000  0.76266000  1.0
  C  C107  1  0.33564000  0.73938000  0.23735000  1.0
  C  C108  1  0.48362000  0.25395000  0.86102000  1.0
  C  C109  1  0.51639000  0.74604000  0.13899000  1.0
  C  C110  1  0.35278000  0.03355000  0.75146000  1.0
  C  C111  1  0.64722000  0.96644000  0.24855000  1.0
  C  C112  1  0.54217000  0.02578000  0.66180000  1.0
  C  C113  1  0.45783000  0.97422000  0.33821000  1.0
  C  C114  1  0.61664000  0.06620000  0.86451000  1.0
  C  C115  1  0.38336000  0.93377000  0.13549000  1.0
  O  O116  1  0.14667000  0.59089000  0.87753000  1.0
  O  O117  1  0.85333000  0.40912000  0.12247000  1.0
  O  O118  1  0.94848000  0.59717000  0.68175000  1.0
  O  O119  1  0.05152000  0.40283000  0.31825000  1.0
  O  O120  1  0.85458000  0.36286000  0.54223000  1.0
  O  O121  1  0.14542000  0.63714000  0.45778000  1.0
  O  O122  1  0.85113000  0.12700000  0.62497000  1.0
  O  O123  1  0.14887000  0.87300000  0.37503000  1.0
  O  O124  1  0.02914000  0.12249000  0.82610000  1.0
  O  O125  1  0.97086000  0.87751000  0.17390000  1.0
  O  O126  1  0.12596000  0.35830000  0.96391000  1.0
  O  O127  1  0.87403000  0.64171000  0.03609000  1.0
  O  O128  1  0.22623000  0.32019000  0.68429000  1.0
  O  O129  1  0.77378000  0.67980000  0.31572000  1.0
  O  O130  1  0.75892000  0.33541000  0.76580000  1.0
  O  O131  1  0.24109000  0.66459000  0.23419000  1.0
  O  O132  1  0.46850000  0.31795000  0.92843000  1.0
  O  O133  1  0.53151000  0.68204000  0.07158000  1.0
  O  O134  1  0.25406000  0.96444000  0.74728000  1.0
  O  O135  1  0.74594000  0.03555000  0.25272000  1.0
  O  O136  1  0.56085000  0.95069000  0.60287000  1.0
  O  O137  1  0.43914000  0.04930000  0.39713000  1.0
  O  O138  1  0.68335000  0.01896000  0.93270000  1.0
  O  O139  1  0.31667000  0.98104000  0.06730000  1.0
