# generated using pymatgen
data_LiH4C7(OF)3
_symmetry_space_group_name_H-M   'P 1'
_cell_length_a   4.92794000
_cell_length_b   5.22549000
_cell_length_c   14.96770000
_cell_angle_alpha   92.17010000
_cell_angle_beta   89.99970000
_cell_angle_gamma   89.99910000
_symmetry_Int_Tables_number   1
_chemical_formula_structural   LiH4C7(OF)3
_chemical_formula_sum   'Li2 H8 C14 O6 F6'
_cell_volume   385.15533711
_cell_formula_units_Z   2
loop_
 _symmetry_equiv_pos_site_id
 _symmetry_equiv_pos_as_xyz
  1  'x, y, z'
loop_
 _atom_site_type_symbol
 _atom_site_label
 _atom_site_symmetry_multiplicity
 _atom_site_fract_x
 _atom_site_fract_y
 _atom_site_fract_z
 _atom_site_occupancy
  Li  Li0  1  0.74104000  0.91434000  0.55313000  1.0
  Li  Li1  1  0.24105000  0.08566000  0.44687000  1.0
  H  H2  1  0.49584000  0.52206000  0.50547000  1.0
  H  H3  1  0.99584000  0.47795000  0.49453000  1.0
  H  H4  1  0.63757000  0.41855000  0.58876000  1.0
  H  H5  1  0.13758000  0.58146000  0.41124000  1.0
  H  H6  1  0.15692000  0.48207000  0.92434000  1.0
  H  H7  1  0.65692000  0.51791000  0.07566000  1.0
  H  H8  1  0.67810000  0.79999000  0.86575000  1.0
  H  H9  1  0.17809000  0.19999000  0.13425000  1.0
  C  C10  1  0.13884000  0.10030000  0.73186000  1.0
  C  C11  1  0.63886000  0.89970000  0.26814000  1.0
  C  C12  1  0.09754000  0.32479000  0.87889000  1.0
  C  C13  1  0.59754000  0.67520000  0.12112000  1.0
  C  C14  1  0.90640000  0.14438000  0.90234000  1.0
  C  C15  1  0.40640000  0.85561000  0.09766000  1.0
  C  C16  1  0.94651000  0.92610000  0.76202000  1.0
  C  C17  1  0.44652000  0.07390000  0.23798000  1.0
  C  C18  1  0.20933000  0.29662000  0.79390000  1.0
  C  C19  1  0.70934000  0.70338000  0.20610000  1.0
  C  C20  1  0.26333000  0.07837000  0.63998000  1.0
  C  C21  1  0.76335000  0.92164000  0.36001000  1.0
  C  C22  1  0.82677000  0.94096000  0.84610000  1.0
  C  C23  1  0.32677000  0.05904000  0.15390000  1.0
  O  O24  1  0.11141000  0.01965000  0.57354000  1.0
  O  O25  1  0.61142000  0.98035000  0.42646000  1.0
  O  O26  1  0.51600000  0.12056000  0.63436000  1.0
  O  O27  1  0.01601000  0.87945000  0.36564000  1.0
  O  O28  1  0.66350000  0.54453000  0.54190000  1.0
  O  O29  1  0.16350000  0.45548000  0.45810000  1.0
  F  F30  1  0.87709000  0.72402000  0.70715000  1.0
  F  F31  1  0.37709000  0.27598000  0.29285000  1.0
  F  F32  1  0.39219000  0.47639000  0.77037000  1.0
  F  F33  1  0.89219000  0.52360000  0.22963000  1.0
  F  F34  1  0.79246000  0.16852000  0.98544000  1.0
  F  F35  1  0.29247000  0.83147000  0.01456000  1.0
