# generated using pymatgen
data_ErH6C6NO8
_symmetry_space_group_name_H-M   'P 1'
_cell_length_a   6.68042000
_cell_length_b   7.82973000
_cell_length_c   9.14866000
_cell_angle_alpha   95.80220000
_cell_angle_beta   110.95800000
_cell_angle_gamma   94.20500000
_symmetry_Int_Tables_number   1
_chemical_formula_structural   ErH6C6NO8
_chemical_formula_sum   'Er2 H12 C12 N2 O16'
_cell_volume   441.48342367
_cell_formula_units_Z   2
loop_
 _symmetry_equiv_pos_site_id
 _symmetry_equiv_pos_as_xyz
  1  'x, y, z'
loop_
 _atom_site_type_symbol
 _atom_site_label
 _atom_site_symmetry_multiplicity
 _atom_site_fract_x
 _atom_site_fract_y
 _atom_site_fract_z
 _atom_site_occupancy
  Er  Er0  1  0.37519000  0.76383000  0.21603000  1.0
  Er  Er1  1  0.62481000  0.23617000  0.78396000  1.0
  H  H2  1  0.75447000  0.26358000  0.38113000  1.0
  H  H3  1  0.24553000  0.73640000  0.61889000  1.0
  H  H4  1  0.96373000  0.22702000  0.55577000  1.0
  H  H5  1  0.03628000  0.77299000  0.44425000  1.0
  H  H6  1  0.02707000  0.83565000  0.77260000  1.0
  H  H7  1  0.97292000  0.16434000  0.22740000  1.0
  H  H8  1  0.77906000  0.71259000  0.73872000  1.0
  H  H9  1  0.22092000  0.28741000  0.26128000  1.0
  H  H10  1  0.93174000  0.57336000  0.09433000  1.0
  H  H11  1  0.06827000  0.42664000  0.90566000  1.0
  H  H12  1  0.89143000  0.76924000  0.11772000  1.0
  H  H13  1  0.10857000  0.23076000  0.88227000  1.0
  C  C14  1  0.84265000  0.46562000  0.57049000  1.0
  C  C15  1  0.15735000  0.53438000  0.42951000  1.0
  C  C16  1  0.90415000  0.32424000  0.47686000  1.0
  C  C17  1  0.09585000  0.67576000  0.52315000  1.0
  C  C18  1  0.88058000  0.76747000  0.67959000  1.0
  C  C19  1  0.11942000  0.23253000  0.32042000  1.0
  C  C20  1  0.75691000  0.89593000  0.57620000  1.0
  C  C21  1  0.24309000  0.10406000  0.42378000  1.0
  C  C22  1  0.61011000  0.96537000  0.01663000  1.0
  C  C23  1  0.38989000  0.03461000  0.98339000  1.0
  C  C24  1  0.58543000  0.47346000  0.07415000  1.0
  C  C25  1  0.41457000  0.52655000  0.92586000  1.0
  N  N26  1  0.93649000  0.62675000  0.59029000  1.0
  N  N27  1  0.06351000  0.37325000  0.40972000  1.0
  O  O28  1  0.70471000  0.42613000  0.62983000  1.0
  O  O29  1  0.29526000  0.57386000  0.37016000  1.0
  O  O30  1  0.74688000  0.04039000  0.64628000  1.0
  O  O31  1  0.25311000  0.95962000  0.35372000  1.0
  O  O32  1  0.67538000  0.85147000  0.42804000  1.0
  O  O33  1  0.32463000  0.14853000  0.57197000  1.0
  O  O34  1  0.72215000  0.01584000  0.94055000  1.0
  O  O35  1  0.27787000  0.98417000  0.05944000  1.0
  O  O36  1  0.66049000  0.86186000  0.11931000  1.0
  O  O37  1  0.33951000  0.13814000  0.88066000  1.0
  O  O38  1  0.72289000  0.38155000  0.04927000  1.0
  O  O39  1  0.27713000  0.61844000  0.95072000  1.0
  O  O40  1  0.57901000  0.52797000  0.20641000  1.0
  O  O41  1  0.42099000  0.47203000  0.79357000  1.0
  O  O42  1  0.99898000  0.69239000  0.10597000  1.0
  O  O43  1  0.00102000  0.30761000  0.89402000  1.0
