# generated using pymatgen
data_CuH10C12(N3O)4
_symmetry_space_group_name_H-M   'P 1'
_cell_length_a   8.20727000
_cell_length_b   8.20730000
_cell_length_c   13.28780000
_cell_angle_alpha   99.43540000
_cell_angle_beta   99.43500000
_cell_angle_gamma   104.49800000
_symmetry_Int_Tables_number   1
_chemical_formula_structural   CuH10C12(N3O)4
_chemical_formula_sum   'Cu2 H20 C24 N24 O8'
_cell_volume   834.91575674
_cell_formula_units_Z   2
loop_
 _symmetry_equiv_pos_site_id
 _symmetry_equiv_pos_as_xyz
  1  'x, y, z'
loop_
 _atom_site_type_symbol
 _atom_site_label
 _atom_site_symmetry_multiplicity
 _atom_site_fract_x
 _atom_site_fract_y
 _atom_site_fract_z
 _atom_site_occupancy
  Cu  Cu0  1  0.00000000  0.00000000  0.50000000  1.0
  Cu  Cu1  1  0.99999000  1.00000000  1.00000000  1.0
  H  H2  1  0.01492000  0.39808000  0.58198000  1.0
  H  H3  1  0.60192000  0.98507000  0.91802000  1.0
  H  H4  1  0.98508000  0.60191000  0.41803000  1.0
  H  H5  1  0.39809000  0.01493000  0.08197000  1.0
  H  H6  1  0.64671000  0.94309000  0.59222000  1.0
  H  H7  1  0.05691000  0.35328000  0.90778000  1.0
  H  H8  1  0.35328000  0.05690000  0.40778000  1.0
  H  H9  1  0.94310000  0.64673000  0.09222000  1.0
  H  H10  1  0.59771000  0.50035000  0.63561000  1.0
  H  H11  1  0.49965000  0.40228000  0.86438000  1.0
  H  H12  1  0.40229000  0.49964000  0.36439000  1.0
  H  H13  1  0.50036000  0.59772000  0.13562000  1.0
  H  H14  1  0.68596000  0.75194000  0.80571000  1.0
  H  H15  1  0.24806000  0.31404000  0.69429000  1.0
  H  H16  1  0.31404000  0.24806000  0.19429000  1.0
  H  H17  1  0.75194000  0.68597000  0.30571000  1.0
  H  H18  1  0.21271000  0.77430000  0.87659000  1.0
  H  H19  1  0.22570000  0.78728000  0.62342000  1.0
  H  H20  1  0.78729000  0.22571000  0.12341000  1.0
  H  H21  1  0.77430000  0.21272000  0.37659000  1.0
  C  C22  1  0.89832000  0.30651000  0.58937000  1.0
  C  C23  1  0.69348000  0.10168000  0.91063000  1.0
  C  C24  1  0.10167000  0.69348000  0.41063000  1.0
  C  C25  1  0.30652000  0.89833000  0.08936000  1.0
  C  C26  1  0.70824000  0.07800000  0.59675000  1.0
  C  C27  1  0.92200000  0.29176000  0.90325000  1.0
  C  C28  1  0.29176000  0.92199000  0.40326000  1.0
  C  C29  1  0.07801000  0.70825000  0.09675000  1.0
  C  C30  1  0.73287000  0.51561000  0.63054000  1.0
  C  C31  1  0.48439000  0.26713000  0.86946000  1.0
  C  C32  1  0.26713000  0.48439000  0.36947000  1.0
  C  C33  1  0.51562000  0.73288000  0.13054000  1.0
  C  C34  1  0.76749000  0.60311000  0.53473000  1.0
  C  C35  1  0.39688000  0.23252000  0.96526000  1.0
  C  C36  1  0.23251000  0.39688000  0.46526000  1.0
  C  C37  1  0.60312000  0.76749000  0.03474000  1.0
  C  C38  1  0.81156000  0.73377000  0.80200000  1.0
  C  C39  1  0.26623000  0.18843000  0.69800000  1.0
  C  C40  1  0.18843000  0.26623000  0.19800000  1.0
  C  C41  1  0.73377000  0.81157000  0.30200000  1.0
  C  C42  1  0.07810000  0.74139000  0.83757000  1.0
  C  C43  1  0.25861000  0.92189000  0.66243000  1.0
  C  C44  1  0.92190000  0.25861000  0.16243000  1.0
  C  C45  1  0.74139000  0.07811000  0.33757000  1.0
  N  N46  1  0.75928000  0.34695000  0.61493000  1.0
  N  N47  1  0.65305000  0.24072000  0.88507000  1.0
  N  N48  1  0.24072000  0.65304000  0.38508000  1.0
  N  N49  1  0.34696000  0.75928000  0.11493000  1.0
  N  N50  1  0.86958000  0.13662000  0.57747000  1.0
  N  N51  1  0.86337000  0.13041000  0.92253000  1.0
  N  N52  1  0.13041000  0.86337000  0.42253000  1.0
  N  N53  1  0.13663000  0.86959000  0.07747000  1.0
  N  N54  1  0.63685000  0.20326000  0.62020000  1.0
  N  N55  1  0.79674000  0.36314000  0.87979000  1.0
  N  N56  1  0.36314000  0.79674000  0.37980000  1.0
  N  N57  1  0.20327000  0.63687000  0.12021000  1.0
  N  N58  1  0.84416000  0.62111000  0.72829000  1.0
  N  N59  1  0.37889000  0.15584000  0.77171000  1.0
  N  N60  1  0.15584000  0.37890000  0.27171000  1.0
  N  N61  1  0.62111000  0.84416000  0.22829000  1.0
  N  N62  1  0.01311000  0.62489000  0.74918000  1.0
  N  N63  1  0.37511000  0.98689000  0.75082000  1.0
  N  N64  1  0.98689000  0.37511000  0.25082000  1.0
  N  N65  1  0.62489000  0.01311000  0.24918000  1.0
  N  N66  1  0.95849000  0.81281000  0.87232000  1.0
  N  N67  1  0.18719000  0.04150000  0.62768000  1.0
  N  N68  1  0.04151000  0.18719000  0.12767000  1.0
  N  N69  1  0.81281000  0.95850000  0.37233000  1.0
  O  O70  1  0.82675000  0.76424000  0.55964000  1.0
  O  O71  1  0.23576000  0.17325000  0.94036000  1.0
  O  O72  1  0.17323000  0.23576000  0.44035000  1.0
  O  O73  1  0.76424000  0.82677000  0.05964000  1.0
  O  O74  1  0.72987000  0.50186000  0.44693000  1.0
  O  O75  1  0.49813000  0.27013000  0.05307000  1.0
  O  O76  1  0.27014000  0.49812000  0.55308000  1.0
  O  O77  1  0.50187000  0.72985000  0.94693000  1.0
