# generated using pymatgen
data_SnH14C13SN3Cl
_symmetry_space_group_name_H-M   'P 1'
_cell_length_a   8.42524000
_cell_length_b   10.36540000
_cell_length_c   17.10500000
_cell_angle_alpha   89.99990000
_cell_angle_beta   91.59840000
_cell_angle_gamma   89.99990000
_symmetry_Int_Tables_number   1
_chemical_formula_structural   SnH14C13SN3Cl
_chemical_formula_sum   'Sn4 H56 C52 S4 N12 Cl4'
_cell_volume   1493.21521440
_cell_formula_units_Z   4
loop_
 _symmetry_equiv_pos_site_id
 _symmetry_equiv_pos_as_xyz
  1  'x, y, z'
loop_
 _atom_site_type_symbol
 _atom_site_label
 _atom_site_symmetry_multiplicity
 _atom_site_fract_x
 _atom_site_fract_y
 _atom_site_fract_z
 _atom_site_occupancy
  Sn  Sn0  1  0.66115000  0.26938000  0.07133000  1.0
  Sn  Sn1  1  0.33885000  0.76937000  0.42866000  1.0
  Sn  Sn2  1  0.33885000  0.73063000  0.92866000  1.0
  Sn  Sn3  1  0.66115000  0.23062000  0.57134000  1.0
  H  H4  1  0.47843000  0.48522000  0.07154000  1.0
  H  H5  1  0.52157000  0.98522000  0.42846000  1.0
  H  H6  1  0.52157000  0.51478000  0.92846000  1.0
  H  H7  1  0.47843000  0.01478000  0.57154000  1.0
  H  H8  1  0.64678000  0.50274000  0.13802000  1.0
  H  H9  1  0.35322000  0.00274000  0.36198000  1.0
  H  H10  1  0.35322000  0.49726000  0.86198000  1.0
  H  H11  1  0.64677000  0.99726000  0.63802000  1.0
  H  H12  1  0.47808000  0.41015000  0.16626000  1.0
  H  H13  1  0.52192000  0.91015000  0.33373000  1.0
  H  H14  1  0.52192000  0.58985000  0.83373000  1.0
  H  H15  1  0.47808000  0.08985000  0.66627000  1.0
  H  H16  1  0.72948000  0.01861000  0.06889000  1.0
  H  H17  1  0.27051000  0.51861000  0.43111000  1.0
  H  H18  1  0.27051000  0.98139000  0.93111000  1.0
  H  H19  1  0.72949000  0.48139000  0.56889000  1.0
  H  H20  1  0.90679000  0.10735000  0.04858000  1.0
  H  H21  1  0.09320000  0.60735000  0.45142000  1.0
  H  H22  1  0.09320000  0.89265000  0.95142000  1.0
  H  H23  1  0.90680000  0.39265000  0.54858000  1.0
  H  H24  1  0.76019000  0.08000000  0.97228000  1.0
  H  H25  1  0.23981000  0.58000000  0.52772000  1.0
  H  H26  1  0.23981000  0.92000000  0.02772000  1.0
  H  H27  1  0.76019000  0.42000000  0.47228000  1.0
  H  H28  1  0.73359000  0.16114000  0.24230000  1.0
  H  H29  1  0.26641000  0.66114000  0.25770000  1.0
  H  H30  1  0.26641000  0.83886000  0.75770000  1.0
  H  H31  1  0.73359000  0.33886000  0.74230000  1.0
  H  H32  1  0.93556000  0.15569000  0.35139000  1.0
  H  H33  1  0.06444000  0.65569000  0.14861000  1.0
  H  H34  1  0.06444000  0.84431000  0.64861000  1.0
  H  H35  1  0.93556000  0.34432000  0.85139000  1.0
  H  H36  1  0.22081000  0.41518000  0.21483000  1.0
  H  H37  1  0.77918000  0.91517000  0.28517000  1.0
  H  H38  1  0.77919000  0.58483000  0.78517000  1.0
  H  H39  1  0.22081000  0.08483000  0.71483000  1.0
  H  H40  1  0.00612000  0.40876000  0.11172000  1.0
  H  H41  1  0.99388000  0.90876000  0.38828000  1.0
  H  H42  1  0.99389000  0.59124000  0.88828000  1.0
  H  H43  1  0.00611000  0.09124000  0.61172000  1.0
  H  H44  1  0.06114000  0.23938000  0.44918000  1.0
  H  H45  1  0.93887000  0.73938000  0.05082000  1.0
  H  H46  1  0.93886000  0.76063000  0.55082000  1.0
  H  H47  1  0.06113000  0.26062000  0.94918000  1.0
  H  H48  1  0.27694000  0.22469000  0.55018000  1.0
  H  H49  1  0.72306000  0.72469000  0.94982000  1.0
  H  H50  1  0.72306000  0.77531000  0.44982000  1.0
  H  H51  1  0.27694000  0.27531000  0.05018000  1.0
  H  H52  1  0.62331000  0.29109000  0.38733000  1.0
  H  H53  1  0.37669000  0.79109000  0.11267000  1.0
  H  H54  1  0.37669000  0.70891000  0.61267000  1.0
  H  H55  1  0.62331000  0.20891000  0.88733000  1.0
  H  H56  1  0.42355000  0.30801000  0.27893000  1.0
  H  H57  1  0.57645000  0.80801000  0.22107000  1.0
  H  H58  1  0.57645000  0.69198000  0.72107000  1.0
  H  H59  1  0.42355000  0.19199000  0.77893000  1.0
  C  C60  1  0.55139000  0.43854000  0.11733000  1.0
  C  C61  1  0.44861000  0.93854000  0.38267000  1.0
  C  C62  1  0.44860000  0.56146000  0.88267000  1.0
  C  C63  1  0.55139000  0.06146000  0.61733000  1.0
  C  C64  1  0.77951000  0.09753000  0.03497000  1.0
  C  C65  1  0.22049000  0.59753000  0.46503000  1.0
  C  C66  1  0.22049000  0.90247000  0.96503000  1.0
  C  C67  1  0.77951000  0.40247000  0.53497000  1.0
  C  C68  1  0.84432000  0.21529000  0.23918000  1.0
  C  C69  1  0.15568000  0.71529000  0.26082000  1.0
  C  C70  1  0.15568000  0.78470000  0.76082000  1.0
  C  C71  1  0.84432000  0.28471000  0.73918000  1.0
  C  C72  1  0.95776000  0.21302000  0.29944000  1.0
  C  C73  1  0.04224000  0.71302000  0.20056000  1.0
  C  C74  1  0.04224000  0.78698000  0.70056000  1.0
  C  C75  1  0.95776000  0.28698000  0.79944000  1.0
  C  C76  1  0.09837000  0.28379000  0.29228000  1.0
  C  C77  1  0.90163000  0.78379000  0.20772000  1.0
  C  C78  1  0.90162000  0.71621000  0.70772000  1.0
  C  C79  1  0.09837000  0.21621000  0.79228000  1.0
  C  C80  1  0.11560000  0.35648000  0.22380000  1.0
  C  C81  1  0.88440000  0.85648000  0.27620000  1.0
  C  C82  1  0.88440000  0.64352000  0.77620000  1.0
  C  C83  1  0.11560000  0.14352000  0.72380000  1.0
  C  C84  1  0.99627000  0.35402000  0.16600000  1.0
  C  C85  1  0.00373000  0.85402000  0.33400000  1.0
  C  C86  1  0.00374000  0.64597000  0.83400000  1.0
  C  C87  1  0.99626000  0.14598000  0.66600000  1.0
  C  C88  1  0.22292000  0.27767000  0.35459000  1.0
  C  C89  1  0.77708000  0.77767000  0.14541000  1.0
  C  C90  1  0.77708000  0.72233000  0.64541000  1.0
  C  C91  1  0.22292000  0.22233000  0.85459000  1.0
  C  C92  1  0.18375000  0.25301000  0.43241000  1.0
  C  C93  1  0.81625000  0.75301000  0.06759000  1.0
  C  C94  1  0.81625000  0.74699000  0.56759000  1.0
  C  C95  1  0.18375000  0.24699000  0.93241000  1.0
  C  C96  1  0.30376000  0.24399000  0.48936000  1.0
  C  C97  1  0.69624000  0.74399000  0.01065000  1.0
  C  C98  1  0.69624000  0.75602000  0.51064000  1.0
  C  C99  1  0.30376000  0.25601000  0.98936000  1.0
  C  C100  1  0.49719000  0.28170000  0.39852000  1.0
  C  C101  1  0.50281000  0.78170000  0.10148000  1.0
  C  C102  1  0.50282000  0.71830000  0.60148000  1.0
  C  C103  1  0.49718000  0.21830000  0.89852000  1.0
  C  C104  1  0.38420000  0.29271000  0.33829000  1.0
  C  C105  1  0.61580000  0.79271000  0.16171000  1.0
  C  C106  1  0.61580000  0.70729000  0.66171000  1.0
  C  C107  1  0.38419000  0.20729000  0.83829000  1.0
  C  C108  1  0.39018000  0.09384000  0.16298000  1.0
  C  C109  1  0.60985000  0.59382000  0.33703000  1.0
  C  C110  1  0.60983000  0.90616000  0.83702000  1.0
  C  C111  1  0.39017000  0.40617000  0.66297000  1.0
  S  S112  1  0.22507000  0.02095000  0.17604000  1.0
  S  S113  1  0.77495000  0.52094000  0.32396000  1.0
  S  S114  1  0.77493000  0.97905000  0.82396000  1.0
  S  S115  1  0.22507000  0.47905000  0.67604000  1.0
  N  N116  1  0.86304000  0.28391000  0.17337000  1.0
  N  N117  1  0.13696000  0.78391000  0.32662000  1.0
  N  N118  1  0.13696000  0.71609000  0.82662000  1.0
  N  N119  1  0.86304000  0.21609000  0.67338000  1.0
  N  N120  1  0.45795000  0.25801000  0.47290000  1.0
  N  N121  1  0.54206000  0.75801000  0.02710000  1.0
  N  N122  1  0.54205000  0.74199000  0.52710000  1.0
  N  N123  1  0.45794000  0.24199000  0.97290000  1.0
  N  N124  1  0.51412000  0.14793000  0.15491000  1.0
  N  N125  1  0.48589000  0.64792000  0.34509000  1.0
  N  N126  1  0.48587000  0.85208000  0.84509000  1.0
  N  N127  1  0.51412000  0.35208000  0.65491000  1.0
  Cl  Cl128  1  0.81409000  0.41324000  0.97707000  1.0
  Cl  Cl129  1  0.18591000  0.91324000  0.52293000  1.0
  Cl  Cl130  1  0.18590000  0.58676000  0.02293000  1.0
  Cl  Cl131  1  0.81409000  0.08676000  0.47707000  1.0
