# generated using pymatgen
data_NdH6C10N2O7
_symmetry_space_group_name_H-M   'P 1'
_cell_length_a   7.56012000
_cell_length_b   9.01184000
_cell_length_c   9.77233000
_cell_angle_alpha   117.45100000
_cell_angle_beta   92.41860000
_cell_angle_gamma   98.96600000
_symmetry_Int_Tables_number   1
_chemical_formula_structural   NdH6C10N2O7
_chemical_formula_sum   'Nd2 H12 C20 N4 O14'
_cell_volume   578.64989249
_cell_formula_units_Z   2
loop_
 _symmetry_equiv_pos_site_id
 _symmetry_equiv_pos_as_xyz
  1  'x, y, z'
loop_
 _atom_site_type_symbol
 _atom_site_label
 _atom_site_symmetry_multiplicity
 _atom_site_fract_x
 _atom_site_fract_y
 _atom_site_fract_z
 _atom_site_occupancy
  Nd  Nd0  1  0.12541000  0.34620000  0.32003000  1.0
  Nd  Nd1  1  0.87460000  0.65380000  0.67997000  1.0
  H  H2  1  0.72526000  0.21205000  0.00449000  1.0
  H  H3  1  0.27474000  0.78796000  0.99551000  1.0
  H  H4  1  0.53814000  0.22072000  0.21501000  1.0
  H  H5  1  0.46186000  0.77928000  0.78498000  1.0
  H  H6  1  0.66423000  0.26210000  0.73103000  1.0
  H  H7  1  0.33577000  0.73790000  0.26897000  1.0
  H  H8  1  0.08012000  0.37715000  0.94529000  1.0
  H  H9  1  0.91988000  0.62284000  0.05471000  1.0
  H  H10  1  0.82722000  0.08073000  0.36339000  1.0
  H  H11  1  0.17278000  0.91928000  0.63661000  1.0
  H  H12  1  0.75199000  0.25412000  0.43237000  1.0
  H  H13  1  0.24800000  0.74588000  0.56764000  1.0
  C  C14  1  0.49409000  0.26426000  0.90489000  1.0
  C  C15  1  0.50590000  0.73574000  0.09511000  1.0
  C  C16  1  0.33074000  0.29803000  0.96788000  1.0
  C  C17  1  0.66925000  0.70196000  0.03211000  1.0
  C  C18  1  0.49134000  0.24022000  0.11906000  1.0
  C  C19  1  0.50865000  0.75978000  0.88094000  1.0
  C  C20  1  0.53466000  0.27992000  0.77404000  1.0
  C  C21  1  0.46534000  0.72008000  0.22596000  1.0
  C  C22  1  0.20339000  0.34464000  0.89589000  1.0
  C  C23  1  0.79661000  0.65536000  0.10411000  1.0
  C  C24  1  0.46207000  0.33056000  0.55643000  1.0
  C  C25  1  0.53793000  0.66944000  0.44357000  1.0
  C  C26  1  0.10026000  0.42697000  0.70645000  1.0
  C  C27  1  0.89974000  0.57303000  0.29355000  1.0
  C  C28  1  0.40691000  0.32653000  0.70129000  1.0
  C  C29  1  0.59309000  0.67346000  0.29871000  1.0
  C  C30  1  0.23911000  0.35796000  0.76184000  1.0
  C  C31  1  0.76089000  0.64204000  0.23816000  1.0
  C  C32  1  0.94868000  0.04541000  0.96577000  1.0
  C  C33  1  0.05132000  0.95459000  0.03422000  1.0
  N  N34  1  0.33372000  0.28274000  0.10350000  1.0
  N  N35  1  0.66627000  0.71726000  0.89650000  1.0
  N  N36  1  0.59110000  0.22663000  0.00321000  1.0
  N  N37  1  0.40890000  0.77337000  0.99679000  1.0
  O  O38  1  0.13206000  0.48339000  0.60745000  1.0
  O  O39  1  0.86795000  0.51661000  0.39255000  1.0
  O  O40  1  0.95378000  0.44161000  0.76537000  1.0
  O  O41  1  0.04622000  0.55839000  0.23463000  1.0
  O  O42  1  0.62868000  0.39027000  0.55963000  1.0
  O  O43  1  0.37132000  0.60974000  0.44037000  1.0
  O  O44  1  0.92931000  0.19505000  0.06170000  1.0
  O  O45  1  0.07069000  0.80495000  0.93829000  1.0
  O  O46  1  0.34900000  0.26258000  0.43472000  1.0
  O  O47  1  0.65100000  0.73742000  0.56528000  1.0
  O  O48  1  0.89075000  0.96761000  0.82309000  1.0
  O  O49  1  0.10925000  0.03238000  0.17690000  1.0
  O  O50  1  0.83881000  0.19045000  0.36509000  1.0
  O  O51  1  0.16119000  0.80956000  0.63491000  1.0
