# generated using pymatgen
data_CdH8C12S2(N2Cl)2
_symmetry_space_group_name_H-M   'P 1'
_cell_length_a   8.61218000
_cell_length_b   11.43070000
_cell_length_c   18.11430000
_cell_angle_alpha   77.89200000
_cell_angle_beta   76.58800000
_cell_angle_gamma   67.91610000
_symmetry_Int_Tables_number   1
_chemical_formula_structural   CdH8C12S2(N2Cl)2
_chemical_formula_sum   'Cd4 H32 C48 S8 N16 Cl8'
_cell_volume   1592.41180870
_cell_formula_units_Z   4
loop_
 _symmetry_equiv_pos_site_id
 _symmetry_equiv_pos_as_xyz
  1  'x, y, z'
loop_
 _atom_site_type_symbol
 _atom_site_label
 _atom_site_symmetry_multiplicity
 _atom_site_fract_x
 _atom_site_fract_y
 _atom_site_fract_z
 _atom_site_occupancy
  Cd  Cd0  1  0.00000000  0.00000000  0.50000000  1.0
  Cd  Cd1  1  0.50000000  0.50000000  0.00000000  1.0
  Cd  Cd2  1  0.96131000  0.25020000  0.74994000  1.0
  Cd  Cd3  1  0.03869000  0.74980000  0.25006000  1.0
  H  H4  1  0.71882000  0.21846000  0.60403000  1.0
  H  H5  1  0.45988000  0.71911000  0.10366000  1.0
  H  H6  1  0.28118000  0.78154000  0.39597000  1.0
  H  H7  1  0.54012000  0.28089000  0.89633000  1.0
  H  H8  1  0.44585000  0.40144000  0.59808000  1.0
  H  H9  1  0.55536000  0.90249000  0.09768000  1.0
  H  H10  1  0.55415000  0.59856000  0.40192000  1.0
  H  H11  1  0.44464000  0.09751000  0.90231000  1.0
  H  H12  1  0.42562000  0.29287000  0.38651000  1.0
  H  H13  1  0.89360000  0.79250000  0.88707000  1.0
  H  H14  1  0.57438000  0.70713000  0.61349000  1.0
  H  H15  1  0.10640000  0.20751000  0.11292000  1.0
  H  H16  1  0.69908000  0.11167000  0.40233000  1.0
  H  H17  1  0.78613000  0.61099000  0.90290000  1.0
  H  H18  1  0.30092000  0.88833000  0.59767000  1.0
  H  H19  1  0.21387000  0.38901000  0.09710000  1.0
  H  H20  1  0.16352000  0.00235000  0.86117000  1.0
  H  H21  1  0.97354000  0.50283000  0.36165000  1.0
  H  H22  1  0.83647000  0.99764000  0.13883000  1.0
  H  H23  1  0.02647000  0.49717000  0.63835000  1.0
  H  H24  1  0.43844000  0.81972000  0.86205000  1.0
  H  H25  1  0.88013000  0.32014000  0.36241000  1.0
  H  H26  1  0.56155000  0.18027000  0.13794000  1.0
  H  H27  1  0.11987000  0.67986000  0.63759000  1.0
  H  H28  1  0.61441000  0.98682000  0.63569000  1.0
  H  H29  1  0.76274000  0.48568000  0.13519000  1.0
  H  H30  1  0.38559000  0.01318000  0.36431000  1.0
  H  H31  1  0.23727000  0.51432000  0.86481000  1.0
  H  H32  1  0.33194000  0.16371000  0.64527000  1.0
  H  H33  1  0.85921000  0.66260000  0.14491000  1.0
  H  H34  1  0.66806000  0.83628000  0.35473000  1.0
  H  H35  1  0.14080000  0.33740000  0.85508000  1.0
  C  C36  1  0.07247000  0.23492000  0.55622000  1.0
  C  C37  1  0.13569000  0.73465000  0.05622000  1.0
  C  C38  1  0.92752000  0.76508000  0.44379000  1.0
  C  C39  1  0.86431000  0.26535000  0.94379000  1.0
  C  C40  1  0.90896000  0.01600000  0.69081000  1.0
  C  C41  1  0.38540000  0.51651000  0.19087000  1.0
  C  C42  1  0.09103000  0.98400000  0.30920000  1.0
  C  C43  1  0.61460000  0.48349000  0.80913000  1.0
  C  C44  1  0.64941000  0.23691000  0.55711000  1.0
  C  C45  1  0.55716000  0.73739000  0.05696000  1.0
  C  C46  1  0.35058000  0.76309000  0.44289000  1.0
  C  C47  1  0.44284000  0.26262000  0.94304000  1.0
  C  C48  1  0.49735000  0.33909000  0.55376000  1.0
  C  C49  1  0.61012000  0.83978000  0.05357000  1.0
  C  C50  1  0.50265000  0.66091000  0.44624000  1.0
  C  C51  1  0.38988000  0.16022000  0.94643000  1.0
  C  C52  1  0.41563000  0.35979000  0.49155000  1.0
  C  C53  1  0.73268000  0.86014000  0.99166000  1.0
  C  C54  1  0.58437000  0.64021000  0.50844000  1.0
  C  C55  1  0.26733000  0.13987000  0.00833000  1.0
  C  C56  1  0.48651000  0.27794000  0.43570000  1.0
  C  C57  1  0.79906000  0.77779000  0.93607000  1.0
  C  C58  1  0.51349000  0.72206000  0.56430000  1.0
  C  C59  1  0.20094000  0.22222000  0.06393000  1.0
  C  C60  1  0.63788000  0.17772000  0.44460000  1.0
  C  C61  1  0.73934000  0.67741000  0.94498000  1.0
  C  C62  1  0.36212000  0.82228000  0.55540000  1.0
  C  C63  1  0.26066000  0.32259000  0.05502000  1.0
  C  C64  1  0.26724000  0.99624000  0.81263000  1.0
  C  C65  1  0.92429000  0.49631000  0.31290000  1.0
  C  C66  1  0.73275000  0.00376000  0.18737000  1.0
  C  C67  1  0.07571000  0.50369000  0.68710000  1.0
  C  C68  1  0.42067000  0.89462000  0.81319000  1.0
  C  C69  1  0.87172000  0.39473000  0.31341000  1.0
  C  C70  1  0.57933000  0.10537000  0.18681000  1.0
  C  C71  1  0.12828000  0.60527000  0.68659000  1.0
  C  C72  1  0.54635000  0.89017000  0.74826000  1.0
  C  C73  1  0.81508000  0.38991000  0.24821000  1.0
  C  C74  1  0.45365000  0.10983000  0.25174000  1.0
  C  C75  1  0.18492000  0.61009000  0.75179000  1.0
  C  C76  1  0.51771000  0.98768000  0.68658000  1.0
  C  C77  1  0.80785000  0.48691000  0.18632000  1.0
  C  C78  1  0.48228000  0.01232000  0.31342000  1.0
  C  C79  1  0.19215000  0.51309000  0.81368000  1.0
  C  C80  1  0.36121000  0.08573000  0.69202000  1.0
  C  C81  1  0.86113000  0.58496000  0.19180000  1.0
  C  C82  1  0.63879000  0.91426000  0.30799000  1.0
  C  C83  1  0.13887000  0.41504000  0.80820000  1.0
  S  S84  1  0.12546000  0.19575000  0.47001000  1.0
  S  S85  1  0.20899000  0.69670000  0.96981000  1.0
  S  S86  1  0.87453000  0.80425000  0.52999000  1.0
  S  S87  1  0.79101000  0.30331000  0.03019000  1.0
  S  S88  1  0.82255000  0.06280000  0.77446000  1.0
  S  S89  1  0.34097000  0.56268000  0.27485000  1.0
  S  S90  1  0.17744000  0.93720000  0.22554000  1.0
  S  S91  1  0.65904000  0.43732000  0.72515000  1.0
  N  N92  1  0.03414000  0.26699000  0.61790000  1.0
  N  N93  1  0.07929000  0.76595000  0.11800000  1.0
  N  N94  1  0.96585000  0.73302000  0.38210000  1.0
  N  N95  1  0.92071000  0.23405000  0.88200000  1.0
  N  N96  1  0.97392000  0.98072000  0.63045000  1.0
  N  N97  1  0.41650000  0.48154000  0.13029000  1.0
  N  N98  1  0.02606000  0.01928000  0.36956000  1.0
  N  N99  1  0.58350000  0.51847000  0.86971000  1.0
  N  N100  1  0.71890000  0.15732000  0.50381000  1.0
  N  N101  1  0.62027000  0.65727000  0.00393000  1.0
  N  N102  1  0.28109000  0.84268000  0.49620000  1.0
  N  N103  1  0.37974000  0.34273000  0.99607000  1.0
  N  N104  1  0.23723000  0.08992000  0.75329000  1.0
  N  N105  1  0.91989000  0.58954000  0.25335000  1.0
  N  N106  1  0.76276000  0.91007000  0.24671000  1.0
  N  N107  1  0.08011000  0.41046000  0.74665000  1.0
  Cl  Cl108  1  0.22954000  0.48558000  0.48284000  1.0
  Cl  Cl109  1  0.80146000  0.98605000  0.98302000  1.0
  Cl  Cl110  1  0.77047000  0.51442000  0.51716000  1.0
  Cl  Cl111  1  0.19854000  0.01396000  0.01698000  1.0
  Cl  Cl112  1  0.73517000  0.76412000  0.74252000  1.0
  Cl  Cl113  1  0.75768000  0.26389000  0.24244000  1.0
  Cl  Cl114  1  0.26483000  0.23588000  0.25748000  1.0
  Cl  Cl115  1  0.24232000  0.73610000  0.75755000  1.0
