# generated using pymatgen
data_Zn2H11C28N7O18
_symmetry_space_group_name_H-M   'P 1'
_cell_length_a   9.26084000
_cell_length_b   10.96688610
_cell_length_c   11.01240000
_cell_angle_alpha   82.20467759
_cell_angle_beta   84.51490000
_cell_angle_gamma   83.28679771
_symmetry_Int_Tables_number   1
_chemical_formula_structural   Zn2H11C28N7O18
_chemical_formula_sum   'Zn2 H11 C28 N7 O18'
_cell_volume   1096.89564811
_cell_formula_units_Z   1
loop_
 _symmetry_equiv_pos_site_id
 _symmetry_equiv_pos_as_xyz
  1  'x, y, z'
loop_
 _atom_site_type_symbol
 _atom_site_label
 _atom_site_symmetry_multiplicity
 _atom_site_fract_x
 _atom_site_fract_y
 _atom_site_fract_z
 _atom_site_occupancy
  Zn  Zn0  1  0.13204000  0.56827000  0.46925000  1.0
  Zn  Zn1  1  0.86227000  0.44793000  0.51135000  1.0
  H  H2  1  0.43945000  0.79752000  0.28954000  1.0
  H  H3  1  0.21133000  0.92323000  0.28182000  1.0
  H  H4  1  0.97333000  0.91022000  0.62271000  1.0
  H  H5  1  0.57473000  0.14489000  0.63622000  1.0
  H  H6  1  0.68067000  0.74177000  0.36660000  1.0
  H  H7  1  0.22384000  0.45644000  0.09372000  1.0
  H  H8  1  0.22352000  0.44086000  0.86939000  1.0
  H  H9  1  0.64713000  0.38436000  0.34727000  1.0
  H  H10  1  0.38292000  0.46305000  0.31410000  1.0
  H  H11  1  0.34721000  0.62489000  0.63712000  1.0
  H  H12  1  0.61116000  0.54848000  0.66963000  1.0
  C  C13  1  0.99775000  0.49784000  0.72622000  1.0
  C  C14  1  0.89855000  0.74138000  0.49620000  1.0
  C  C15  1  0.99809000  0.52345000  0.25234000  1.0
  C  C16  1  0.09364000  0.27429000  0.48328000  1.0
  C  C17  1  0.24389000  0.97971000  0.34649000  1.0
  C  C18  1  0.19001000  0.15721000  0.46047000  1.0
  C  C19  1  0.86282000  0.93178000  0.59475000  1.0
  C  C20  1  0.77316000  0.03300000  0.63341000  1.0
  C  C21  1  0.63147000  0.06296000  0.60176000  1.0
  C  C22  1  0.57037000  0.99151000  0.52631000  1.0
  C  C23  1  0.66151000  0.88731000  0.48458000  1.0
  C  C24  1  0.42356000  0.02148000  0.48433000  1.0
  C  C25  1  0.37958000  0.94985000  0.39716000  1.0
  C  C26  1  0.47530000  0.84879000  0.35740000  1.0
  C  C27  1  0.60957000  0.81799000  0.39997000  1.0
  C  C28  1  0.31838000  0.11897000  0.51814000  1.0
  C  C29  1  0.15624000  0.08422000  0.37336000  1.0
  C  C30  1  0.80617000  0.85812000  0.52261000  1.0
  C  C31  1  0.86782000  0.54236000  0.93085000  1.0
  C  C32  1  0.86739000  0.54803000  0.05646000  1.0
  C  C33  1  0.99588000  0.51903000  0.11642000  1.0
  C  C34  1  0.12377000  0.48057000  0.04737000  1.0
  C  C35  1  0.12384000  0.47235000  0.92234000  1.0
  C  C36  1  0.99615000  0.50448000  0.86198000  1.0
  C  C37  1  0.57909000  0.43730000  0.41210000  1.0
  C  C38  1  0.43500000  0.48173000  0.39309000  1.0
  C  C39  1  0.41547000  0.57238000  0.57212000  1.0
  C  C40  1  0.55954000  0.52874000  0.59086000  1.0
  N  N41  1  0.35461000  0.54909000  0.47296000  1.0
  N  N42  1  0.64024000  0.46189000  0.51032000  1.0
  N  N43  1  0.02994000  0.12386000  0.29993000  1.0
  N  N44  1  0.73162000  0.59619000  0.12458000  1.0
  N  N45  1  0.33465000  0.17865000  0.62917000  1.0
  N  N46  1  0.83028000  0.11097000  0.71319000  1.0
  N  N47  1  0.73515000  0.58869000  0.86641000  1.0
  O  O48  1  0.10673000  0.53699000  0.66033000  1.0
  O  O49  1  0.89058000  0.45332000  0.69117000  1.0
  O  O50  1  0.03637000  0.74393000  0.47553000  1.0
  O  O51  1  0.83310000  0.64510000  0.50268000  1.0
  O  O52  1  0.10833000  0.56469000  0.28640000  1.0
  O  O53  1  0.89069000  0.48336000  0.31993000  1.0
  O  O54  1  0.15923000  0.37022000  0.47245000  1.0
  O  O55  1  0.95718000  0.26957000  0.50668000  1.0
  O  O56  1  0.01991000  0.23236000  0.24964000  1.0
  O  O57  1  0.94722000  0.04575000  0.29021000  1.0
  O  O58  1  0.72753000  0.70267000  0.15111000  1.0
  O  O59  1  0.63253000  0.52842000  0.14798000  1.0
  O  O60  1  0.38800000  0.27831000  0.61661000  1.0
  O  O61  1  0.29241000  0.12117000  0.72779000  1.0
  O  O62  1  0.95553000  0.08003000  0.74491000  1.0
  O  O63  1  0.74944000  0.20192000  0.74380000  1.0
  O  O64  1  0.74324000  0.68407000  0.79267000  1.0
  O  O65  1  0.62722000  0.53074000  0.89029000  1.0
