# generated using pymatgen
data_DyH8(C3O5)2
_symmetry_space_group_name_H-M   'P 1'
_cell_length_a   5.99838000
_cell_length_b   7.36756000
_cell_length_c   13.10920000
_cell_angle_alpha   104.97100000
_cell_angle_beta   102.09000000
_cell_angle_gamma   90.09000000
_symmetry_Int_Tables_number   1
_chemical_formula_structural   DyH8(C3O5)2
_chemical_formula_sum   'Dy2 H16 C12 O20'
_cell_volume   546.31056521
_cell_formula_units_Z   2
loop_
 _symmetry_equiv_pos_site_id
 _symmetry_equiv_pos_as_xyz
  1  'x, y, z'
loop_
 _atom_site_type_symbol
 _atom_site_label
 _atom_site_symmetry_multiplicity
 _atom_site_fract_x
 _atom_site_fract_y
 _atom_site_fract_z
 _atom_site_occupancy
  Dy  Dy0  1  0.01382000  0.82251000  0.68048000  1.0
  Dy  Dy1  1  0.98818000  0.15734000  0.31404000  1.0
  H  H2  1  0.37115000  0.96247000  0.05997000  1.0
  H  H3  1  0.62809000  0.90051000  0.93935000  1.0
  H  H4  1  0.50220000  0.31934000  0.56614000  1.0
  H  H5  1  0.46960000  0.30226000  0.73799000  1.0
  H  H6  1  0.50363000  0.75789000  0.43053000  1.0
  H  H7  1  0.53331000  0.59139000  0.25744000  1.0
  H  H8  1  0.18561000  0.24611000  0.07741000  1.0
  H  H9  1  0.79827000  0.15575000  0.90531000  1.0
  H  H10  1  0.19471000  0.99305000  0.48575000  1.0
  H  H11  1  0.15266000  0.20702000  0.76992000  1.0
  H  H12  1  0.81281000  0.50252000  0.50718000  1.0
  H  H13  1  0.84330000  0.45494000  0.22111000  1.0
  H  H14  1  0.76948000  0.65356000  0.81675000  1.0
  H  H15  1  0.59363000  0.71535000  0.72303000  1.0
  H  H16  1  0.23323000  0.86520000  0.17930000  1.0
  H  H17  1  0.40966000  0.01390000  0.27276000  1.0
  C  C18  1  0.20325000  0.96664000  0.90176000  1.0
  C  C19  1  0.37434000  0.05790000  0.00739000  1.0
  C  C20  1  0.61724000  0.04827000  0.98463000  1.0
  C  C21  1  0.78914000  0.07527000  0.09242000  1.0
  C  C22  1  0.15340000  0.38629000  0.56679000  1.0
  C  C23  1  0.34219000  0.24659000  0.56649000  1.0
  C  C24  1  0.37310000  0.18662000  0.67269000  1.0
  C  C25  1  0.50819000  0.00988000  0.67100000  1.0
  C  C26  1  0.85245000  0.82480000  0.42984000  1.0
  C  C27  1  0.66285000  0.68451000  0.42876000  1.0
  C  C28  1  0.62943000  0.53089000  0.32062000  1.0
  C  C29  1  0.49293000  0.35507000  0.32079000  1.0
  O  O30  1  0.22303000  0.79543000  0.85554000  1.0
  O  O31  1  0.04832000  0.06212000  0.85929000  1.0
  O  O32  1  0.33628000  0.24476000  0.05817000  1.0
  O  O33  1  0.64786000  0.17598000  0.92449000  1.0
  O  O34  1  0.78039000  0.95296000  0.14437000  1.0
  O  O35  1  0.93394000  0.21818000  0.13063000  1.0
  O  O36  1  0.17590000  0.53296000  0.64315000  1.0
  O  O37  1  0.97919000  0.34207000  0.48748000  1.0
  O  O38  1  0.28729000  0.09506000  0.47071000  1.0
  O  O39  1  0.15270000  0.15404000  0.69308000  1.0
  O  O40  1  0.40799000  0.86985000  0.68670000  1.0
  O  O41  1  0.70828000  0.01382000  0.65571000  1.0
  O  O42  1  0.03030000  0.84690000  0.50691000  1.0
  O  O43  1  0.82635000  0.90781000  0.35629000  1.0
  O  O44  1  0.71744000  0.61653000  0.52296000  1.0
  O  O45  1  0.84890000  0.47999000  0.29891000  1.0
  O  O46  1  0.59468000  0.20148000  0.30715000  1.0
  O  O47  1  0.29101000  0.37152000  0.33354000  1.0
  O  O48  1  0.74524000  0.66015000  0.74224000  1.0
  O  O49  1  0.25821000  0.94032000  0.25381000  1.0
