# generated using pymatgen
data_La2H18C22O17
_symmetry_space_group_name_H-M   'P 1'
_cell_length_a   6.11997000
_cell_length_b   8.92775000
_cell_length_c   12.41570000
_cell_angle_alpha   104.74100000
_cell_angle_beta   92.60690000
_cell_angle_gamma   103.72300000
_symmetry_Int_Tables_number   1
_chemical_formula_structural   La2H18C22O17
_chemical_formula_sum   'La2 H18 C22 O17'
_cell_volume   633.25095659
_cell_formula_units_Z   1
loop_
 _symmetry_equiv_pos_site_id
 _symmetry_equiv_pos_as_xyz
  1  'x, y, z'
loop_
 _atom_site_type_symbol
 _atom_site_label
 _atom_site_symmetry_multiplicity
 _atom_site_fract_x
 _atom_site_fract_y
 _atom_site_fract_z
 _atom_site_occupancy
  La  La0  1  0.26068000  0.71140000  0.10705000  1.0
  La  La1  1  0.74746000  0.29745000  0.90702000  1.0
  H  H2  1  0.97915000  0.02702000  0.35987000  1.0
  H  H3  1  0.02311000  0.97025000  0.65216000  1.0
  H  H4  1  0.89762000  0.84412000  0.39940000  1.0
  H  H5  1  0.09800000  0.14592000  0.60379000  1.0
  H  H6  1  0.29123000  0.71113000  0.45111000  1.0
  H  H7  1  0.71089000  0.28807000  0.55823000  1.0
  H  H8  1  0.42510000  0.17221000  0.38551000  1.0
  H  H9  1  0.57745000  0.82688000  0.62362000  1.0
  H  H10  1  0.16790000  0.77982000  0.79536000  1.0
  H  H11  1  0.84368000  0.21984000  0.20402000  1.0
  H  H12  1  0.92063000  0.84090000  0.83966000  1.0
  H  H13  1  0.09397000  0.16048000  0.16317000  1.0
  H  H14  1  0.68386000  0.61892000  0.47581000  1.0
  H  H15  1  0.31643000  0.37534000  0.52740000  1.0
  H  H16  1  0.22154000  0.56370000  0.68847000  1.0
  H  H17  1  0.77891000  0.43068000  0.31477000  1.0
  H  H18  1  0.33731000  0.41695000  0.93327000  1.0
  H  H19  1  0.52396000  0.58035000  0.93853000  1.0
  C  C20  1  0.81141000  0.82056000  0.22549000  1.0
  C  C21  1  0.19773000  0.18650000  0.77727000  1.0
  C  C22  1  0.96770000  0.89777000  0.33353000  1.0
  C  C23  1  0.03339000  0.09938000  0.67367000  1.0
  C  C24  1  0.34406000  0.93675000  0.41141000  1.0
  C  C25  1  0.65766000  0.06244000  0.59796000  1.0
  C  C26  1  0.38321000  0.83718000  0.47610000  1.0
  C  C27  1  0.61839000  0.16212000  0.53336000  1.0
  C  C28  1  0.45962000  0.09839000  0.43853000  1.0
  C  C29  1  0.54208000  0.90090000  0.57092000  1.0
  C  C30  1  0.90420000  0.59729000  0.83186000  1.0
  C  C31  1  0.11169000  0.40522000  0.17421000  1.0
  C  C32  1  0.98156000  0.74267000  0.78751000  1.0
  C  C33  1  0.03019000  0.25727000  0.21518000  1.0
  C  C34  1  0.94575000  0.60615000  0.59269000  1.0
  C  C35  1  0.05531000  0.38865000  0.41058000  1.0
  C  C36  1  0.82366000  0.56610000  0.48686000  1.0
  C  C37  1  0.17653000  0.42806000  0.51653000  1.0
  C  C38  1  0.12239000  0.53568000  0.60752000  1.0
  C  C39  1  0.87781000  0.45846000  0.39580000  1.0
  C  C40  1  0.43598000  0.05447000  0.03687000  1.0
  C  C41  1  0.57210000  0.94618000  0.96473000  1.0
  O  O42  1  0.88313000  0.73763000  0.14274000  1.0
  O  O43  1  0.13047000  0.28188000  0.85659000  1.0
  O  O44  1  0.61542000  0.84437000  0.22587000  1.0
  O  O45  1  0.39274000  0.16383000  0.77937000  1.0
  O  O46  1  0.18740000  0.87062000  0.31506000  1.0
  O  O47  1  0.81586000  0.12849000  0.69384000  1.0
  O  O48  1  0.01420000  0.59449000  0.92186000  1.0
  O  O49  1  0.00745000  0.40776000  0.08198000  1.0
  O  O50  1  0.73391000  0.48546000  0.78240000  1.0
  O  O51  1  0.27422000  0.51925000  0.22761000  1.0
  O  O52  1  0.88355000  0.71757000  0.67621000  1.0
  O  O53  1  0.12010000  0.27863000  0.32725000  1.0
  O  O54  1  0.28831000  0.98808000  0.09014000  1.0
  O  O55  1  0.72243000  0.01373000  0.91318000  1.0
  O  O56  1  0.48375000  0.20008000  0.03639000  1.0
  O  O57  1  0.51973000  0.79976000  0.96352000  1.0
  O  O58  1  0.47601000  0.49877000  0.97918000  1.0
