# generated using pymatgen
data_ZnH30(C22N3)2
_symmetry_space_group_name_H-M   'P 1'
_cell_length_a   9.29936000
_cell_length_b   19.28110000
_cell_length_c   19.27910000
_cell_angle_alpha   117.46600000
_cell_angle_beta   99.24570000
_cell_angle_gamma   99.25510000
_symmetry_Int_Tables_number   1
_chemical_formula_structural   ZnH30(C22N3)2
_chemical_formula_sum   'Zn3 H90 C132 N18'
_cell_volume   2916.33560508
_cell_formula_units_Z   3
loop_
 _symmetry_equiv_pos_site_id
 _symmetry_equiv_pos_as_xyz
  1  'x, y, z'
loop_
 _atom_site_type_symbol
 _atom_site_label
 _atom_site_symmetry_multiplicity
 _atom_site_fract_x
 _atom_site_fract_y
 _atom_site_fract_z
 _atom_site_occupancy
  Zn  Zn0  1  0.50000000  0.50000000  0.00000000  1.0
  Zn  Zn1  1  0.00000000  0.50000000  0.50000000  1.0
  Zn  Zn2  1  0.50000000  0.00000000  0.50000000  1.0
  H  H3  1  0.46641000  0.40133000  0.21321000  1.0
  H  H4  1  0.06500000  0.81185000  0.59866000  1.0
  H  H5  1  0.25317000  0.78682000  0.18812000  1.0
  H  H6  1  0.53359000  0.59867000  0.78679000  1.0
  H  H7  1  0.93500000  0.18815000  0.40134000  1.0
  H  H8  1  0.74683000  0.21318000  0.81187000  1.0
  H  H9  1  0.18308000  0.34649000  0.11897000  1.0
  H  H10  1  0.83651000  0.77243000  0.65348000  1.0
  H  H11  1  0.06410000  0.88105000  0.22752000  1.0
  H  H12  1  0.81692000  0.65351000  0.88103000  1.0
  H  H13  1  0.16348000  0.22757000  0.34652000  1.0
  H  H14  1  0.93590000  0.11895000  0.77248000  1.0
  H  H15  1  0.91796000  0.34977000  0.85056000  1.0
  H  H16  1  0.56808000  0.50074000  0.65025000  1.0
  H  H17  1  0.06740000  0.14951000  0.49928000  1.0
  H  H18  1  0.08204000  0.65023000  0.14944000  1.0
  H  H19  1  0.43192000  0.49926000  0.34975000  1.0
  H  H20  1  0.93260000  0.85049000  0.50072000  1.0
  H  H21  1  0.01202000  0.41821000  0.76600000  1.0
  H  H22  1  0.59377000  0.34775000  0.58175000  1.0
  H  H23  1  0.24615000  0.23404000  0.65225000  1.0
  H  H24  1  0.98798000  0.58179000  0.23400000  1.0
  H  H25  1  0.40623000  0.65225000  0.41825000  1.0
  H  H26  1  0.75385000  0.76596000  0.34775000  1.0
  H  H27  1  0.89731000  0.43339000  0.01207000  1.0
  H  H28  1  0.46391000  0.57872000  0.56661000  1.0
  H  H29  1  0.88525000  0.98790000  0.42131000  1.0
  H  H30  1  0.10269000  0.56661000  0.98793000  1.0
  H  H31  1  0.53609000  0.42128000  0.43339000  1.0
  H  H32  1  0.11475000  0.01210000  0.57869000  1.0
  H  H33  1  0.65745000  0.35387000  0.00773000  1.0
  H  H34  1  0.30357000  0.65389000  0.64615000  1.0
  H  H35  1  0.64975000  0.99229000  0.34616000  1.0
  H  H36  1  0.34255000  0.64613000  0.99227000  1.0
  H  H37  1  0.69643000  0.34611000  0.35385000  1.0
  H  H38  1  0.35025000  0.00771000  0.65384000  1.0
  H  H39  1  0.84195000  0.14898000  0.95043000  1.0
  H  H40  1  0.69296000  0.80149000  0.85106000  1.0
  H  H41  1  0.89152000  0.04955000  0.19851000  1.0
  H  H42  1  0.15806000  0.85102000  0.04957000  1.0
  H  H43  1  0.30704000  0.19851000  0.14894000  1.0
  H  H44  1  0.10848000  0.95045000  0.80149000  1.0
  H  H45  1  0.08485000  0.22991000  0.95735000  1.0
  H  H46  1  0.85491000  0.72745000  0.77012000  1.0
  H  H47  1  0.12757000  0.04271000  0.27259000  1.0
  H  H48  1  0.91515000  0.77009000  0.04265000  1.0
  H  H49  1  0.14509000  0.27255000  0.22988000  1.0
  H  H50  1  0.87243000  0.95729000  0.72741000  1.0
  H  H51  1  0.52441000  0.23509000  0.01526000  1.0
  H  H52  1  0.28928000  0.78016000  0.76491000  1.0
  H  H53  1  0.50919000  0.98474000  0.21985000  1.0
  H  H54  1  0.47559000  0.76491000  0.98474000  1.0
  H  H55  1  0.71072000  0.21984000  0.23509000  1.0
  H  H56  1  0.49081000  0.01526000  0.78015000  1.0
  H  H57  1  0.59597000  0.14815000  0.98685000  1.0
  H  H58  1  0.44777000  0.83871000  0.85187000  1.0
  H  H59  1  0.60916000  0.01314000  0.16129000  1.0
  H  H60  1  0.40403000  0.85185000  0.01315000  1.0
  H  H61  1  0.55223000  0.16129000  0.14813000  1.0
  H  H62  1  0.39084000  0.98686000  0.83871000  1.0
  H  H63  1  0.50586000  0.16729000  0.91162000  1.0
  H  H64  1  0.33852000  0.74432000  0.83271000  1.0
  H  H65  1  0.59426000  0.08837000  0.25567000  1.0
  H  H66  1  0.49414000  0.83270000  0.08838000  1.0
  H  H67  1  0.66148000  0.25568000  0.16729000  1.0
  H  H68  1  0.40574000  0.91163000  0.74433000  1.0
  H  H69  1  0.13257000  0.59741000  0.81667000  1.0
  H  H70  1  0.53513000  0.21927000  0.40255000  1.0
  H  H71  1  0.31592000  0.18329000  0.78072000  1.0
  H  H72  1  0.86743000  0.40259000  0.18333000  1.0
  H  H73  1  0.46487000  0.78073000  0.59745000  1.0
  H  H74  1  0.68408000  0.81671000  0.21928000  1.0
  H  H75  1  0.02858000  0.59526000  0.68693000  1.0
  H  H76  1  0.43321000  0.09165000  0.40467000  1.0
  H  H77  1  0.34165000  0.31302000  0.90832000  1.0
  H  H78  1  0.97142000  0.40474000  0.31307000  1.0
  H  H79  1  0.56679000  0.90835000  0.59533000  1.0
  H  H80  1  0.65835000  0.68698000  0.09168000  1.0
  H  H81  1  0.24853000  0.42691000  0.56093000  1.0
  H  H82  1  0.82143000  0.13403000  0.57308000  1.0
  H  H83  1  0.68748000  0.43902000  0.86589000  1.0
  H  H84  1  0.75147000  0.57309000  0.43907000  1.0
  H  H85  1  0.17857000  0.86597000  0.42692000  1.0
  H  H86  1  0.31252000  0.56098000  0.13411000  1.0
  H  H87  1  0.36348000  0.42243000  0.68537000  1.0
  H  H88  1  0.94092000  0.26290000  0.57755000  1.0
  H  H89  1  0.67810000  0.31460000  0.73701000  1.0
  H  H90  1  0.63652000  0.57757000  0.31463000  1.0
  H  H91  1  0.05908000  0.73710000  0.42245000  1.0
  H  H92  1  0.32190000  0.68540000  0.26299000  1.0
  C  C93  1  0.51751000  0.44786000  0.12867000  1.0
  C  C94  1  0.06963000  0.68079000  0.55214000  1.0
  C  C95  1  0.38880000  0.87137000  0.31920000  1.0
  C  C96  1  0.48249000  0.55215000  0.87133000  1.0
  C  C97  1  0.93037000  0.31921000  0.44786000  1.0
  C  C98  1  0.61120000  0.12863000  0.68080000  1.0
  C  C99  1  0.42645000  0.40758000  0.16085000  1.0
  C  C100  1  0.01880000  0.75323000  0.59238000  1.0
  C  C101  1  0.26559000  0.83919000  0.24674000  1.0
  C  C102  1  0.57355000  0.59242000  0.83915000  1.0
  C  C103  1  0.98120000  0.24677000  0.40762000  1.0
  C  C104  1  0.73441000  0.16081000  0.75326000  1.0
  C  C105  1  0.28185000  0.37868000  0.11216000  1.0
  C  C106  1  0.90309000  0.73344000  0.62128000  1.0
  C  C107  1  0.16970000  0.88788000  0.26652000  1.0
  C  C108  1  0.71815000  0.62132000  0.88784000  1.0
  C  C109  1  0.09691000  0.26656000  0.37872000  1.0
  C  C110  1  0.83030000  0.11212000  0.73348000  1.0
  C  C111  1  0.28353000  0.40095000  0.04990000  1.0
  C  C112  1  0.88255000  0.64892000  0.59905000  1.0
  C  C113  1  0.23363000  0.95015000  0.35106000  1.0
  C  C114  1  0.71647000  0.59905000  0.95010000  1.0
  C  C115  1  0.11745000  0.35108000  0.40095000  1.0
  C  C116  1  0.76637000  0.04985000  0.64894000  1.0
  C  C117  1  0.15474000  0.38673000  0.98996000  1.0
  C  C118  1  0.76799000  0.60323000  0.61331000  1.0
  C  C119  1  0.16479000  0.01009000  0.39677000  1.0
  C  C120  1  0.84526000  0.61327000  0.01004000  1.0
  C  C121  1  0.23201000  0.39677000  0.38669000  1.0
  C  C122  1  0.83521000  0.98991000  0.60323000  1.0
  C  C123  1  0.15417000  0.41500000  0.93401000  1.0
  C  C124  1  0.73913000  0.51901000  0.58505000  1.0
  C  C125  1  0.22015000  0.06604000  0.48100000  1.0
  C  C126  1  0.84583000  0.58500000  0.06599000  1.0
  C  C127  1  0.26087000  0.48099000  0.41495000  1.0
  C  C128  1  0.77985000  0.93396000  0.51900000  1.0
  C  C129  1  0.02765000  0.39010000  0.86512000  1.0
  C  C130  1  0.63747000  0.47500000  0.60992000  1.0
  C  C131  1  0.16256000  0.13494000  0.52501000  1.0
  C  C132  1  0.97235000  0.60990000  0.13488000  1.0
  C  C133  1  0.36253000  0.52500000  0.39008000  1.0
  C  C134  1  0.83744000  0.86506000  0.47499000  1.0
  C  C135  1  0.07599000  0.42450000  0.82190000  1.0
  C  C136  1  0.65140000  0.39737000  0.57548000  1.0
  C  C137  1  0.25418000  0.17816000  0.60262000  1.0
  C  C138  1  0.92401000  0.57550000  0.17810000  1.0
  C  C139  1  0.34860000  0.60263000  0.42452000  1.0
  C  C140  1  0.74582000  0.82184000  0.39738000  1.0
  C  C141  1  0.23238000  0.47077000  0.86429000  1.0
  C  C142  1  0.76155000  0.39352000  0.52922000  1.0
  C  C143  1  0.36813000  0.13572000  0.60646000  1.0
  C  C144  1  0.76762000  0.52923000  0.13571000  1.0
  C  C145  1  0.23845000  0.60648000  0.47078000  1.0
  C  C146  1  0.63186000  0.86428000  0.39354000  1.0
  C  C147  1  0.32710000  0.51158000  0.83681000  1.0
  C  C148  1  0.81549000  0.32524000  0.48840000  1.0
  C  C149  1  0.49034000  0.16317000  0.67474000  1.0
  C  C150  1  0.67290000  0.48842000  0.16319000  1.0
  C  C151  1  0.18451000  0.67476000  0.51160000  1.0
  C  C152  1  0.50966000  0.83683000  0.32526000  1.0
  C  C153  1  0.00895000  0.33756000  0.98514000  1.0
  C  C154  1  0.67136000  0.64760000  0.66246000  1.0
  C  C155  1  0.02383000  0.01492000  0.35244000  1.0
  C  C156  1  0.99105000  0.66244000  0.01486000  1.0
  C  C157  1  0.32864000  0.35240000  0.33754000  1.0
  C  C158  1  0.97617000  0.98508000  0.64756000  1.0
  C  C159  1  0.88576000  0.37089000  0.99831000  1.0
  C  C160  1  0.51485000  0.62746000  0.62911000  1.0
  C  C161  1  0.88748000  0.00172000  0.37261000  1.0
  C  C162  1  0.11424000  0.62911000  0.00169000  1.0
  C  C163  1  0.48515000  0.37254000  0.37089000  1.0
  C  C164  1  0.11252000  0.99828000  0.62739000  1.0
  C  C165  1  0.75009000  0.32574000  0.99592000  1.0
  C  C166  1  0.42434000  0.67022000  0.67426000  1.0
  C  C167  1  0.75420000  0.00411000  0.32985000  1.0
  C  C168  1  0.24991000  0.67426000  0.00408000  1.0
  C  C169  1  0.57566000  0.32978000  0.32574000  1.0
  C  C170  1  0.24579000  0.99589000  0.67016000  1.0
  C  C171  1  0.73122000  0.24535000  0.97882000  1.0
  C  C172  1  0.48585000  0.73351000  0.75467000  1.0
  C  C173  1  0.75242000  0.02119000  0.26653000  1.0
  C  C174  1  0.26878000  0.75465000  0.02118000  1.0
  C  C175  1  0.51415000  0.26649000  0.24533000  1.0
  C  C176  1  0.24758000  0.97881000  0.73347000  1.0
  C  C177  1  0.85401000  0.21184000  0.96497000  1.0
  C  C178  1  0.64216000  0.75318000  0.78819000  1.0
  C  C179  1  0.88907000  0.03505000  0.24686000  1.0
  C  C180  1  0.14599000  0.78816000  0.03503000  1.0
  C  C181  1  0.35784000  0.24682000  0.21181000  1.0
  C  C182  1  0.11093000  0.96495000  0.75314000  1.0
  C  C183  1  0.99077000  0.25715000  0.96845000  1.0
  C  C184  1  0.73360000  0.71133000  0.74288000  1.0
  C  C185  1  0.02236000  0.03161000  0.28871000  1.0
  C  C186  1  0.00923000  0.74285000  0.03155000  1.0
  C  C187  1  0.26641000  0.28867000  0.25713000  1.0
  C  C188  1  0.97764000  0.96839000  0.71129000  1.0
  C  C189  1  0.58193000  0.19645000  0.97325000  1.0
  C  C190  1  0.38544000  0.77681000  0.80356000  1.0
  C  C191  1  0.60871000  0.02674000  0.22320000  1.0
  C  C192  1  0.41807000  0.80355000  0.02675000  1.0
  C  C193  1  0.61456000  0.22319000  0.19644000  1.0
  C  C194  1  0.39128000  0.97326000  0.77680000  1.0
  C  C195  1  0.25735000  0.51019000  0.76109000  1.0
  C  C196  1  0.74708000  0.25090000  0.48978000  1.0
  C  C197  1  0.49627000  0.23887000  0.74906000  1.0
  C  C198  1  0.74265000  0.48981000  0.23891000  1.0
  C  C199  1  0.25292000  0.74910000  0.51022000  1.0
  C  C200  1  0.50373000  0.76113000  0.25094000  1.0
  C  C201  1  0.16050000  0.55871000  0.76099000  1.0
  C  C202  1  0.60173000  0.20226000  0.44124000  1.0
  C  C203  1  0.39954000  0.23896000  0.79770000  1.0
  C  C204  1  0.83950000  0.44129000  0.23901000  1.0
  C  C205  1  0.39827000  0.79774000  0.55876000  1.0
  C  C206  1  0.60046000  0.76104000  0.20230000  1.0
  C  C207  1  0.10292000  0.55756000  0.68917000  1.0
  C  C208  1  0.54525000  0.13160000  0.44239000  1.0
  C  C209  1  0.41374000  0.31078000  0.86836000  1.0
  C  C210  1  0.89708000  0.44244000  0.31083000  1.0
  C  C211  1  0.45475000  0.86840000  0.55761000  1.0
  C  C212  1  0.58626000  0.68922000  0.13164000  1.0
  C  C213  1  0.22597000  0.46402000  0.61892000  1.0
  C  C214  1  0.76179000  0.15490000  0.53596000  1.0
  C  C215  1  0.60697000  0.38104000  0.84503000  1.0
  C  C216  1  0.77403000  0.53598000  0.38108000  1.0
  C  C217  1  0.23821000  0.84510000  0.46404000  1.0
  C  C218  1  0.39303000  0.61896000  0.15497000  1.0
  C  C219  1  0.28949000  0.46160000  0.68797000  1.0
  C  C220  1  0.82777000  0.22636000  0.53838000  1.0
  C  C221  1  0.60149000  0.31199000  0.77357000  1.0
  C  C222  1  0.71051000  0.53840000  0.31203000  1.0
  C  C223  1  0.17223000  0.77364000  0.46162000  1.0
  C  C224  1  0.39851000  0.68801000  0.22643000  1.0
  N  N225  1  0.42849000  0.44141000  0.06084000  1.0
  N  N226  1  0.98709000  0.61942000  0.55861000  1.0
  N  N227  1  0.36761000  0.93919000  0.38058000  1.0
  N  N228  1  0.57151000  0.55859000  0.93916000  1.0
  N  N229  1  0.01291000  0.38058000  0.44139000  1.0
  N  N230  1  0.63239000  0.06081000  0.61942000  1.0
  N  N231  1  0.27531000  0.46488000  0.93238000  1.0
  N  N232  1  0.81040000  0.46752000  0.53516000  1.0
  N  N233  1  0.34289000  0.06763000  0.53247000  1.0
  N  N234  1  0.72469000  0.53512000  0.06762000  1.0
  N  N235  1  0.18960000  0.53248000  0.46484000  1.0
  N  N236  1  0.65711000  0.93237000  0.46753000  1.0
  N  N237  1  0.13471000  0.51135000  0.61931000  1.0
  N  N238  1  0.62319000  0.10797000  0.48862000  1.0
  N  N239  1  0.51533000  0.38064000  0.89198000  1.0
  N  N240  1  0.86529000  0.48865000  0.38069000  1.0
  N  N241  1  0.37681000  0.89203000  0.51138000  1.0
  N  N242  1  0.48467000  0.61936000  0.10802000  1.0
