# generated using pymatgen
data_AlH8(C7O3)2
_symmetry_space_group_name_H-M   'P 1'
_cell_length_a   6.70863000
_cell_length_b   19.20740000
_cell_length_c   19.82010000
_cell_angle_alpha   80.89430000
_cell_angle_beta   89.96290000
_cell_angle_gamma   89.94360000
_symmetry_Int_Tables_number   1
_chemical_formula_structural   AlH8(C7O3)2
_chemical_formula_sum   'Al4 H32 C56 O24'
_cell_volume   2521.73978810
_cell_formula_units_Z   4
loop_
 _symmetry_equiv_pos_site_id
 _symmetry_equiv_pos_as_xyz
  1  'x, y, z'
loop_
 _atom_site_type_symbol
 _atom_site_label
 _atom_site_symmetry_multiplicity
 _atom_site_fract_x
 _atom_site_fract_y
 _atom_site_fract_z
 _atom_site_occupancy
  Al  Al0  1  0.82788000  0.25072000  0.75134000  1.0
  Al  Al1  1  0.17152000  0.74860000  0.24961000  1.0
  Al  Al2  1  0.32788000  0.24922000  0.74855000  1.0
  Al  Al3  1  0.67145000  0.75154000  0.25045000  1.0
  H  H4  1  0.74866000  0.08913000  0.65068000  1.0
  H  H5  1  0.25016000  0.85832000  0.39715000  1.0
  H  H6  1  0.24739000  0.41082000  0.84989000  1.0
  H  H7  1  0.75102000  0.64176000  0.10238000  1.0
  H  H8  1  0.31683000  0.04941000  0.50049000  1.0
  H  H9  1  0.67710000  0.00288000  0.45298000  1.0
  H  H10  1  0.81743000  0.45049000  0.99898000  1.0
  H  H11  1  0.17811000  0.49697000  0.04770000  1.0
  H  H12  1  0.37883000  0.13149000  0.94812000  1.0
  H  H13  1  0.62515000  0.86929000  0.05218000  1.0
  H  H14  1  0.87927000  0.36848000  0.55172000  1.0
  H  H15  1  0.12462000  0.63078000  0.44794000  1.0
  H  H16  1  0.61939000  0.97049000  0.95684000  1.0
  H  H17  1  0.38531000  0.02998000  0.04311000  1.0
  H  H18  1  0.11907000  0.52955000  0.54323000  1.0
  H  H19  1  0.88552000  0.47007000  0.45680000  1.0
  H  H20  1  0.70884000  0.00797000  0.56577000  1.0
  H  H21  1  0.28838000  0.93598000  0.48529000  1.0
  H  H22  1  0.20853000  0.49199000  0.93486000  1.0
  H  H23  1  0.78872000  0.56400000  0.01426000  1.0
  H  H24  1  0.35852000  0.12654000  0.58926000  1.0
  H  H25  1  0.63685000  0.92071000  0.36875000  1.0
  H  H26  1  0.85817000  0.37339000  0.91011000  1.0
  H  H27  1  0.13842000  0.57917000  0.13196000  1.0
  H  H28  1  0.64199000  0.13265000  0.90150000  1.0
  H  H29  1  0.36058000  0.86739000  0.10040000  1.0
  H  H30  1  0.14234000  0.36738000  0.59864000  1.0
  H  H31  1  0.85976000  0.63287000  0.39952000  1.0
  H  H32  1  0.57945000  0.15608000  0.77087000  1.0
  H  H33  1  0.41747000  0.84411000  0.23215000  1.0
  H  H34  1  0.07903000  0.34389000  0.72929000  1.0
  H  H35  1  0.91801000  0.65605000  0.26793000  1.0
  C  C36  1  0.58367000  0.33176000  0.64317000  1.0
  C  C37  1  0.41784000  0.66700000  0.35600000  1.0
  C  C38  1  0.08324000  0.16820000  0.85674000  1.0
  C  C39  1  0.91857000  0.83312000  0.14407000  1.0
  C  C40  1  0.57217000  0.33870000  0.82354000  1.0
  C  C41  1  0.42694000  0.66316000  0.17441000  1.0
  C  C42  1  0.07342000  0.16126000  0.67638000  1.0
  C  C43  1  0.92555000  0.83697000  0.32564000  1.0
  C  C44  1  0.85030000  0.03510000  0.56942000  1.0
  C  C45  1  0.14646000  0.93422000  0.45879000  1.0
  C  C46  1  0.35001000  0.46485000  0.93092000  1.0
  C  C47  1  0.64702000  0.56578000  0.04098000  1.0
  C  C48  1  0.87233000  0.07969000  0.61762000  1.0
  C  C49  1  0.12531000  0.88996000  0.41029000  1.0
  C  C50  1  0.37154000  0.42026000  0.88268000  1.0
  C  C51  1  0.62617000  0.61009000  0.08948000  1.0
  C  C52  1  0.05601000  0.11256000  0.62527000  1.0
  C  C53  1  0.94129000  0.88459000  0.37780000  1.0
  C  C54  1  0.55519000  0.38740000  0.87469000  1.0
  C  C55  1  0.44248000  0.61549000  0.12229000  1.0
  C  C56  1  0.21685000  0.10032000  0.58353000  1.0
  C  C57  1  0.77894000  0.92451000  0.39457000  1.0
  C  C58  1  0.71652000  0.39963000  0.91610000  1.0
  C  C59  1  0.28022000  0.57545000  0.10586000  1.0
  C  C60  1  0.19306000  0.05657000  0.53446000  1.0
  C  C61  1  0.80193000  0.96987000  0.44227000  1.0
  C  C62  1  0.69324000  0.44337000  0.96523000  1.0
  C  C63  1  0.30289000  0.53005000  0.05816000  1.0
  C  C64  1  0.00987000  0.02289000  0.52662000  1.0
  C  C65  1  0.98563000  0.97548000  0.47542000  1.0
  C  C66  1  0.51007000  0.47705000  0.97341000  1.0
  C  C67  1  0.48620000  0.52447000  0.02465000  1.0
  C  C68  1  0.08143000  0.11041000  0.91632000  1.0
  C  C69  1  0.92244000  0.89046000  0.08408000  1.0
  C  C70  1  0.58163000  0.38956000  0.58359000  1.0
  C  C71  1  0.42200000  0.60963000  0.41595000  1.0
  C  C72  1  0.74904000  0.96102000  0.99011000  1.0
  C  C73  1  0.25556000  0.03952000  0.00992000  1.0
  C  C74  1  0.24870000  0.53902000  0.50993000  1.0
  C  C75  1  0.75572000  0.46048000  0.49001000  1.0
  C  C76  1  0.75217000  0.90464000  0.04220000  1.0
  C  C77  1  0.25201000  0.09608000  0.95799000  1.0
  C  C78  1  0.25174000  0.59542000  0.45786000  1.0
  C  C79  1  0.75223000  0.40388000  0.54190000  1.0
  C  C80  1  0.09124000  0.93254000  0.07298000  1.0
  C  C81  1  0.91297000  0.06811000  0.92730000  1.0
  C  C82  1  0.59104000  0.56750000  0.42700000  1.0
  C  C83  1  0.41305000  0.43188000  0.57266000  1.0
  C  C84  1  0.08972000  0.99313000  0.02115000  1.0
  C  C85  1  0.91483000  0.00743000  0.97896000  1.0
  C  C86  1  0.58966000  0.50690000  0.47881000  1.0
  C  C87  1  0.41471000  0.49258000  0.52103000  1.0
  C  C88  1  0.72797000  0.08841000  0.88577000  1.0
  C  C89  1  0.27594000  0.91258000  0.11480000  1.0
  C  C90  1  0.22810000  0.41165000  0.61427000  1.0
  C  C91  1  0.77584000  0.58753000  0.38521000  1.0
  O  O92  1  0.40781000  0.31971000  0.80005000  1.0
  O  O93  1  0.59215000  0.68395000  0.19565000  1.0
  O  O94  1  0.90923000  0.17990000  0.70044000  1.0
  O  O95  1  0.09065000  0.81677000  0.30362000  1.0
  O  O96  1  0.75151000  0.31038000  0.66748000  1.0
  O  O97  1  0.24877000  0.68824000  0.33271000  1.0
  O  O98  1  0.25104000  0.18914000  0.83208000  1.0
  O  O99  1  0.74954000  0.81245000  0.16782000  1.0
  O  O100  1  0.74521000  0.31939000  0.80680000  1.0
  O  O101  1  0.25444000  0.67967000  0.19437000  1.0
  O  O102  1  0.24650000  0.18088000  0.69258000  1.0
  O  O103  1  0.75296000  0.81998000  0.30635000  1.0
  O  O104  1  0.91286000  0.19003000  0.83374000  1.0
  O  O105  1  0.08781000  0.81133000  0.16823000  1.0
  O  O106  1  0.41331000  0.31033000  0.66651000  1.0
  O  O107  1  0.58698000  0.68827000  0.33135000  1.0
  O  O108  1  0.57817000  0.20733000  0.75956000  1.0
  O  O109  1  0.42025000  0.79278000  0.24125000  1.0
  O  O110  1  0.07798000  0.29262000  0.74032000  1.0
  O  O111  1  0.92049000  0.70738000  0.25884000  1.0
  O  O112  1  0.66685000  0.05740000  0.84037000  1.0
  O  O113  1  0.33805000  0.94479000  0.15915000  1.0
  O  O114  1  0.16652000  0.44282000  0.65952000  1.0
  O  O115  1  0.83894000  0.55518000  0.34106000  1.0
