# generated using pymatgen
data_Zn4P4H24C17(N2O3)4
_symmetry_space_group_name_H-M   'P 1'
_cell_length_a   9.69007000
_cell_length_b   12.03502454
_cell_length_c   15.15291477
_cell_angle_alpha   69.71318113
_cell_angle_beta   71.36938802
_cell_angle_gamma   66.28818369
_symmetry_Int_Tables_number   1
_chemical_formula_structural   Zn4P4H24C17(N2O3)4
_chemical_formula_sum   'Zn8 P8 H48 C34 N16 O24'
_cell_volume   1483.86705580
_cell_formula_units_Z   2
loop_
 _symmetry_equiv_pos_site_id
 _symmetry_equiv_pos_as_xyz
  1  'x, y, z'
loop_
 _atom_site_type_symbol
 _atom_site_label
 _atom_site_symmetry_multiplicity
 _atom_site_fract_x
 _atom_site_fract_y
 _atom_site_fract_z
 _atom_site_occupancy
  Zn  Zn0  1  0.61796000  0.81328000  0.66425000  1.0
  Zn  Zn1  1  0.09582000  0.68665000  0.83596000  1.0
  Zn  Zn2  1  0.38203000  0.18673000  0.33575000  1.0
  Zn  Zn3  1  0.90418000  0.31335000  0.16404000  1.0
  Zn  Zn4  1  0.14880000  0.81826000  0.53130000  1.0
  Zn  Zn5  1  0.49842000  0.68182000  0.96883000  1.0
  Zn  Zn6  1  0.85120000  0.18174000  0.46870000  1.0
  Zn  Zn7  1  0.50159000  0.31817000  0.03117000  1.0
  P  P8  1  0.81612000  0.97257000  0.64858000  1.0
  P  P9  1  0.43735000  0.52754000  0.85140000  1.0
  P  P10  1  0.18388000  0.02743000  0.35142000  1.0
  P  P11  1  0.56266000  0.47245000  0.14860000  1.0
  P  P12  1  0.25258000  0.88343000  0.67767000  1.0
  P  P13  1  0.81359000  0.61671000  0.82252000  1.0
  P  P14  1  0.74742000  0.11657000  0.32233000  1.0
  P  P15  1  0.18640000  0.38329000  0.17749000  1.0
  H  H16  1  0.93027000  0.67401000  0.54449000  1.0
  H  H17  1  0.14872000  0.82615000  0.95583000  1.0
  H  H18  1  0.06974000  0.32598000  0.45551000  1.0
  H  H19  1  0.85128000  0.17385000  0.04417000  1.0
  H  H20  1  0.96821000  0.69108000  0.35057000  1.0
  H  H21  1  0.00974000  0.80917000  0.14969000  1.0
  H  H22  1  0.03179000  0.30892000  0.64943000  1.0
  H  H23  1  0.99025000  0.19084000  0.85031000  1.0
  H  H24  1  0.50689000  0.89497000  0.45868000  1.0
  H  H25  1  0.86063000  0.60498000  0.04148000  1.0
  H  H26  1  0.49311000  0.10503000  0.54132000  1.0
  H  H27  1  0.13937000  0.39502000  0.95852000  1.0
  H  H28  1  0.76924000  0.88870000  0.23120000  1.0
  H  H29  1  0.88897000  0.61125000  0.26906000  1.0
  H  H30  1  0.23076000  0.11130000  0.76880000  1.0
  H  H31  1  0.11103000  0.38875000  0.73094000  1.0
  H  H32  1  0.57482000  0.92386000  0.29250000  1.0
  H  H33  1  0.79120000  0.57604000  0.20757000  1.0
  H  H34  1  0.42517000  0.07614000  0.70750000  1.0
  H  H35  1  0.20880000  0.42396000  0.79243000  1.0
  H  H36  1  0.46483000  0.74047000  0.37011000  1.0
  H  H37  1  0.57562000  0.75935000  0.12986000  1.0
  H  H38  1  0.53517000  0.25953000  0.62989000  1.0
  H  H39  1  0.42438000  0.24065000  0.87014000  1.0
  H  H40  1  0.50852000  0.64297000  0.29374000  1.0
  H  H41  1  0.44550000  0.85682000  0.20619000  1.0
  H  H42  1  0.49149000  0.35703000  0.70625000  1.0
  H  H43  1  0.55450000  0.14318000  0.79381000  1.0
  H  H44  1  0.71757000  0.42983000  0.31594000  1.0
  H  H45  1  0.46373000  0.07005000  0.18399000  1.0
  H  H46  1  0.28242000  0.57017000  0.68406000  1.0
  H  H47  1  0.53628000  0.92995000  0.81600000  1.0
  H  H48  1  0.58855000  0.63575000  0.52289000  1.0
  H  H49  1  0.74712000  0.86406000  0.97710000  1.0
  H  H50  1  0.41145000  0.36425000  0.47711000  1.0
  H  H51  1  0.25289000  0.13593000  0.02290000  1.0
  H  H52  1  0.75728000  0.38850000  0.59611000  1.0
  H  H53  1  0.74155000  0.11143000  0.90368000  1.0
  H  H54  1  0.24271000  0.61150000  0.40389000  1.0
  H  H55  1  0.25845000  0.88857000  0.09632000  1.0
  H  H56  1  0.86298000  0.93352000  0.73651000  1.0
  H  H57  1  0.53292000  0.56664000  0.76344000  1.0
  H  H58  1  0.13702000  0.06648000  0.26349000  1.0
  H  H59  1  0.46708000  0.43336000  0.23656000  1.0
  H  H60  1  0.18125000  0.01325000  0.64209000  1.0
  H  H61  1  0.83631000  0.48692000  0.85801000  1.0
  H  H62  1  0.81875000  0.98675000  0.35791000  1.0
  H  H63  1  0.16369000  0.51308000  0.14199000  1.0
  C  C64  1  0.84876000  0.72184000  0.49748000  1.0
  C  C65  1  0.06814000  0.77820000  0.00282000  1.0
  C  C66  1  0.15124000  0.27816000  0.50252000  1.0
  C  C67  1  0.93186000  0.22180000  0.99718000  1.0
  C  C68  1  0.86800000  0.72970000  0.40202000  1.0
  C  C69  1  0.99969000  0.77040000  0.09826000  1.0
  C  C70  1  0.13199000  0.27030000  0.59798000  1.0
  C  C71  1  0.00031000  0.22960000  0.90174000  1.0
  C  C72  1  0.62721000  0.83837000  0.45709000  1.0
  C  C73  1  0.92279000  0.66160000  0.04310000  1.0
  C  C74  1  0.37279000  0.16163000  0.54291000  1.0
  C  C75  1  0.07722000  0.33839000  0.95690000  1.0
  C  C76  1  0.68442000  0.84724000  0.28450000  1.0
  C  C77  1  0.81616000  0.65267000  0.21567000  1.0
  C  C78  1  0.31557000  0.15276000  0.71550000  1.0
  C  C79  1  0.18384000  0.34733000  0.78433000  1.0
  C  C80  1  0.66355000  0.74993000  0.25005000  1.0
  C  C81  1  0.33646000  0.25007000  0.74995000  1.0
  C  C82  1  0.56002000  0.67680000  0.32988000  1.0
  C  C83  1  0.56693000  0.82304000  0.17011000  1.0
  C  C84  1  0.43996000  0.32320000  0.67013000  1.0
  C  C85  1  0.43307000  0.17696000  0.82989000  1.0
  C  C86  1  0.71165000  0.45039000  0.38165000  1.0
  C  C87  1  0.54387000  0.04950000  0.11825000  1.0
  C  C88  1  0.28835000  0.54961000  0.61835000  1.0
  C  C89  1  0.45614000  0.95050000  0.88175000  1.0
  C  C90  1  0.64505000  0.55702000  0.49054000  1.0
  C  C91  1  0.69260000  0.94284000  0.00939000  1.0
  C  C92  1  0.35494000  0.44298000  0.50946000  1.0
  C  C93  1  0.30739000  0.05717000  0.99061000  1.0
  C  C94  1  0.72730000  0.43444000  0.52617000  1.0
  C  C95  1  0.68772000  0.06549000  0.97365000  1.0
  C  C96  1  0.27270000  0.56556000  0.47383000  1.0
  C  C97  1  0.31229000  0.93451000  0.02635000  1.0
  N  N98  1  0.69839000  0.78991000  0.53062000  1.0
  N  N99  1  0.01908000  0.71005000  0.96963000  1.0
  N  N100  1  0.30161000  0.21008000  0.46938000  1.0
  N  N101  1  0.98092000  0.28995000  0.03037000  1.0
  N  N102  1  0.72642000  0.80298000  0.37773000  1.0
  N  N103  1  0.90712000  0.69705000  0.12248000  1.0
  N  N104  1  0.27358000  0.19702000  0.62227000  1.0
  N  N105  1  0.09289000  0.30294000  0.87752000  1.0
  N  N106  1  0.63776000  0.56630000  0.39825000  1.0
  N  N107  1  0.60254000  0.93354000  0.10173000  1.0
  N  N108  1  0.36224000  0.43370000  0.60175000  1.0
  N  N109  1  0.39747000  0.06646000  0.89827000  1.0
  N  N110  1  0.76806000  0.36894000  0.45748000  1.0
  N  N111  1  0.59444000  0.13100000  0.04234000  1.0
  N  N112  1  0.23193000  0.63106000  0.54252000  1.0
  N  N113  1  0.40557000  0.86900000  0.95766000  1.0
  O  O114  1  0.93157000  0.88785000  0.58339000  1.0
  O  O115  1  0.40282000  0.61232000  0.91657000  1.0
  O  O116  1  0.06843000  0.11215000  0.41661000  1.0
  O  O117  1  0.59718000  0.38768000  0.08343000  1.0
  O  O118  1  0.65495000  0.95909000  0.67276000  1.0
  O  O119  1  0.28686000  0.54083000  0.82735000  1.0
  O  O120  1  0.34506000  0.04091000  0.32723000  1.0
  O  O121  1  0.71314000  0.45918000  0.17264000  1.0
  O  O122  1  0.80481000  0.11183000  0.60881000  1.0
  O  O123  1  0.52570000  0.38832000  0.89110000  1.0
  O  O124  1  0.19519000  0.88817000  0.39119000  1.0
  O  O125  1  0.47430000  0.61168000  0.10890000  1.0
  O  O126  1  0.29569000  0.82240000  0.59411000  1.0
  O  O127  1  0.71219000  0.67768000  0.90610000  1.0
  O  O128  1  0.70431000  0.17760000  0.40589000  1.0
  O  O129  1  0.28780000  0.32232000  0.09391000  1.0
  O  O130  1  0.39608000  0.86777000  0.70942000  1.0
  O  O131  1  0.97317000  0.63233000  0.79090000  1.0
  O  O132  1  0.60393000  0.13222000  0.29058000  1.0
  O  O133  1  0.02682000  0.36767000  0.20911000  1.0
  O  O134  1  0.12897000  0.84530000  0.76275000  1.0
  O  O135  1  0.73703000  0.65491000  0.73737000  1.0
  O  O136  1  0.87103000  0.15470000  0.23725000  1.0
  O  O137  1  0.26298000  0.34509000  0.26263000  1.0
