# generated using pymatgen
data_CdH24C22N4O5F4
_symmetry_space_group_name_H-M   'P 1'
_cell_length_a   8.89893000
_cell_length_b   10.92440000
_cell_length_c   12.49000000
_cell_angle_alpha   96.44250000
_cell_angle_beta   91.33780000
_cell_angle_gamma   97.75900000
_symmetry_Int_Tables_number   1
_chemical_formula_structural   CdH24C22N4O5F4
_chemical_formula_sum   'Cd2 H48 C44 N8 O10 F8'
_cell_volume   1194.59291384
_cell_formula_units_Z   2
loop_
 _symmetry_equiv_pos_site_id
 _symmetry_equiv_pos_as_xyz
  1  'x, y, z'
loop_
 _atom_site_type_symbol
 _atom_site_label
 _atom_site_symmetry_multiplicity
 _atom_site_fract_x
 _atom_site_fract_y
 _atom_site_fract_z
 _atom_site_occupancy
  Cd  Cd0  1  0.51752000  0.24698000  0.21344000  1.0
  Cd  Cd1  1  0.48248000  0.75302000  0.78656000  1.0
  H  H2  1  0.40783000  0.97762000  0.12908000  1.0
  H  H3  1  0.59217000  0.02238000  0.87092000  1.0
  H  H4  1  0.38414000  0.16911000  0.95300000  1.0
  H  H5  1  0.61586000  0.83089000  0.04699000  1.0
  H  H6  1  0.22095000  0.32095000  0.84209000  1.0
  H  H7  1  0.77905000  0.67905000  0.15791000  1.0
  H  H8  1  0.28225000  0.53684000  0.22099000  1.0
  H  H9  1  0.71775000  0.46316000  0.77901000  1.0
  H  H10  1  0.40987000  0.62937000  0.14540000  1.0
  H  H11  1  0.59013000  0.37063000  0.85460000  1.0
  H  H12  1  0.47845000  0.52178000  0.22510000  1.0
  H  H13  1  0.52155000  0.47822000  0.77490000  1.0
  H  H14  1  0.19615000  0.54502000  0.87313000  1.0
  H  H15  1  0.80385000  0.45498000  0.12687000  1.0
  H  H16  1  0.28819000  0.63727000  0.98692000  1.0
  H  H17  1  0.71181000  0.36273000  0.01308000  1.0
  H  H18  1  0.07473000  0.57845000  0.10213000  1.0
  H  H19  1  0.92527000  0.42155000  0.89787000  1.0
  H  H20  1  0.01132000  0.63939000  0.98721000  1.0
  H  H21  1  0.98868000  0.36061000  0.01279000  1.0
  H  H22  1  0.15939000  0.03528000  0.55396000  1.0
  H  H23  1  0.84061000  0.96472000  0.44604000  1.0
  H  H24  1  0.98861000  0.03963000  0.62171000  1.0
  H  H25  1  0.01139000  0.96037000  0.37829000  1.0
  H  H26  1  0.91270000  0.19589000  0.50485000  1.0
  H  H27  1  0.08730000  0.80411000  0.49515000  1.0
  H  H28  1  0.08077000  0.24958000  0.58550000  1.0
  H  H29  1  0.91923000  0.75042000  0.41450000  1.0
  H  H30  1  0.15715000  0.22922000  0.16475000  1.0
  H  H31  1  0.84285000  0.77078000  0.83525000  1.0
  H  H32  1  0.92345000  0.17590000  0.30234000  1.0
  H  H33  1  0.07654000  0.82411000  0.69766000  1.0
  H  H34  1  0.48824000  0.28094000  0.48229000  1.0
  H  H35  1  0.51176000  0.71906000  0.51771000  1.0
  H  H36  1  0.35823000  0.19314000  0.55976000  1.0
  H  H37  1  0.64177000  0.80685000  0.44024000  1.0
  H  H38  1  0.35419000  0.35505000  0.56122000  1.0
  H  H39  1  0.64581000  0.64495000  0.43879000  1.0
  H  H40  1  0.56761000  0.02378000  0.33419000  1.0
  H  H41  1  0.43239000  0.97622000  0.66581000  1.0
  H  H42  1  0.53579000  0.88324000  0.24551000  1.0
  H  H43  1  0.46421000  0.11676000  0.75449000  1.0
  H  H44  1  0.28997000  0.99652000  0.37763000  1.0
  H  H45  1  0.71004000  0.00348000  0.62237000  1.0
  H  H46  1  0.38152000  0.87123000  0.41478000  1.0
  H  H47  1  0.61849000  0.12877000  0.58522000  1.0
  H  H48  1  0.26275000  0.85069000  0.29562000  1.0
  H  H49  1  0.73725000  0.14931000  0.70438000  1.0
  C  C50  1  0.35584000  0.26127000  0.97670000  1.0
  C  C51  1  0.64416000  0.73873000  0.02330000  1.0
  C  C52  1  0.27669000  0.33507000  0.92138000  1.0
  C  C53  1  0.72331000  0.66493000  0.07862000  1.0
  C  C54  1  0.36007000  0.43814000  0.08018000  1.0
  C  C55  1  0.63993000  0.56186000  0.91982000  1.0
  C  C56  1  0.38387000  0.53711000  0.17281000  1.0
  C  C57  1  0.61613000  0.46289000  0.82719000  1.0
  C  C58  1  0.20904000  0.55258000  0.96120000  1.0
  C  C59  1  0.79096000  0.44742000  0.03880000  1.0
  C  C60  1  0.05691000  0.55877000  0.01408000  1.0
  C  C61  1  0.94309000  0.44123000  0.98592000  1.0
  C  C62  1  0.03987000  0.04936000  0.54327000  1.0
  C  C63  1  0.96013000  0.95064000  0.45673000  1.0
  C  C64  1  0.03143000  0.18200000  0.51793000  1.0
  C  C65  1  0.96857000  0.81800000  0.48207000  1.0
  C  C66  1  0.16143000  0.22777000  0.25136000  1.0
  C  C67  1  0.83857000  0.77223000  0.74865000  1.0
  C  C68  1  0.04482000  0.19968000  0.31802000  1.0
  C  C69  1  0.95518000  0.80032000  0.68198000  1.0
  C  C70  1  0.26388000  0.24520000  0.41433000  1.0
  C  C71  1  0.73612000  0.75480000  0.58567000  1.0
  C  C72  1  0.37162000  0.26997000  0.50942000  1.0
  C  C73  1  0.62838000  0.73003000  0.49058000  1.0
  C  C74  1  0.73318000  0.12517000  0.05225000  1.0
  C  C75  1  0.26682000  0.87483000  0.94775000  1.0
  C  C76  1  0.87028000  0.06031000  0.02488000  1.0
  C  C77  1  0.12972000  0.93970000  0.97512000  1.0
  C  C78  1  0.92204000  0.97932000  0.09169000  1.0
  C  C79  1  0.07796000  0.02068000  0.90831000  1.0
  C  C80  1  0.04845000  0.92066000  0.06745000  1.0
  C  C81  1  0.95155000  0.07935000  0.93255000  1.0
  C  C82  1  0.73646000  0.37600000  0.36452000  1.0
  C  C83  1  0.26353000  0.62401000  0.63548000  1.0
  C  C84  1  0.87055000  0.44275000  0.43418000  1.0
  C  C85  1  0.12945000  0.55725000  0.56582000  1.0
  C  C86  1  0.00023000  0.50037000  0.38962000  1.0
  C  C87  1  0.99977000  0.49964000  0.61038000  1.0
  C  C88  1  0.87348000  0.44448000  0.54613000  1.0
  C  C89  1  0.12652000  0.55552000  0.45387000  1.0
  C  C90  1  0.48123000  0.96195000  0.28184000  1.0
  C  C91  1  0.51877000  0.03805000  0.71816000  1.0
  C  C92  1  0.34597000  0.91701000  0.34628000  1.0
  C  C93  1  0.65403000  0.08299000  0.65372000  1.0
  N  N94  1  0.40764000  0.32631000  0.07497000  1.0
  N  N95  1  0.59237000  0.67369000  0.92503000  1.0
  N  N96  1  0.28090000  0.44626000  0.98710000  1.0
  N  N97  1  0.71910000  0.55374000  0.01290000  1.0
  N  N98  1  0.29689000  0.25588000  0.31144000  1.0
  N  N99  1  0.70311000  0.74412000  0.68857000  1.0
  N  N100  1  0.11086000  0.21098000  0.42076000  1.0
  N  N101  1  0.88914000  0.78902000  0.57924000  1.0
  O  O102  1  0.62574000  0.11357000  0.98282000  1.0
  O  O103  1  0.37426000  0.88643000  0.01718000  1.0
  O  O104  1  0.74076000  0.18714000  0.14494000  1.0
  O  O105  1  0.25924000  0.81286000  0.85506000  1.0
  O  O106  1  0.69206000  0.26383000  0.37809000  1.0
  O  O107  1  0.30794000  0.73617000  0.62191000  1.0
  O  O108  1  0.67928000  0.43628000  0.29653000  1.0
  O  O109  1  0.32072000  0.56372000  0.70347000  1.0
  O  O110  1  0.43821000  0.03269000  0.19855000  1.0
  O  O111  1  0.56179000  0.96731000  0.80145000  1.0
  F  F112  1  0.84667000  0.95360000  0.18165000  1.0
  F  F113  1  0.15333000  0.04640000  0.81835000  1.0
  F  F114  1  0.08980000  0.84092000  0.13510000  1.0
  F  F115  1  0.91020000  0.15909000  0.86490000  1.0
  F  F116  1  0.00643000  0.50300000  0.28144000  1.0
  F  F117  1  0.99358000  0.49699000  0.71856000  1.0
  F  F118  1  0.75118000  0.39031000  0.59468000  1.0
  F  F119  1  0.24882000  0.60969000  0.40532000  1.0
