# generated using pymatgen
data_KH10C10O3F5
_symmetry_space_group_name_H-M   'P 1'
_cell_length_a   4.33677000
_cell_length_b   12.07910000
_cell_length_c   12.25040000
_cell_angle_alpha   86.45440000
_cell_angle_beta   81.79860000
_cell_angle_gamma   88.87200000
_symmetry_Int_Tables_number   1
_chemical_formula_structural   KH10C10O3F5
_chemical_formula_sum   'K2 H20 C20 O6 F10'
_cell_volume   633.91113750
_cell_formula_units_Z   2
loop_
 _symmetry_equiv_pos_site_id
 _symmetry_equiv_pos_as_xyz
  1  'x, y, z'
loop_
 _atom_site_type_symbol
 _atom_site_label
 _atom_site_symmetry_multiplicity
 _atom_site_fract_x
 _atom_site_fract_y
 _atom_site_fract_z
 _atom_site_occupancy
  K  K0  1  0.20668000  0.37736000  0.08756000  1.0
  K  K1  1  0.79334000  0.62264000  0.91244000  1.0
  H  H2  1  0.61323000  0.01694000  0.13192000  1.0
  H  H3  1  0.38677000  0.98306000  0.86808000  1.0
  H  H4  1  0.60133000  0.11971000  0.02046000  1.0
  H  H5  1  0.39867000  0.88029000  0.97954000  1.0
  H  H6  1  0.24631000  0.06246000  0.09262000  1.0
  H  H7  1  0.75368000  0.93754000  0.90738000  1.0
  H  H8  1  0.43991000  0.07350000  0.31703000  1.0
  H  H9  1  0.56008000  0.92650000  0.68297000  1.0
  H  H10  1  0.07709000  0.11953000  0.27579000  1.0
  H  H11  1  0.92291000  0.88047000  0.72421000  1.0
  H  H12  1  0.21690000  0.21061000  0.44033000  1.0
  H  H13  1  0.78310000  0.78939000  0.55967000  1.0
  H  H14  1  0.54897000  0.27140000  0.35559000  1.0
  H  H15  1  0.45103000  0.72860000  0.64441000  1.0
  H  H16  1  0.93667000  0.38149000  0.47217000  1.0
  H  H17  1  0.06332000  0.61851000  0.52784000  1.0
  H  H18  1  0.93168000  0.47898000  0.35603000  1.0
  H  H19  1  0.06831000  0.52102000  0.64397000  1.0
  H  H20  1  0.29032000  0.44640000  0.40870000  1.0
  H  H21  1  0.70968000  0.55360000  0.59131000  1.0
  C  C22  1  0.92317000  0.23675000  0.84489000  1.0
  C  C23  1  0.07684000  0.76326000  0.15511000  1.0
  C  C24  1  0.91170000  0.17746000  0.75201000  1.0
  C  C25  1  0.08832000  0.82254000  0.24798000  1.0
  C  C26  1  0.73373000  0.21624000  0.67111000  1.0
  C  C27  1  0.26628000  0.78376000  0.32889000  1.0
  C  C28  1  0.57023000  0.31596000  0.68586000  1.0
  C  C29  1  0.42978000  0.68404000  0.31413000  1.0
  C  C30  1  0.58383000  0.37429000  0.77921000  1.0
  C  C31  1  0.41618000  0.62571000  0.22079000  1.0
  C  C32  1  0.75926000  0.33856000  0.86501000  1.0
  C  C33  1  0.24074000  0.66144000  0.13499000  1.0
  C  C34  1  0.48326000  0.08883000  0.10120000  1.0
  C  C35  1  0.51674000  0.91117000  0.89880000  1.0
  C  C36  1  0.31734000  0.14508000  0.28132000  1.0
  C  C37  1  0.68265000  0.85492000  0.71869000  1.0
  C  C38  1  0.31130000  0.24026000  0.35527000  1.0
  C  C39  1  0.68870000  0.75974000  0.64473000  1.0
  C  C40  1  0.06730000  0.41304000  0.39288000  1.0
  C  C41  1  0.93269000  0.58696000  0.60712000  1.0
  O  O42  1  0.47279000  0.17775000  0.17332000  1.0
  O  O43  1  0.52720000  0.82225000  0.82668000  1.0
  O  O44  1  0.11670000  0.32741000  0.31699000  1.0
  O  O45  1  0.88329000  0.67259000  0.68301000  1.0
  O  O46  1  0.76817000  0.39324000  0.95227000  1.0
  O  O47  1  0.23183000  0.60676000  0.04772000  1.0
  F  F48  1  0.10406000  0.19596000  0.92137000  1.0
  F  F49  1  0.89595000  0.80405000  0.07863000  1.0
  F  F50  1  0.07946000  0.08179000  0.73786000  1.0
  F  F51  1  0.92054000  0.91821000  0.26215000  1.0
  F  F52  1  0.72210000  0.15877000  0.57975000  1.0
  F  F53  1  0.27790000  0.84123000  0.42025000  1.0
  F  F54  1  0.39622000  0.35558000  0.60767000  1.0
  F  F55  1  0.60377000  0.64442000  0.39233000  1.0
  F  F56  1  0.41727000  0.47165000  0.79043000  1.0
  F  F57  1  0.58273000  0.52836000  0.20957000  1.0
