# generated using pymatgen
data_ZnH14C10SN2O7
_symmetry_space_group_name_H-M   'P 1'
_cell_length_a   6.73355000
_cell_length_b   11.74910000
_cell_length_c   19.54470000
_cell_angle_alpha   89.99980000
_cell_angle_beta   98.11060000
_cell_angle_gamma   89.99930000
_symmetry_Int_Tables_number   1
_chemical_formula_structural   ZnH14C10SN2O7
_chemical_formula_sum   'Zn4 H56 C40 S4 N8 O28'
_cell_volume   1530.77664726
_cell_formula_units_Z   4
loop_
 _symmetry_equiv_pos_site_id
 _symmetry_equiv_pos_as_xyz
  1  'x, y, z'
loop_
 _atom_site_type_symbol
 _atom_site_label
 _atom_site_symmetry_multiplicity
 _atom_site_fract_x
 _atom_site_fract_y
 _atom_site_fract_z
 _atom_site_occupancy
  Zn  Zn0  1  0.53451000  0.74657000  0.75483000  1.0
  Zn  Zn1  1  0.96549000  0.24658000  0.74517000  1.0
  Zn  Zn2  1  0.46548000  0.25342000  0.24518000  1.0
  Zn  Zn3  1  0.03452000  0.75342000  0.25482000  1.0
  H  H4  1  0.91916000  0.72795000  0.75688000  1.0
  H  H5  1  0.58085000  0.22796000  0.74313000  1.0
  H  H6  1  0.08084000  0.27205000  0.24313000  1.0
  H  H7  1  0.41917000  0.77205000  0.25687000  1.0
  H  H8  1  0.85215000  0.63985000  0.81297000  1.0
  H  H9  1  0.64785000  0.13986000  0.68704000  1.0
  H  H10  1  0.14785000  0.36014000  0.18704000  1.0
  H  H11  1  0.35215000  0.86014000  0.31296000  1.0
  H  H12  1  0.38857000  0.54984000  0.79797000  1.0
  H  H13  1  0.11146000  0.04984000  0.70204000  1.0
  H  H14  1  0.61142000  0.45018000  0.20206000  1.0
  H  H15  1  0.88859000  0.95018000  0.29794000  1.0
  H  H16  1  0.22901000  0.64592000  0.76001000  1.0
  H  H17  1  0.27101000  0.14592000  0.74000000  1.0
  H  H18  1  0.77098000  0.35409000  0.24001000  1.0
  H  H19  1  0.72903000  0.85409000  0.25999000  1.0
  H  H20  1  0.75271000  0.97197000  0.66317000  1.0
  H  H21  1  0.74729000  0.47197000  0.83683000  1.0
  H  H22  1  0.24730000  0.02803000  0.33682000  1.0
  H  H23  1  0.25270000  0.52803000  0.16318000  1.0
  H  H24  1  0.51606000  0.96605000  0.66563000  1.0
  H  H25  1  0.98394000  0.46604000  0.83437000  1.0
  H  H26  1  0.48395000  0.03394000  0.33437000  1.0
  H  H27  1  0.01605000  0.53394000  0.16563000  1.0
  H  H28  1  0.54707000  0.49743000  0.70750000  1.0
  H  H29  1  0.95293000  0.99743000  0.79250000  1.0
  H  H30  1  0.45286000  0.50255000  0.29251000  1.0
  H  H31  1  0.04718000  0.00253000  0.20749000  1.0
  H  H32  1  0.51504000  0.38470000  0.60201000  1.0
  H  H33  1  0.98495000  0.88470000  0.89799000  1.0
  H  H34  1  0.48490000  0.61528000  0.39800000  1.0
  H  H35  1  0.01513000  0.11527000  0.10199000  1.0
  H  H36  1  0.52248000  0.70147000  0.48789000  1.0
  H  H37  1  0.97749000  0.20146000  0.01211000  1.0
  H  H38  1  0.47752000  0.29850000  0.51212000  1.0
  H  H39  1  0.02242000  0.79850000  0.98787000  1.0
  H  H40  1  0.54788000  0.80145000  0.59861000  1.0
  H  H41  1  0.95210000  0.30145000  0.90138000  1.0
  H  H42  1  0.45212000  0.19853000  0.40139000  1.0
  H  H43  1  0.04782000  0.69851000  0.09859000  1.0
  H  H44  1  0.56393000  0.70308000  0.90352000  1.0
  H  H45  1  0.93607000  0.20308000  0.59648000  1.0
  H  H46  1  0.43612000  0.29694000  0.09648000  1.0
  H  H47  1  0.06391000  0.79694000  0.40352000  1.0
  H  H48  1  0.55383000  0.79937000  0.01420000  1.0
  H  H49  1  0.94618000  0.29938000  0.48580000  1.0
  H  H50  1  0.44621000  0.20065000  0.98580000  1.0
  H  H51  1  0.05379000  0.70066000  0.51420000  1.0
  H  H52  1  0.45312000  0.11566000  0.89859000  1.0
  H  H53  1  0.04686000  0.61567000  0.60141000  1.0
  H  H54  1  0.54690000  0.88436000  0.10141000  1.0
  H  H55  1  0.95310000  0.38437000  0.39860000  1.0
  H  H56  1  0.46652000  0.00357000  0.79317000  1.0
  H  H57  1  0.03346000  0.50358000  0.70683000  1.0
  H  H58  1  0.53349000  0.99644000  0.20683000  1.0
  H  H59  1  0.96653000  0.49644000  0.29317000  1.0
  C  C60  1  0.54091000  0.54039000  0.65778000  1.0
  C  C61  1  0.95908000  0.04039000  0.84222000  1.0
  C  C62  1  0.45904000  0.45959000  0.34223000  1.0
  C  C63  1  0.04098000  0.95957000  0.15776000  1.0
  C  C64  1  0.52140000  0.47690000  0.59724000  1.0
  C  C65  1  0.97860000  0.97690000  0.90275000  1.0
  C  C66  1  0.47856000  0.52308000  0.40276000  1.0
  C  C67  1  0.02145000  0.02307000  0.09724000  1.0
  C  C68  1  0.51216000  0.53193000  0.53307000  1.0
  C  C69  1  0.98784000  0.03193000  0.96692000  1.0
  C  C70  1  0.48784000  0.46805000  0.46693000  1.0
  C  C71  1  0.01216000  0.96804000  0.03306000  1.0
  C  C72  1  0.52695000  0.65116000  0.53483000  1.0
  C  C73  1  0.97303000  0.15116000  0.96516000  1.0
  C  C74  1  0.47305000  0.34881000  0.46518000  1.0
  C  C75  1  0.02692000  0.84880000  0.03481000  1.0
  C  C76  1  0.54328000  0.70883000  0.59747000  1.0
  C  C77  1  0.95671000  0.20883000  0.90253000  1.0
  C  C78  1  0.45670000  0.29114000  0.40254000  1.0
  C  C79  1  0.04326000  0.79113000  0.09745000  1.0
  C  C80  1  0.53962000  0.79474000  0.90476000  1.0
  C  C81  1  0.96037000  0.29474000  0.59525000  1.0
  C  C82  1  0.46042000  0.20528000  0.09525000  1.0
  C  C83  1  0.03961000  0.70528000  0.40475000  1.0
  C  C84  1  0.53314000  0.85023000  0.96708000  1.0
  C  C85  1  0.96687000  0.35023000  0.53293000  1.0
  C  C86  1  0.46689000  0.14980000  0.03292000  1.0
  C  C87  1  0.03312000  0.64980000  0.46708000  1.0
  C  C88  1  0.50216000  0.96848000  0.96740000  1.0
  C  C89  1  0.99783000  0.46849000  0.53260000  1.0
  C  C90  1  0.49787000  0.03154000  0.03260000  1.0
  C  C91  1  0.00213000  0.53155000  0.46741000  1.0
  C  C92  1  0.47700000  0.02433000  0.90336000  1.0
  C  C93  1  0.02299000  0.52434000  0.59665000  1.0
  C  C94  1  0.52303000  0.97568000  0.09664000  1.0
  C  C95  1  0.97699000  0.47569000  0.40336000  1.0
  C  C96  1  0.48515000  0.96217000  0.84343000  1.0
  C  C97  1  0.01484000  0.46218000  0.65658000  1.0
  C  C98  1  0.51487000  0.03784000  0.15657000  1.0
  C  C99  1  0.98514000  0.53785000  0.34343000  1.0
  S  S100  1  0.13216000  0.83507000  0.66754000  1.0
  S  S101  1  0.36785000  0.33507000  0.83247000  1.0
  S  S102  1  0.86786000  0.16494000  0.33246000  1.0
  S  S103  1  0.63214000  0.66494000  0.16754000  1.0
  N  N104  1  0.54897000  0.65509000  0.65862000  1.0
  N  N105  1  0.95102000  0.15508000  0.84138000  1.0
  N  N106  1  0.45100000  0.34489000  0.34139000  1.0
  N  N107  1  0.04899000  0.84487000  0.15860000  1.0
  N  N108  1  0.51614000  0.84920000  0.84351000  1.0
  N  N109  1  0.98384000  0.34921000  0.65650000  1.0
  N  N110  1  0.48389000  0.15081000  0.15650000  1.0
  N  N111  1  0.01613000  0.65081000  0.34350000  1.0
  O  O112  1  0.82837000  0.71960000  0.79305000  1.0
  O  O113  1  0.67163000  0.21960000  0.70695000  1.0
  O  O114  1  0.17163000  0.28039000  0.20695000  1.0
  O  O115  1  0.32838000  0.78040000  0.29305000  1.0
  O  O116  1  0.35059000  0.63271000  0.79402000  1.0
  O  O117  1  0.14943000  0.13271000  0.70598000  1.0
  O  O118  1  0.64940000  0.36731000  0.20599000  1.0
  O  O119  1  0.85061000  0.86731000  0.29401000  1.0
  O  O120  1  0.62574000  0.01551000  0.65451000  1.0
  O  O121  1  0.87427000  0.51551000  0.84550000  1.0
  O  O122  1  0.37427000  0.98448000  0.34549000  1.0
  O  O123  1  0.12573000  0.48448000  0.15451000  1.0
  O  O124  1  0.34840000  0.86439000  0.69704000  1.0
  O  O125  1  0.15161000  0.36439000  0.80296000  1.0
  O  O126  1  0.65162000  0.13561000  0.30296000  1.0
  O  O127  1  0.84838000  0.63561000  0.19704000  1.0
  O  O128  1  0.11146000  0.82366000  0.59281000  1.0
  O  O129  1  0.38852000  0.32367000  0.90719000  1.0
  O  O130  1  0.88857000  0.17633000  0.40719000  1.0
  O  O131  1  0.61144000  0.67631000  0.09282000  1.0
  O  O132  1  0.00340000  0.92840000  0.68975000  1.0
  O  O133  1  0.49660000  0.42840000  0.81026000  1.0
  O  O134  1  0.99663000  0.07163000  0.31024000  1.0
  O  O135  1  0.50337000  0.57163000  0.18977000  1.0
  O  O136  1  0.07678000  0.72659000  0.70093000  1.0
  O  O137  1  0.42324000  0.22659000  0.79908000  1.0
  O  O138  1  0.92321000  0.27343000  0.29908000  1.0
  O  O139  1  0.57680000  0.77344000  0.20092000  1.0
