# generated using pymatgen
data_CoH23C25(NO)4
_symmetry_space_group_name_H-M   'P 1'
_cell_length_a   10.16390000
_cell_length_b   11.20270000
_cell_length_c   14.08040000
_cell_angle_alpha   92.80710000
_cell_angle_beta   108.75400000
_cell_angle_gamma   114.23000000
_symmetry_Int_Tables_number   1
_chemical_formula_structural   CoH23C25(NO)4
_chemical_formula_sum   'Co2 H46 C50 N8 O8'
_cell_volume   1353.65295192
_cell_formula_units_Z   2
loop_
 _symmetry_equiv_pos_site_id
 _symmetry_equiv_pos_as_xyz
  1  'x, y, z'
loop_
 _atom_site_type_symbol
 _atom_site_label
 _atom_site_symmetry_multiplicity
 _atom_site_fract_x
 _atom_site_fract_y
 _atom_site_fract_z
 _atom_site_occupancy
  Co  Co0  1  0.52357000  0.67787000  0.74301000  1.0
  Co  Co1  1  0.47642000  0.32213000  0.25699000  1.0
  H  H2  1  0.94585000  0.51866000  0.66785000  1.0
  H  H3  1  0.05415000  0.48135000  0.33214000  1.0
  H  H4  1  0.04846000  0.57083000  0.80230000  1.0
  H  H5  1  0.95155000  0.42918000  0.19769000  1.0
  H  H6  1  0.12328000  0.66689000  0.71970000  1.0
  H  H7  1  0.87671000  0.33311000  0.28029000  1.0
  H  H8  1  0.09200000  0.89756000  0.74531000  1.0
  H  H9  1  0.90800000  0.10245000  0.25469000  1.0
  H  H10  1  0.95870000  0.05954000  0.80781000  1.0
  H  H11  1  0.04130000  0.94047000  0.19219000  1.0
  H  H12  1  0.75412000  0.97181000  0.78154000  1.0
  H  H13  1  0.24589000  0.02819000  0.21847000  1.0
  H  H14  1  0.82282000  0.00248000  0.67951000  1.0
  H  H15  1  0.17718000  0.99753000  0.32049000  1.0
  H  H16  1  0.65128000  0.27176000  0.62008000  1.0
  H  H17  1  0.34872000  0.72824000  0.37992000  1.0
  H  H18  1  0.55782000  0.24915000  0.48504000  1.0
  H  H19  1  0.44218000  0.75084000  0.51496000  1.0
  H  H20  1  0.46088000  0.14238000  0.55527000  1.0
  H  H21  1  0.53912000  0.85762000  0.44473000  1.0
  H  H22  1  0.23418000  0.24852000  0.45128000  1.0
  H  H23  1  0.76582000  0.75148000  0.54872000  1.0
  H  H24  1  0.15855000  0.48196000  0.61152000  1.0
  H  H25  1  0.84144000  0.51803000  0.38847000  1.0
  H  H26  1  0.07582000  0.38542000  0.48320000  1.0
  H  H27  1  0.92419000  0.61458000  0.51680000  1.0
  H  H28  1  0.20771000  0.55967000  0.51362000  1.0
  H  H29  1  0.79229000  0.44033000  0.48639000  1.0
  H  H30  1  0.74819000  0.44111000  0.71993000  1.0
  H  H31  1  0.25181000  0.55890000  0.28008000  1.0
  H  H32  1  0.90064000  0.63748000  0.92727000  1.0
  H  H33  1  0.09935000  0.36254000  0.07273000  1.0
  H  H34  1  0.87541000  0.60144000  0.09515000  1.0
  H  H35  1  0.12458000  0.39857000  0.90485000  1.0
  H  H36  1  0.41646000  0.28053000  0.94040000  1.0
  H  H37  1  0.58354000  0.71946000  0.05960000  1.0
  H  H38  1  0.43763000  0.31639000  0.77140000  1.0
  H  H39  1  0.56237000  0.68361000  0.22860000  1.0
  H  H40  1  0.19524000  0.75020000  0.50871000  1.0
  H  H41  1  0.80474000  0.24979000  0.49129000  1.0
  H  H42  1  0.98911000  0.80812000  0.41343000  1.0
  H  H43  1  0.01088000  0.19189000  0.58657000  1.0
  H  H44  1  0.38696000  0.09117000  0.75035000  1.0
  H  H45  1  0.61304000  0.90881000  0.24966000  1.0
  H  H46  1  0.17880000  0.15160000  0.65739000  1.0
  H  H47  1  0.82122000  0.84840000  0.34263000  1.0
  C  C48  1  0.01570000  0.60671000  0.73131000  1.0
  C  C49  1  0.98430000  0.39329000  0.26868000  1.0
  C  C50  1  0.93302000  0.68813000  0.73642000  1.0
  C  C51  1  0.06698000  0.31188000  0.26357000  1.0
  C  C52  1  0.98132000  0.82476000  0.74482000  1.0
  C  C53  1  0.01868000  0.17525000  0.25517000  1.0
  C  C54  1  0.85867000  0.84911000  0.75140000  1.0
  C  C55  1  0.14133000  0.15089000  0.24860000  1.0
  C  C56  1  0.84752000  0.97752000  0.75601000  1.0
  C  C57  1  0.15248000  0.02248000  0.24399000  1.0
  C  C58  1  0.53975000  0.24618000  0.55800000  1.0
  C  C59  1  0.46026000  0.75382000  0.44200000  1.0
  C  C60  1  0.46958000  0.33519000  0.57316000  1.0
  C  C61  1  0.53042000  0.66481000  0.42685000  1.0
  C  C62  1  0.32341000  0.32530000  0.51780000  1.0
  C  C63  1  0.67660000  0.67470000  0.48220000  1.0
  C  C64  1  0.31236000  0.43163000  0.56639000  1.0
  C  C65  1  0.68764000  0.56837000  0.43361000  1.0
  C  C66  1  0.18019000  0.46596000  0.54149000  1.0
  C  C67  1  0.81981000  0.53403000  0.45851000  1.0
  C  C68  1  0.68845000  0.49725000  0.73607000  1.0
  C  C69  1  0.31155000  0.50276000  0.26393000  1.0
  C  C70  1  0.67068000  0.47817000  0.83835000  1.0
  C  C71  1  0.32932000  0.52184000  0.16165000  1.0
  C  C72  1  0.79471000  0.55808000  0.92952000  1.0
  C  C73  1  0.20528000  0.44193000  0.07048000  1.0
  C  C74  1  0.78141000  0.53828000  0.02342000  1.0
  C  C75  1  0.21858000  0.46173000  0.97658000  1.0
  C  C76  1  0.64510000  0.43862000  0.02780000  1.0
  C  C77  1  0.35489000  0.56138000  0.97219000  1.0
  C  C78  1  0.52244000  0.35736000  0.93644000  1.0
  C  C79  1  0.47756000  0.64264000  0.06355000  1.0
  C  C80  1  0.53517000  0.37718000  0.84229000  1.0
  C  C81  1  0.46483000  0.62283000  0.15771000  1.0
  C  C82  1  0.63239000  0.42485000  0.13049000  1.0
  C  C83  1  0.36762000  0.57515000  0.86951000  1.0
  C  C84  1  0.42689000  0.87898000  0.69879000  1.0
  C  C85  1  0.57310000  0.12100000  0.30120000  1.0
  C  C86  1  0.30454000  0.91672000  0.63631000  1.0
  C  C87  1  0.69546000  0.08327000  0.36369000  1.0
  C  C88  1  0.19184000  0.83900000  0.54055000  1.0
  C  C89  1  0.80815000  0.16099000  0.45946000  1.0
  C  C90  1  0.07493000  0.87239000  0.48710000  1.0
  C  C91  1  0.92507000  0.12761000  0.51290000  1.0
  C  C92  1  0.06421000  0.98406000  0.52760000  1.0
  C  C93  1  0.93580000  0.01595000  0.47241000  1.0
  C  C94  1  0.29841000  0.03070000  0.67601000  1.0
  C  C95  1  0.70160000  0.96929000  0.32400000  1.0
  C  C96  1  0.18067000  0.06333000  0.62305000  1.0
  C  C97  1  0.81934000  0.93666000  0.37696000  1.0
  N  N98  1  0.74040000  0.73289000  0.74870000  1.0
  N  N99  1  0.25960000  0.26711000  0.25130000  1.0
  N  N100  1  0.78655000  0.63565000  0.73768000  1.0
  N  N101  1  0.21345000  0.36435000  0.26231000  1.0
  N  N102  1  0.44548000  0.50458000  0.64771000  1.0
  N  N103  1  0.55452000  0.49542000  0.35229000  1.0
  N  N104  1  0.54029000  0.44579000  0.65036000  1.0
  N  N105  1  0.45971000  0.55421000  0.34964000  1.0
  O  O106  1  0.74397000  0.49869000  0.21072000  1.0
  O  O107  1  0.25603000  0.50131000  0.78927000  1.0
  O  O108  1  0.49932000  0.33340000  0.12775000  1.0
  O  O109  1  0.50068000  0.66666667  0.87224000  1.0
  O  O110  1  0.53080000  0.95387000  0.78059000  1.0
  O  O111  1  0.46919000  0.04608000  0.21940000  1.0
  O  O112  1  0.41012000  0.76231000  0.65987000  1.0
  O  O113  1  0.58985000  0.23765000  0.34012000  1.0
