# generated using pymatgen
data_FeH26C25S2(NO)4
_symmetry_space_group_name_H-M   'P 1'
_cell_length_a   12.16000000
_cell_length_b   12.16000000
_cell_length_c   24.78550000
_cell_angle_alpha   90.00000000
_cell_angle_beta   90.00000000
_cell_angle_gamma   90.00000000
_symmetry_Int_Tables_number   1
_chemical_formula_structural   FeH26C25S2(NO)4
_chemical_formula_sum   'Fe4 H104 C100 S8 N16 O16'
_cell_volume   3664.92282880
_cell_formula_units_Z   4
loop_
 _symmetry_equiv_pos_site_id
 _symmetry_equiv_pos_as_xyz
  1  'x, y, z'
loop_
 _atom_site_type_symbol
 _atom_site_label
 _atom_site_symmetry_multiplicity
 _atom_site_fract_x
 _atom_site_fract_y
 _atom_site_fract_z
 _atom_site_occupancy
  Fe  Fe0  1  0.25000000  0.25000000  0.08089000  1.0
  Fe  Fe1  1  0.75000000  0.75000000  0.58089000  1.0
  Fe  Fe2  1  0.75000000  0.75000000  0.91911000  1.0
  Fe  Fe3  1  0.25000000  0.25000000  0.41911000  1.0
  H  H4  1  0.41941000  0.43098000  0.11450000  1.0
  H  H5  1  0.08059000  0.06902000  0.11450000  1.0
  H  H6  1  0.56902000  0.91941000  0.61450000  1.0
  H  H7  1  0.93098000  0.58059000  0.61450000  1.0
  H  H8  1  0.58059000  0.56902000  0.88550000  1.0
  H  H9  1  0.91941000  0.93098000  0.88550000  1.0
  H  H10  1  0.43098000  0.08059000  0.38550000  1.0
  H  H11  1  0.06902000  0.41941000  0.38550000  1.0
  H  H12  1  0.43899000  0.58793000  0.17911000  1.0
  H  H13  1  0.06101000  0.91207000  0.17911000  1.0
  H  H14  1  0.41206000  0.93899000  0.67911000  1.0
  H  H15  1  0.08793000  0.56101000  0.67911000  1.0
  H  H16  1  0.56101000  0.41206000  0.82089000  1.0
  H  H17  1  0.93899000  0.08794000  0.82089000  1.0
  H  H18  1  0.58793000  0.06101000  0.32089000  1.0
  H  H19  1  0.91207000  0.43899000  0.32089000  1.0
  H  H20  1  0.13861000  0.47399000  0.25515000  1.0
  H  H21  1  0.36139000  0.02601000  0.25515000  1.0
  H  H22  1  0.52601000  0.63862000  0.75516000  1.0
  H  H23  1  0.97399000  0.86139000  0.75516000  1.0
  H  H24  1  0.86139000  0.52601000  0.74484000  1.0
  H  H25  1  0.63861000  0.97399000  0.74484000  1.0
  H  H26  1  0.47399000  0.36139000  0.24484000  1.0
  H  H27  1  0.02601000  0.13861000  0.24485000  1.0
  H  H28  1  0.13127000  0.32710000  0.18600000  1.0
  H  H29  1  0.36873000  0.17290000  0.18600000  1.0
  H  H30  1  0.67290000  0.63127000  0.68600000  1.0
  H  H31  1  0.82710000  0.86873000  0.68600000  1.0
  H  H32  1  0.86873000  0.67290000  0.81400000  1.0
  H  H33  1  0.63127000  0.82710000  0.81400000  1.0
  H  H34  1  0.32710000  0.36873000  0.31400000  1.0
  H  H35  1  0.17290000  0.13127000  0.31400000  1.0
  H  H36  1  0.20745000  0.57811000  0.32110000  1.0
  H  H37  1  0.29255000  0.92189000  0.32110000  1.0
  H  H38  1  0.42189000  0.70745000  0.82110000  1.0
  H  H39  1  0.07811000  0.79255000  0.82110000  1.0
  H  H40  1  0.79255000  0.42189000  0.67890000  1.0
  H  H41  1  0.70745000  0.07811000  0.67890000  1.0
  H  H42  1  0.57811000  0.29255000  0.17890000  1.0
  H  H43  1  0.92189000  0.20745000  0.17890000  1.0
  H  H44  1  0.13863000  0.66750000  0.27396000  1.0
  H  H45  1  0.36137000  0.83249000  0.27396000  1.0
  H  H46  1  0.33250000  0.63863000  0.77396000  1.0
  H  H47  1  0.16750000  0.86137000  0.77396000  1.0
  H  H48  1  0.86137000  0.33250000  0.72604000  1.0
  H  H49  1  0.63863000  0.16750000  0.72604000  1.0
  H  H50  1  0.66750000  0.36137000  0.22604000  1.0
  H  H51  1  0.83250000  0.13863000  0.22604000  1.0
  H  H52  1  0.18195000  0.84354000  0.39543000  1.0
  H  H53  1  0.31805000  0.65646000  0.39543000  1.0
  H  H54  1  0.15646000  0.68195000  0.89543000  1.0
  H  H55  1  0.34354000  0.81805000  0.89543000  1.0
  H  H56  1  0.81805000  0.15646000  0.60457000  1.0
  H  H57  1  0.68195000  0.34354000  0.60457000  1.0
  H  H58  1  0.84354000  0.31805000  0.10456000  1.0
  H  H59  1  0.65646000  0.18195000  0.10456000  1.0
  H  H60  1  0.09035000  0.82774000  0.33966000  1.0
  H  H61  1  0.40965000  0.67226000  0.33966000  1.0
  H  H62  1  0.17226000  0.59035000  0.83966000  1.0
  H  H63  1  0.32774000  0.90965000  0.83966000  1.0
  H  H64  1  0.90965000  0.17226000  0.66034000  1.0
  H  H65  1  0.59035000  0.32774000  0.66034000  1.0
  H  H66  1  0.82774000  0.40965000  0.16033000  1.0
  H  H67  1  0.67226000  0.09035000  0.16034000  1.0
  H  H68  1  0.89998000  0.89570000  0.50795000  1.0
  H  H69  1  0.60002000  0.60430000  0.50795000  1.0
  H  H70  1  0.10430000  0.39998000  0.00795000  1.0
  H  H71  1  0.39570000  0.10002000  0.00795000  1.0
  H  H72  1  0.10002000  0.10430000  0.49205000  1.0
  H  H73  1  0.39998000  0.39570000  0.49205000  1.0
  H  H74  1  0.89570000  0.60002000  0.99205000  1.0
  H  H75  1  0.60430000  0.89998000  0.99205000  1.0
  H  H76  1  0.03784000  0.88663000  0.43466000  1.0
  H  H77  1  0.46216000  0.61337000  0.43466000  1.0
  H  H78  1  0.11337000  0.53784000  0.93466000  1.0
  H  H79  1  0.38663000  0.96216000  0.93466000  1.0
  H  H80  1  0.96216000  0.11337000  0.56534000  1.0
  H  H81  1  0.53784000  0.38663000  0.56534000  1.0
  H  H82  1  0.88663000  0.46216000  0.06534000  1.0
  H  H83  1  0.61337000  0.03784000  0.06534000  1.0
  H  H84  1  0.99271000  0.53323000  0.43486000  1.0
  H  H85  1  0.50730000  0.96677000  0.43486000  1.0
  H  H86  1  0.46677000  0.49270000  0.93486000  1.0
  H  H87  1  0.03323000  0.00730000  0.93486000  1.0
  H  H88  1  0.00730000  0.46677000  0.56514000  1.0
  H  H89  1  0.49270000  0.03323000  0.56514000  1.0
  H  H90  1  0.53323000  0.50730000  0.06514000  1.0
  H  H91  1  0.96677000  0.99270000  0.06514000  1.0
  H  H92  1  0.85582000  0.55889000  0.50842000  1.0
  H  H93  1  0.64418000  0.94111000  0.50842000  1.0
  H  H94  1  0.44111000  0.35581000  0.00842000  1.0
  H  H95  1  0.05889000  0.14419000  0.00842000  1.0
  H  H96  1  0.14419000  0.44111000  0.49158000  1.0
  H  H97  1  0.35581000  0.05889000  0.49158000  1.0
  H  H98  1  0.55889000  0.64419000  0.99158000  1.0
  H  H99  1  0.94111000  0.85581000  0.99158000  1.0
  H  H100  1  0.43810000  0.11097000  0.09871000  1.0
  H  H101  1  0.06190000  0.38903000  0.09871000  1.0
  H  H102  1  0.88903000  0.93810000  0.59871000  1.0
  H  H103  1  0.61097000  0.56191000  0.59871000  1.0
  H  H104  1  0.56191000  0.88903000  0.90129000  1.0
  H  H105  1  0.93809000  0.61097000  0.90129000  1.0
  H  H106  1  0.11097000  0.06190000  0.40129000  1.0
  H  H107  1  0.38903000  0.43810000  0.40129000  1.0
  C  C108  1  0.35768000  0.44574000  0.14552000  1.0
  C  C109  1  0.14232000  0.05426000  0.14552000  1.0
  C  C110  1  0.55426000  0.85768000  0.64552000  1.0
  C  C111  1  0.94574000  0.64232000  0.64552000  1.0
  C  C112  1  0.64232000  0.55426000  0.85448000  1.0
  C  C113  1  0.85768000  0.94574000  0.85448000  1.0
  C  C114  1  0.44574000  0.14232000  0.35448000  1.0
  C  C115  1  0.05426000  0.35768000  0.35448000  1.0
  C  C116  1  0.36951000  0.53157000  0.18180000  1.0
  C  C117  1  0.13049000  0.96843000  0.18180000  1.0
  C  C118  1  0.46843000  0.86951000  0.68180000  1.0
  C  C119  1  0.03157000  0.63049000  0.68180000  1.0
  C  C120  1  0.63049000  0.46843000  0.81820000  1.0
  C  C121  1  0.86951000  0.03157000  0.81820000  1.0
  C  C122  1  0.53157000  0.13049000  0.31820000  1.0
  C  C123  1  0.96843000  0.36951000  0.31820000  1.0
  C  C124  1  0.28909000  0.54571000  0.22194000  1.0
  C  C125  1  0.21090000  0.95429000  0.22194000  1.0
  C  C126  1  0.45429000  0.78910000  0.72194000  1.0
  C  C127  1  0.04571000  0.71090000  0.72194000  1.0
  C  C128  1  0.71091000  0.45429000  0.77806000  1.0
  C  C129  1  0.78909000  0.04571000  0.77806000  1.0
  C  C130  1  0.54571000  0.21090000  0.27806000  1.0
  C  C131  1  0.95429000  0.28910000  0.27806000  1.0
  C  C132  1  0.20218000  0.47007000  0.22433000  1.0
  C  C133  1  0.29782000  0.02993000  0.22433000  1.0
  C  C134  1  0.52992000  0.70218000  0.72433000  1.0
  C  C135  1  0.97007000  0.79782000  0.72433000  1.0
  C  C136  1  0.79782000  0.52993000  0.77567000  1.0
  C  C137  1  0.70218000  0.97007000  0.77567000  1.0
  C  C138  1  0.47008000  0.29782000  0.27567000  1.0
  C  C139  1  0.02992000  0.20218000  0.27567000  1.0
  C  C140  1  0.19817000  0.38677000  0.18587000  1.0
  C  C141  1  0.30183000  0.11323000  0.18587000  1.0
  C  C142  1  0.61323000  0.69817000  0.68587000  1.0
  C  C143  1  0.88677000  0.80183000  0.68587000  1.0
  C  C144  1  0.80183000  0.61323000  0.81413000  1.0
  C  C145  1  0.69817000  0.88677000  0.81413000  1.0
  C  C146  1  0.38677000  0.30183000  0.31413000  1.0
  C  C147  1  0.11323000  0.19817000  0.31413000  1.0
  C  C148  1  0.21654000  0.65091000  0.29504000  1.0
  C  C149  1  0.28346000  0.84909000  0.29504000  1.0
  C  C150  1  0.34909000  0.71654000  0.79504000  1.0
  C  C151  1  0.15091000  0.78346000  0.79504000  1.0
  C  C152  1  0.78346000  0.34909000  0.70496000  1.0
  C  C153  1  0.71654000  0.15091000  0.70496000  1.0
  C  C154  1  0.65091000  0.28346000  0.20496000  1.0
  C  C155  1  0.84909000  0.21654000  0.20496000  1.0
  C  C156  1  0.25000000  0.75000000  0.32953000  1.0
  C  C157  1  0.25000000  0.75000000  0.82953000  1.0
  C  C158  1  0.75000000  0.25000000  0.67048000  1.0
  C  C159  1  0.75000000  0.25000000  0.17047000  1.0
  C  C160  1  0.15246000  0.78555000  0.36457000  1.0
  C  C161  1  0.34754000  0.71446000  0.36457000  1.0
  C  C162  1  0.21445000  0.65246000  0.86457000  1.0
  C  C163  1  0.28555000  0.84754000  0.86457000  1.0
  C  C164  1  0.84754000  0.21446000  0.63543000  1.0
  C  C165  1  0.65246000  0.28554000  0.63543000  1.0
  C  C166  1  0.78554000  0.34754000  0.13543000  1.0
  C  C167  1  0.71446000  0.15246000  0.13543000  1.0
  C  C168  1  0.92404000  0.81642000  0.49099000  1.0
  C  C169  1  0.57596000  0.68358000  0.49099000  1.0
  C  C170  1  0.18358000  0.42404000  0.99099000  1.0
  C  C171  1  0.31642000  0.07596000  0.99099000  1.0
  C  C172  1  0.07596000  0.18358000  0.50901000  1.0
  C  C173  1  0.42404000  0.31642000  0.50901000  1.0
  C  C174  1  0.81642000  0.57596000  0.00901000  1.0
  C  C175  1  0.68358000  0.92403000  0.00901000  1.0
  C  C176  1  0.00029000  0.81101000  0.44927000  1.0
  C  C177  1  0.49971000  0.68899000  0.44927000  1.0
  C  C178  1  0.18899000  0.50029000  0.94927000  1.0
  C  C179  1  0.31101000  0.99971000  0.94927000  1.0
  C  C180  1  0.99971000  0.18899000  0.55073000  1.0
  C  C181  1  0.50029000  0.31101000  0.55073000  1.0
  C  C182  1  0.81101000  0.49971000  0.05073000  1.0
  C  C183  1  0.68899000  0.00029000  0.05073000  1.0
  C  C184  1  0.02828000  0.70750000  0.42852000  1.0
  C  C185  1  0.47172000  0.79250000  0.42852000  1.0
  C  C186  1  0.29250000  0.52828000  0.92852000  1.0
  C  C187  1  0.20750000  0.97172000  0.92852000  1.0
  C  C188  1  0.97172000  0.29250000  0.57148000  1.0
  C  C189  1  0.52828000  0.20750000  0.57148000  1.0
  C  C190  1  0.70750000  0.47172000  0.07148000  1.0
  C  C191  1  0.79250000  0.02828000  0.07148000  1.0
  C  C192  1  0.97495000  0.61517000  0.45016000  1.0
  C  C193  1  0.52505000  0.88483000  0.45015000  1.0
  C  C194  1  0.38483000  0.47495000  0.95016000  1.0
  C  C195  1  0.11517000  0.02505000  0.95016000  1.0
  C  C196  1  0.02505000  0.38483000  0.54984000  1.0
  C  C197  1  0.47495000  0.11517000  0.54984000  1.0
  C  C198  1  0.61517000  0.52505000  0.04984000  1.0
  C  C199  1  0.88483000  0.97494000  0.04984000  1.0
  C  C200  1  0.89967000  0.62934000  0.49159000  1.0
  C  C201  1  0.60033000  0.87066000  0.49158000  1.0
  C  C202  1  0.37066000  0.39967000  0.99158000  1.0
  C  C203  1  0.12934000  0.10033000  0.99158000  1.0
  C  C204  1  0.10033000  0.37066000  0.50842000  1.0
  C  C205  1  0.39967000  0.12934000  0.50842000  1.0
  C  C206  1  0.62934000  0.60033000  0.00841000  1.0
  C  C207  1  0.87066000  0.89967000  0.00841000  1.0
  S  S208  1  0.45144000  0.21774000  0.08576000  1.0
  S  S209  1  0.04856000  0.28226000  0.08576000  1.0
  S  S210  1  0.78226000  0.95144000  0.58576000  1.0
  S  S211  1  0.71774000  0.54856000  0.58576000  1.0
  S  S212  1  0.54856000  0.78226000  0.91424000  1.0
  S  S213  1  0.95144000  0.71774000  0.91424000  1.0
  S  S214  1  0.21774000  0.04856000  0.41424000  1.0
  S  S215  1  0.28226000  0.45144000  0.41424000  1.0
  N  N216  1  0.27255000  0.37453000  0.14612000  1.0
  N  N217  1  0.22745000  0.12547000  0.14612000  1.0
  N  N218  1  0.62547000  0.77255000  0.64612000  1.0
  N  N219  1  0.87453000  0.72745000  0.64612000  1.0
  N  N220  1  0.72745000  0.62547000  0.85388000  1.0
  N  N221  1  0.77255000  0.87453000  0.85388000  1.0
  N  N222  1  0.37453000  0.22745000  0.35388000  1.0
  N  N223  1  0.12547000  0.27255000  0.35388000  1.0
  N  N224  1  0.87414000  0.72828000  0.51310000  1.0
  N  N225  1  0.62586000  0.77173000  0.51310000  1.0
  N  N226  1  0.27173000  0.37414000  0.01310000  1.0
  N  N227  1  0.22827000  0.12586000  0.01310000  1.0
  N  N228  1  0.12586000  0.27172000  0.48690000  1.0
  N  N229  1  0.37414000  0.22828000  0.48690000  1.0
  N  N230  1  0.72828000  0.62586000  0.98690000  1.0
  N  N231  1  0.77173000  0.87414000  0.98690000  1.0
  O  O232  1  0.10306000  0.68976000  0.38890000  1.0
  O  O233  1  0.39694000  0.81024000  0.38890000  1.0
  O  O234  1  0.31024000  0.60306000  0.88890000  1.0
  O  O235  1  0.18976000  0.89694000  0.88890000  1.0
  O  O236  1  0.89694000  0.31024000  0.61110000  1.0
  O  O237  1  0.60306000  0.18976000  0.61110000  1.0
  O  O238  1  0.68976000  0.39694000  0.11110000  1.0
  O  O239  1  0.81024000  0.10306000  0.11110000  1.0
  O  O240  1  0.30214000  0.63204000  0.25584000  1.0
  O  O241  1  0.19786000  0.86796000  0.25584000  1.0
  O  O242  1  0.36796000  0.80214000  0.75584000  1.0
  O  O243  1  0.13204000  0.69786000  0.75584000  1.0
  O  O244  1  0.69786000  0.36796000  0.74416000  1.0
  O  O245  1  0.80214000  0.13204000  0.74416000  1.0
  O  O246  1  0.63204000  0.19786000  0.24416000  1.0
  O  O247  1  0.86796000  0.30214000  0.24416000  1.0
