# generated using pymatgen
data_Zn2H12(CO)7
_symmetry_space_group_name_H-M   'P 1'
_cell_length_a   5.94760000
_cell_length_b   7.73227000
_cell_length_c   12.49720000
_cell_angle_alpha   90.00120000
_cell_angle_beta   89.99970000
_cell_angle_gamma   89.99980000
_symmetry_Int_Tables_number   1
_chemical_formula_structural   Zn2H12(CO)7
_chemical_formula_sum   'Zn4 H24 C14 O14'
_cell_volume   574.72684536
_cell_formula_units_Z   2
loop_
 _symmetry_equiv_pos_site_id
 _symmetry_equiv_pos_as_xyz
  1  'x, y, z'
loop_
 _atom_site_type_symbol
 _atom_site_label
 _atom_site_symmetry_multiplicity
 _atom_site_fract_x
 _atom_site_fract_y
 _atom_site_fract_z
 _atom_site_occupancy
  Zn  Zn0  1  0.50224000  0.87410000  0.63041000  1.0
  Zn  Zn1  1  0.50227000  0.87405000  0.36959000  1.0
  Zn  Zn2  1  0.00226000  0.12592000  0.13040000  1.0
  Zn  Zn3  1  0.00226000  0.12594000  0.86958000  1.0
  H  H4  1  0.03848000  0.75516000  0.91497000  1.0
  H  H5  1  0.03855000  0.75513000  0.08503000  1.0
  H  H6  1  0.53852000  0.24482000  0.41496000  1.0
  H  H7  1  0.53851000  0.24488000  0.58502000  1.0
  H  H8  1  0.94206000  0.56039000  0.84913000  1.0
  H  H9  1  0.94215000  0.56037000  0.15086000  1.0
  H  H10  1  0.44208000  0.43959000  0.34913000  1.0
  H  H11  1  0.44212000  0.43964000  0.65088000  1.0
  H  H12  1  0.15612000  0.68794000  0.79070000  1.0
  H  H13  1  0.15618000  0.68793000  0.20930000  1.0
  H  H14  1  0.65614000  0.31205000  0.29069000  1.0
  H  H15  1  0.65616000  0.31207000  0.70930000  1.0
  H  H16  1  0.86945000  0.16874000  0.50000000  1.0
  H  H17  1  0.36945000  0.83125000  0.99997000  1.0
  H  H18  1  0.96172000  0.98294000  0.57164000  1.0
  H  H19  1  0.96175000  0.98293000  0.42835000  1.0
  H  H20  1  0.46173000  0.01704000  0.07165000  1.0
  H  H21  1  0.46176000  0.01708000  0.92835000  1.0
  H  H22  1  0.83540000  0.60504000  0.50001000  1.0
  H  H23  1  0.33540000  0.39495000  0.00002000  1.0
  H  H24  1  0.99591000  0.45193000  0.57277000  1.0
  H  H25  1  0.99591000  0.45192000  0.42726000  1.0
  H  H26  1  0.49591000  0.54808000  0.07277000  1.0
  H  H27  1  0.49589000  0.54808000  0.92726000  1.0
  C  C28  1  0.83250000  0.79735000  0.77653000  1.0
  C  C29  1  0.83251000  0.79732000  0.22347000  1.0
  C  C30  1  0.33249000  0.20263000  0.27652000  1.0
  C  C31  1  0.33252000  0.20271000  0.72347000  1.0
  C  C32  1  0.00070000  0.69328000  0.83825000  1.0
  C  C33  1  0.00077000  0.69326000  0.16174000  1.0
  C  C34  1  0.50072000  0.30671000  0.33825000  1.0
  C  C35  1  0.50074000  0.30676000  0.66174000  1.0
  C  C36  1  0.87042000  0.02621000  0.50000000  1.0
  C  C37  1  0.37044000  0.97379000  0.99999000  1.0
  C  C38  1  0.18549000  0.65803000  0.50000000  1.0
  C  C39  1  0.68549000  0.34198000  0.00001000  1.0
  C  C40  1  0.99328000  0.53093000  0.50001000  1.0
  C  C41  1  0.49329000  0.46907000  0.00002000  1.0
  O  O42  1  0.69880000  0.71711000  0.71377000  1.0
  O  O43  1  0.69885000  0.71707000  0.28623000  1.0
  O  O44  1  0.19883000  0.28289000  0.21376000  1.0
  O  O45  1  0.19883000  0.28295000  0.78625000  1.0
  O  O46  1  0.64446000  0.96060000  0.49999000  1.0
  O  O47  1  0.14448000  0.03940000  0.99999000  1.0
  O  O48  1  0.25879000  0.70852000  0.59068000  1.0
  O  O49  1  0.25884000  0.70846000  0.40933000  1.0
  O  O50  1  0.75883000  0.29151000  0.09069000  1.0
  O  O51  1  0.75883000  0.29151000  0.90933000  1.0
  O  O52  1  0.32278000  0.03761000  0.71605000  1.0
  O  O53  1  0.32277000  0.03753000  0.28394000  1.0
  O  O54  1  0.82277000  0.96241000  0.21604000  1.0
  O  O55  1  0.82279000  0.96246000  0.78393000  1.0
