# generated using pymatgen
data_Mn2H10C12N4O11
_symmetry_space_group_name_H-M   'P 1'
_cell_length_a   8.58775000
_cell_length_b   10.49600000
_cell_length_c   10.65040000
_cell_angle_alpha   77.18360000
_cell_angle_beta   66.22290000
_cell_angle_gamma   65.84870000
_symmetry_Int_Tables_number   1
_chemical_formula_structural   Mn2H10C12N4O11
_chemical_formula_sum   'Mn4 H20 C24 N8 O22'
_cell_volume   799.75295767
_cell_formula_units_Z   2
loop_
 _symmetry_equiv_pos_site_id
 _symmetry_equiv_pos_as_xyz
  1  'x, y, z'
loop_
 _atom_site_type_symbol
 _atom_site_label
 _atom_site_symmetry_multiplicity
 _atom_site_fract_x
 _atom_site_fract_y
 _atom_site_fract_z
 _atom_site_occupancy
  Mn  Mn0  1  0.03728000  0.31849000  0.58978000  1.0
  Mn  Mn1  1  0.94590000  0.18159000  0.91003000  1.0
  Mn  Mn2  1  0.96276000  0.68167000  0.41003000  1.0
  Mn  Mn3  1  0.05412000  0.81824000  0.09012000  1.0
  H  H4  1  0.21005000  0.33534000  0.73977000  1.0
  H  H5  1  0.28512000  0.16468000  0.76043000  1.0
  H  H6  1  0.78996000  0.66462000  0.26018000  1.0
  H  H7  1  0.71479000  0.83534000  0.23961000  1.0
  H  H8  1  0.58060000  0.35183000  0.35759000  1.0
  H  H9  1  0.29053000  0.14820000  0.14233000  1.0
  H  H10  1  0.41947000  0.64822000  0.64230000  1.0
  H  H11  1  0.70948000  0.85179000  0.85779000  1.0
  H  H12  1  0.69199000  0.98438000  0.60831000  1.0
  H  H13  1  0.28495000  0.51571000  0.89178000  1.0
  H  H14  1  0.30782000  0.01579000  0.39180000  1.0
  H  H15  1  0.71516000  0.48412000  0.10809000  1.0
  H  H16  1  0.32407000  0.30732000  0.35572000  1.0
  H  H17  1  0.98745000  0.19253000  0.14422000  1.0
  H  H18  1  0.67606000  0.69259000  0.64424000  1.0
  H  H19  1  0.01254000  0.80756000  0.85583000  1.0
  H  H20  1  0.40576000  0.18984000  0.45754000  1.0
  H  H21  1  0.05334000  0.31016000  0.04254000  1.0
  H  H22  1  0.59431000  0.81014000  0.54247000  1.0
  H  H23  1  0.94672000  0.68985000  0.95743000  1.0
  C  C24  1  0.80348000  0.45742000  0.39784000  1.0
  C  C25  1  0.65913000  0.04258000  0.10191000  1.0
  C  C26  1  0.19668000  0.54258000  0.60195000  1.0
  C  C27  1  0.34082000  0.95741000  0.89828000  1.0
  C  C28  1  0.76935000  0.32371000  0.45661000  1.0
  C  C29  1  0.55017000  0.17628000  0.04311000  1.0
  C  C30  1  0.23080000  0.67628000  0.54323000  1.0
  C  C31  1  0.44980000  0.82374000  0.95710000  1.0
  C  C32  1  0.65124000  0.28480000  0.42695000  1.0
  C  C33  1  0.36348000  0.21521000  0.07289000  1.0
  C  C34  1  0.34882000  0.71524000  0.57294000  1.0
  C  C35  1  0.63653000  0.78477000  0.92723000  1.0
  C  C36  1  0.71241000  0.08292000  0.56490000  1.0
  C  C37  1  0.36059000  0.41713000  0.93507000  1.0
  C  C38  1  0.28750000  0.91720000  0.43511000  1.0
  C  C39  1  0.63948000  0.58276000  0.06491000  1.0
  C  C40  1  0.82908000  0.12267000  0.59645000  1.0
  C  C41  1  0.54854000  0.37741000  0.90343000  1.0
  C  C42  1  0.17088000  0.87741000  0.40352000  1.0
  C  C43  1  0.45148000  0.62252000  0.09662000  1.0
  C  C44  1  0.92910000  0.03774000  0.69294000  1.0
  C  C45  1  0.65988000  0.46248000  0.80693000  1.0
  C  C46  1  0.07075000  0.96232000  0.30714000  1.0
  C  C47  1  0.34009000  0.53746000  0.19303000  1.0
  N  N48  1  0.85470000  0.24401000  0.54300000  1.0
  N  N49  1  0.64219000  0.25601000  0.95674000  1.0
  N  N50  1  0.14539000  0.75601000  0.45687000  1.0
  N  N51  1  0.35780000  0.74399000  0.04344000  1.0
  N  N52  1  0.62011000  0.16591000  0.48292000  1.0
  N  N53  1  0.26931000  0.33413000  0.01705000  1.0
  N  N54  1  0.37987000  0.83417000  0.51704000  1.0
  N  N55  1  0.73074000  0.66579000  0.98297000  1.0
  O  O56  1  0.90543000  0.48281000  0.44245000  1.0
  O  O57  1  0.83105000  0.01722000  0.05759000  1.0
  O  O58  1  0.09467000  0.51725000  0.55734000  1.0
  O  O59  1  0.16892000  0.98271000  0.94261000  1.0
  O  O60  1  0.73018000  0.53305000  0.31274000  1.0
  O  O61  1  0.57639000  0.96684000  0.18683000  1.0
  O  O62  1  0.26996000  0.46692000  0.68705000  1.0
  O  O63  1  0.42353000  0.03316000  0.81335000  1.0
  O  O64  1  0.01221000  0.09929000  0.72081000  1.0
  O  O65  1  0.83245000  0.40096000  0.77878000  1.0
  O  O66  1  0.98740000  0.90085000  0.27945000  1.0
  O  O67  1  0.16755000  0.59888000  0.22090000  1.0
  O  O68  1  0.92535000  0.91735000  0.73751000  1.0
  O  O69  1  0.58010000  0.58297000  0.76266000  1.0
  O  O70  1  0.07461000  0.08266000  0.26241000  1.0
  O  O71  1  0.41978000  0.41706000  0.23751000  1.0
  O  O72  1  0.17704000  0.25000000  0.75005000  1.0
  O  O73  1  0.82288000  0.74999000  0.24996000  1.0
  O  O74  1  0.29527000  0.23424000  0.43057000  1.0
  O  O75  1  0.96036000  0.26570000  0.06942000  1.0
  O  O76  1  0.70485000  0.76569000  0.56938000  1.0
  O  O77  1  0.03963000  0.73436000  0.93060000  1.0
