# generated using pymatgen
data_BaH5C8NO7
_symmetry_space_group_name_H-M   'P 1'
_cell_length_a   7.28181000
_cell_length_b   7.67599000
_cell_length_c   17.56570000
_cell_angle_alpha   98.31990000
_cell_angle_beta   98.46330000
_cell_angle_gamma   90.19920000
_symmetry_Int_Tables_number   1
_chemical_formula_structural   BaH5C8NO7
_chemical_formula_sum   'Ba4 H20 C32 N4 O28'
_cell_volume   960.61609502
_cell_formula_units_Z   4
loop_
 _symmetry_equiv_pos_site_id
 _symmetry_equiv_pos_as_xyz
  1  'x, y, z'
loop_
 _atom_site_type_symbol
 _atom_site_label
 _atom_site_symmetry_multiplicity
 _atom_site_fract_x
 _atom_site_fract_y
 _atom_site_fract_z
 _atom_site_occupancy
  Ba  Ba0  1  0.24550000  0.06955000  0.75385000  1.0
  Ba  Ba1  1  0.75448000  0.93046000  0.24615000  1.0
  Ba  Ba2  1  0.23117000  0.17236000  0.15579000  1.0
  Ba  Ba3  1  0.76882000  0.82762000  0.84421000  1.0
  H  H4  1  0.98507000  0.59958000  0.55210000  1.0
  H  H5  1  0.01494000  0.40043000  0.44790000  1.0
  H  H6  1  0.12775000  0.38362000  0.84796000  1.0
  H  H7  1  0.87225000  0.61637000  0.15204000  1.0
  H  H8  1  0.16512000  0.83557000  0.41083000  1.0
  H  H9  1  0.83489000  0.16445000  0.58917000  1.0
  H  H10  1  0.48936000  0.63353000  0.64179000  1.0
  H  H11  1  0.51065000  0.36647000  0.35822000  1.0
  H  H12  1  0.38350000  0.81815000  0.01301000  1.0
  H  H13  1  0.61650000  0.18185000  0.98699000  1.0
  H  H14  1  0.41907000  0.35527000  0.47067000  1.0
  H  H15  1  0.58094000  0.64472000  0.52933000  1.0
  H  H16  1  0.01719000  0.34885000  0.34427000  1.0
  H  H17  1  0.98282000  0.65115000  0.65574000  1.0
  H  H18  1  0.08277000  0.54431000  0.35351000  1.0
  H  H19  1  0.91724000  0.45569000  0.64649000  1.0
  H  H20  1  0.04589000  0.46557000  0.75123000  1.0
  H  H21  1  0.95411000  0.53442000  0.24877000  1.0
  H  H22  1  0.86943000  0.35268000  0.75199000  1.0
  H  H23  1  0.13056000  0.64733000  0.24801000  1.0
  C  C24  1  0.26151000  0.61378000  0.92083000  1.0
  C  C25  1  0.73849000  0.38622000  0.07918000  1.0
  C  C26  1  0.18909000  0.44194000  0.90610000  1.0
  C  C27  1  0.81091000  0.55806000  0.09390000  1.0
  C  C28  1  0.22344000  0.94682000  0.45330000  1.0
  C  C29  1  0.77656000  0.05319000  0.54670000  1.0
  C  C30  1  0.22139000  0.94774000  0.53283000  1.0
  C  C31  1  0.77860000  0.05226000  0.46717000  1.0
  C  C32  1  0.29816000  0.09427000  0.42911000  1.0
  C  C33  1  0.70184000  0.90574000  0.57089000  1.0
  C  C34  1  0.32601000  0.68475000  0.99819000  1.0
  C  C35  1  0.67400000  0.31524000  0.00181000  1.0
  C  C36  1  0.34402000  0.22931000  0.56390000  1.0
  C  C37  1  0.65598000  0.77069000  0.43610000  1.0
  C  C38  1  0.14591000  0.79965000  0.56640000  1.0
  C  C39  1  0.85410000  0.20036000  0.43361000  1.0
  C  C40  1  0.33536000  0.66399000  0.14266000  1.0
  C  C41  1  0.66463000  0.33601000  0.85734000  1.0
  C  C42  1  0.19355000  0.34286000  0.96673000  1.0
  C  C43  1  0.80646000  0.65714000  0.03328000  1.0
  C  C44  1  0.38899000  0.38380000  0.62802000  1.0
  C  C45  1  0.61101000  0.61620000  0.37198000  1.0
  C  C46  1  0.14555000  0.14706000  0.94997000  1.0
  C  C47  1  0.85446000  0.85294000  0.05002000  1.0
  C  C48  1  0.30263000  0.58425000  0.05691000  1.0
  C  C49  1  0.69737000  0.41574000  0.94309000  1.0
  C  C50  1  0.36293000  0.23660000  0.48624000  1.0
  C  C51  1  0.63707000  0.76340000  0.51376000  1.0
  C  C52  1  0.25854000  0.71585000  0.85315000  1.0
  C  C53  1  0.74145000  0.28415000  0.14685000  1.0
  C  C54  1  0.29047000  0.10202000  0.34249000  1.0
  C  C55  1  0.70954000  0.89798000  0.65751000  1.0
  N  N56  1  0.27785000  0.08643000  0.58701000  1.0
  N  N57  1  0.72214000  0.91357000  0.41299000  1.0
  N  N58  1  0.24349000  0.41460000  0.04123000  1.0
  N  N59  1  0.75652000  0.58540000  0.95877000  1.0
  O  O60  1  0.10232000  0.43646000  0.37896000  1.0
  O  O61  1  0.89769000  0.56354000  0.62104000  1.0
  O  O62  1  0.04955000  0.67552000  0.51715000  1.0
  O  O63  1  0.95045000  0.32447000  0.48285000  1.0
  O  O64  1  0.42122000  0.18249000  0.31885000  1.0
  O  O65  1  0.57879000  0.81751000  0.68115000  1.0
  O  O66  1  0.06560000  0.08729000  0.88107000  1.0
  O  O67  1  0.93439000  0.91271000  0.11893000  1.0
  O  O68  1  0.19185000  0.05750000  0.00389000  1.0
  O  O69  1  0.80818000  0.94249000  0.99611000  1.0
  O  O70  1  0.39534000  0.81593000  0.85066000  1.0
  O  O71  1  0.60465000  0.18406000  0.14934000  1.0
  O  O72  1  0.11273000  0.69494000  0.80183000  1.0
  O  O73  1  0.88725000  0.30506000  0.19817000  1.0
  O  O74  1  0.16825000  0.80129000  0.63788000  1.0
  O  O75  1  0.83175000  0.19870000  0.36210000  1.0
  O  O76  1  0.15199000  0.02770000  0.29799000  1.0
  O  O77  1  0.84802000  0.97229000  0.70201000  1.0
  O  O78  1  0.36714000  0.37616000  0.69560000  1.0
  O  O79  1  0.63288000  0.62383000  0.30440000  1.0
  O  O80  1  0.28099000  0.57058000  0.18948000  1.0
  O  O81  1  0.71900000  0.42943000  0.81052000  1.0
  O  O82  1  0.44902000  0.52314000  0.60189000  1.0
  O  O83  1  0.55099000  0.47687000  0.39811000  1.0
  O  O84  1  0.98485000  0.35132000  0.72649000  1.0
  O  O85  1  0.01514000  0.64868000  0.27350000  1.0
  O  O86  1  0.41043000  0.81776000  0.16061000  1.0
  O  O87  1  0.58955000  0.18225000  0.83939000  1.0
