# generated using pymatgen
data_SmH7C8SO9
_symmetry_space_group_name_H-M   'P 1'
_cell_length_a   6.38729000
_cell_length_b   8.68822000
_cell_length_c   10.64640000
_cell_angle_alpha   91.06280000
_cell_angle_beta   99.38790000
_cell_angle_gamma   107.40500000
_symmetry_Int_Tables_number   1
_chemical_formula_structural   SmH7C8SO9
_chemical_formula_sum   'Sm2 H14 C16 S2 O18'
_cell_volume   554.78696654
_cell_formula_units_Z   2
loop_
 _symmetry_equiv_pos_site_id
 _symmetry_equiv_pos_as_xyz
  1  'x, y, z'
loop_
 _atom_site_type_symbol
 _atom_site_label
 _atom_site_symmetry_multiplicity
 _atom_site_fract_x
 _atom_site_fract_y
 _atom_site_fract_z
 _atom_site_occupancy
  Sm  Sm0  1  0.14956000  0.23938000  0.61091000  1.0
  Sm  Sm1  1  0.85044000  0.76062000  0.38909000  1.0
  H  H2  1  0.62036000  0.41416000  0.14341000  1.0
  H  H3  1  0.37963000  0.58584000  0.85659000  1.0
  H  H4  1  0.65848000  0.36303000  0.91914000  1.0
  H  H5  1  0.34152000  0.63697000  0.08086000  1.0
  H  H6  1  0.17427000  0.15040000  0.05449000  1.0
  H  H7  1  0.82573000  0.84960000  0.94551000  1.0
  H  H8  1  0.53112000  0.07889000  0.67881000  1.0
  H  H9  1  0.46888000  0.92111000  0.32119000  1.0
  H  H10  1  0.30961000  0.94817000  0.60853000  1.0
  H  H11  1  0.69039000  0.05183000  0.39147000  1.0
  H  H12  1  0.65386000  0.34943000  0.71126000  1.0
  H  H13  1  0.34614000  0.65057000  0.28874000  1.0
  H  H14  1  0.58466000  0.50000000  0.65407000  1.0
  H  H15  1  0.41534000  0.50000000  0.34593000  1.0
  C  C16  1  0.01831000  0.22581000  0.19892000  1.0
  C  C17  1  0.98169000  0.77419000  0.80108000  1.0
  C  C18  1  0.86610000  0.30535000  0.22581000  1.0
  C  C19  1  0.13389000  0.69465000  0.77419000  1.0
  C  C20  1  0.73752000  0.35233000  0.12275000  1.0
  C  C21  1  0.26248000  0.64767000  0.87725000  1.0
  C  C22  1  0.75988000  0.32421000  0.99707000  1.0
  C  C23  1  0.24012000  0.67579000  0.00293000  1.0
  C  C24  1  0.91958000  0.25236000  0.97248000  1.0
  C  C25  1  0.08042000  0.74764000  0.02752000  1.0
  C  C26  1  0.04710000  0.20277000  0.07395000  1.0
  C  C27  1  0.95290000  0.79723000  0.92605000  1.0
  C  C28  1  0.84185000  0.34956000  0.35916000  1.0
  C  C29  1  0.15815000  0.65044000  0.64084000  1.0
  C  C30  1  0.97632000  0.23758000  0.84323000  1.0
  C  C31  1  0.02368000  0.76242000  0.15677000  1.0
  S  S32  1  0.20992000  0.17151000  0.31837000  1.0
  S  S33  1  0.79008000  0.82849000  0.68163000  1.0
  O  O34  1  0.08734000  0.03987000  0.39110000  1.0
  O  O35  1  0.91266000  0.96013000  0.60890000  1.0
  O  O36  1  0.31004000  0.31630000  0.41056000  1.0
  O  O37  1  0.68996000  0.68370000  0.58944000  1.0
  O  O38  1  0.36590000  0.12668000  0.25237000  1.0
  O  O39  1  0.63410000  0.87332000  0.74763000  1.0
  O  O40  1  0.84563000  0.24826000  0.44455000  1.0
  O  O41  1  0.15437000  0.75174000  0.55545000  1.0
  O  O42  1  0.81919000  0.48636000  0.37920000  1.0
  O  O43  1  0.18081000  0.51364000  0.62080000  1.0
  O  O44  1  0.15890000  0.20936000  0.83605000  1.0
  O  O45  1  0.84110000  0.79064000  0.16395000  1.0
  O  O46  1  0.85015000  0.25646000  0.74118000  1.0
  O  O47  1  0.14985000  0.74354000  0.25882000  1.0
  O  O48  1  0.38064000  0.06562000  0.63274000  1.0
  O  O49  1  0.61936000  0.93438000  0.36726000  1.0
  O  O50  1  0.52999000  0.39857000  0.69598000  1.0
  O  O51  1  0.47001000  0.60143000  0.30402000  1.0
