# generated using pymatgen
data_MgH8(CO2)4
_symmetry_space_group_name_H-M   'P 1'
_cell_length_a   5.70108000
_cell_length_b   9.49917000
_cell_length_c   14.29400000
_cell_angle_alpha   90.00030000
_cell_angle_beta   90.44450000
_cell_angle_gamma   89.99920000
_symmetry_Int_Tables_number   1
_chemical_formula_structural   MgH8(CO2)4
_chemical_formula_sum   'Mg4 H32 C16 O32'
_cell_volume   774.07582363
_cell_formula_units_Z   4
loop_
 _symmetry_equiv_pos_site_id
 _symmetry_equiv_pos_as_xyz
  1  'x, y, z'
loop_
 _atom_site_type_symbol
 _atom_site_label
 _atom_site_symmetry_multiplicity
 _atom_site_fract_x
 _atom_site_fract_y
 _atom_site_fract_z
 _atom_site_occupancy
  Mg  Mg0  1  0.13752000  0.69270000  0.84300000  1.0
  Mg  Mg1  1  0.36249000  0.19270000  0.65700000  1.0
  Mg  Mg2  1  0.86249000  0.30730000  0.15700000  1.0
  Mg  Mg3  1  0.63751000  0.80730000  0.34300000  1.0
  H  H4  1  0.52669000  0.74748000  0.65329000  1.0
  H  H5  1  0.97331000  0.24748000  0.84671000  1.0
  H  H6  1  0.47330000  0.25252000  0.34670000  1.0
  H  H7  1  0.02668000  0.75252000  0.15330000  1.0
  H  H8  1  0.29635000  0.85028000  0.51847000  1.0
  H  H9  1  0.20366000  0.35028000  0.98154000  1.0
  H  H10  1  0.70364000  0.14972000  0.48153000  1.0
  H  H11  1  0.79635000  0.64972000  0.01846000  1.0
  H  H12  1  0.36974000  0.92151000  0.76638000  1.0
  H  H13  1  0.13027000  0.42151000  0.73363000  1.0
  H  H14  1  0.63026000  0.07849000  0.23362000  1.0
  H  H15  1  0.86973000  0.57849000  0.26637000  1.0
  H  H16  1  0.62601000  0.96123000  0.59491000  1.0
  H  H17  1  0.87400000  0.46123000  0.90509000  1.0
  H  H18  1  0.37397000  0.03877000  0.40509000  1.0
  H  H19  1  0.12601000  0.53877000  0.09491000  1.0
  H  H20  1  0.27958000  0.91467000  0.95564000  1.0
  H  H21  1  0.22043000  0.41466000  0.54436000  1.0
  H  H22  1  0.72042000  0.08534000  0.04436000  1.0
  H  H23  1  0.77957000  0.58534000  0.45564000  1.0
  H  H24  1  0.32331000  0.76460000  0.00747000  1.0
  H  H25  1  0.17669000  0.26460000  0.49253000  1.0
  H  H26  1  0.67670000  0.23540000  0.99253000  1.0
  H  H27  1  0.82331000  0.73540000  0.50747000  1.0
  H  H28  1  0.67204000  0.70487000  0.85802000  1.0
  H  H29  1  0.82797000  0.20487000  0.64198000  1.0
  H  H30  1  0.32797000  0.29513000  0.14198000  1.0
  H  H31  1  0.17203000  0.79513000  0.35802000  1.0
  H  H32  1  0.78210000  0.82870000  0.91868000  1.0
  H  H33  1  0.71791000  0.32870000  0.58133000  1.0
  H  H34  1  0.21792000  0.17130000  0.08133000  1.0
  H  H35  1  0.28209000  0.67130000  0.41868000  1.0
  C  C36  1  0.19839000  0.64409000  0.64109000  1.0
  C  C37  1  0.30163000  0.14409000  0.85892000  1.0
  C  C38  1  0.80160000  0.35591000  0.35892000  1.0
  C  C39  1  0.69836000  0.85591000  0.14109000  1.0
  C  C40  1  0.34075000  0.77831000  0.66010000  1.0
  C  C41  1  0.15926000  0.27831000  0.83991000  1.0
  C  C42  1  0.65924000  0.22169000  0.33990000  1.0
  C  C43  1  0.84074000  0.72169000  0.16010000  1.0
  C  C44  1  0.29167000  0.89535000  0.58920000  1.0
  C  C45  1  0.20834000  0.39535000  0.91080000  1.0
  C  C46  1  0.70833000  0.10466000  0.41080000  1.0
  C  C47  1  0.79166000  0.60465000  0.08920000  1.0
  C  C48  1  0.04933000  0.95934000  0.60597000  1.0
  C  C49  1  0.45069000  0.45934000  0.89403000  1.0
  C  C50  1  0.95066000  0.04066000  0.39403000  1.0
  C  C51  1  0.54933000  0.54066000  0.10597000  1.0
  O  O52  1  0.08926000  0.59274000  0.71151000  1.0
  O  O53  1  0.41076000  0.09274000  0.78849000  1.0
  O  O54  1  0.91076000  0.40725000  0.28848000  1.0
  O  O55  1  0.58925000  0.90726000  0.21151000  1.0
  O  O56  1  0.20837000  0.59190000  0.56036000  1.0
  O  O57  1  0.29165000  0.09191000  0.93964000  1.0
  O  O58  1  0.79161000  0.40809000  0.43963000  1.0
  O  O59  1  0.70836000  0.90809000  0.06035000  1.0
  O  O60  1  0.29713000  0.82691000  0.75293000  1.0
  O  O61  1  0.20288000  0.32691000  0.74708000  1.0
  O  O62  1  0.70288000  0.17309000  0.24707000  1.0
  O  O63  1  0.79712000  0.67309000  0.25292000  1.0
  O  O64  1  0.46220000  0.00385000  0.59930000  1.0
  O  O65  1  0.03780000  0.50385000  0.90070000  1.0
  O  O66  1  0.53779000  0.99615000  0.40070000  1.0
  O  O67  1  0.96221000  0.49615000  0.09930000  1.0
  O  O68  1  0.04371000  0.08311000  0.63960000  1.0
  O  O69  1  0.45628000  0.58311000  0.86040000  1.0
  O  O70  1  0.95628000  0.91690000  0.36040000  1.0
  O  O71  1  0.54372000  0.41689000  0.13959000  1.0
  O  O72  1  0.87154000  0.88536000  0.58545000  1.0
  O  O73  1  0.62847000  0.38536000  0.91456000  1.0
  O  O74  1  0.12845000  0.11465000  0.41456000  1.0
  O  O75  1  0.37154000  0.61464000  0.08544000  1.0
  O  O76  1  0.23847000  0.81240000  0.95630000  1.0
  O  O77  1  0.26152000  0.31239000  0.54371000  1.0
  O  O78  1  0.76153000  0.18760000  0.04371000  1.0
  O  O79  1  0.73847000  0.68761000  0.45630000  1.0
  O  O80  1  0.80542000  0.77289000  0.86174000  1.0
  O  O81  1  0.69459000  0.27289000  0.63826000  1.0
  O  O82  1  0.19459000  0.22711000  0.13826000  1.0
  O  O83  1  0.30541000  0.72711000  0.36174000  1.0
