# generated using pymatgen
data_ZnH26C20(N2O3)2
_symmetry_space_group_name_H-M   'P 1'
_cell_length_a   8.97470000
_cell_length_b   9.71084000
_cell_length_c   12.36300000
_cell_angle_alpha   90.00000000
_cell_angle_beta   90.00000000
_cell_angle_gamma   97.05730000
_symmetry_Int_Tables_number   1
_chemical_formula_structural   ZnH26C20(N2O3)2
_chemical_formula_sum   'Zn2 H52 C40 N8 O12'
_cell_volume   1069.29557294
_cell_formula_units_Z   2
loop_
 _symmetry_equiv_pos_site_id
 _symmetry_equiv_pos_as_xyz
  1  'x, y, z'
loop_
 _atom_site_type_symbol
 _atom_site_label
 _atom_site_symmetry_multiplicity
 _atom_site_fract_x
 _atom_site_fract_y
 _atom_site_fract_z
 _atom_site_occupancy
  Zn  Zn0  1  0.00000000  0.00000000  0.00000000  1.0
  Zn  Zn1  1  0.50000000  0.00000000  0.50000000  1.0
  H  H2  1  0.91472000  0.09763000  0.18104000  1.0
  H  H3  1  0.58528000  0.90237000  0.68104000  1.0
  H  H4  1  0.08528000  0.90237000  0.81896000  1.0
  H  H5  1  0.41472000  0.09763000  0.31896000  1.0
  H  H6  1  0.08735000  0.09417000  0.21964000  1.0
  H  H7  1  0.41265000  0.90583000  0.71964000  1.0
  H  H8  1  0.91265000  0.90583000  0.78036000  1.0
  H  H9  1  0.58735000  0.09417000  0.28036000  1.0
  H  H10  1  0.85697000  0.70711000  0.98198000  1.0
  H  H11  1  0.64303000  0.29289000  0.48198000  1.0
  H  H12  1  0.14303000  0.29289000  0.01801000  1.0
  H  H13  1  0.35697000  0.70711000  0.51801000  1.0
  H  H14  1  0.84096000  0.48991000  0.09305000  1.0
  H  H15  1  0.65904000  0.51009000  0.59305000  1.0
  H  H16  1  0.15904000  0.51009000  0.90695000  1.0
  H  H17  1  0.34096000  0.48991000  0.40695000  1.0
  H  H18  1  0.19987000  0.69166000  0.29004000  1.0
  H  H19  1  0.30013000  0.30834000  0.79004000  1.0
  H  H20  1  0.80012000  0.30834000  0.70996000  1.0
  H  H21  1  0.69988000  0.69166000  0.20996000  1.0
  H  H22  1  0.20242000  0.89970000  0.16994000  1.0
  H  H23  1  0.29758000  0.10030000  0.66994000  1.0
  H  H24  1  0.79758000  0.10030000  0.83006000  1.0
  H  H25  1  0.70243000  0.89970000  0.33006000  1.0
  H  H26  1  0.89713000  0.38698000  0.26371000  1.0
  H  H27  1  0.60287000  0.61302000  0.76371000  1.0
  H  H28  1  0.10287000  0.61301000  0.73629000  1.0
  H  H29  1  0.39713000  0.38699000  0.23629000  1.0
  H  H30  1  0.09229000  0.38108000  0.25306000  1.0
  H  H31  1  0.40771000  0.61892000  0.75306000  1.0
  H  H32  1  0.90771000  0.61892000  0.74694000  1.0
  H  H33  1  0.59229000  0.38108000  0.24694000  1.0
  H  H34  1  0.13268000  0.31573000  0.42837000  1.0
  H  H35  1  0.36731000  0.68427000  0.92837000  1.0
  H  H36  1  0.86732000  0.68427000  0.57163000  1.0
  H  H37  1  0.63268000  0.31573000  0.07163000  1.0
  H  H38  1  0.93756000  0.30239000  0.45875000  1.0
  H  H39  1  0.56244000  0.69761000  0.95875000  1.0
  H  H40  1  0.06244000  0.69761000  0.54125000  1.0
  H  H41  1  0.43756000  0.30239000  0.04125000  1.0
  H  H42  1  0.80658000  0.51587000  0.42432000  1.0
  H  H43  1  0.69342000  0.48413000  0.92432000  1.0
  H  H44  1  0.19342000  0.48413000  0.57568000  1.0
  H  H45  1  0.30658000  0.51587000  0.07568000  1.0
  H  H46  1  0.91751000  0.66688000  0.37432000  1.0
  H  H47  1  0.58249000  0.33312000  0.87432000  1.0
  H  H48  1  0.08249000  0.33312000  0.62568000  1.0
  H  H49  1  0.41751000  0.66688000  0.12568000  1.0
  H  H50  1  0.55861000  0.95691000  0.88970000  1.0
  H  H51  1  0.94140000  0.04309000  0.38970000  1.0
  H  H52  1  0.44139000  0.04309000  0.11030000  1.0
  H  H53  1  0.05861000  0.95691000  0.61030000  1.0
  C  C54  1  0.93269000  0.69721000  0.04969000  1.0
  C  C55  1  0.56731000  0.30279000  0.54969000  1.0
  C  C56  1  0.06731000  0.30279000  0.95031000  1.0
  C  C57  1  0.43269000  0.69721000  0.45031000  1.0
  C  C58  1  0.92537000  0.57711000  0.11163000  1.0
  C  C59  1  0.57462000  0.42289000  0.61163000  1.0
  C  C60  1  0.07462000  0.42289000  0.88837000  1.0
  C  C61  1  0.42537000  0.57711000  0.38837000  1.0
  C  C62  1  0.02060000  0.57305000  0.20062000  1.0
  C  C63  1  0.47940000  0.42695000  0.70062000  1.0
  C  C64  1  0.97940000  0.42695000  0.79938000  1.0
  C  C65  1  0.52060000  0.57305000  0.29938000  1.0
  C  C66  1  0.12462000  0.68997000  0.22084000  1.0
  C  C67  1  0.37537000  0.31003000  0.72084000  1.0
  C  C68  1  0.87537000  0.31003000  0.77916000  1.0
  C  C69  1  0.62463000  0.68997000  0.27916000  1.0
  C  C70  1  0.12595000  0.80563000  0.15488000  1.0
  C  C71  1  0.37405000  0.19437000  0.65488000  1.0
  C  C72  1  0.87405000  0.19437000  0.84512000  1.0
  C  C73  1  0.62595000  0.80563000  0.34512000  1.0
  C  C74  1  0.00815000  0.44996000  0.27546000  1.0
  C  C75  1  0.49185000  0.55004000  0.77546000  1.0
  C  C76  1  0.99184000  0.55004000  0.72454000  1.0
  C  C77  1  0.50815000  0.44996000  0.22454000  1.0
  C  C78  1  0.04383000  0.37454000  0.45840000  1.0
  C  C79  1  0.45616000  0.62545000  0.95840000  1.0
  C  C80  1  0.95617000  0.62546000  0.54160000  1.0
  C  C81  1  0.54384000  0.37454000  0.04160000  1.0
  C  C82  1  0.92035000  0.57618000  0.42691000  1.0
  C  C83  1  0.57965000  0.42383000  0.92691000  1.0
  C  C84  1  0.07965000  0.42383000  0.57309000  1.0
  C  C85  1  0.42035000  0.57617000  0.07308000  1.0
  C  C86  1  0.31946000  0.98905000  0.91350000  1.0
  C  C87  1  0.18054000  0.01095000  0.41350000  1.0
  C  C88  1  0.68054000  0.01095000  0.08650000  1.0
  C  C89  1  0.81946000  0.98905000  0.58651000  1.0
  C  C90  1  0.47811000  0.98689000  0.94873000  1.0
  C  C91  1  0.02190000  0.01311000  0.44873000  1.0
  C  C92  1  0.52189000  0.01311000  0.05127000  1.0
  C  C93  1  0.97811000  0.98689000  0.55127000  1.0
  N  N94  1  0.02979000  0.81029000  0.07182000  1.0
  N  N95  1  0.47021000  0.18971000  0.57182000  1.0
  N  N96  1  0.97021000  0.18971000  0.92818000  1.0
  N  N97  1  0.52979000  0.81029000  0.42818000  1.0
  N  N98  1  0.03412000  0.49298000  0.38732000  1.0
  N  N99  1  0.46588000  0.50702000  0.88732000  1.0
  N  N100  1  0.96588000  0.50702000  0.61268000  1.0
  N  N101  1  0.53412000  0.49298000  0.11268000  1.0
  O  O102  1  0.23353000  0.04410000  0.97801000  1.0
  O  O103  1  0.26648000  0.95590000  0.47801000  1.0
  O  O104  1  0.76647000  0.95590000  0.02199000  1.0
  O  O105  1  0.73353000  0.04410000  0.52199000  1.0
  O  O106  1  0.28046000  0.93259000  0.82250000  1.0
  O  O107  1  0.21955000  0.06741000  0.32250000  1.0
  O  O108  1  0.71954000  0.06741000  0.17750000  1.0
  O  O109  1  0.78046000  0.93259000  0.67750000  1.0
  O  O110  1  0.02208000  0.11393000  0.15785000  1.0
  O  O111  1  0.47792000  0.88607000  0.65785000  1.0
  O  O112  1  0.97792000  0.88607000  0.84215000  1.0
  O  O113  1  0.52208000  0.11393000  0.34215000  1.0
