# generated using pymatgen
data_AgH12C20(NO)3
_symmetry_space_group_name_H-M   'P 1'
_cell_length_a   9.18405000
_cell_length_b   9.53399000
_cell_length_c   10.76880000
_cell_angle_alpha   110.88300000
_cell_angle_beta   96.25560000
_cell_angle_gamma   103.35300000
_symmetry_Int_Tables_number   1
_chemical_formula_structural   AgH12C20(NO)3
_chemical_formula_sum   'Ag2 H24 C40 N6 O6'
_cell_volume   837.97366937
_cell_formula_units_Z   2
loop_
 _symmetry_equiv_pos_site_id
 _symmetry_equiv_pos_as_xyz
  1  'x, y, z'
loop_
 _atom_site_type_symbol
 _atom_site_label
 _atom_site_symmetry_multiplicity
 _atom_site_fract_x
 _atom_site_fract_y
 _atom_site_fract_z
 _atom_site_occupancy
  Ag  Ag0  1  0.08865000  0.00690000  0.19987000  1.0
  Ag  Ag1  1  0.91135000  0.99309000  0.80012000  1.0
  H  H2  1  0.36176000  0.30760000  0.29498000  1.0
  H  H3  1  0.63824000  0.69240000  0.70502000  1.0
  H  H4  1  0.19656000  0.76770000  0.11589000  1.0
  H  H5  1  0.80344000  0.23231000  0.88411000  1.0
  H  H6  1  0.31138000  0.55561000  0.01765000  1.0
  H  H7  1  0.68862000  0.44439000  0.98235000  1.0
  H  H8  1  0.58535000  0.61897000  0.98999000  1.0
  H  H9  1  0.41465000  0.38103000  0.01001000  1.0
  H  H10  1  0.74196000  0.89523000  0.07066000  1.0
  H  H11  1  0.25804000  0.10477000  0.92934000  1.0
  H  H12  1  0.76441000  0.18027000  0.17745000  1.0
  H  H13  1  0.23559000  0.81974000  0.82255000  1.0
  H  H14  1  0.91010000  0.70724000  0.21541000  1.0
  H  H15  1  0.08989000  0.29275000  0.78458000  1.0
  H  H16  1  0.01730000  0.24538000  0.37989000  1.0
  H  H17  1  0.98271000  0.75462000  0.62011000  1.0
  H  H18  1  0.92626000  0.44489000  0.55067000  1.0
  H  H19  1  0.07375000  0.55512000  0.44933000  1.0
  H  H20  1  0.72381000  0.36393000  0.66378000  1.0
  H  H21  1  0.27620000  0.63608000  0.33622000  1.0
  H  H22  1  0.60611000  0.07965000  0.60994000  1.0
  H  H23  1  0.39389000  0.92035000  0.39006000  1.0
  H  H24  1  0.60027000  0.80094000  0.48845000  1.0
  H  H25  1  0.39972000  0.19906000  0.51154000  1.0
  C  C26  1  0.42027000  0.21888000  0.25496000  1.0
  C  C27  1  0.57973000  0.78111000  0.74504000  1.0
  C  C28  1  0.40402000  0.95373000  0.15443000  1.0
  C  C29  1  0.59598000  0.04627000  0.84558000  1.0
  C  C30  1  0.31657000  0.79523000  0.10807000  1.0
  C  C31  1  0.68343000  0.20477000  0.89194000  1.0
  C  C32  1  0.38191000  0.67680000  0.05224000  1.0
  C  C33  1  0.61809000  0.32320000  0.94776000  1.0
  C  C34  1  0.53598000  0.71285000  0.03843000  1.0
  C  C35  1  0.46402000  0.28715000  0.96157000  1.0
  C  C36  1  0.62369000  0.86657000  0.08236000  1.0
  C  C37  1  0.37631000  0.13343000  0.91765000  1.0
  C  C38  1  0.56104000  0.99114000  0.14334000  1.0
  C  C39  1  0.43896000  0.00886000  0.85667000  1.0
  C  C40  1  0.64653000  0.15031000  0.19012000  1.0
  C  C41  1  0.35347000  0.84969000  0.80988000  1.0
  C  C42  1  0.57723000  0.26626000  0.24786000  1.0
  C  C43  1  0.42276000  0.73374000  0.75214000  1.0
  C  C44  1  0.64943000  0.42843000  0.29022000  1.0
  C  C45  1  0.35056000  0.57156000  0.70979000  1.0
  C  C46  1  0.69697000  0.56958000  0.32099000  1.0
  C  C47  1  0.30303000  0.43041000  0.67900000  1.0
  C  C48  1  0.74939000  0.73197000  0.35143000  1.0
  C  C49  1  0.25060000  0.26802000  0.64857000  1.0
  C  C50  1  0.86477000  0.78932000  0.28847000  1.0
  C  C51  1  0.13523000  0.21068000  0.71153000  1.0
  C  C52  1  0.86538000  0.04891000  0.40157000  1.0
  C  C53  1  0.13462000  0.95110000  0.59843000  1.0
  C  C54  1  0.92806000  0.21020000  0.43142000  1.0
  C  C55  1  0.07195000  0.78980000  0.56857000  1.0
  C  C56  1  0.87654000  0.32009000  0.52456000  1.0
  C  C57  1  0.12347000  0.67991000  0.47544000  1.0
  C  C58  1  0.75923000  0.27361000  0.58897000  1.0
  C  C59  1  0.24077000  0.72640000  0.41103000  1.0
  C  C60  1  0.69506000  0.11685000  0.55973000  1.0
  C  C61  1  0.30494000  0.88315000  0.44027000  1.0
  C  C62  1  0.74719000  0.00083000  0.46691000  1.0
  C  C63  1  0.25281000  0.99918000  0.53309000  1.0
  C  C64  1  0.68991000  0.83991000  0.43946000  1.0
  C  C65  1  0.31009000  0.16009000  0.56052000  1.0
  N  N66  1  0.33686000  0.07054000  0.20883000  1.0
  N  N67  1  0.66314000  0.92945000  0.79117000  1.0
  N  N68  1  0.91889000  0.93945000  0.31108000  1.0
  N  N69  1  0.08111000  0.06056000  0.68893000  1.0
  N  N70  1  0.07235000  0.28980000  0.10315000  1.0
  N  N71  1  0.92765000  0.71020000  0.89685000  1.0
  O  O72  1  0.97778000  0.15156000  0.06540000  1.0
  O  O73  1  0.02222000  0.84844000  0.93460000  1.0
  O  O74  1  0.14254000  0.36122000  0.22590000  1.0
  O  O75  1  0.85746000  0.63878000  0.77410000  1.0
  O  O76  1  0.09303000  0.34945000  0.01697000  1.0
  O  O77  1  0.90697000  0.65054000  0.98303000  1.0
