# generated using pymatgen
data_ZnH3C5O4
_symmetry_space_group_name_H-M   'P 1'
_cell_length_a   4.99070000
_cell_length_b   8.58498000
_cell_length_c   24.86890000
_cell_angle_alpha   95.06780000
_cell_angle_beta   89.99980000
_cell_angle_gamma   89.99990000
_symmetry_Int_Tables_number   1
_chemical_formula_structural   ZnH3C5O4
_chemical_formula_sum   'Zn8 H24 C40 O32'
_cell_volume   1061.34428576
_cell_formula_units_Z   8
loop_
 _symmetry_equiv_pos_site_id
 _symmetry_equiv_pos_as_xyz
  1  'x, y, z'
loop_
 _atom_site_type_symbol
 _atom_site_label
 _atom_site_symmetry_multiplicity
 _atom_site_fract_x
 _atom_site_fract_y
 _atom_site_fract_z
 _atom_site_occupancy
  Zn  Zn0  1  0.64289000  0.67683000  0.40162000  1.0
  Zn  Zn1  1  0.14289000  0.32318000  0.09838000  1.0
  Zn  Zn2  1  0.35712000  0.32317000  0.59839000  1.0
  Zn  Zn3  1  0.85712000  0.67683000  0.90162000  1.0
  Zn  Zn4  1  0.71750000  0.40121000  0.27755000  1.0
  Zn  Zn5  1  0.21750000  0.59881000  0.22245000  1.0
  Zn  Zn6  1  0.28250000  0.59880000  0.72245000  1.0
  Zn  Zn7  1  0.78250000  0.40120000  0.77755000  1.0
  H  H8  1  0.25656000  0.38669000  0.48242000  1.0
  H  H9  1  0.75657000  0.61331000  0.01758000  1.0
  H  H10  1  0.74344000  0.61331000  0.51759000  1.0
  H  H11  1  0.24344000  0.38668000  0.98241000  1.0
  H  H12  1  0.65963000  0.02091000  0.46785000  1.0
  H  H13  1  0.15963000  0.97909000  0.03215000  1.0
  H  H14  1  0.34037000  0.97909000  0.53215000  1.0
  H  H15  1  0.84038000  0.02090000  0.96785000  1.0
  H  H16  1  0.15999000  0.10389000  0.33226000  1.0
  H  H17  1  0.65999000  0.89611000  0.16774000  1.0
  H  H18  1  0.84000000  0.89611000  0.66774000  1.0
  H  H19  1  0.34001000  0.10389000  0.83226000  1.0
  H  H20  1  0.65137000  0.03493000  0.30482000  1.0
  H  H21  1  0.15137000  0.96508000  0.19518000  1.0
  H  H22  1  0.34862000  0.96508000  0.69518000  1.0
  H  H23  1  0.84862000  0.03492000  0.80481000  1.0
  H  H24  1  0.91596000  0.89640000  0.29162000  1.0
  H  H25  1  0.41596000  0.10360000  0.20838000  1.0
  H  H26  1  0.08403000  0.10361000  0.70838000  1.0
  H  H27  1  0.58403000  0.89639000  0.79162000  1.0
  H  H28  1  0.10437000  0.57023000  0.31585000  1.0
  H  H29  1  0.60437000  0.42977000  0.18415000  1.0
  H  H30  1  0.89564000  0.42977000  0.68415000  1.0
  H  H31  1  0.39564000  0.57024000  0.81585000  1.0
  C  C32  1  0.23345000  0.25013000  0.40563000  1.0
  C  C33  1  0.73345000  0.74987000  0.09437000  1.0
  C  C34  1  0.76654000  0.74987000  0.59438000  1.0
  C  C35  1  0.26654000  0.25012000  0.90562000  1.0
  C  C36  1  0.15913000  0.28897000  0.45945000  1.0
  C  C37  1  0.65913000  0.71103000  0.04055000  1.0
  C  C38  1  0.84086000  0.71104000  0.54055000  1.0
  C  C39  1  0.34087000  0.28896000  0.95945000  1.0
  C  C40  1  0.95209000  0.20664000  0.48197000  1.0
  C  C41  1  0.45210000  0.79336000  0.01802000  1.0
  C  C42  1  0.04790000  0.79336000  0.51803000  1.0
  C  C43  1  0.54791000  0.20664000  0.98197000  1.0
  C  C44  1  0.82384000  0.08443000  0.45112000  1.0
  C  C45  1  0.32383000  0.91557000  0.04888000  1.0
  C  C46  1  0.17617000  0.91557000  0.54888000  1.0
  C  C47  1  0.67618000  0.08443000  0.95112000  1.0
  C  C48  1  0.90312000  0.04470000  0.39806000  1.0
  C  C49  1  0.40311000  0.95530000  0.10194000  1.0
  C  C50  1  0.09688000  0.95529000  0.60194000  1.0
  C  C51  1  0.59689000  0.04470000  0.89806000  1.0
  C  C52  1  0.10486000  0.12802000  0.37450000  1.0
  C  C53  1  0.60486000  0.87198000  0.12550000  1.0
  C  C54  1  0.89514000  0.87198000  0.62551000  1.0
  C  C55  1  0.39514000  0.12801000  0.87449000  1.0
  C  C56  1  0.44331000  0.34393000  0.38002000  1.0
  C  C57  1  0.94332000  0.65608000  0.11998000  1.0
  C  C58  1  0.55669000  0.65608000  0.61999000  1.0
  C  C59  1  0.05669000  0.34391000  0.88002000  1.0
  C  C60  1  0.84119000  0.25500000  0.53680000  1.0
  C  C61  1  0.34119000  0.74500000  0.96320000  1.0
  C  C62  1  0.15881000  0.74500000  0.46321000  1.0
  C  C63  1  0.65881000  0.25500000  0.03680000  1.0
  C  C64  1  0.72891000  0.92086000  0.31433000  1.0
  C  C65  1  0.22891000  0.07914000  0.18567000  1.0
  C  C66  1  0.27109000  0.07914000  0.68567000  1.0
  C  C67  1  0.77109000  0.92086000  0.81433000  1.0
  C  C68  1  0.53156000  0.79234000  0.29705000  1.0
  C  C69  1  0.03155000  0.20767000  0.20294000  1.0
  C  C70  1  0.46844000  0.20767000  0.70295000  1.0
  C  C71  1  0.96844000  0.79233000  0.79705000  1.0
  O  O72  1  0.48673000  0.30785000  0.32962000  1.0
  O  O73  1  0.98675000  0.69217000  0.17038000  1.0
  O  O74  1  0.51328000  0.69216000  0.67038000  1.0
  O  O75  1  0.01323000  0.30781000  0.82962000  1.0
  O  O76  1  0.98523000  0.56446000  0.28466000  1.0
  O  O77  1  0.48523000  0.43556000  0.21534000  1.0
  O  O78  1  0.01477000  0.43554000  0.71535000  1.0
  O  O79  1  0.51477000  0.56445000  0.78466000  1.0
  O  O80  1  0.56163000  0.45096000  0.40934000  1.0
  O  O81  1  0.06163000  0.54904000  0.09066000  1.0
  O  O82  1  0.43837000  0.54904000  0.59067000  1.0
  O  O83  1  0.93840000  0.45097000  0.90933000  1.0
  O  O84  1  0.59380000  0.22167000  0.54255000  1.0
  O  O85  1  0.09381000  0.77833000  0.95745000  1.0
  O  O86  1  0.40619000  0.77833000  0.45745000  1.0
  O  O87  1  0.90619000  0.22167000  0.04255000  1.0
  O  O88  1  0.97913000  0.32869000  0.57393000  1.0
  O  O89  1  0.47913000  0.67132000  0.92607000  1.0
  O  O90  1  0.02087000  0.67131000  0.42607000  1.0
  O  O91  1  0.52087000  0.32868000  0.07393000  1.0
  O  O92  1  0.43150000  0.79591000  0.25043000  1.0
  O  O93  1  0.93149000  0.20410000  0.24957000  1.0
  O  O94  1  0.56849000  0.20410000  0.74957000  1.0
  O  O95  1  0.06850000  0.79590000  0.75043000  1.0
  O  O96  1  0.47605000  0.68800000  0.32889000  1.0
  O  O97  1  0.97604000  0.31201000  0.17111000  1.0
  O  O98  1  0.52395000  0.31200000  0.67111000  1.0
  O  O99  1  0.02396000  0.68799000  0.82889000  1.0
  O  O100  1  0.76900000  0.92013000  0.37127000  1.0
  O  O101  1  0.26900000  0.07988000  0.12873000  1.0
  O  O102  1  0.23100000  0.07988000  0.62873000  1.0
  O  O103  1  0.73101000  0.92012000  0.87127000  1.0
