# generated using pymatgen
data_Zn3H20C30(O3F)4
_symmetry_space_group_name_H-M   'P 1'
_cell_length_a   19.47573595
_cell_length_b   19.47590000
_cell_length_c   19.47610000
_cell_angle_alpha   68.25900000
_cell_angle_beta   74.97814453
_cell_angle_gamma   111.74007467
_symmetry_Int_Tables_number   1
_chemical_formula_structural   Zn3H20C30(O3F)4
_chemical_formula_sum   'Zn6 H40 C60 O24 F8'
_cell_volume   5661.40860005
_cell_formula_units_Z   2
loop_
 _symmetry_equiv_pos_site_id
 _symmetry_equiv_pos_as_xyz
  1  'x, y, z'
loop_
 _atom_site_type_symbol
 _atom_site_label
 _atom_site_symmetry_multiplicity
 _atom_site_fract_x
 _atom_site_fract_y
 _atom_site_fract_z
 _atom_site_occupancy
  Zn  Zn0  1  1.00000000  0.44053000  0.55947000  1.0
  Zn  Zn1  1  0.55416000  0.00000000  0.44584000  1.0
  Zn  Zn2  1  0.44584000  0.00001000  0.55416000  1.0
  Zn  Zn3  1  0.55947000  0.55947000  0.00000000  1.0
  Zn  Zn4  1  0.00000000  0.55947000  0.44053000  1.0
  Zn  Zn5  1  0.44053000  0.44053000  0.00000000  1.0
  H  H6  1  0.02336000  0.58019000  0.67351000  1.0
  H  H7  1  0.35030000  0.58498000  0.95346000  1.0
  H  H8  1  0.74630000  0.41981000  0.55683000  1.0
  H  H9  1  0.63954000  0.34169000  0.59956000  1.0
  H  H10  1  0.67866000  0.37046000  0.66391000  1.0
  H  H11  1  0.65942000  0.22691000  0.69138000  1.0
  H  H12  1  0.76532000  0.30376000  0.64970000  1.0
  H  H13  1  0.32649000  0.30313000  0.25370000  1.0
  H  H14  1  0.29785000  0.23911000  0.36046000  1.0
  H  H15  1  0.30820000  0.34258000  0.32134000  1.0
  H  H16  1  0.43252000  0.35081000  0.34057000  1.0
  H  H17  1  0.05875000  0.65831000  0.70215000  1.0
  H  H18  1  0.46156000  0.41503000  0.23467000  1.0
  H  H19  1  0.25370000  0.69687000  0.32650000  1.0
  H  H20  1  0.36046000  0.76090000  0.29785000  1.0
  H  H21  1  0.32134000  0.65742000  0.30820000  1.0
  H  H22  1  0.34058000  0.64919000  0.43252000  1.0
  H  H23  1  0.23468000  0.58498000  0.46156000  1.0
  H  H24  1  0.67351000  0.41981000  0.02336000  1.0
  H  H25  1  0.70215000  0.34169000  0.05875000  1.0
  H  H26  1  0.69180000  0.37046000  0.96562000  1.0
  H  H27  1  0.56748000  0.22690000  0.08172000  1.0
  H  H28  1  0.96562000  0.62954000  0.69180000  1.0
  H  H29  1  0.53844000  0.30376000  0.04654000  1.0
  H  H30  1  0.97664000  0.30313000  0.44317000  1.0
  H  H31  1  0.94125000  0.23910000  0.40045000  1.0
  H  H32  1  0.03438000  0.34258000  0.33608000  1.0
  H  H33  1  0.91829000  0.35081000  0.30862000  1.0
  H  H34  1  0.95346000  0.41502000  0.35031000  1.0
  H  H35  1  0.55683000  0.58019000  0.74630000  1.0
  H  H36  1  0.59955000  0.65830000  0.63955000  1.0
  H  H37  1  0.66391000  0.62953000  0.67867000  1.0
  H  H38  1  0.69138000  0.77309000  0.65943000  1.0
  H  H39  1  0.08171000  0.77310000  0.56748000  1.0
  H  H40  1  0.64970000  0.69624000  0.76532000  1.0
  H  H41  1  0.04654000  0.69624000  0.53844000  1.0
  H  H42  1  0.44317000  0.69687000  0.97664000  1.0
  H  H43  1  0.40044000  0.76089000  0.94126000  1.0
  H  H44  1  0.33608000  0.65741000  0.03438000  1.0
  H  H45  1  0.30862000  0.64920000  0.91828000  1.0
  C  C46  1  0.11745000  0.61745000  0.50000000  1.0
  C  C47  1  0.60948000  0.50001000  0.89054000  1.0
  C  C48  1  0.66558000  0.35884000  0.02878000  1.0
  C  C49  1  0.92112000  0.34780000  0.36516000  1.0
  C  C50  1  0.97121000  0.30563000  0.38763000  1.0
  C  C51  1  0.63484000  0.71372000  0.71296000  1.0
  C  C52  1  0.61237000  0.64116000  0.69326000  1.0
  C  C53  1  0.07888000  0.71372000  0.57332000  1.0
  C  C54  1  0.02879000  0.64116000  0.66558000  1.0
  C  C55  1  0.36516000  0.65220000  0.92112000  1.0
  C  C56  1  0.38763000  0.69436000  0.97121000  1.0
  C  C57  1  0.71296000  0.28628000  0.63484000  1.0
  C  C58  1  0.89054000  0.50001000  0.60945000  1.0
  C  C59  1  0.69326000  0.35884000  0.61237000  1.0
  C  C60  1  0.42668000  0.34780000  0.28704000  1.0
  C  C61  1  0.33442000  0.30563000  0.30674000  1.0
  C  C62  1  0.28704000  0.65220000  0.42668000  1.0
  C  C63  1  0.30674000  0.69437000  0.33442000  1.0
  C  C64  1  0.57332000  0.28628000  0.07888000  1.0
  C  C65  1  0.39053000  0.49999000  0.10945000  1.0
  C  C66  1  0.10946000  0.49999000  0.39055000  1.0
  C  C67  1  0.17001000  0.50000000  0.33000000  1.0
  C  C68  1  0.67001000  0.50000000  0.83000000  1.0
  C  C69  1  0.83000000  0.50000000  0.66999000  1.0
  C  C70  1  0.50000000  0.61745000  0.88255000  1.0
  C  C71  1  0.32999000  0.49999000  0.17000000  1.0
  C  C72  1  0.22164000  0.50000000  0.27835000  1.0
  C  C73  1  0.72164000  0.50000000  0.77835000  1.0
  C  C74  1  0.77836000  0.50000000  0.72164000  1.0
  C  C75  1  0.27836000  0.50000000  0.22164000  1.0
  C  C76  1  0.88255000  0.38255000  0.50000000  1.0
  C  C77  1  0.16639000  0.73244000  0.53414000  1.0
  C  C78  1  0.43394000  0.70053000  0.83362000  1.0
  C  C79  1  0.73341000  0.26755000  0.56606000  1.0
  C  C80  1  0.46585000  0.29946000  0.26659000  1.0
  C  C81  1  0.26659000  0.70053000  0.46585000  1.0
  C  C82  1  0.53415000  0.26756000  0.16639000  1.0
  C  C83  1  0.83361000  0.29946000  0.43395000  1.0
  C  C84  1  0.50000000  0.38255000  0.11745000  1.0
  C  C85  1  0.56605000  0.73244000  0.73342000  1.0
  C  C86  1  0.23202000  0.79534000  0.53324000  1.0
  C  C87  1  0.43668000  0.76526000  0.76798000  1.0
  C  C88  1  0.67142000  0.20466000  0.56332000  1.0
  C  C89  1  0.46676000  0.23474000  0.32858000  1.0
  C  C90  1  0.32858000  0.76527000  0.46676000  1.0
  C  C91  1  0.53324000  0.20467000  0.23202000  1.0
  C  C92  1  0.76798000  0.23474000  0.43668000  1.0
  C  C93  1  0.56332000  0.79534000  0.67142000  1.0
  C  C94  1  0.31435000  0.81435000  0.50000000  1.0
  C  C95  1  0.50000000  0.81435000  0.68565000  1.0
  C  C96  1  0.68565000  0.18565000  0.50000000  1.0
  C  C97  1  0.50000000  0.18565000  0.31435000  1.0
  C  C98  1  0.50000000  0.88282000  0.61719000  1.0
  C  C99  1  0.61718000  0.11719000  0.50001000  1.0
  C  C100  1  0.49999000  0.11718000  0.38282000  1.0
  C  C101  1  0.38281000  0.88281000  0.50000000  1.0
  C  C102  1  0.18607000  0.68607000  0.50000000  1.0
  C  C103  1  0.50000000  0.68607000  0.81393000  1.0
  C  C104  1  0.81393000  0.31393000  0.50000000  1.0
  C  C105  1  0.50000000  0.31393000  0.18607000  1.0
  O  O106  1  0.08420000  0.53941000  0.55832000  1.0
  O  O107  1  0.54479000  0.64252000  0.91579000  1.0
  O  O108  1  0.90226000  0.46058000  0.45521000  1.0
  O  O109  1  0.44168000  0.35748000  0.09774000  1.0
  O  O110  1  0.09774000  0.64252000  0.44168000  1.0
  O  O111  1  0.55832000  0.46058000  0.08420000  1.0
  O  O112  1  0.91580000  0.35749000  0.54478000  1.0
  O  O113  1  0.45521000  0.53941000  0.90227000  1.0
  O  O114  1  0.09327000  0.45585000  0.46628000  1.0
  O  O115  1  0.63743000  0.55955000  0.90673000  1.0
  O  O116  1  0.07787000  0.54414000  0.36260000  1.0
  O  O117  1  0.53374000  0.44047000  0.92213000  1.0
  O  O118  1  0.92213000  0.55955000  0.53372000  1.0
  O  O119  1  0.46626000  0.54413000  0.09326000  1.0
  O  O120  1  0.90674000  0.44047000  0.63740000  1.0
  O  O121  1  0.36258000  0.45585000  0.07786000  1.0
  O  O122  1  0.47032000  0.92528000  0.63636000  1.0
  O  O123  1  0.54505000  0.10669000  0.52968000  1.0
  O  O124  1  0.43836000  0.07473000  0.45495000  1.0
  O  O125  1  0.36363000  0.89331000  0.56164000  1.0
  O  O126  1  0.56164000  0.10669000  0.36363000  1.0
  O  O127  1  0.63637000  0.07473000  0.47031000  1.0
  O  O128  1  0.52969000  0.89332000  0.54504000  1.0
  O  O129  1  0.45496000  0.92527000  0.43836000  1.0
  F  F130  1  0.21451000  0.84186000  0.56471000  1.0
  F  F131  1  0.37265000  0.77923000  0.78548000  1.0
  F  F132  1  0.59343000  0.15813000  0.62735000  1.0
  F  F133  1  0.43530000  0.22079000  0.40657000  1.0
  F  F134  1  0.40658000  0.77923000  0.43528000  1.0
  F  F135  1  0.56470000  0.15813000  0.21452000  1.0
  F  F136  1  0.78549000  0.22078000  0.37265000  1.0
  F  F137  1  0.62735000  0.84187000  0.59343000  1.0
