# generated using pymatgen
data_ZnH13C23N2(O2F3)2
_symmetry_space_group_name_H-M   'P 1'
_cell_length_a   15.65310000
_cell_length_b   16.13490000
_cell_length_c   22.61600000
_cell_angle_alpha   90.00000000
_cell_angle_beta   90.00000000
_cell_angle_gamma   89.99990000
_symmetry_Int_Tables_number   1
_chemical_formula_structural   ZnH13C23N2(O2F3)2
_chemical_formula_sum   'Zn8 H104 C184 N16 O32 F48'
_cell_volume   5711.92417134
_cell_formula_units_Z   8
loop_
 _symmetry_equiv_pos_site_id
 _symmetry_equiv_pos_as_xyz
  1  'x, y, z'
loop_
 _atom_site_type_symbol
 _atom_site_label
 _atom_site_symmetry_multiplicity
 _atom_site_fract_x
 _atom_site_fract_y
 _atom_site_fract_z
 _atom_site_occupancy
  Zn  Zn0  1  0.31158000  0.55989000  0.74098000  1.0
  Zn  Zn1  1  0.16562000  0.44554000  0.74802000  1.0
  Zn  Zn2  1  0.81158000  0.44011000  0.25902000  1.0
  Zn  Zn3  1  0.66562000  0.55446000  0.25198000  1.0
  Zn  Zn4  1  0.31158000  0.44011000  0.24098000  1.0
  Zn  Zn5  1  0.16563000  0.55446000  0.24802000  1.0
  Zn  Zn6  1  0.81158000  0.55989000  0.75902000  1.0
  Zn  Zn7  1  0.66562000  0.44554000  0.75198000  1.0
  H  H8  1  0.23170000  0.71867000  0.88055000  1.0
  H  H9  1  0.16635000  0.81060000  0.95517000  1.0
  H  H10  1  0.94699000  0.64847000  0.96245000  1.0
  H  H11  1  0.01351000  0.55810000  0.88697000  1.0
  H  H12  1  0.06946000  0.65884000  0.06702000  1.0
  H  H13  1  0.00148000  0.56680000  0.14056000  1.0
  H  H14  1  0.76932000  0.70788000  0.12758000  1.0
  H  H15  1  0.83657000  0.80188000  0.05528000  1.0
  H  H16  1  0.23358000  0.28536000  0.61062000  1.0
  H  H17  1  0.29567000  0.18492000  0.54011000  1.0
  H  H18  1  0.52791000  0.32941000  0.53655000  1.0
  H  H19  1  0.46621000  0.42567000  0.61012000  1.0
  H  H20  1  0.40053000  0.32457000  0.42871000  1.0
  H  H21  1  0.47455000  0.41788000  0.35906000  1.0
  H  H22  1  0.70529000  0.27625000  0.38046000  1.0
  H  H23  1  0.63038000  0.17815000  0.44608000  1.0
  H  H24  1  0.26661000  0.72952000  0.72648000  1.0
  H  H25  1  0.33497000  0.87065000  0.72022000  1.0
  H  H26  1  0.57976000  0.74749000  0.72913000  1.0
  H  H27  1  0.50165000  0.61275000  0.73736000  1.0
  H  H28  1  0.57649000  0.90193000  0.72401000  1.0
  H  H29  1  0.40024000  0.10540000  0.72036000  1.0
  H  H30  1  0.39882000  0.26079000  0.72097000  1.0
  H  H31  1  0.47724000  0.39473000  0.73181000  1.0
  H  H32  1  0.70893000  0.27405000  0.75280000  1.0
  H  H33  1  0.63983000  0.13372000  0.74226000  1.0
  H  H34  1  0.73171000  0.28133000  0.11945000  1.0
  H  H35  1  0.66635000  0.18940000  0.04484000  1.0
  H  H36  1  0.44699000  0.35153000  0.03756000  1.0
  H  H37  1  0.51351000  0.44190000  0.11304000  1.0
  H  H38  1  0.56947000  0.34116000  0.93298000  1.0
  H  H39  1  0.50149000  0.43320000  0.85943000  1.0
  H  H40  1  0.26932000  0.29212000  0.87242000  1.0
  H  H41  1  0.33657000  0.19812000  0.94472000  1.0
  H  H42  1  0.73358000  0.71463000  0.38939000  1.0
  H  H43  1  0.79567000  0.81507000  0.45990000  1.0
  H  H44  1  0.02791000  0.67059000  0.46345000  1.0
  H  H45  1  0.96621000  0.57433000  0.38988000  1.0
  H  H46  1  0.90053000  0.67543000  0.57130000  1.0
  H  H47  1  0.97455000  0.58212000  0.64094000  1.0
  H  H48  1  0.20529000  0.72374000  0.61953000  1.0
  H  H49  1  0.13038000  0.82185000  0.55392000  1.0
  H  H50  1  0.76661000  0.27049000  0.27352000  1.0
  H  H51  1  0.83497000  0.12936000  0.27978000  1.0
  H  H52  1  0.07976000  0.25251000  0.27087000  1.0
  H  H53  1  0.00165000  0.38725000  0.26264000  1.0
  H  H54  1  0.07649000  0.09807000  0.27599000  1.0
  H  H55  1  0.90025000  0.89460000  0.27964000  1.0
  H  H56  1  0.89883000  0.73921000  0.27903000  1.0
  H  H57  1  0.97724000  0.60527000  0.26819000  1.0
  H  H58  1  0.20893000  0.72596000  0.24720000  1.0
  H  H59  1  0.13982000  0.86628000  0.25774000  1.0
  H  H60  1  0.23170000  0.28133000  0.38055000  1.0
  H  H61  1  0.16635000  0.18940000  0.45516000  1.0
  H  H62  1  0.94699000  0.35154000  0.46244000  1.0
  H  H63  1  0.01351000  0.44190000  0.38697000  1.0
  H  H64  1  0.06946000  0.34116000  0.56702000  1.0
  H  H65  1  0.00148000  0.43320000  0.64057000  1.0
  H  H66  1  0.76932000  0.29212000  0.62758000  1.0
  H  H67  1  0.83657000  0.19812000  0.55528000  1.0
  H  H68  1  0.23358000  0.71463000  0.11061000  1.0
  H  H69  1  0.29567000  0.81507000  0.04010000  1.0
  H  H70  1  0.52791000  0.67059000  0.03655000  1.0
  H  H71  1  0.46621000  0.57433000  0.11012000  1.0
  H  H72  1  0.40052000  0.67544000  0.92870000  1.0
  H  H73  1  0.47454000  0.58212000  0.85906000  1.0
  H  H74  1  0.70528000  0.72375000  0.88046000  1.0
  H  H75  1  0.63038000  0.82185000  0.94608000  1.0
  H  H76  1  0.26661000  0.27048000  0.22648000  1.0
  H  H77  1  0.33498000  0.12935000  0.22022000  1.0
  H  H78  1  0.57976000  0.25251000  0.22913000  1.0
  H  H79  1  0.50165000  0.38726000  0.23736000  1.0
  H  H80  1  0.57649000  0.09807000  0.22401000  1.0
  H  H81  1  0.40025000  0.89460000  0.22036000  1.0
  H  H82  1  0.39883000  0.73921000  0.22097000  1.0
  H  H83  1  0.47724000  0.60527000  0.23181000  1.0
  H  H84  1  0.70893000  0.72595000  0.25280000  1.0
  H  H85  1  0.63983000  0.86628000  0.24226000  1.0
  H  H86  1  0.73170000  0.71867000  0.61945000  1.0
  H  H87  1  0.66635000  0.81059000  0.54484000  1.0
  H  H88  1  0.44699000  0.64847000  0.53756000  1.0
  H  H89  1  0.51351000  0.55810000  0.61304000  1.0
  H  H90  1  0.56947000  0.65884000  0.43298000  1.0
  H  H91  1  0.50149000  0.56679000  0.35943000  1.0
  H  H92  1  0.26932000  0.70788000  0.37242000  1.0
  H  H93  1  0.33657000  0.80188000  0.44472000  1.0
  H  H94  1  0.73358000  0.28536000  0.88938000  1.0
  H  H95  1  0.79567000  0.18492000  0.95990000  1.0
  H  H96  1  0.02790000  0.32941000  0.96345000  1.0
  H  H97  1  0.96620000  0.42567000  0.88988000  1.0
  H  H98  1  0.90052000  0.32456000  0.07130000  1.0
  H  H99  1  0.97455000  0.41788000  0.14094000  1.0
  H  H100  1  0.20529000  0.27626000  0.11953000  1.0
  H  H101  1  0.13038000  0.17815000  0.05392000  1.0
  H  H102  1  0.76661000  0.72951000  0.77352000  1.0
  H  H103  1  0.83497000  0.87064000  0.77978000  1.0
  H  H104  1  0.07976000  0.74750000  0.77086000  1.0
  H  H105  1  0.00165000  0.61275000  0.76264000  1.0
  H  H106  1  0.07649000  0.90193000  0.77599000  1.0
  H  H107  1  0.90024000  0.10540000  0.77964000  1.0
  H  H108  1  0.89882000  0.26079000  0.77903000  1.0
  H  H109  1  0.97724000  0.39473000  0.76819000  1.0
  H  H110  1  0.20892000  0.27404000  0.74720000  1.0
  H  H111  1  0.13982000  0.13372000  0.75774000  1.0
  C  C112  1  0.16607000  0.57964000  0.83230000  1.0
  C  C113  1  0.12723000  0.63252000  0.87955000  1.0
  C  C114  1  0.16943000  0.70376000  0.89917000  1.0
  C  C115  1  0.13219000  0.75523000  0.94138000  1.0
  C  C116  1  0.05188000  0.73578000  0.96480000  1.0
  C  C117  1  0.00965000  0.66426000  0.94488000  1.0
  C  C118  1  0.04688000  0.61303000  0.90282000  1.0
  C  C119  1  0.00435000  0.79108000  0.00942000  1.0
  C  C120  1  0.94214000  0.84557000  0.97184000  1.0
  C  C121  1  0.06481000  0.84952000  0.04508000  1.0
  C  C122  1  0.95805000  0.73689000  0.05533000  1.0
  C  C123  1  0.00370000  0.67054000  0.08032000  1.0
  C  C124  1  0.96558000  0.61813000  0.12136000  1.0
  C  C125  1  0.88061000  0.63144000  0.13823000  1.0
  C  C126  1  0.83541000  0.69815000  0.11417000  1.0
  C  C127  1  0.87366000  0.75075000  0.07318000  1.0
  C  C128  1  0.83757000  0.57614000  0.18211000  1.0
  C  C129  1  0.30687000  0.41949000  0.65893000  1.0
  C  C130  1  0.34533000  0.36195000  0.61429000  1.0
  C  C131  1  0.29829000  0.29391000  0.59420000  1.0
  C  C132  1  0.33347000  0.23795000  0.55410000  1.0
  C  C133  1  0.41617000  0.25055000  0.53248000  1.0
  C  C134  1  0.46344000  0.31881000  0.55294000  1.0
  C  C135  1  0.42879000  0.37359000  0.59374000  1.0
  C  C136  1  0.46031000  0.19224000  0.48816000  1.0
  C  C137  1  0.51890000  0.13420000  0.52570000  1.0
  C  C138  1  0.39688000  0.13717000  0.45212000  1.0
  C  C139  1  0.50996000  0.24480000  0.44293000  1.0
  C  C140  1  0.46691000  0.31229000  0.41732000  1.0
  C  C141  1  0.50862000  0.36572000  0.37873000  1.0
  C  C142  1  0.59523000  0.35332000  0.36598000  1.0
  C  C143  1  0.63781000  0.28520000  0.39039000  1.0
  C  C144  1  0.59541000  0.23052000  0.42794000  1.0
  C  C145  1  0.64280000  0.41200000  0.32674000  1.0
  C  C146  1  0.33566000  0.73741000  0.72729000  1.0
  C  C147  1  0.37345000  0.81465000  0.72356000  1.0
  C  C148  1  0.46307000  0.82039000  0.72468000  1.0
  C  C149  1  0.51014000  0.74664000  0.72873000  1.0
  C  C150  1  0.46725000  0.67121000  0.73276000  1.0
  C  C151  1  0.50623000  0.90044000  0.72370000  1.0
  C  C152  1  0.47015000  0.10637000  0.72531000  1.0
  C  C153  1  0.51356000  0.18600000  0.73086000  1.0
  C  C154  1  0.46766000  0.26055000  0.72812000  1.0
  C  C155  1  0.51082000  0.33556000  0.73427000  1.0
  C  C156  1  0.64041000  0.26726000  0.74602000  1.0
  C  C157  1  0.60233000  0.19044000  0.73998000  1.0
  C  C158  1  0.66607000  0.42037000  0.16770000  1.0
  C  C159  1  0.62723000  0.36749000  0.12045000  1.0
  C  C160  1  0.66943000  0.29624000  0.10083000  1.0
  C  C161  1  0.63219000  0.24478000  0.05863000  1.0
  C  C162  1  0.55188000  0.26422000  0.03520000  1.0
  C  C163  1  0.50965000  0.33574000  0.05512000  1.0
  C  C164  1  0.54688000  0.38697000  0.09719000  1.0
  C  C165  1  0.50435000  0.20893000  0.99058000  1.0
  C  C166  1  0.44214000  0.15443000  0.02816000  1.0
  C  C167  1  0.56481000  0.15048000  0.95492000  1.0
  C  C168  1  0.45805000  0.26312000  0.94467000  1.0
  C  C169  1  0.50370000  0.32946000  0.91968000  1.0
  C  C170  1  0.46558000  0.38187000  0.87863000  1.0
  C  C171  1  0.38061000  0.36856000  0.86177000  1.0
  C  C172  1  0.33541000  0.30185000  0.88583000  1.0
  C  C173  1  0.37366000  0.24925000  0.92682000  1.0
  C  C174  1  0.33757000  0.42386000  0.81789000  1.0
  C  C175  1  0.80686000  0.58051000  0.34108000  1.0
  C  C176  1  0.84532000  0.63805000  0.38571000  1.0
  C  C177  1  0.79829000  0.70609000  0.40580000  1.0
  C  C178  1  0.83346000  0.76204000  0.44591000  1.0
  C  C179  1  0.91617000  0.74945000  0.46752000  1.0
  C  C180  1  0.96343000  0.68119000  0.44706000  1.0
  C  C181  1  0.92879000  0.62641000  0.40626000  1.0
  C  C182  1  0.96031000  0.80776000  0.51184000  1.0
  C  C183  1  0.01890000  0.86580000  0.47430000  1.0
  C  C184  1  0.89688000  0.86283000  0.54788000  1.0
  C  C185  1  0.00996000  0.75520000  0.55706000  1.0
  C  C186  1  0.96692000  0.68771000  0.58268000  1.0
  C  C187  1  0.00862000  0.63428000  0.62127000  1.0
  C  C188  1  0.09524000  0.64668000  0.63401000  1.0
  C  C189  1  0.13781000  0.71480000  0.60961000  1.0
  C  C190  1  0.09542000  0.76948000  0.57206000  1.0
  C  C191  1  0.14281000  0.58799000  0.67326000  1.0
  C  C192  1  0.83566000  0.26259000  0.27271000  1.0
  C  C193  1  0.87344000  0.18535000  0.27645000  1.0
  C  C194  1  0.96307000  0.17961000  0.27532000  1.0
  C  C195  1  0.01014000  0.25336000  0.27127000  1.0
  C  C196  1  0.96725000  0.32879000  0.26724000  1.0
  C  C197  1  0.00623000  0.09956000  0.27630000  1.0
  C  C198  1  0.97015000  0.89363000  0.27469000  1.0
  C  C199  1  0.01356000  0.81400000  0.26915000  1.0
  C  C200  1  0.96766000  0.73945000  0.27188000  1.0
  C  C201  1  0.01083000  0.66444000  0.26573000  1.0
  C  C202  1  0.14041000  0.73274000  0.25399000  1.0
  C  C203  1  0.10233000  0.80956000  0.26003000  1.0
  C  C204  1  0.16608000  0.42035000  0.33230000  1.0
  C  C205  1  0.12724000  0.36748000  0.37954000  1.0
  C  C206  1  0.16943000  0.29624000  0.39917000  1.0
  C  C207  1  0.13219000  0.24477000  0.44137000  1.0
  C  C208  1  0.05188000  0.26422000  0.46480000  1.0
  C  C209  1  0.00965000  0.33574000  0.44488000  1.0
  C  C210  1  0.04688000  0.38697000  0.40281000  1.0
  C  C211  1  0.00434000  0.20893000  0.50942000  1.0
  C  C212  1  0.94213000  0.15443000  0.47184000  1.0
  C  C213  1  0.06481000  0.15048000  0.54508000  1.0
  C  C214  1  0.95805000  0.26311000  0.55532000  1.0
  C  C215  1  0.00370000  0.32946000  0.58032000  1.0
  C  C216  1  0.96558000  0.38187000  0.62136000  1.0
  C  C217  1  0.88061000  0.36856000  0.63823000  1.0
  C  C218  1  0.83541000  0.30186000  0.61417000  1.0
  C  C219  1  0.87366000  0.24925000  0.57318000  1.0
  C  C220  1  0.83757000  0.42386000  0.68211000  1.0
  C  C221  1  0.30688000  0.58051000  0.15893000  1.0
  C  C222  1  0.34533000  0.63805000  0.11429000  1.0
  C  C223  1  0.29828000  0.70609000  0.09420000  1.0
  C  C224  1  0.33346000  0.76204000  0.05410000  1.0
  C  C225  1  0.41617000  0.74945000  0.03248000  1.0
  C  C226  1  0.46344000  0.68119000  0.05294000  1.0
  C  C227  1  0.42879000  0.62641000  0.09374000  1.0
  C  C228  1  0.46031000  0.80776000  0.98816000  1.0
  C  C229  1  0.51890000  0.86580000  0.02570000  1.0
  C  C230  1  0.39688000  0.86283000  0.95212000  1.0
  C  C231  1  0.50995000  0.75520000  0.94294000  1.0
  C  C232  1  0.46691000  0.68771000  0.91732000  1.0
  C  C233  1  0.50861000  0.63428000  0.87873000  1.0
  C  C234  1  0.59523000  0.64669000  0.86599000  1.0
  C  C235  1  0.63780000  0.71481000  0.89039000  1.0
  C  C236  1  0.59541000  0.76948000  0.92794000  1.0
  C  C237  1  0.64280000  0.58800000  0.82674000  1.0
  C  C238  1  0.33566000  0.26259000  0.22729000  1.0
  C  C239  1  0.37345000  0.18535000  0.22355000  1.0
  C  C240  1  0.46307000  0.17961000  0.22468000  1.0
  C  C241  1  0.51015000  0.25335000  0.22872000  1.0
  C  C242  1  0.46725000  0.32879000  0.23276000  1.0
  C  C243  1  0.50623000  0.09956000  0.22370000  1.0
  C  C244  1  0.47016000  0.89363000  0.22531000  1.0
  C  C245  1  0.51356000  0.81400000  0.23086000  1.0
  C  C246  1  0.46766000  0.73945000  0.22812000  1.0
  C  C247  1  0.51082000  0.66444000  0.23427000  1.0
  C  C248  1  0.64041000  0.73274000  0.24602000  1.0
  C  C249  1  0.60233000  0.80956000  0.23998000  1.0
  C  C250  1  0.66607000  0.57964000  0.66770000  1.0
  C  C251  1  0.62723000  0.63252000  0.62046000  1.0
  C  C252  1  0.66943000  0.70376000  0.60083000  1.0
  C  C253  1  0.63219000  0.75523000  0.55863000  1.0
  C  C254  1  0.55188000  0.73578000  0.53520000  1.0
  C  C255  1  0.50965000  0.66426000  0.55512000  1.0
  C  C256  1  0.54688000  0.61303000  0.59719000  1.0
  C  C257  1  0.50434000  0.79107000  0.49058000  1.0
  C  C258  1  0.44214000  0.84556000  0.52816000  1.0
  C  C259  1  0.56481000  0.84952000  0.45492000  1.0
  C  C260  1  0.45805000  0.73688000  0.44467000  1.0
  C  C261  1  0.50371000  0.67054000  0.41968000  1.0
  C  C262  1  0.46559000  0.61813000  0.37864000  1.0
  C  C263  1  0.38061000  0.63144000  0.36177000  1.0
  C  C264  1  0.33541000  0.69814000  0.38583000  1.0
  C  C265  1  0.37366000  0.75075000  0.42682000  1.0
  C  C266  1  0.33757000  0.57613000  0.31789000  1.0
  C  C267  1  0.80687000  0.41949000  0.84108000  1.0
  C  C268  1  0.84532000  0.36195000  0.88571000  1.0
  C  C269  1  0.79829000  0.29391000  0.90580000  1.0
  C  C270  1  0.83347000  0.23795000  0.94590000  1.0
  C  C271  1  0.91617000  0.25055000  0.96752000  1.0
  C  C272  1  0.96343000  0.31881000  0.94706000  1.0
  C  C273  1  0.92879000  0.37360000  0.90626000  1.0
  C  C274  1  0.96031000  0.19224000  0.01184000  1.0
  C  C275  1  0.01890000  0.13420000  0.97430000  1.0
  C  C276  1  0.89688000  0.13716000  0.04788000  1.0
  C  C277  1  0.00995000  0.24480000  0.05706000  1.0
  C  C278  1  0.96691000  0.31229000  0.08269000  1.0
  C  C279  1  0.00861000  0.36572000  0.12127000  1.0
  C  C280  1  0.09523000  0.35332000  0.13401000  1.0
  C  C281  1  0.13781000  0.28520000  0.10961000  1.0
  C  C282  1  0.09541000  0.23052000  0.07206000  1.0
  C  C283  1  0.14280000  0.41200000  0.17326000  1.0
  C  C284  1  0.83566000  0.73741000  0.77271000  1.0
  C  C285  1  0.87345000  0.81465000  0.77644000  1.0
  C  C286  1  0.96307000  0.82039000  0.77532000  1.0
  C  C287  1  0.01014000  0.74665000  0.77127000  1.0
  C  C288  1  0.96725000  0.67121000  0.76724000  1.0
  C  C289  1  0.00623000  0.90044000  0.77630000  1.0
  C  C290  1  0.97015000  0.10637000  0.77469000  1.0
  C  C291  1  0.01356000  0.18600000  0.76915000  1.0
  C  C292  1  0.96766000  0.26055000  0.77188000  1.0
  C  C293  1  0.01083000  0.33557000  0.76573000  1.0
  C  C294  1  0.14041000  0.26726000  0.75398000  1.0
  C  C295  1  0.10233000  0.19044000  0.76003000  1.0
  N  N296  1  0.38151000  0.66674000  0.73218000  1.0
  N  N297  1  0.46235000  0.96845000  0.72423000  1.0
  N  N298  1  0.51358000  0.03814000  0.72706000  1.0
  N  N299  1  0.59565000  0.33880000  0.74323000  1.0
  N  N300  1  0.88151000  0.33326000  0.26782000  1.0
  N  N301  1  0.96235000  0.03155000  0.27577000  1.0
  N  N302  1  0.01358000  0.96186000  0.27294000  1.0
  N  N303  1  0.09565000  0.66120000  0.25677000  1.0
  N  N304  1  0.38151000  0.33326000  0.23218000  1.0
  N  N305  1  0.46235000  0.03155000  0.22423000  1.0
  N  N306  1  0.51359000  0.96186000  0.22706000  1.0
  N  N307  1  0.59565000  0.66120000  0.24323000  1.0
  N  N308  1  0.88151000  0.66674000  0.76782000  1.0
  N  N309  1  0.96235000  0.96845000  0.77577000  1.0
  N  N310  1  0.01358000  0.03814000  0.77294000  1.0
  N  N311  1  0.09565000  0.33880000  0.75677000  1.0
  O  O312  1  0.23151000  0.60868000  0.80610000  1.0
  O  O313  1  0.12929000  0.51086000  0.82119000  1.0
  O  O314  1  0.76829000  0.60315000  0.20436000  1.0
  O  O315  1  0.87323000  0.50723000  0.19461000  1.0
  O  O316  1  0.22955000  0.40588000  0.67319000  1.0
  O  O317  1  0.35522000  0.47610000  0.67981000  1.0
  O  O318  1  0.60024000  0.47049000  0.30259000  1.0
  O  O319  1  0.72211000  0.39832000  0.32007000  1.0
  O  O320  1  0.73151000  0.39133000  0.19390000  1.0
  O  O321  1  0.62928000  0.48915000  0.17881000  1.0
  O  O322  1  0.26829000  0.39686000  0.79564000  1.0
  O  O323  1  0.37324000  0.49278000  0.80539000  1.0
  O  O324  1  0.72954000  0.59413000  0.32681000  1.0
  O  O325  1  0.85520000  0.52391000  0.32019000  1.0
  O  O326  1  0.10025000  0.52951000  0.69741000  1.0
  O  O327  1  0.22213000  0.60169000  0.67993000  1.0
  O  O328  1  0.23152000  0.39131000  0.30610000  1.0
  O  O329  1  0.12930000  0.48913000  0.32119000  1.0
  O  O330  1  0.76829000  0.39686000  0.70436000  1.0
  O  O331  1  0.87324000  0.49277000  0.69461000  1.0
  O  O332  1  0.22956000  0.59412000  0.17319000  1.0
  O  O333  1  0.35522000  0.52390000  0.17981000  1.0
  O  O334  1  0.60024000  0.52952000  0.80259000  1.0
  O  O335  1  0.72212000  0.60169000  0.82007000  1.0
  O  O336  1  0.73151000  0.60867000  0.69390000  1.0
  O  O337  1  0.62929000  0.51086000  0.67881000  1.0
  O  O338  1  0.26830000  0.60313000  0.29564000  1.0
  O  O339  1  0.37325000  0.50722000  0.30539000  1.0
  O  O340  1  0.72954000  0.40588000  0.82681000  1.0
  O  O341  1  0.85521000  0.47609000  0.82019000  1.0
  O  O342  1  0.10025000  0.47048000  0.19741000  1.0
  O  O343  1  0.22213000  0.39831000  0.17993000  1.0
  F  F344  1  0.98343000  0.88339000  0.92628000  1.0
  F  F345  1  0.87917000  0.79818000  0.94726000  1.0
  F  F346  1  0.90310000  0.90652000  0.00349000  1.0
  F  F347  1  0.02278000  0.88854000  0.08968000  1.0
  F  F348  1  0.10232000  0.90953000  0.01167000  1.0
  F  F349  1  0.12945000  0.80534000  0.07066000  1.0
  F  F350  1  0.58357000  0.17781000  0.55170000  1.0
  F  F351  1  0.47472000  0.09722000  0.57029000  1.0
  F  F352  1  0.55560000  0.07260000  0.49344000  1.0
  F  F353  1  0.35669000  0.07831000  0.48514000  1.0
  F  F354  1  0.43709000  0.09707000  0.40721000  1.0
  F  F355  1  0.33424000  0.18444000  0.42690000  1.0
  F  F356  1  0.48343000  0.11661000  0.07372000  1.0
  F  F357  1  0.37918000  0.20182000  0.05274000  1.0
  F  F358  1  0.40310000  0.09348000  0.99650000  1.0
  F  F359  1  0.52278000  0.11147000  0.91032000  1.0
  F  F360  1  0.60232000  0.09047000  0.98833000  1.0
  F  F361  1  0.62946000  0.19466000  0.92934000  1.0
  F  F362  1  0.08357000  0.82219000  0.44830000  1.0
  F  F363  1  0.97472000  0.90277000  0.42971000  1.0
  F  F364  1  0.05560000  0.92740000  0.50656000  1.0
  F  F365  1  0.85669000  0.92169000  0.51486000  1.0
  F  F366  1  0.93709000  0.90293000  0.59279000  1.0
  F  F367  1  0.83424000  0.81556000  0.57310000  1.0
  F  F368  1  0.98343000  0.11661000  0.42629000  1.0
  F  F369  1  0.87917000  0.20182000  0.44726000  1.0
  F  F370  1  0.90310000  0.09348000  0.50349000  1.0
  F  F371  1  0.02278000  0.11147000  0.58968000  1.0
  F  F372  1  0.10231000  0.09047000  0.51167000  1.0
  F  F373  1  0.12946000  0.19466000  0.57065000  1.0
  F  F374  1  0.58357000  0.82218000  0.05170000  1.0
  F  F375  1  0.47472000  0.90277000  0.07029000  1.0
  F  F376  1  0.55560000  0.92740000  0.99344000  1.0
  F  F377  1  0.35668000  0.92169000  0.98514000  1.0
  F  F378  1  0.43709000  0.90293000  0.90721000  1.0
  F  F379  1  0.33423000  0.81556000  0.92690000  1.0
  F  F380  1  0.48343000  0.88339000  0.57372000  1.0
  F  F381  1  0.37917000  0.79818000  0.55274000  1.0
  F  F382  1  0.40310000  0.90652000  0.49651000  1.0
  F  F383  1  0.52278000  0.88853000  0.41032000  1.0
  F  F384  1  0.60231000  0.90953000  0.48833000  1.0
  F  F385  1  0.62946000  0.80534000  0.42935000  1.0
  F  F386  1  0.08357000  0.17781000  0.94830000  1.0
  F  F387  1  0.97472000  0.09722000  0.92971000  1.0
  F  F388  1  0.05561000  0.07260000  0.00656000  1.0
  F  F389  1  0.85669000  0.07831000  0.01486000  1.0
  F  F390  1  0.93709000  0.09706000  0.09278000  1.0
  F  F391  1  0.83424000  0.18443000  0.07311000  1.0
