# generated using pymatgen
data_Zn3H30C38O25
_symmetry_space_group_name_H-M   'P 1'
_cell_length_a   18.37170000
_cell_length_b   18.49250000
_cell_length_c   18.69177668
_cell_angle_alpha   109.55610379
_cell_angle_beta   108.93443589
_cell_angle_gamma   108.49200000
_symmetry_Int_Tables_number   1
_chemical_formula_structural   Zn3H30C38O25
_chemical_formula_sum   'Zn6 H60 C76 O50'
_cell_volume   4972.61718665
_cell_formula_units_Z   2
loop_
 _symmetry_equiv_pos_site_id
 _symmetry_equiv_pos_as_xyz
  1  'x, y, z'
loop_
 _atom_site_type_symbol
 _atom_site_label
 _atom_site_symmetry_multiplicity
 _atom_site_fract_x
 _atom_site_fract_y
 _atom_site_fract_z
 _atom_site_occupancy
  Zn  Zn0  1  0.93831000  0.00451000  0.44343000  1.0
  Zn  Zn1  1  0.06488000  0.00232000  0.56726000  1.0
  Zn  Zn2  1  0.05764000  0.56553000  0.99638000  1.0
  Zn  Zn3  1  0.93828000  0.44229000  0.00450000  1.0
  Zn  Zn4  1  0.49122000  0.56088000  0.55856000  1.0
  Zn  Zn5  1  0.50459000  0.44337000  0.43780000  1.0
  H  H6  1  0.15661000  0.76420000  0.22112000  1.0
  H  H7  1  0.73953000  0.75170000  0.28450000  1.0
  H  H8  1  0.72531000  0.82308000  0.36555000  1.0
  H  H9  1  0.65380000  0.70690000  0.30806000  1.0
  H  H10  1  0.18784000  0.23729000  0.68000000  1.0
  H  H11  1  0.21767000  0.35094000  0.73456000  1.0
  H  H12  1  0.11058000  0.27363000  0.64412000  1.0
  H  H13  1  0.21902000  0.47855000  0.97613000  1.0
  H  H14  1  0.17464000  0.44429000  0.86290000  1.0
  H  H15  1  0.24249000  0.40293000  0.90933000  1.0
  H  H16  1  0.75287000  0.15019000  0.70647000  1.0
  H  H17  1  0.81425000  0.04860000  0.53984000  1.0
  H  H18  1  0.30480000  0.01489000  0.49634000  1.0
  H  H19  1  0.26401000  0.03948000  0.41177000  1.0
  H  H20  1  0.20101000  0.01208000  0.46401000  1.0
  H  H21  1  0.49696000  0.24141000  0.48404000  1.0
  H  H22  1  0.38293000  0.18733000  0.40675000  1.0
  H  H23  1  0.42032000  0.15344000  0.48539000  1.0
  H  H24  1  0.19117000  0.47889000  0.54036000  1.0
  H  H25  1  0.28453000  0.48206000  0.61506000  1.0
  H  H26  1  0.17503000  0.40887000  0.58744000  1.0
  H  H27  1  0.97568000  0.21145000  0.42490000  1.0
  H  H28  1  0.01559000  0.14695000  0.37021000  1.0
  H  H29  1  0.05300000  0.25901000  0.39326000  1.0
  H  H30  1  0.06107000  0.29583000  0.12646000  1.0
  H  H31  1  0.10985000  0.24488000  0.07117000  1.0
  H  H32  1  0.01688000  0.25398000  0.01196000  1.0
  H  H33  1  0.14115000  0.84567000  0.44667000  1.0
  H  H34  1  0.14645000  0.29591000  0.24469000  1.0
  H  H35  1  0.25067000  0.38062000  0.33520000  1.0
  H  H36  1  0.23769000  0.27482000  0.27573000  1.0
  H  H37  1  0.47808000  0.64631000  0.41526000  1.0
  H  H38  1  0.34673000  0.78803000  0.25775000  1.0
  H  H39  1  0.31917000  0.69327000  0.16273000  1.0
  H  H40  1  0.41344000  0.73598000  0.26617000  1.0
  H  H41  1  0.70546000  0.39842000  0.85797000  1.0
  H  H42  1  0.63255000  0.44369000  0.86405000  1.0
  H  H43  1  0.72517000  0.47306000  0.96111000  1.0
  H  H44  1  0.52043000  0.41339000  0.74932000  1.0
  H  H45  1  0.52007000  0.40108000  0.65044000  1.0
  H  H46  1  0.49229000  0.47908000  0.70488000  1.0
  H  H47  1  0.66746000  0.32777000  0.50093000  1.0
  H  H48  1  0.77843000  0.35111000  0.56329000  1.0
  H  H49  1  0.74957000  0.37119000  0.47287000  1.0
  H  H50  1  0.00427000  0.53225000  0.70575000  1.0
  H  H51  1  0.99215000  0.61038000  0.78267000  1.0
  H  H52  1  0.92500000  0.56613000  0.66768000  1.0
  H  H53  1  0.82578000  0.60076000  0.29930000  1.0
  H  H54  1  0.93368000  0.62809000  0.37509000  1.0
  H  H55  1  0.85337000  0.51578000  0.29801000  1.0
  H  H56  1  0.75122000  0.55278000  0.13989000  1.0
  H  H57  1  0.72730000  0.60558000  0.07695000  1.0
  H  H58  1  0.67244000  0.59068000  0.13893000  1.0
  H  H59  1  0.81301000  0.71450000  0.05046000  1.0
  H  H60  1  0.08968000  0.94627000  0.28509000  1.0
  H  H61  1  0.90144000  0.94180000  0.76687000  1.0
  H  H62  1  0.72067000  0.86976000  0.78399000  1.0
  H  H63  1  0.64712000  0.83176000  0.67282000  1.0
  H  H64  1  0.75139000  0.92962000  0.73095000  1.0
  H  H65  1  0.56841000  0.60359000  0.36347000  1.0
  C  C66  1  0.90910000  0.90525000  0.54534000  1.0
  C  C67  1  0.91640000  0.71820000  0.15786000  1.0
  C  C68  1  0.99616000  0.80870000  0.23371000  1.0
  C  C69  1  0.96326000  0.79835000  0.30029000  1.0
  C  C70  1  0.83060000  0.85850000  0.62493000  1.0
  C  C71  1  0.75955000  0.79728000  0.62293000  1.0
  C  C72  1  0.69558000  0.71999000  0.54484000  1.0
  C  C73  1  0.70424000  0.70220000  0.46941000  1.0
  C  C74  1  0.77421000  0.76419000  0.47122000  1.0
  C  C75  1  0.83710000  0.84178000  0.54881000  1.0
  C  C76  1  0.05409000  0.25259000  0.74686000  1.0
  C  C77  1  0.96499000  0.87176000  0.36762000  1.0
  C  C78  1  0.04725000  0.30034000  0.81907000  1.0
  C  C79  1  0.96519000  0.28984000  0.81054000  1.0
  C  C80  1  0.88834000  0.22683000  0.73236000  1.0
  C  C81  1  0.89432000  0.17493000  0.66173000  1.0
  C  C82  1  0.97715000  0.18848000  0.66828000  1.0
  C  C83  1  0.28399000  0.19064000  0.52368000  1.0
  C  C84  1  0.34067000  0.26104000  0.52135000  1.0
  C  C85  1  0.31676000  0.32425000  0.51335000  1.0
  C  C86  1  0.23574000  0.31660000  0.50496000  1.0
  C  C87  1  0.17761000  0.24503000  0.50410000  1.0
  C  C88  1  0.13800000  0.10849000  0.51439000  1.0
  C  C89  1  0.20178000  0.18221000  0.51405000  1.0
  C  C90  1  0.14222000  0.52503000  0.10824000  1.0
  C  C91  1  0.97717000  0.60325000  0.11661000  1.0
  C  C92  1  0.90156000  0.52035000  0.88014000  1.0
  C  C93  1  0.96719000  0.35664000  0.88506000  1.0
  C  C94  1  0.39416000  0.49377000  0.36125000  1.0
  C  C95  1  0.62071000  0.65060000  0.53868000  1.0
  C  C96  1  0.61331000  0.47700000  0.59261000  1.0
  C  C97  1  0.37739000  0.39825000  0.51049000  1.0
  C  C98  1  0.19851000  0.43480000  0.15812000  1.0
  C  C99  1  0.98311000  0.12822000  0.59643000  1.0
  C  C100  1  0.25769000  0.42728000  0.22235000  1.0
  C  C101  1  0.33275000  0.50308000  0.29297000  1.0
  C  C102  1  0.34976000  0.58764000  0.30393000  1.0
  C  C103  1  0.28657000  0.59435000  0.24217000  1.0
  C  C104  1  0.21289000  0.51873000  0.16995000  1.0
  C  C105  1  0.75607000  0.51310000  0.81454000  1.0
  C  C106  1  0.68519000  0.50229000  0.74544000  1.0
  C  C107  1  0.68404000  0.48206000  0.66460000  1.0
  C  C108  1  0.75557000  0.47523000  0.65579000  1.0
  C  C109  1  0.82822000  0.49091000  0.72681000  1.0
  C  C110  1  0.01939000  0.75274000  0.32351000  1.0
  C  C111  1  0.82827000  0.50993000  0.80597000  1.0
  C  C112  1  0.05284000  0.76265000  0.25722000  1.0
  C  C113  1  0.97268000  0.67217000  0.18260000  1.0
  C  C114  1  0.93802000  0.66070000  0.24661000  1.0
  C  C115  1  0.88229000  0.70913000  0.22400000  1.0
  C  C116  1  0.14554000  0.79798000  0.27490000  1.0
  C  C117  1  0.72107000  0.75855000  0.33547000  1.0
  C  C118  1  0.16409000  0.28358000  0.70088000  1.0
  C  C119  1  0.19342000  0.42393000  0.91188000  1.0
  C  C120  1  0.80118000  0.21644000  0.72488000  1.0
  C  C121  1  0.81138000  0.10433000  0.58337000  1.0
  C  C122  1  0.26733000  0.04555000  0.47354000  1.0
  C  C123  1  0.43016000  0.20913000  0.47352000  1.0
  C  C124  1  0.21592000  0.44001000  0.56356000  1.0
  C  C125  1  0.03226000  0.21281000  0.41633000  1.0
  C  C126  1  0.07712000  0.28523000  0.07331000  1.0
  C  C127  1  0.08211000  0.78107000  0.41431000  1.0
  C  C128  1  0.21791000  0.32363000  0.27055000  1.0
  C  C129  1  0.43258000  0.66385000  0.37780000  1.0
  C  C130  1  0.34633000  0.72506000  0.23352000  1.0
  C  C131  1  0.70096000  0.45655000  0.89284000  1.0
  C  C132  1  0.53417000  0.44837000  0.71380000  1.0
  C  C133  1  0.73719000  0.37166000  0.52654000  1.0
  C  C134  1  0.95761000  0.55233000  0.71828000  1.0
  C  C135  1  0.87850000  0.58290000  0.30916000  1.0
  C  C136  1  0.73411000  0.60400000  0.13713000  1.0
  C  C137  1  0.87497000  0.71019000  0.07027000  1.0
  C  C138  1  0.02368000  0.89203000  0.23126000  1.0
  C  C139  1  0.89393000  0.94281000  0.70584000  1.0
  C  C140  1  0.71611000  0.86411000  0.72228000  1.0
  C  C141  1  0.63812000  0.61831000  0.38592000  1.0
  O  O142  1  0.88384000  0.93486000  0.49543000  1.0
  O  O143  1  0.06565000  0.48499000  0.09616000  1.0
  O  O144  1  0.03478000  0.62929000  0.09472000  1.0
  O  O145  1  0.92225000  0.52391000  0.08824000  1.0
  O  O146  1  0.98048000  0.57539000  0.90519000  1.0
  O  O147  1  0.88055000  0.47352000  0.91365000  1.0
  O  O148  1  0.01508000  0.43497000  0.90723000  1.0
  O  O149  1  0.92276000  0.33255000  0.92142000  1.0
  O  O150  1  0.40588000  0.53348000  0.43749000  1.0
  O  O151  1  0.42905000  0.44643000  0.33818000  1.0
  O  O152  1  0.58345000  0.67105000  0.58381000  1.0
  O  O153  1  0.98788000  0.92119000  0.58821000  1.0
  O  O154  1  0.59707000  0.57300000  0.48453000  1.0
  O  O155  1  0.58267000  0.52860000  0.61384000  1.0
  O  O156  1  0.58721000  0.42282000  0.51333000  1.0
  O  O157  1  0.40092000  0.47642000  0.56578000  1.0
  O  O158  1  0.40145000  0.37814000  0.45374000  1.0
  O  O159  1  0.91201000  0.90040000  0.34221000  1.0
  O  O160  1  0.02131000  0.90128000  0.44522000  1.0
  O  O161  1  0.05883000  0.07109000  0.45601000  1.0
  O  O162  1  0.16594000  0.08747000  0.57300000  1.0
  O  O163  1  0.93214000  0.10492000  0.51723000  1.0
  O  O164  1  0.03760000  0.10143000  0.61856000  1.0
  O  O165  1  0.16373000  0.57093000  0.07242000  1.0
  O  O166  1  0.20598000  0.86171000  0.34374000  1.0
  O  O167  1  0.78344000  0.75029000  0.39864000  1.0
  O  O168  1  0.13721000  0.27205000  0.76222000  1.0
  O  O169  1  0.11752000  0.35494000  0.89919000  1.0
  O  O170  1  0.78601000  0.27804000  0.74340000  1.0
  O  O171  1  0.74093000  0.10447000  0.56756000  1.0
  O  O172  1  0.31442000  0.13599000  0.53931000  1.0
  O  O173  1  0.42264000  0.27488000  0.53435000  1.0
  O  O174  1  0.21055000  0.37498000  0.48980000  1.0
  O  O175  1  0.10036000  0.24078000  0.50077000  1.0
  O  O176  1  0.12976000  0.36752000  0.08222000  1.0
  O  O177  1  0.07314000  0.73762000  0.45084000  1.0
  O  O178  1  0.24248000  0.34570000  0.21179000  1.0
  O  O179  1  0.45530000  0.74123000  0.39970000  1.0
  O  O180  1  0.28981000  0.67286000  0.25532000  1.0
  O  O181  1  0.75694000  0.53091000  0.89231000  1.0
  O  O182  1  0.62351000  0.51652000  0.76416000  1.0
  O  O183  1  0.75911000  0.46041000  0.58020000  1.0
  O  O184  1  0.89532000  0.47978000  0.71631000  1.0
  O  O185  1  0.90850000  0.58306000  0.24629000  1.0
  O  O186  1  0.79913000  0.68815000  0.21183000  1.0
  O  O187  1  0.90913000  0.70177000  0.02405000  1.0
  O  O188  1  0.97676000  0.90275000  0.17683000  1.0
  O  O189  1  0.93455000  0.01019000  0.70647000  1.0
  O  O190  1  0.75690000  0.81185000  0.69867000  1.0
  O  O191  1  0.65854000  0.57146000  0.34228000  1.0
