# generated using pymatgen
data_NaH8C8SNO7
_symmetry_space_group_name_H-M   'P 1'
_cell_length_a   7.28702000
_cell_length_b   8.03023000
_cell_length_c   10.65740000
_cell_angle_alpha   86.89780000
_cell_angle_beta   80.38890000
_cell_angle_gamma   65.44950000
_symmetry_Int_Tables_number   1
_chemical_formula_structural   NaH8C8SNO7
_chemical_formula_sum   'Na2 H16 C16 S2 N2 O14'
_cell_volume   559.21083133
_cell_formula_units_Z   2
loop_
 _symmetry_equiv_pos_site_id
 _symmetry_equiv_pos_as_xyz
  1  'x, y, z'
loop_
 _atom_site_type_symbol
 _atom_site_label
 _atom_site_symmetry_multiplicity
 _atom_site_fract_x
 _atom_site_fract_y
 _atom_site_fract_z
 _atom_site_occupancy
  Na  Na0  1  0.62139000  0.56890000  0.10722000  1.0
  Na  Na1  1  0.37862000  0.43110000  0.89278000  1.0
  H  H2  1  0.20641000  0.88228000  0.16900000  1.0
  H  H3  1  0.79359000  0.11772000  0.83100000  1.0
  H  H4  1  0.39153000  0.92718000  0.19242000  1.0
  H  H5  1  0.60847000  0.07283000  0.80758000  1.0
  H  H6  1  0.00693000  0.28606000  0.00810000  1.0
  H  H7  1  0.99307000  0.71393000  0.99190000  1.0
  H  H8  1  0.90943000  0.18783000  0.11492000  1.0
  H  H9  1  0.09057000  0.81216000  0.88508000  1.0
  H  H10  1  0.94656000  0.65539000  0.80369000  1.0
  H  H11  1  0.05345000  0.34461000  0.19631000  1.0
  H  H12  1  0.53925000  0.75889000  0.39855000  1.0
  H  H13  1  0.46073000  0.24113000  0.60145000  1.0
  H  H14  1  0.08553000  0.85889000  0.36332000  1.0
  H  H15  1  0.91447000  0.14111000  0.63667000  1.0
  H  H16  1  0.13192000  0.75578000  0.58489000  1.0
  H  H17  1  0.86808000  0.24422000  0.41510000  1.0
  C  C18  1  0.68907000  0.60533000  0.77952000  1.0
  C  C19  1  0.31094000  0.39467000  0.22048000  1.0
  C  C20  1  0.57930000  0.63214000  0.66079000  1.0
  C  C21  1  0.42071000  0.36786000  0.33922000  1.0
  C  C22  1  0.69416000  0.70201000  0.56248000  1.0
  C  C23  1  0.30585000  0.29799000  0.43752000  1.0
  C  C24  1  0.66709000  0.75953000  0.43890000  1.0
  C  C25  1  0.33290000  0.24048000  0.56110000  1.0
  C  C26  1  0.80925000  0.81870000  0.36891000  1.0
  C  C27  1  0.19074000  0.18130000  0.63109000  1.0
  C  C28  1  0.97452000  0.81662000  0.42102000  1.0
  C  C29  1  0.02549000  0.18337000  0.57898000  1.0
  C  C30  1  0.00133000  0.75978000  0.54573000  1.0
  C  C31  1  0.99867000  0.24022000  0.45427000  1.0
  C  C32  1  0.85823000  0.70510000  0.61584000  1.0
  C  C33  1  0.14177000  0.29490000  0.38417000  1.0
  S  S34  1  0.78024000  0.89373000  0.21031000  1.0
  S  S35  1  0.21976000  0.10628000  0.78969000  1.0
  N  N36  1  0.85193000  0.64692000  0.74217000  1.0
  N  N37  1  0.14807000  0.35308000  0.25784000  1.0
  O  O38  1  0.63280000  0.55631000  0.88524000  1.0
  O  O39  1  0.36721000  0.44369000  0.11477000  1.0
  O  O40  1  0.43301000  0.59422000  0.65984000  1.0
  O  O41  1  0.56699000  0.40578000  0.34016000  1.0
  O  O42  1  0.92934000  0.97376000  0.16977000  1.0
  O  O43  1  0.07066000  0.02624000  0.83023000  1.0
  O  O44  1  0.56767000  0.02704000  0.21441000  1.0
  O  O45  1  0.43232000  0.97297000  0.78559000  1.0
  O  O46  1  0.82748000  0.72798000  0.13434000  1.0
  O  O47  1  0.17252000  0.27202000  0.86566000  1.0
  O  O48  1  0.34449000  0.82883000  0.19141000  1.0
  O  O49  1  0.65551000  0.17117000  0.80859000  1.0
  O  O50  1  0.92192000  0.30453000  0.09347000  1.0
  O  O51  1  0.07808000  0.69546000  0.90653000  1.0
