# generated using pymatgen
data_Cu2H26C21(NO4)2
_symmetry_space_group_name_H-M   'P 1'
_cell_length_a   8.71356000
_cell_length_b   12.84050000
_cell_length_c   28.30840000
_cell_angle_alpha   89.99950000
_cell_angle_beta   89.99960000
_cell_angle_gamma   89.99730000
_symmetry_Int_Tables_number   1
_chemical_formula_structural   Cu2H26C21(NO4)2
_chemical_formula_sum   'Cu8 H104 C84 N8 O32'
_cell_volume   3167.32686380
_cell_formula_units_Z   4
loop_
 _symmetry_equiv_pos_site_id
 _symmetry_equiv_pos_as_xyz
  1  'x, y, z'
loop_
 _atom_site_type_symbol
 _atom_site_label
 _atom_site_symmetry_multiplicity
 _atom_site_fract_x
 _atom_site_fract_y
 _atom_site_fract_z
 _atom_site_occupancy
  Cu  Cu0  1  0.57154000  0.46659000  0.96312000  1.0
  Cu  Cu1  1  0.57151000  0.03340000  0.53686000  1.0
  Cu  Cu2  1  0.92849000  0.96661000  0.03687000  1.0
  Cu  Cu3  1  0.92850000  0.53338000  0.46314000  1.0
  Cu  Cu4  1  0.42849000  0.53338000  0.03686000  1.0
  Cu  Cu5  1  0.42851000  0.96662000  0.46314000  1.0
  Cu  Cu6  1  0.07150000  0.03339000  0.96314000  1.0
  Cu  Cu7  1  0.07150000  0.46661000  0.53686000  1.0
  H  H8  1  0.74106000  0.26731000  0.93696000  1.0
  H  H9  1  0.74105000  0.23267000  0.56304000  1.0
  H  H10  1  0.75895000  0.76732000  0.06304000  1.0
  H  H11  1  0.75894000  0.73267000  0.43697000  1.0
  H  H12  1  0.25894000  0.73268000  0.06303000  1.0
  H  H13  1  0.25896000  0.76734000  0.43697000  1.0
  H  H14  1  0.24104000  0.23267000  0.93697000  1.0
  H  H15  1  0.24104000  0.26731000  0.56303000  1.0
  H  H16  1  0.67675000  0.54206000  0.86406000  1.0
  H  H17  1  0.67672000  0.95793000  0.63594000  1.0
  H  H18  1  0.82325000  0.04205000  0.13594000  1.0
  H  H19  1  0.82323000  0.45794000  0.36407000  1.0
  H  H20  1  0.32328000  0.45795000  0.13595000  1.0
  H  H21  1  0.32328000  0.04207000  0.36406000  1.0
  H  H22  1  0.17675000  0.95794000  0.86406000  1.0
  H  H23  1  0.17677000  0.54206000  0.63594000  1.0
  H  H24  1  0.90656000  0.19328000  0.87409000  1.0
  H  H25  1  0.90653000  0.30670000  0.62591000  1.0
  H  H26  1  0.59346000  0.69329000  0.12591000  1.0
  H  H27  1  0.59346000  0.80672000  0.37410000  1.0
  H  H28  1  0.09344000  0.80671000  0.12590000  1.0
  H  H29  1  0.09348000  0.69331000  0.37409000  1.0
  H  H30  1  0.40653000  0.30669000  0.87410000  1.0
  H  H31  1  0.40653000  0.19327000  0.62590000  1.0
  H  H32  1  0.84653000  0.48282000  0.79772000  1.0
  H  H33  1  0.84648000  0.01715000  0.70228000  1.0
  H  H34  1  0.65349000  0.98283000  0.20228000  1.0
  H  H35  1  0.65347000  0.51717000  0.29772000  1.0
  H  H36  1  0.15351000  0.51719000  0.20229000  1.0
  H  H37  1  0.15352000  0.98287000  0.29772000  1.0
  H  H38  1  0.34649000  0.01716000  0.79772000  1.0
  H  H39  1  0.34653000  0.48283000  0.70228000  1.0
  H  H40  1  0.06878000  0.23118000  0.80451000  1.0
  H  H41  1  0.06876000  0.26878000  0.69548000  1.0
  H  H42  1  0.43125000  0.73119000  0.19549000  1.0
  H  H43  1  0.43125000  0.76883000  0.30452000  1.0
  H  H44  1  0.93125000  0.76884000  0.19548000  1.0
  H  H45  1  0.93125000  0.73123000  0.30451000  1.0
  H  H46  1  0.56875000  0.26880000  0.80452000  1.0
  H  H47  1  0.56875000  0.23117000  0.69549000  1.0
  H  H48  1  0.06621000  0.35611000  0.77775000  1.0
  H  H49  1  0.06619000  0.14384000  0.72224000  1.0
  H  H50  1  0.43379000  0.85612000  0.22224000  1.0
  H  H51  1  0.43379000  0.64389000  0.27777000  1.0
  H  H52  1  0.93380000  0.64393000  0.22224000  1.0
  H  H53  1  0.93381000  0.85617000  0.27776000  1.0
  H  H54  1  0.56620000  0.14386000  0.77777000  1.0
  H  H55  1  0.56620000  0.35610000  0.72224000  1.0
  H  H56  1  0.82012000  0.18803000  0.76338000  1.0
  H  H57  1  0.82012000  0.31194000  0.73663000  1.0
  H  H58  1  0.67987000  0.68805000  0.23663000  1.0
  H  H59  1  0.67988000  0.81196000  0.26337000  1.0
  H  H60  1  0.17987000  0.81199000  0.23663000  1.0
  H  H61  1  0.17990000  0.68808000  0.26337000  1.0
  H  H62  1  0.32011000  0.31194000  0.76337000  1.0
  H  H63  1  0.32012000  0.18802000  0.73663000  1.0
  H  H64  1  0.00591000  0.52964000  0.04438000  1.0
  H  H65  1  0.00594000  0.97035000  0.45559000  1.0
  H  H66  1  0.49406000  0.02965000  0.95560000  1.0
  H  H67  1  0.49407000  0.47034000  0.54440000  1.0
  H  H68  1  0.99409000  0.47036000  0.95560000  1.0
  H  H69  1  0.99407000  0.02964000  0.54440000  1.0
  H  H70  1  0.50592000  0.97035000  0.04441000  1.0
  H  H71  1  0.50592000  0.52965000  0.45559000  1.0
  H  H72  1  0.91114000  0.51976000  0.10075000  1.0
  H  H73  1  0.91112000  0.98026000  0.39923000  1.0
  H  H74  1  0.58886000  0.01975000  0.89924000  1.0
  H  H75  1  0.58886000  0.48023000  0.60077000  1.0
  H  H76  1  0.08889000  0.48026000  0.89924000  1.0
  H  H77  1  0.08886000  0.01974000  0.60076000  1.0
  H  H78  1  0.41112000  0.98025000  0.10077000  1.0
  H  H79  1  0.41111000  0.51975000  0.39923000  1.0
  H  H80  1  0.91965000  0.64068000  0.07120000  1.0
  H  H81  1  0.91962000  0.85935000  0.42876000  1.0
  H  H82  1  0.58035000  0.14066000  0.92877000  1.0
  H  H83  1  0.58035000  0.35932000  0.57123000  1.0
  H  H84  1  0.08037000  0.35935000  0.92876000  1.0
  H  H85  1  0.08034000  0.14066000  0.57123000  1.0
  H  H86  1  0.41964000  0.85933000  0.07124000  1.0
  H  H87  1  0.41962000  0.64066000  0.42877000  1.0
  H  H88  1  0.43701000  0.20138000  0.08822000  1.0
  H  H89  1  0.43700000  0.29865000  0.41178000  1.0
  H  H90  1  0.06300000  0.70136000  0.91178000  1.0
  H  H91  1  0.06301000  0.79864000  0.58822000  1.0
  H  H92  1  0.56302000  0.79863000  0.91179000  1.0
  H  H93  1  0.56303000  0.70138000  0.58822000  1.0
  H  H94  1  0.93700000  0.29864000  0.08822000  1.0
  H  H95  1  0.93701000  0.20135000  0.41178000  1.0
  H  H96  1  0.60482000  0.17092000  0.05373000  1.0
  H  H97  1  0.60484000  0.32909000  0.44627000  1.0
  H  H98  1  0.89518000  0.67093000  0.94627000  1.0
  H  H99  1  0.89517000  0.82908000  0.55373000  1.0
  H  H100  1  0.39519000  0.82908000  0.94627000  1.0
  H  H101  1  0.39519000  0.67095000  0.55374000  1.0
  H  H102  1  0.10483000  0.32906000  0.05373000  1.0
  H  H103  1  0.10484000  0.17091000  0.44628000  1.0
  H  H104  1  0.42023000  0.15624000  0.02860000  1.0
  H  H105  1  0.42024000  0.34378000  0.47140000  1.0
  H  H106  1  0.07977000  0.65623000  0.97141000  1.0
  H  H107  1  0.07977000  0.84376000  0.52860000  1.0
  H  H108  1  0.57980000  0.84375000  0.97141000  1.0
  H  H109  1  0.57978000  0.65624000  0.52860000  1.0
  H  H110  1  0.92024000  0.34377000  0.02859000  1.0
  H  H111  1  0.92024000  0.15624000  0.47140000  1.0
  C  C112  1  0.76481000  0.31137000  0.90490000  1.0
  C  C113  1  0.76480000  0.18862000  0.59510000  1.0
  C  C114  1  0.73519000  0.81137000  0.09509000  1.0
  C  C115  1  0.73517000  0.68862000  0.40491000  1.0
  C  C116  1  0.23519000  0.68862000  0.09509000  1.0
  C  C117  1  0.23520000  0.81139000  0.40490000  1.0
  C  C118  1  0.26480000  0.18861000  0.90491000  1.0
  C  C119  1  0.26481000  0.31137000  0.59509000  1.0
  C  C120  1  0.72996000  0.46508000  0.86426000  1.0
  C  C121  1  0.72993000  0.03491000  0.63574000  1.0
  C  C122  1  0.77005000  0.96507000  0.13574000  1.0
  C  C123  1  0.77004000  0.53492000  0.36426000  1.0
  C  C124  1  0.27007000  0.53492000  0.13574000  1.0
  C  C125  1  0.27008000  0.96509000  0.36426000  1.0
  C  C126  1  0.22994000  0.03492000  0.86426000  1.0
  C  C127  1  0.22997000  0.46508000  0.63574000  1.0
  C  C128  1  0.85861000  0.27108000  0.86955000  1.0
  C  C129  1  0.85859000  0.22889000  0.63045000  1.0
  C  C130  1  0.64140000  0.77109000  0.13045000  1.0
  C  C131  1  0.64138000  0.72890000  0.36956000  1.0
  C  C132  1  0.14141000  0.72891000  0.13044000  1.0
  C  C133  1  0.14142000  0.77112000  0.36955000  1.0
  C  C134  1  0.35859000  0.22888000  0.86955000  1.0
  C  C135  1  0.35862000  0.27109000  0.63044000  1.0
  C  C136  1  0.89188000  0.33235000  0.83001000  1.0
  C  C137  1  0.89187000  0.16762000  0.66999000  1.0
  C  C138  1  0.60814000  0.83236000  0.16999000  1.0
  C  C139  1  0.60812000  0.66765000  0.33002000  1.0
  C  C140  1  0.10815000  0.66766000  0.16999000  1.0
  C  C141  1  0.10814000  0.83238000  0.33001000  1.0
  C  C142  1  0.39186000  0.16763000  0.83001000  1.0
  C  C143  1  0.39188000  0.33235000  0.66998000  1.0
  C  C144  1  0.82435000  0.43137000  0.82766000  1.0
  C  C145  1  0.82431000  0.06860000  0.67234000  1.0
  C  C146  1  0.67567000  0.93137000  0.17234000  1.0
  C  C147  1  0.67565000  0.56862000  0.32766000  1.0
  C  C148  1  0.17569000  0.56865000  0.17235000  1.0
  C  C149  1  0.17569000  0.93140000  0.32766000  1.0
  C  C150  1  0.32432000  0.06862000  0.82766000  1.0
  C  C151  1  0.32435000  0.43137000  0.67234000  1.0
  C  C152  1  0.99259000  0.29263000  0.79092000  1.0
  C  C153  1  0.99257000  0.20734000  0.70908000  1.0
  C  C154  1  0.50743000  0.79263000  0.20908000  1.0
  C  C155  1  0.50742000  0.70738000  0.29093000  1.0
  C  C156  1  0.00743000  0.70740000  0.20907000  1.0
  C  C157  1  0.00744000  0.79267000  0.29092000  1.0
  C  C158  1  0.49257000  0.20736000  0.79092000  1.0
  C  C159  1  0.49257000  0.29261000  0.70908000  1.0
  C  C160  1  0.89600000  0.24999000  0.75001000  1.0
  C  C161  1  0.60400000  0.75000000  0.25000000  1.0
  C  C162  1  0.10401000  0.75003000  0.24999000  1.0
  C  C163  1  0.39599000  0.24998000  0.75000000  1.0
  C  C164  1  0.75763000  0.53462000  0.04196000  1.0
  C  C165  1  0.75762000  0.96541000  0.45804000  1.0
  C  C166  1  0.74236000  0.03460000  0.95805000  1.0
  C  C167  1  0.74238000  0.46539000  0.54196000  1.0
  C  C168  1  0.24237000  0.46539000  0.95804000  1.0
  C  C169  1  0.24237000  0.03460000  0.54196000  1.0
  C  C170  1  0.25761000  0.96539000  0.04197000  1.0
  C  C171  1  0.25759000  0.53460000  0.45804000  1.0
  C  C172  1  0.49340000  0.31419000  0.03440000  1.0
  C  C173  1  0.49340000  0.18581000  0.46561000  1.0
  C  C174  1  0.00662000  0.81420000  0.96561000  1.0
  C  C175  1  0.00660000  0.68579000  0.53440000  1.0
  C  C176  1  0.50659000  0.68581000  0.96560000  1.0
  C  C177  1  0.50662000  0.81422000  0.53439000  1.0
  C  C178  1  0.99339000  0.18579000  0.03439000  1.0
  C  C179  1  0.99339000  0.31420000  0.46560000  1.0
  C  C180  1  0.90915000  0.55646000  0.06577000  1.0
  C  C181  1  0.90914000  0.94357000  0.43421000  1.0
  C  C182  1  0.59085000  0.05644000  0.93422000  1.0
  C  C183  1  0.59087000  0.44354000  0.56578000  1.0
  C  C184  1  0.09085000  0.44356000  0.93422000  1.0
  C  C185  1  0.09085000  0.05643000  0.56578000  1.0
  C  C186  1  0.40913000  0.94355000  0.06579000  1.0
  C  C187  1  0.40911000  0.55644000  0.43422000  1.0
  C  C188  1  0.48860000  0.20399000  0.05298000  1.0
  C  C189  1  0.48860000  0.29601000  0.44702000  1.0
  C  C190  1  0.01141000  0.70400000  0.94703000  1.0
  C  C191  1  0.01140000  0.79599000  0.55297000  1.0
  C  C192  1  0.51142000  0.79600000  0.94703000  1.0
  C  C193  1  0.51143000  0.70402000  0.55298000  1.0
  C  C194  1  0.98859000  0.29599000  0.05297000  1.0
  C  C195  1  0.98860000  0.20400000  0.44702000  1.0
  N  N196  1  0.70083000  0.40640000  0.90254000  1.0
  N  N197  1  0.70081000  0.09359000  0.59746000  1.0
  N  N198  1  0.79917000  0.90640000  0.09745000  1.0
  N  N199  1  0.79915000  0.59359000  0.40255000  1.0
  N  N200  1  0.29918000  0.59359000  0.09745000  1.0
  N  N201  1  0.29919000  0.90642000  0.40254000  1.0
  N  N202  1  0.20082000  0.09358000  0.90255000  1.0
  N  N203  1  0.20084000  0.40640000  0.59745000  1.0
  O  O204  1  0.76226000  0.49763000  0.00017000  1.0
  O  O205  1  0.76228000  0.00238000  0.49983000  1.0
  O  O206  1  0.73770000  0.99762000  0.99984000  1.0
  O  O207  1  0.73771000  0.50237000  0.50016000  1.0
  O  O208  1  0.23772000  0.50236000  0.99983000  1.0
  O  O209  1  0.23772000  0.99763000  0.50016000  1.0
  O  O210  1  0.26227000  0.00235000  0.00017000  1.0
  O  O211  1  0.26226000  0.49763000  0.49984000  1.0
  O  O212  1  0.63655000  0.55579000  0.06537000  1.0
  O  O213  1  0.63653000  0.94423000  0.43463000  1.0
  O  O214  1  0.86346000  0.05576000  0.93463000  1.0
  O  O215  1  0.86347000  0.44424000  0.56537000  1.0
  O  O216  1  0.36345000  0.44423000  0.93463000  1.0
  O  O217  1  0.36345000  0.05576000  0.56537000  1.0
  O  O218  1  0.13652000  0.94424000  0.06538000  1.0
  O  O219  1  0.13651000  0.55578000  0.43463000  1.0
  O  O220  1  0.55834000  0.32690000  0.99441000  1.0
  O  O221  1  0.55837000  0.17311000  0.50560000  1.0
  O  O222  1  0.94164000  0.82690000  0.00560000  1.0
  O  O223  1  0.94162000  0.67309000  0.49441000  1.0
  O  O224  1  0.44159000  0.67310000  0.00559000  1.0
  O  O225  1  0.44161000  0.82691000  0.49441000  1.0
  O  O226  1  0.05838000  0.17309000  0.99441000  1.0
  O  O227  1  0.05837000  0.32691000  0.50560000  1.0
  O  O228  1  0.43141000  0.38532000  0.05943000  1.0
  O  O229  1  0.43137000  0.11469000  0.44057000  1.0
  O  O230  1  0.06863000  0.88532000  0.94057000  1.0
  O  O231  1  0.06864000  0.61467000  0.55943000  1.0
  O  O232  1  0.56862000  0.61468000  0.94058000  1.0
  O  O233  1  0.56867000  0.88534000  0.55942000  1.0
  O  O234  1  0.93135000  0.11468000  0.05943000  1.0
  O  O235  1  0.93136000  0.38532000  0.44057000  1.0
