# generated using pymatgen
data_UFePH12C13O10F
_symmetry_space_group_name_H-M   'P 1'
_cell_length_a   6.96449000
_cell_length_b   11.13580000
_cell_length_c   12.25040000
_cell_angle_alpha   70.67500000
_cell_angle_beta   89.68710000
_cell_angle_gamma   88.08040000
_symmetry_Int_Tables_number   1
_chemical_formula_structural   UFePH12C13O10F
_chemical_formula_sum   'U2 Fe2 P2 H24 C26 O20 F2'
_cell_volume   896.03197013
_cell_formula_units_Z   2
loop_
 _symmetry_equiv_pos_site_id
 _symmetry_equiv_pos_as_xyz
  1  'x, y, z'
loop_
 _atom_site_type_symbol
 _atom_site_label
 _atom_site_symmetry_multiplicity
 _atom_site_fract_x
 _atom_site_fract_y
 _atom_site_fract_z
 _atom_site_occupancy
  U  U0  1  0.05716000  0.33783000  0.13455000  1.0
  U  U1  1  0.94285000  0.66217000  0.86545000  1.0
  Fe  Fe2  1  0.96686000  0.82611000  0.31233000  1.0
  Fe  Fe3  1  0.03314000  0.17390000  0.68767000  1.0
  P  P4  1  0.55509000  0.32350000  0.21785000  1.0
  P  P5  1  0.44491000  0.67650000  0.78216000  1.0
  H  H6  1  0.80257000  0.06548000  0.31504000  1.0
  H  H7  1  0.19743000  0.93451000  0.68497000  1.0
  H  H8  1  0.27033000  0.80353000  0.48230000  1.0
  H  H9  1  0.72967000  0.19647000  0.51770000  1.0
  H  H10  1  0.04673000  0.62132000  0.52854000  1.0
  H  H11  1  0.95327000  0.37868000  0.47146000  1.0
  H  H12  1  0.57700000  0.88580000  0.36592000  1.0
  H  H13  1  0.42300000  0.11420000  0.63408000  1.0
  H  H14  1  0.02720000  0.02990000  0.10916000  1.0
  H  H15  1  0.97282000  0.97011000  0.89085000  1.0
  H  H16  1  0.32448000  0.86479000  0.20377000  1.0
  H  H17  1  0.67552000  0.13520000  0.79623000  1.0
  H  H18  1  0.18848000  0.62487000  0.27331000  1.0
  H  H19  1  0.81150000  0.37513000  0.72668000  1.0
  H  H20  1  0.81238000  0.64198000  0.22652000  1.0
  H  H21  1  0.18760000  0.35803000  0.77347000  1.0
  H  H22  1  0.71038000  0.89150000  0.12314000  1.0
  H  H23  1  0.28962000  0.10852000  0.87686000  1.0
  H  H24  1  0.65534000  0.50741000  0.13237000  1.0
  H  H25  1  0.34465000  0.49258000  0.86764000  1.0
  H  H26  1  0.44990000  0.17421000  0.36622000  1.0
  H  H27  1  0.55010000  0.82579000  0.63378000  1.0
  H  H28  1  0.41329000  0.58374000  0.44171000  1.0
  H  H29  1  0.58671000  0.41626000  0.55828000  1.0
  C  C30  1  0.18404000  0.05590000  0.35873000  1.0
  C  C31  1  0.81596000  0.94410000  0.64128000  1.0
  C  C32  1  0.04928000  0.94684000  0.39954000  1.0
  C  C33  1  0.95071000  0.05316000  0.60046000  1.0
  C  C34  1  0.85163000  0.96998000  0.36791000  1.0
  C  C35  1  0.14837000  0.03002000  0.63210000  1.0
  C  C36  1  0.11809000  0.82123000  0.46170000  1.0
  C  C37  1  0.88191000  0.17877000  0.53831000  1.0
  C  C38  1  0.99266000  0.71874000  0.48833000  1.0
  C  C39  1  0.00734000  0.28126000  0.51167000  1.0
  C  C40  1  0.79635000  0.74154000  0.45359000  1.0
  C  C41  1  0.20365000  0.25845000  0.54640000  1.0
  C  C42  1  0.72571000  0.86798000  0.39486000  1.0
  C  C43  1  0.27428000  0.13202000  0.60514000  1.0
  C  C44  1  0.66940000  0.63216000  0.47141000  1.0
  C  C45  1  0.33061000  0.36784000  0.52859000  1.0
  C  C46  1  0.02173000  0.92643000  0.14274000  1.0
  C  C47  1  0.97827000  0.07358000  0.85727000  1.0
  C  C48  1  0.17865000  0.83913000  0.19243000  1.0
  C  C49  1  0.82135000  0.16088000  0.80758000  1.0
  C  C50  1  0.10798000  0.71295000  0.23064000  1.0
  C  C51  1  0.89201000  0.28706000  0.76935000  1.0
  C  C52  1  0.90725000  0.72187000  0.20540000  1.0
  C  C53  1  0.09274000  0.27814000  0.79460000  1.0
  C  C54  1  0.85401000  0.85316000  0.15115000  1.0
  C  C55  1  0.14599000  0.14685000  0.84885000  1.0
  O  O56  1  0.06438000  0.43372000  0.22860000  1.0
  O  O57  1  0.93563000  0.56626000  0.77141000  1.0
  O  O58  1  0.05046000  0.23590000  0.04569000  1.0
  O  O59  1  0.94954000  0.76410000  0.95430000  1.0
  O  O60  1  0.38866000  0.30613000  0.14455000  1.0
  O  O61  1  0.61135000  0.69386000  0.85545000  1.0
  O  O62  1  0.74507000  0.26834000  0.18950000  1.0
  O  O63  1  0.25493000  0.73165000  0.81050000  1.0
  O  O64  1  0.10505000  0.16211000  0.29909000  1.0
  O  O65  1  0.89496000  0.83788000  0.70091000  1.0
  O  O66  1  0.35853000  0.03820000  0.38761000  1.0
  O  O67  1  0.64147000  0.96180000  0.61240000  1.0
  O  O68  1  0.57838000  0.46996000  0.20371000  1.0
  O  O69  1  0.42162000  0.53003000  0.79630000  1.0
  O  O70  1  0.50817000  0.26183000  0.35093000  1.0
  O  O71  1  0.49184000  0.73816000  0.64907000  1.0
  O  O72  1  0.72462000  0.52198000  0.52963000  1.0
  O  O73  1  0.27539000  0.47801000  0.47035000  1.0
  O  O74  1  0.50070000  0.66247000  0.42052000  1.0
  O  O75  1  0.49931000  0.33752000  0.57949000  1.0
  F  F76  1  0.17579000  0.49763000  0.97146000  1.0
  F  F77  1  0.82422000  0.50237000  0.02854000  1.0
