# generated using pymatgen
data_Cd3H22(C5O3)6
_symmetry_space_group_name_H-M   'P 1'
_cell_length_a   6.56522000
_cell_length_b   14.70000000
_cell_length_c   20.04720000
_cell_angle_alpha   86.33790000
_cell_angle_beta   80.57300000
_cell_angle_gamma   77.08240000
_symmetry_Int_Tables_number   1
_chemical_formula_structural   Cd3H22(C5O3)6
_chemical_formula_sum   'Cd6 H44 C60 O36'
_cell_volume   1859.55214053
_cell_formula_units_Z   2
loop_
 _symmetry_equiv_pos_site_id
 _symmetry_equiv_pos_as_xyz
  1  'x, y, z'
loop_
 _atom_site_type_symbol
 _atom_site_label
 _atom_site_symmetry_multiplicity
 _atom_site_fract_x
 _atom_site_fract_y
 _atom_site_fract_z
 _atom_site_occupancy
  Cd  Cd0  1  0.46870000  0.25000000  0.74998000  1.0
  Cd  Cd1  1  0.53132000  0.75000000  0.25002000  1.0
  Cd  Cd2  1  0.06702000  0.03752000  0.74296000  1.0
  Cd  Cd3  1  0.84688000  0.46245000  0.75708000  1.0
  Cd  Cd4  1  0.93302000  0.96248000  0.25704000  1.0
  Cd  Cd5  1  0.15314000  0.53755000  0.24292000  1.0
  H  H6  1  0.12379000  0.73467000  0.87613000  1.0
  H  H7  1  0.73328000  0.76524000  0.62394000  1.0
  H  H8  1  0.87622000  0.26533000  0.12387000  1.0
  H  H9  1  0.26673000  0.23476000  0.37606000  1.0
  H  H10  1  0.19951000  0.55967000  0.87834000  1.0
  H  H11  1  0.63601000  0.94035000  0.62176000  1.0
  H  H12  1  0.80049000  0.44033000  0.12167000  1.0
  H  H13  1  0.36402000  0.05965000  0.37824000  1.0
  H  H14  1  0.30099000  0.73803000  0.66036000  1.0
  H  H15  1  0.69996000  0.76195000  0.83965000  1.0
  H  H16  1  0.69902000  0.26197000  0.33964000  1.0
  H  H17  1  0.30004000  0.23805000  0.16035000  1.0
  H  H18  1  0.08216000  0.64131000  0.59759000  1.0
  H  H19  1  0.32176000  0.85877000  0.90247000  1.0
  H  H20  1  0.91781000  0.35870000  0.40241000  1.0
  H  H21  1  0.67823000  0.14122000  0.09753000  1.0
  H  H22  1  0.11095000  0.71145000  0.47972000  1.0
  H  H23  1  0.30250000  0.78898000  0.02038000  1.0
  H  H24  1  0.88903000  0.28855000  0.52028000  1.0
  H  H25  1  0.69751000  0.21101000  0.97962000  1.0
  H  H26  1  0.78738000  0.60641000  0.45224000  1.0
  H  H27  1  0.84648000  0.89382000  0.04786000  1.0
  H  H28  1  0.21260000  0.39360000  0.54776000  1.0
  H  H29  1  0.15352000  0.10618000  0.95213000  1.0
  H  H30  1  0.75614000  0.53880000  0.57064000  1.0
  H  H31  1  0.86591000  0.96149000  0.92945000  1.0
  H  H32  1  0.24385000  0.46121000  0.42936000  1.0
  H  H33  1  0.13408000  0.03852000  0.07054000  1.0
  H  H34  1  0.09781000  0.15093000  0.85010000  1.0
  H  H35  1  0.09890000  0.34916000  0.64997000  1.0
  H  H36  1  0.90221000  0.84907000  0.14990000  1.0
  H  H37  1  0.90109000  0.65083000  0.35003000  1.0
  H  H38  1  0.85001000  0.15522000  0.85225000  1.0
  H  H39  1  0.85755000  0.34482000  0.64779000  1.0
  H  H40  1  0.15001000  0.84479000  0.14774000  1.0
  H  H41  1  0.14244000  0.65518000  0.35221000  1.0
  H  H42  1  0.93311000  0.17881000  0.63813000  1.0
  H  H43  1  0.74977000  0.32139000  0.86192000  1.0
  H  H44  1  0.06689000  0.82119000  0.36188000  1.0
  H  H45  1  0.25023000  0.67862000  0.13809000  1.0
  H  H46  1  0.17601000  0.17149000  0.63977000  1.0
  H  H47  1  0.98713000  0.32855000  0.86020000  1.0
  H  H48  1  0.82398000  0.82851000  0.36023000  1.0
  H  H49  1  0.01288000  0.67146000  0.13979000  1.0
  C  C50  1  0.15906000  0.84989000  0.76484000  1.0
  C  C51  1  0.77350000  0.65005000  0.73519000  1.0
  C  C52  1  0.84096000  0.15010000  0.23516000  1.0
  C  C53  1  0.22648000  0.34994000  0.26481000  1.0
  C  C54  1  0.20893000  0.74542000  0.76791000  1.0
  C  C55  1  0.72189000  0.75455000  0.73213000  1.0
  C  C56  1  0.79108000  0.25458000  0.23209000  1.0
  C  C57  1  0.27810000  0.24545000  0.26788000  1.0
  C  C58  1  0.18176000  0.69619000  0.82967000  1.0
  C  C59  1  0.70664000  0.80373000  0.67038000  1.0
  C  C60  1  0.81824000  0.30382000  0.17033000  1.0
  C  C61  1  0.29337000  0.19627000  0.32961000  1.0
  C  C62  1  0.22399000  0.59894000  0.83078000  1.0
  C  C63  1  0.65279000  0.90100000  0.66928000  1.0
  C  C64  1  0.77601000  0.40106000  0.16922000  1.0
  C  C65  1  0.34723000  0.09900000  0.33072000  1.0
  C  C66  1  0.29859000  0.55089000  0.77065000  1.0
  C  C67  1  0.61998000  0.94906000  0.72938000  1.0
  C  C68  1  0.70139000  0.44911000  0.22935000  1.0
  C  C69  1  0.38004000  0.05093000  0.27062000  1.0
  C  C70  1  0.32781000  0.60087000  0.70907000  1.0
  C  C71  1  0.63817000  0.89910000  0.79095000  1.0
  C  C72  1  0.67219000  0.39913000  0.29093000  1.0
  C  C73  1  0.36181000  0.10089000  0.20905000  1.0
  C  C74  1  0.28121000  0.69781000  0.70744000  1.0
  C  C75  1  0.68670000  0.80216000  0.79256000  1.0
  C  C76  1  0.71881000  0.30218000  0.29256000  1.0
  C  C77  1  0.31328000  0.19784000  0.20744000  1.0
  C  C78  1  0.34954000  0.44707000  0.76812000  1.0
  C  C79  1  0.56465000  0.05288000  0.73187000  1.0
  C  C80  1  0.65044000  0.55292000  0.23188000  1.0
  C  C81  1  0.43537000  0.94711000  0.26813000  1.0
  C  C82  1  0.41908000  0.58847000  0.58919000  1.0
  C  C83  1  0.59743000  0.91167000  0.91082000  1.0
  C  C84  1  0.58091000  0.41153000  0.41081000  1.0
  C  C85  1  0.40255000  0.08833000  0.08918000  1.0
  C  C86  1  0.23482000  0.63584000  0.56499000  1.0
  C  C87  1  0.43633000  0.86435000  0.93505000  1.0
  C  C88  1  0.76516000  0.36416000  0.43501000  1.0
  C  C89  1  0.56368000  0.13565000  0.06495000  1.0
  C  C90  1  0.25240000  0.67397000  0.49960000  1.0
  C  C91  1  0.42649000  0.82635000  0.00048000  1.0
  C  C92  1  0.74758000  0.32604000  0.50040000  1.0
  C  C93  1  0.57353000  0.17365000  0.99952000  1.0
  C  C94  1  0.45145000  0.66531000  0.45885000  1.0
  C  C95  1  0.57621000  0.83490000  0.04123000  1.0
  C  C96  1  0.54853000  0.33469000  0.54115000  1.0
  C  C97  1  0.42380000  0.16511000  0.95877000  1.0
  C  C98  1  0.63341000  0.61576000  0.48417000  1.0
  C  C99  1  0.73394000  0.88444000  0.01589000  1.0
  C  C100  1  0.36657000  0.38424000  0.51583000  1.0
  C  C101  1  0.26607000  0.11557000  0.98410000  1.0
  C  C102  1  0.61797000  0.57688000  0.54938000  1.0
  C  C103  1  0.74480000  0.92330000  0.95067000  1.0
  C  C104  1  0.38201000  0.42312000  0.45062000  1.0
  C  C105  1  0.25520000  0.07671000  0.04932000  1.0
  C  C106  1  0.46788000  0.70582000  0.38932000  1.0
  C  C107  1  0.56355000  0.79426000  0.11074000  1.0
  C  C108  1  0.53211000  0.29418000  0.61068000  1.0
  C  C109  1  0.43648000  0.20575000  0.88925000  1.0
  O  O110  1  0.12343000  0.89531000  0.81883000  1.0
  O  O111  1  0.83676000  0.60461000  0.68119000  1.0
  O  O112  1  0.87659000  0.10469000  0.18117000  1.0
  O  O113  1  0.16325000  0.39538000  0.31881000  1.0
  O  O114  1  0.99342000  0.11435000  0.84284000  1.0
  O  O115  1  0.95060000  0.38564000  0.65727000  1.0
  O  O116  1  0.00659000  0.88565000  0.15716000  1.0
  O  O117  1  0.04939000  0.61436000  0.34273000  1.0
  O  O118  1  0.15305000  0.89061000  0.70614000  1.0
  O  O119  1  0.74996000  0.60933000  0.79391000  1.0
  O  O120  1  0.84696000  0.10939000  0.29386000  1.0
  O  O121  1  0.25002000  0.39067000  0.20609000  1.0
  O  O122  1  0.06778000  0.13454000  0.64287000  1.0
  O  O123  1  0.84499000  0.36559000  0.85721000  1.0
  O  O124  1  0.93222000  0.86546000  0.35713000  1.0
  O  O125  1  0.15501000  0.63442000  0.14278000  1.0
  O  O126  1  0.54253000  0.40249000  0.76067000  1.0
  O  O127  1  0.70549000  0.09742000  0.73945000  1.0
  O  O128  1  0.45747000  0.59751000  0.23933000  1.0
  O  O129  1  0.29451000  0.90258000  0.26056000  1.0
  O  O130  1  0.20235000  0.40262000  0.77150000  1.0
  O  O131  1  0.37641000  0.09740000  0.72837000  1.0
  O  O132  1  0.79765000  0.59738000  0.22851000  1.0
  O  O133  1  0.62361000  0.90259000  0.27162000  1.0
  O  O134  1  0.40926000  0.54665000  0.65315000  1.0
  O  O135  1  0.61010000  0.95333000  0.84681000  1.0
  O  O136  1  0.59072000  0.45335000  0.34685000  1.0
  O  O137  1  0.38985000  0.04668000  0.15319000  1.0
  O  O138  1  0.30224000  0.73026000  0.36031000  1.0
  O  O139  1  0.39331000  0.76978000  0.13969000  1.0
  O  O140  1  0.69775000  0.26973000  0.63969000  1.0
  O  O141  1  0.60672000  0.23022000  0.86030000  1.0
  O  O142  1  0.64806000  0.71533000  0.35669000  1.0
  O  O143  1  0.72064000  0.78458000  0.14337000  1.0
  O  O144  1  0.35193000  0.28467000  0.64331000  1.0
  O  O145  1  0.27939000  0.21541000  0.85662000  1.0
