# generated using pymatgen
data_CuH6(C2N)7
_symmetry_space_group_name_H-M   'P 1'
_cell_length_a   4.78881000
_cell_length_b   10.37560000
_cell_length_c   15.90360000
_cell_angle_alpha   89.99980000
_cell_angle_beta   89.99990000
_cell_angle_gamma   76.67500000
_symmetry_Int_Tables_number   1
_chemical_formula_structural   CuH6(C2N)7
_chemical_formula_sum   'Cu2 H12 C28 N14'
_cell_volume   768.92521749
_cell_formula_units_Z   2
loop_
 _symmetry_equiv_pos_site_id
 _symmetry_equiv_pos_as_xyz
  1  'x, y, z'
loop_
 _atom_site_type_symbol
 _atom_site_label
 _atom_site_symmetry_multiplicity
 _atom_site_fract_x
 _atom_site_fract_y
 _atom_site_fract_z
 _atom_site_occupancy
  Cu  Cu0  1  0.72048000  0.00008000  0.50003000  1.0
  Cu  Cu1  1  0.27952000  0.99992000  0.00003000  1.0
  H  H2  1  0.24230000  0.61493000  0.52685000  1.0
  H  H3  1  0.75769000  0.38507000  0.02685000  1.0
  H  H4  1  0.85749000  0.38505000  0.47310000  1.0
  H  H5  1  0.14252000  0.61495000  0.97310000  1.0
  H  H6  1  0.13747000  0.70594000  0.62179000  1.0
  H  H7  1  0.86252000  0.29406000  0.12179000  1.0
  H  H8  1  0.84348000  0.29406000  0.37816000  1.0
  H  H9  1  0.15652000  0.70594000  0.87816000  1.0
  H  H10  1  0.47729000  0.58886000  0.61633000  1.0
  H  H11  1  0.52270000  0.41114000  0.11633000  1.0
  H  H12  1  0.06637000  0.41113000  0.38362000  1.0
  H  H13  1  0.93363000  0.58887000  0.88362000  1.0
  C  C14  1  0.27014000  0.25363000  0.71804000  1.0
  C  C15  1  0.72986000  0.74637000  0.21804000  1.0
  C  C16  1  0.52351000  0.74623000  0.28198000  1.0
  C  C17  1  0.47648000  0.25377000  0.78198000  1.0
  C  C18  1  0.27245000  0.11897000  0.69883000  1.0
  C  C19  1  0.72755000  0.88104000  0.19883000  1.0
  C  C20  1  0.39140000  0.88084000  0.30137000  1.0
  C  C21  1  0.60859000  0.11916000  0.80137000  1.0
  C  C22  1  0.48198000  0.03602000  0.75016000  1.0
  C  C23  1  0.51802000  0.96398000  0.25016000  1.0
  C  C24  1  0.09419000  0.36280000  0.67708000  1.0
  C  C25  1  0.90581000  0.63720000  0.17708000  1.0
  C  C26  1  0.45718000  0.63690000  0.32292000  1.0
  C  C27  1  0.54281000  0.36310000  0.82292000  1.0
  C  C28  1  0.09208000  0.07772000  0.64084000  1.0
  C  C29  1  0.90792000  0.92228000  0.14084000  1.0
  C  C30  1  0.16974000  0.92202000  0.35932000  1.0
  C  C31  1  0.83026000  0.07798000  0.85932000  1.0
  C  C32  1  0.55198000  0.89679000  0.75000000  1.0
  C  C33  1  0.44801000  0.10321000  0.25000000  1.0
  C  C34  1  0.31984000  0.66280000  0.58084000  1.0
  C  C35  1  0.68015000  0.33720000  0.08084000  1.0
  C  C36  1  0.98282000  0.33717000  0.41910000  1.0
  C  C37  1  0.01718000  0.66283000  0.91910000  1.0
  C  C38  1  0.45626000  0.76464000  0.55181000  1.0
  C  C39  1  0.54374000  0.23536000  0.05181000  1.0
  C  C40  1  0.22103000  0.23535000  0.44812000  1.0
  C  C41  1  0.77897000  0.76465000  0.94812000  1.0
  N  N42  1  0.94518000  0.44926000  0.63985000  1.0
  N  N43  1  0.05482000  0.55074000  0.13985000  1.0
  N  N44  1  0.39542000  0.55030000  0.36024000  1.0
  N  N45  1  0.60458000  0.44970000  0.86024000  1.0
  N  N46  1  0.93547000  0.04548000  0.59315000  1.0
  N  N47  1  0.06453000  0.95453000  0.09315000  1.0
  N  N48  1  0.98067000  0.95451000  0.40690000  1.0
  N  N49  1  0.01934000  0.04549000  0.90690000  1.0
  N  N50  1  0.61041000  0.78085000  0.74965000  1.0
  N  N51  1  0.38958000  0.21915000  0.24966000  1.0
  N  N52  1  0.56540000  0.84750000  0.52888000  1.0
  N  N53  1  0.43459000  0.15250000  0.02888000  1.0
  N  N54  1  0.41302000  0.15254000  0.47104000  1.0
  N  N55  1  0.58698000  0.84746000  0.97104000  1.0
