# generated using pymatgen
data_MgH10C8S2(N2O3)2
_symmetry_space_group_name_H-M   'P 1'
_cell_length_a   7.02707000
_cell_length_b   12.28110000
_cell_length_c   12.31230000
_cell_angle_alpha   87.54790000
_cell_angle_beta   75.53420000
_cell_angle_gamma   76.04770000
_symmetry_Int_Tables_number   1
_chemical_formula_structural   MgH10C8S2(N2O3)2
_chemical_formula_sum   'Mg2 H20 C16 S4 N8 O12'
_cell_volume   998.34014022
_cell_formula_units_Z   2
loop_
 _symmetry_equiv_pos_site_id
 _symmetry_equiv_pos_as_xyz
  1  'x, y, z'
loop_
 _atom_site_type_symbol
 _atom_site_label
 _atom_site_symmetry_multiplicity
 _atom_site_fract_x
 _atom_site_fract_y
 _atom_site_fract_z
 _atom_site_occupancy
  Mg  Mg0  1  0.48491000  0.00815000  0.99497000  1.0
  Mg  Mg1  1  0.76348000  0.50510000  0.49077000  1.0
  H  H2  1  0.33380000  0.03072000  0.24193000  1.0
  H  H3  1  0.85167000  0.92837000  0.94350000  1.0
  H  H4  1  0.62239000  0.98377000  0.74993000  1.0
  H  H5  1  0.77770000  0.95932000  0.07102000  1.0
  H  H6  1  0.67461000  0.76070000  0.01244000  1.0
  H  H7  1  0.08746000  0.98013000  0.99687000  1.0
  H  H8  1  0.43375000  0.25230000  0.97525000  1.0
  H  H9  1  0.26353000  0.87096000  0.98560000  1.0
  H  H10  1  0.62332000  0.75035000  0.51660000  1.0
  H  H11  1  0.46903000  0.42412000  0.54166000  1.0
  H  H12  1  0.91649000  0.25834000  0.46980000  1.0
  H  H13  1  0.40291000  0.55102000  0.57518000  1.0
  H  H14  1  0.81471000  0.52482000  0.24678000  1.0
  H  H15  1  0.98010000  0.53361000  0.62323000  1.0
  H  H16  1  0.58048000  0.48670000  0.73919000  1.0
  H  H17  1  0.16127000  0.50808000  0.51595000  1.0
  H  H18  1  0.12341000  0.35967000  0.13898000  1.0
  H  H19  1  0.62381000  0.65136000  0.84776000  1.0
  H  H20  1  0.53481000  0.85981000  0.35182000  1.0
  H  H21  1  0.71974000  0.14699000  0.64070000  1.0
  C  C22  1  0.24188000  0.18670000  0.17753000  1.0
  C  C23  1  0.63441000  0.82420000  0.80761000  1.0
  C  C24  1  0.59562000  0.82211000  0.17494000  1.0
  C  C25  1  0.57601000  0.18801000  0.81648000  1.0
  C  C26  1  0.61217000  0.69218000  0.67573000  1.0
  C  C27  1  0.00647000  0.32185000  0.31269000  1.0
  C  C28  1  0.67427000  0.68365000  0.31122000  1.0
  C  C29  1  0.66084000  0.32405000  0.67826000  1.0
  C  C30  1  0.12468000  0.12904000  0.37116000  1.0
  C  C31  1  0.12367000  0.29588000  0.20311000  1.0
  C  C32  1  0.62291000  0.88360000  0.61675000  1.0
  C  C33  1  0.62378000  0.71558000  0.78389000  1.0
  C  C34  1  0.75654000  0.62689000  0.11377000  1.0
  C  C35  1  0.59232000  0.79503000  0.28623000  1.0
  C  C36  1  0.49591000  0.38538000  0.87319000  1.0
  C  C37  1  0.66166000  0.21268000  0.70537000  1.0
  S  S38  1  0.12544000  0.03224000  0.46849000  1.0
  S  S39  1  0.62331000  0.98058000  0.52002000  1.0
  S  S40  1  0.85776000  0.53077000  0.01263000  1.0
  S  S41  1  0.39302000  0.48673000  0.96904000  1.0
  N  N42  1  0.23851000  0.10894000  0.26231000  1.0
  N  N43  1  0.63103000  0.90260000  0.72467000  1.0
  N  N44  1  0.67294000  0.73722000  0.09441000  1.0
  N  N45  1  0.50045000  0.27435000  0.89516000  1.0
  N  N46  1  0.61451000  0.77545000  0.59765000  1.0
  N  N47  1  0.01056000  0.23755000  0.39097000  1.0
  N  N48  1  0.74992000  0.60496000  0.22483000  1.0
  N  N49  1  0.58269000  0.40461000  0.76307000  1.0
  O  O50  1  0.35576000  0.15311000  0.07974000  1.0
  O  O51  1  0.64497000  0.85720000  0.90430000  1.0
  O  O52  1  0.53568000  0.92331000  0.14031000  1.0
  O  O53  1  0.56087000  0.08908000  0.85006000  1.0
  O  O54  1  0.60242000  0.59506000  0.64254000  1.0
  O  O55  1  0.89329000  0.41963000  0.34625000  1.0
  O  O56  1  0.68575000  0.65004000  0.41023000  1.0
  O  O57  1  0.72335000  0.35853000  0.57721000  1.0
  O  O58  1  0.84450000  0.98663000  0.99793000  1.0
  O  O59  1  0.23514000  0.95219000  0.99245000  1.0
  O  O60  1  0.40994000  0.49853000  0.51503000  1.0
  O  O61  1  0.01168000  0.51948000  0.54285000  1.0
