# generated using pymatgen
data_AlH7C16N2O13
_symmetry_space_group_name_H-M   'P 1'
_cell_length_a   6.62112000
_cell_length_b   23.56920000
_cell_length_c   26.26930000
_cell_angle_alpha   101.62100000
_cell_angle_beta   89.99960000
_cell_angle_gamma   89.99870000
_symmetry_Int_Tables_number   1
_chemical_formula_structural   AlH7C16N2O13
_chemical_formula_sum   'Al4 H28 C64 N8 O52'
_cell_volume   4015.41003071
_cell_formula_units_Z   4
loop_
 _symmetry_equiv_pos_site_id
 _symmetry_equiv_pos_as_xyz
  1  'x, y, z'
loop_
 _atom_site_type_symbol
 _atom_site_label
 _atom_site_symmetry_multiplicity
 _atom_site_fract_x
 _atom_site_fract_y
 _atom_site_fract_z
 _atom_site_occupancy
  Al  Al0  1  0.24496000  0.74945000  0.74906000  1.0
  Al  Al1  1  0.74861000  0.25195000  0.25215000  1.0
  Al  Al2  1  0.74496000  0.75055000  0.75094000  1.0
  Al  Al3  1  0.24861000  0.24805000  0.24785000  1.0
  H  H4  1  0.73236000  0.49114000  0.43352000  1.0
  H  H5  1  0.27183000  0.50701000  0.56786000  1.0
  H  H6  1  0.23228000  0.00886000  0.06648000  1.0
  H  H7  1  0.77172000  0.99301000  0.93212000  1.0
  H  H8  1  0.72072000  0.57074000  0.51193000  1.0
  H  H9  1  0.28398000  0.42753000  0.48939000  1.0
  H  H10  1  0.22067000  0.92925000  0.98807000  1.0
  H  H11  1  0.78385000  0.07249000  0.01060000  1.0
  H  H12  1  0.63326000  0.29212000  0.07474000  1.0
  H  H13  1  0.36783000  0.70895000  0.92877000  1.0
  H  H14  1  0.13324000  0.20786000  0.42525000  1.0
  H  H15  1  0.86786000  0.79106000  0.57124000  1.0
  H  H16  1  0.39402000  0.45856000  0.12542000  1.0
  H  H17  1  0.74865000  0.51116000  0.91668000  1.0
  H  H18  1  0.89405000  0.04142000  0.37456000  1.0
  H  H19  1  0.24864000  0.98884000  0.58332000  1.0
  H  H20  1  0.69701000  0.56221000  0.08552000  1.0
  H  H21  1  0.29690000  0.43472000  0.91184000  1.0
  H  H22  1  0.19705000  0.93778000  0.41448000  1.0
  H  H23  1  0.79691000  0.06529000  0.58815000  1.0
  H  H24  1  0.64590000  0.59969000  0.00784000  1.0
  H  H25  1  0.35269000  0.39988000  0.99160000  1.0
  H  H26  1  0.14592000  0.90031000  0.49217000  1.0
  H  H27  1  0.85272000  0.10011000  0.50839000  1.0
  H  H28  1  0.49713000  0.67357000  0.73682000  1.0
  H  H29  1  0.48848000  0.32493000  0.27253000  1.0
  H  H30  1  0.99711000  0.82643000  0.76313000  1.0
  H  H31  1  0.98850000  0.17507000  0.22747000  1.0
  C  C32  1  0.49299000  0.82852000  0.82506000  1.0
  C  C33  1  0.50430000  0.17350000  0.17325000  1.0
  C  C34  1  0.99302000  0.67148000  0.67494000  1.0
  C  C35  1  0.00432000  0.32651000  0.32675000  1.0
  C  C36  1  0.49559000  0.80832000  0.68402000  1.0
  C  C37  1  0.49929000  0.18771000  0.31270000  1.0
  C  C38  1  0.99559000  0.69168000  0.81599000  1.0
  C  C39  1  0.99927000  0.31229000  0.18730000  1.0
  C  C40  1  0.84264000  0.33884000  0.10813000  1.0
  C  C41  1  0.15284000  0.66482000  0.89593000  1.0
  C  C42  1  0.34266000  0.16115000  0.39187000  1.0
  C  C43  1  0.65285000  0.83519000  0.60408000  1.0
  C  C44  1  0.83027000  0.37688000  0.07197000  1.0
  C  C45  1  0.16963000  0.62453000  0.92991000  1.0
  C  C46  1  0.33028000  0.12311000  0.42802000  1.0
  C  C47  1  0.66965000  0.87547000  0.57011000  1.0
  C  C48  1  0.97732000  0.41957000  0.06971000  1.0
  C  C49  1  0.02521000  0.57995000  0.92939000  1.0
  C  C50  1  0.47735000  0.08041000  0.43028000  1.0
  C  C51  1  0.52523000  0.92006000  0.57062000  1.0
  C  C52  1  0.13870000  0.42529000  0.10524000  1.0
  C  C53  1  0.86802000  0.57479000  0.89331000  1.0
  C  C54  1  0.63874000  0.07470000  0.39476000  1.0
  C  C55  1  0.36804000  0.92523000  0.60671000  1.0
  C  C56  1  0.13463000  0.39302000  0.14533000  1.0
  C  C57  1  0.86170000  0.61177000  0.85737000  1.0
  C  C58  1  0.63468000  0.10697000  0.35467000  1.0
  C  C59  1  0.36172000  0.88825000  0.64264000  1.0
  C  C60  1  0.99191000  0.34979000  0.14716000  1.0
  C  C61  1  0.00097000  0.65560000  0.85708000  1.0
  C  C62  1  0.49194000  0.15020000  0.35284000  1.0
  C  C63  1  0.50098000  0.84441000  0.64293000  1.0
  C  C64  1  0.87166000  0.51077000  0.04227000  1.0
  C  C65  1  0.12540000  0.48677000  0.95548000  1.0
  C  C66  1  0.37171000  0.98923000  0.45774000  1.0
  C  C67  1  0.62541000  0.01324000  0.54453000  1.0
  C  C68  1  0.88727000  0.55033000  0.00902000  1.0
  C  C69  1  0.11000000  0.44755000  0.98898000  1.0
  C  C70  1  0.38729000  0.94967000  0.49099000  1.0
  C  C71  1  0.61003000  0.05244000  0.51102000  1.0
  C  C72  1  0.01748000  0.53916000  0.96574000  1.0
  C  C73  1  0.98089000  0.45877000  0.03207000  1.0
  C  C74  1  0.51749000  0.96084000  0.53427000  1.0
  C  C75  1  0.48093000  0.04122000  0.46793000  1.0
  C  C76  1  0.84311000  0.53919000  0.50675000  1.0
  C  C77  1  0.16145000  0.45904000  0.49456000  1.0
  C  C78  1  0.34306000  0.96081000  0.99324000  1.0
  C  C79  1  0.66133000  0.04097000  0.00543000  1.0
  C  C80  1  0.99561000  0.54398000  0.54495000  1.0
  C  C81  1  0.00889000  0.45424000  0.45638000  1.0
  C  C82  1  0.49554000  0.95603000  0.95504000  1.0
  C  C83  1  0.50877000  0.04577000  0.04360000  1.0
  C  C84  1  0.15473000  0.50324000  0.53822000  1.0
  C  C85  1  0.84962000  0.49494000  0.46313000  1.0
  C  C86  1  0.65463000  0.99677000  0.96177000  1.0
  C  C87  1  0.34952000  0.00506000  0.03686000  1.0
  C  C88  1  0.99038000  0.58884000  0.58967000  1.0
  C  C89  1  0.01357000  0.40931000  0.41172000  1.0
  C  C90  1  0.49032000  0.91116000  0.91032000  1.0
  C  C91  1  0.51345000  0.09069000  0.08827000  1.0
  C  C92  1  0.01323000  0.37099000  0.37293000  1.0
  C  C93  1  0.98956000  0.62699000  0.62858000  1.0
  C  C94  1  0.51320000  0.12902000  0.12706000  1.0
  C  C95  1  0.48951000  0.87301000  0.87141000  1.0
  N  N96  1  0.66106000  0.37010000  0.03694000  1.0
  N  N97  1  0.34101000  0.62942000  0.96340000  1.0
  N  N98  1  0.16107000  0.12988000  0.46305000  1.0
  N  N99  1  0.84104000  0.87058000  0.53661000  1.0
  N  N100  1  0.27943000  0.40944000  0.18791000  1.0
  N  N101  1  0.69865000  0.60080000  0.81803000  1.0
  N  N102  1  0.77949000  0.09055000  0.31209000  1.0
  N  N103  1  0.19866000  0.89922000  0.68199000  1.0
  O  O104  1  0.66423000  0.79741000  0.70228000  1.0
  O  O105  1  0.33191000  0.19674000  0.29269000  1.0
  O  O106  1  0.16422000  0.70260000  0.79773000  1.0
  O  O107  1  0.83188000  0.30325000  0.20731000  1.0
  O  O108  1  0.32316000  0.81084000  0.80537000  1.0
  O  O109  1  0.67142000  0.19238000  0.19406000  1.0
  O  O110  1  0.82318000  0.68916000  0.69463000  1.0
  O  O111  1  0.17143000  0.30762000  0.30594000  1.0
  O  O112  1  0.32219000  0.79393000  0.69762000  1.0
  O  O113  1  0.67129000  0.20670000  0.30321000  1.0
  O  O114  1  0.82220000  0.70608000  0.80238000  1.0
  O  O115  1  0.17128000  0.29331000  0.19680000  1.0
  O  O116  1  0.16666000  0.68873000  0.69231000  1.0
  O  O117  1  0.82853000  0.31015000  0.31034000  1.0
  O  O118  1  0.66666667  0.81126000  0.80769000  1.0
  O  O119  1  0.32852000  0.18986000  0.18966000  1.0
  O  O120  1  0.49559000  0.71540000  0.74775000  1.0
  O  O121  1  0.49620000  0.28512000  0.25362000  1.0
  O  O122  1  0.99558000  0.78460000  0.75225000  1.0
  O  O123  1  0.99621000  0.21488000  0.24638000  1.0
  O  O124  1  0.71961000  0.29373000  0.10645000  1.0
  O  O125  1  0.27223000  0.71062000  0.89916000  1.0
  O  O126  1  0.21962000  0.20625000  0.39354000  1.0
  O  O127  1  0.77224000  0.78939000  0.60085000  1.0
  O  O128  1  0.56065000  0.32337000  0.02956000  1.0
  O  O129  1  0.61264000  0.41043000  0.01520000  1.0
  O  O130  1  0.38838000  0.58854000  0.98487000  1.0
  O  O131  1  0.44800000  0.67509000  0.97022000  1.0
  O  O132  1  0.06063000  0.17661000  0.47043000  1.0
  O  O133  1  0.11267000  0.08956000  0.48480000  1.0
  O  O134  1  0.88839000  0.91147000  0.51514000  1.0
  O  O135  1  0.94802000  0.82492000  0.52979000  1.0
  O  O136  1  0.28436000  0.46389000  0.10091000  1.0
  O  O137  1  0.72076000  0.53420000  0.89024000  1.0
  O  O138  1  0.78440000  0.03610000  0.39908000  1.0
  O  O139  1  0.22076000  0.96581000  0.60977000  1.0
  O  O140  1  0.45188000  0.42529000  0.17598000  1.0
  O  O141  1  0.22555000  0.40922000  0.23263000  1.0
  O  O142  1  0.74882000  0.58010000  0.77283000  1.0
  O  O143  1  0.52534000  0.61198000  0.83407000  1.0
  O  O144  1  0.95192000  0.07468000  0.32401000  1.0
  O  O145  1  0.72564000  0.09079000  0.26737000  1.0
  O  O146  1  0.24883000  0.91991000  0.72719000  1.0
  O  O147  1  0.02535000  0.88802000  0.66595000  1.0
  O  O148  1  0.75002000  0.52314000  0.08498000  1.0
  O  O149  1  0.24758000  0.47425000  0.91293000  1.0
  O  O150  1  0.25008000  0.97685000  0.41502000  1.0
  O  O151  1  0.74758000  0.02576000  0.58708000  1.0
  O  O152  1  0.78356000  0.60192000  0.02324000  1.0
  O  O153  1  0.21655000  0.39624000  0.97559000  1.0
  O  O154  1  0.28359000  0.89808000  0.47677000  1.0
  O  O155  1  0.71659000  0.10376000  0.52440000  1.0
