# generated using pymatgen
data_Sn2H3C7NO5
_symmetry_space_group_name_H-M   'P 1'
_cell_length_a   6.60892000
_cell_length_b   7.59946420
_cell_length_c   20.27990000
_cell_angle_alpha   92.07169871
_cell_angle_beta   90.00490000
_cell_angle_gamma   115.71218961
_symmetry_Int_Tables_number   1
_chemical_formula_structural   Sn2H3C7NO5
_chemical_formula_sum   'Sn8 H12 C28 N4 O20'
_cell_volume   916.95101942
_cell_formula_units_Z   4
loop_
 _symmetry_equiv_pos_site_id
 _symmetry_equiv_pos_as_xyz
  1  'x, y, z'
loop_
 _atom_site_type_symbol
 _atom_site_label
 _atom_site_symmetry_multiplicity
 _atom_site_fract_x
 _atom_site_fract_y
 _atom_site_fract_z
 _atom_site_occupancy
  Sn  Sn0  1  0.25083000  0.52363000  0.43949000  1.0
  Sn  Sn1  1  0.72672000  0.47602000  0.06058000  1.0
  Sn  Sn2  1  0.74921000  0.47643000  0.56052000  1.0
  Sn  Sn3  1  0.27323000  0.52399000  0.93939000  1.0
  Sn  Sn4  1  0.26988000  0.95368000  0.04309000  1.0
  Sn  Sn5  1  0.31683000  0.04711000  0.45693000  1.0
  Sn  Sn6  1  0.73007000  0.04632000  0.95692000  1.0
  Sn  Sn7  1  0.68321000  0.95291000  0.54306000  1.0
  H  H8  1  0.94468000  0.76211000  0.27291000  1.0
  H  H9  1  0.18239000  0.23689000  0.22703000  1.0
  H  H10  1  0.05535000  0.23789000  0.72709000  1.0
  H  H11  1  0.81759000  0.76313000  0.77296000  1.0
  H  H12  1  0.76187000  0.83183000  0.17698000  1.0
  H  H13  1  0.93050000  0.16760000  0.32301000  1.0
  H  H14  1  0.23813000  0.16813000  0.82302000  1.0
  H  H15  1  0.06949000  0.83243000  0.67698000  1.0
  H  H16  1  0.16815000  0.67512000  0.29423000  1.0
  H  H17  1  0.49297000  0.32440000  0.20586000  1.0
  H  H18  1  0.83187000  0.32486000  0.70578000  1.0
  H  H19  1  0.50701000  0.67561000  0.79413000  1.0
  C  C20  1  0.65146000  0.67868000  0.33376000  1.0
  C  C21  1  0.97252000  0.32063000  0.16625000  1.0
  C  C22  1  0.34858000  0.32133000  0.66625000  1.0
  C  C23  1  0.02745000  0.67937000  0.83374000  1.0
  C  C24  1  0.77262000  0.74298000  0.27635000  1.0
  C  C25  1  0.02962000  0.25625000  0.22361000  1.0
  C  C26  1  0.22741000  0.25702000  0.72366000  1.0
  C  C27  1  0.97036000  0.74376000  0.77639000  1.0
  C  C28  1  0.67045000  0.78252000  0.22249000  1.0
  C  C29  1  0.88826000  0.21692000  0.27750000  1.0
  C  C30  1  0.32957000  0.21745000  0.77751000  1.0
  C  C31  1  0.11172000  0.78309000  0.72249000  1.0
  C  C32  1  0.45056000  0.76113000  0.22794000  1.0
  C  C33  1  0.68978000  0.23842000  0.27210000  1.0
  C  C34  1  0.54945000  0.23883000  0.77206000  1.0
  C  C35  1  0.31020000  0.76159000  0.72790000  1.0
  C  C36  1  0.33997000  0.69524000  0.28729000  1.0
  C  C37  1  0.64469000  0.30428000  0.21278000  1.0
  C  C38  1  0.66006000  0.30475000  0.71272000  1.0
  C  C39  1  0.35529000  0.69572000  0.78721000  1.0
  C  C40  1  0.75165000  0.62843000  0.39288000  1.0
  C  C41  1  0.12268000  0.37097000  0.10707000  1.0
  C  C42  1  0.24837000  0.37157000  0.60713000  1.0
  C  C43  1  0.87727000  0.62901000  0.89292000  1.0
  C  C44  1  0.33375000  0.81183000  0.17327000  1.0
  C  C45  1  0.52246000  0.18803000  0.32679000  1.0
  C  C46  1  0.66625000  0.18811000  0.82673000  1.0
  C  C47  1  0.47755000  0.81202000  0.67321000  1.0
  N  N48  1  0.43773000  0.65501000  0.33844000  1.0
  N  N49  1  0.78246000  0.34450000  0.16162000  1.0
  N  N50  1  0.56231000  0.34500000  0.66157000  1.0
  N  N51  1  0.21751000  0.65549000  0.83837000  1.0
  O  O52  1  0.61789000  0.55333000  0.44137000  1.0
  O  O53  1  0.06385000  0.44619000  0.05862000  1.0
  O  O54  1  0.38217000  0.44669000  0.55864000  1.0
  O  O55  1  0.93611000  0.55377000  0.94137000  1.0
  O  O56  1  0.95479000  0.66154000  0.39182000  1.0
  O  O57  1  0.29276000  0.33778000  0.10811000  1.0
  O  O58  1  0.04524000  0.33847000  0.60818000  1.0
  O  O59  1  0.70721000  0.66222000  0.89189000  1.0
  O  O60  1  0.13169000  0.77755000  0.17892000  1.0
  O  O61  1  0.35463000  0.22232000  0.32102000  1.0
  O  O62  1  0.86832000  0.22240000  0.82110000  1.0
  O  O63  1  0.64537000  0.77773000  0.67899000  1.0
  O  O64  1  0.45738000  0.89074000  0.12317000  1.0
  O  O65  1  0.56741000  0.10946000  0.37700000  1.0
  O  O66  1  0.54258000  0.10919000  0.87682000  1.0
  O  O67  1  0.43255000  0.89057000  0.62300000  1.0
  O  O68  1  0.39379000  0.81010000  0.47856000  1.0
  O  O69  1  0.58367000  0.18987000  0.02132000  1.0
  O  O70  1  0.60627000  0.18996000  0.52144000  1.0
  O  O71  1  0.41629000  0.81010000  0.97868000  1.0
