# generated using pymatgen
data_NiH16C18(NO)6
_symmetry_space_group_name_H-M   'P 1'
_cell_length_a   10.09600000
_cell_length_b   10.38280000
_cell_length_c   12.08228861
_cell_angle_alpha   89.99867838
_cell_angle_beta   66.67272134
_cell_angle_gamma   89.99720000
_symmetry_Int_Tables_number   1
_chemical_formula_structural   NiH16C18(NO)6
_chemical_formula_sum   'Ni2 H32 C36 N12 O12'
_cell_volume   1162.99470007
_cell_formula_units_Z   2
loop_
 _symmetry_equiv_pos_site_id
 _symmetry_equiv_pos_as_xyz
  1  'x, y, z'
loop_
 _atom_site_type_symbol
 _atom_site_label
 _atom_site_symmetry_multiplicity
 _atom_site_fract_x
 _atom_site_fract_y
 _atom_site_fract_z
 _atom_site_occupancy
  Ni  Ni0  1  0.50000000  0.00000000  0.50000000  1.0
  Ni  Ni1  1  1.00000000  0.50000000  0.00000000  1.0
  H  H2  1  0.75074000  0.14362000  0.34837000  1.0
  H  H3  1  0.74927000  0.64364000  0.15163000  1.0
  H  H4  1  0.24924000  0.85636000  0.65164000  1.0
  H  H5  1  0.25074000  0.35636000  0.84835000  1.0
  H  H6  1  0.59352000  0.51091000  0.28795000  1.0
  H  H7  1  0.90647000  0.01092000  0.21205000  1.0
  H  H8  1  0.40646000  0.48908000  0.71207000  1.0
  H  H9  1  0.09352000  0.98908000  0.78794000  1.0
  H  H10  1  0.31073000  0.21995000  0.51608000  1.0
  H  H11  1  0.18929000  0.71996000  0.98391000  1.0
  H  H12  1  0.68926000  0.78006000  0.48394000  1.0
  H  H13  1  0.81072000  0.28005000  0.01608000  1.0
  H  H14  1  0.40449000  0.63190000  0.33810000  1.0
  H  H15  1  0.09550000  0.13191000  0.16190000  1.0
  H  H16  1  0.59550000  0.36808000  0.66187000  1.0
  H  H17  1  0.90450000  0.86808000  0.83812000  1.0
  H  H18  1  0.13640000  0.72705000  0.46909000  1.0
  H  H19  1  0.36357000  0.22704000  0.03093000  1.0
  H  H20  1  0.86360000  0.27294000  0.53089000  1.0
  H  H21  1  0.63642000  0.77296000  0.96909000  1.0
  H  H22  1  0.99917000  0.52878000  0.62629000  1.0
  H  H23  1  0.50083000  0.02877000  0.87372000  1.0
  H  H24  1  0.00083000  0.47127000  0.37372000  1.0
  H  H25  1  0.49917000  0.97126000  0.12628000  1.0
  H  H26  1  0.70214000  0.99514000  0.65940000  1.0
  H  H27  1  0.79791000  0.49512000  0.84058000  1.0
  H  H28  1  0.29786000  0.00484000  0.34061000  1.0
  H  H29  1  0.20211000  0.50486000  0.15940000  1.0
  H  H30  1  0.61518000  0.11703000  0.65233000  1.0
  H  H31  1  0.88482000  0.61703000  0.84765000  1.0
  H  H32  1  0.38482000  0.88295000  0.34768000  1.0
  H  H33  1  0.11518000  0.38296000  0.15233000  1.0
  C  C34  1  0.66321000  0.21043000  0.36171000  1.0
  C  C35  1  0.83680000  0.71045000  0.13828000  1.0
  C  C36  1  0.33678000  0.78958000  0.63830000  1.0
  C  C37  1  0.16321000  0.28957000  0.86171000  1.0
  C  C38  1  0.68817000  0.32970000  0.30435000  1.0
  C  C39  1  0.81184000  0.82972000  0.19563000  1.0
  C  C40  1  0.31182000  0.67030000  0.69566000  1.0
  C  C41  1  0.18817000  0.17029000  0.80435000  1.0
  C  C42  1  0.57444000  0.41634000  0.33000000  1.0
  C  C43  1  0.92557000  0.91635000  0.16999000  1.0
  C  C44  1  0.42555000  0.58366000  0.67001000  1.0
  C  C45  1  0.07444000  0.08366000  0.82999000  1.0
  C  C46  1  0.43764000  0.37907000  0.41199000  1.0
  C  C47  1  0.06237000  0.87908000  0.08801000  1.0
  C  C48  1  0.56236000  0.62092000  0.58801000  1.0
  C  C49  1  0.93764000  0.12093000  0.91198000  1.0
  C  C50  1  0.41759000  0.25369000  0.45811000  1.0
  C  C51  1  0.08243000  0.75370000  0.04188000  1.0
  C  C52  1  0.58241000  0.74630000  0.54190000  1.0
  C  C53  1  0.91758000  0.24631000  0.95811000  1.0
  C  C54  1  0.31334000  0.58603000  0.40833000  1.0
  C  C55  1  0.18664000  0.08603000  0.09166000  1.0
  C  C56  1  0.68666000  0.41396000  0.59167000  1.0
  C  C57  1  0.81337000  0.91397000  0.90833000  1.0
  C  C58  1  0.17718000  0.63223000  0.47635000  1.0
  C  C59  1  0.32280000  0.13224000  0.02364000  1.0
  C  C60  1  0.82283000  0.36778000  0.52367000  1.0
  C  C61  1  0.67720000  0.86778000  0.97635000  1.0
  C  C62  1  0.10784000  0.53093000  0.55711000  1.0
  C  C63  1  0.39216000  0.03093000  0.94289000  1.0
  C  C64  1  0.89217000  0.46910000  0.44291000  1.0
  C  C65  1  0.60785000  0.96910000  0.05710000  1.0
  C  C66  1  0.83780000  0.35904000  0.21407000  1.0
  C  C67  1  0.66221000  0.85905000  0.28593000  1.0
  C  C68  1  0.16218000  0.64095000  0.78595000  1.0
  C  C69  1  0.33781000  0.14095000  0.71405000  1.0
  N  N70  1  0.52926000  0.17187000  0.43379000  1.0
  N  N71  1  0.97076000  0.67188000  0.06620000  1.0
  N  N72  1  0.47071000  0.82813000  0.56624000  1.0
  N  N73  1  0.02926000  0.32812000  0.93378000  1.0
  N  N74  1  0.31976000  0.46363000  0.44920000  1.0
  N  N75  1  0.18023000  0.96363000  0.05081000  1.0
  N  N76  1  0.68023000  0.53636000  0.55080000  1.0
  N  N77  1  0.81977000  0.03637000  0.94920000  1.0
  N  N78  1  0.19336000  0.42875000  0.54142000  1.0
  N  N79  1  0.30665000  0.92874000  0.95859000  1.0
  N  N80  1  0.80663000  0.57127000  0.45860000  1.0
  N  N81  1  0.69337000  0.07127000  0.04140000  1.0
  O  O82  1  0.83852000  0.44672000  0.13715000  1.0
  O  O83  1  0.66149000  0.94672000  0.36287000  1.0
  O  O84  1  0.16148000  0.55327000  0.86286000  1.0
  O  O85  1  0.33850000  0.05328000  0.63713000  1.0
  O  O86  1  0.94417000  0.29886000  0.21554000  1.0
  O  O87  1  0.55585000  0.79888000  0.28445000  1.0
  O  O88  1  0.05582000  0.70113000  0.78448000  1.0
  O  O89  1  0.44417000  0.20109000  0.71554000  1.0
  O  O90  1  0.71096000  0.07516000  0.61541000  1.0
  O  O91  1  0.78905000  0.57516000  0.88456000  1.0
  O  O92  1  0.28904000  0.92482000  0.38461000  1.0
  O  O93  1  0.21094000  0.42484000  0.11541000  1.0
