# generated using pymatgen
data_KCu6H12C18I(N3O2)6
_symmetry_space_group_name_H-M   'P 1'
_cell_length_a   10.17420000
_cell_length_b   13.07820000
_cell_length_c   13.12000000
_cell_angle_alpha   89.92780000
_cell_angle_beta   80.90350000
_cell_angle_gamma   69.71350000
_symmetry_Int_Tables_number   1
_chemical_formula_structural   KCu6H12C18I(N3O2)6
_chemical_formula_sum   'K2 Cu12 H24 C36 I2 N36 O24'
_cell_volume   1614.16346404
_cell_formula_units_Z   2
loop_
 _symmetry_equiv_pos_site_id
 _symmetry_equiv_pos_as_xyz
  1  'x, y, z'
loop_
 _atom_site_type_symbol
 _atom_site_label
 _atom_site_symmetry_multiplicity
 _atom_site_fract_x
 _atom_site_fract_y
 _atom_site_fract_z
 _atom_site_occupancy
  K  K0  1  0.20228000  0.94263000  0.47468000  1.0
  K  K1  1  0.79772000  0.05737000  0.52532000  1.0
  Cu  Cu2  1  0.34180000  0.33905000  0.77805000  1.0
  Cu  Cu3  1  0.65820000  0.66095000  0.22195000  1.0
  Cu  Cu4  1  0.36259000  0.57851000  0.88721000  1.0
  Cu  Cu5  1  0.63741000  0.42149000  0.11279000  1.0
  Cu  Cu6  1  0.35929000  0.46419000  0.13240000  1.0
  Cu  Cu7  1  0.64071000  0.53581000  0.86760000  1.0
  Cu  Cu8  1  0.33494000  0.22688000  0.02174000  1.0
  Cu  Cu9  1  0.66506000  0.77312000  0.97826000  1.0
  Cu  Cu10  1  0.00705000  0.67610000  0.05864000  1.0
  Cu  Cu11  1  0.99295000  0.32390000  0.94136000  1.0
  Cu  Cu12  1  0.00247000  0.55809000  0.82256000  1.0
  Cu  Cu13  1  0.99753000  0.44191000  0.17743000  1.0
  H  H14  1  0.34886000  0.70886000  0.68897000  1.0
  H  H15  1  0.65114000  0.29114000  0.31103000  1.0
  H  H16  1  0.33228000  0.40893000  0.55500000  1.0
  H  H17  1  0.66772000  0.59107000  0.44500000  1.0
  H  H18  1  0.35143000  0.13732000  0.64871000  1.0
  H  H19  1  0.64857000  0.86268000  0.35129000  1.0
  H  H20  1  0.32732000  0.00386000  0.95360000  1.0
  H  H21  1  0.67268000  0.99614000  0.04640000  1.0
  H  H22  1  0.33704000  0.09710000  0.21945000  1.0
  H  H23  1  0.66296000  0.90290000  0.78055000  1.0
  H  H24  1  0.34939000  0.39642000  0.35759000  1.0
  H  H25  1  0.65061000  0.60358000  0.64241000  1.0
  H  H26  1  0.34690000  0.66581000  0.26108000  1.0
  H  H27  1  0.65310000  0.33419000  0.73892000  1.0
  H  H28  1  0.34911000  0.80612000  0.95855000  1.0
  H  H29  1  0.65089000  0.19388000  0.04145000  1.0
  H  H30  1  0.00513000  0.48434000  0.59795000  1.0
  H  H31  1  0.99487000  0.51566000  0.40205000  1.0
  H  H32  1  0.99700000  0.18719000  0.74656000  1.0
  H  H33  1  0.00300000  0.81281000  0.25344000  1.0
  H  H34  1  0.00532000  0.90114000  0.98375000  1.0
  H  H35  1  0.99468000  0.09886000  0.01625000  1.0
  H  H36  1  0.00108000  0.75221000  0.68727000  1.0
  H  H37  1  0.99892000  0.24779000  0.31273000  1.0
  C  C38  1  0.34748000  0.62776000  0.67301000  1.0
  C  C39  1  0.65252000  0.37224000  0.32699000  1.0
  C  C40  1  0.33569000  0.57921000  0.58084000  1.0
  C  C41  1  0.66431000  0.42079000  0.41915000  1.0
  C  C42  1  0.33750000  0.47379000  0.60402000  1.0
  C  C43  1  0.66250000  0.52621000  0.39598000  1.0
  C  C44  1  0.34570000  0.12195000  0.73044000  1.0
  C  C45  1  0.65430000  0.87806000  0.26956000  1.0
  C  C46  1  0.33579000  0.03000000  0.78240000  1.0
  C  C47  1  0.66421000  0.97000000  0.21760000  1.0
  C  C48  1  0.33256000  0.05324000  0.88757000  1.0
  C  C49  1  0.66744000  0.94676000  0.11243000  1.0
  C  C50  1  0.34151000  0.17714000  0.23600000  1.0
  C  C51  1  0.65849000  0.82286000  0.76400000  1.0
  C  C52  1  0.34122000  0.22809000  0.33046000  1.0
  C  C53  1  0.65878000  0.77191000  0.66954000  1.0
  C  C54  1  0.34791000  0.33122000  0.30721000  1.0
  C  C55  1  0.65209000  0.66878000  0.69279000  1.0
  C  C56  1  0.35203000  0.68209000  0.17958000  1.0
  C  C57  1  0.64797000  0.31790000  0.82042000  1.0
  C  C58  1  0.34344000  0.77900000  0.12964000  1.0
  C  C59  1  0.65656000  0.22100000  0.87036000  1.0
  C  C60  1  0.35270000  0.75466000  0.02378000  1.0
  C  C61  1  0.64730000  0.24534000  0.97622000  1.0
  C  C62  1  0.00303000  0.42065000  0.65060000  1.0
  C  C63  1  0.99697000  0.57935000  0.34940000  1.0
  C  C64  1  0.00310000  0.31488000  0.63130000  1.0
  C  C65  1  0.99690000  0.68512000  0.36870000  1.0
  C  C66  1  0.99848000  0.26777000  0.72755000  1.0
  C  C67  1  0.00152000  0.73223000  0.27245000  1.0
  C  C68  1  0.00457000  0.84835000  0.92030000  1.0
  C  C69  1  0.99543000  0.15165000  0.07970000  1.0
  C  C70  1  0.00280000  0.86750000  0.81495000  1.0
  C  C71  1  0.99720000  0.13250000  0.18505000  1.0
  C  C72  1  0.00294000  0.77115000  0.76757000  1.0
  C  C73  1  0.99706000  0.22885000  0.23243000  1.0
  I  I74  1  0.20741000  0.44472000  0.97376000  1.0
  I  I75  1  0.79259000  0.55528000  0.02624000  1.0
  N  N76  1  0.34968000  0.46049000  0.70358000  1.0
  N  N77  1  0.65032000  0.53951000  0.29642000  1.0
  N  N78  1  0.35569000  0.55571000  0.74624000  1.0
  N  N79  1  0.64431000  0.44428000  0.25376000  1.0
  N  N80  1  0.32642000  0.62614000  0.48470000  1.0
  N  N81  1  0.67358000  0.37386000  0.51530000  1.0
  N  N82  1  0.36380000  0.65024000  0.01166000  1.0
  N  N83  1  0.63620000  0.34976000  0.98834000  1.0
  N  N84  1  0.36344000  0.60544000  0.10780000  1.0
  N  N85  1  0.63656000  0.39456000  0.89220000  1.0
  N  N86  1  0.32618000  0.88009000  0.17655000  1.0
  N  N87  1  0.67382000  0.11992000  0.82345000  1.0
  N  N88  1  0.35228000  0.34109000  0.20545000  1.0
  N  N89  1  0.64772000  0.65891000  0.79455000  1.0
  N  N90  1  0.34829000  0.24584000  0.16135000  1.0
  N  N91  1  0.65171000  0.75416000  0.83865000  1.0
  N  N92  1  0.33807000  0.18386000  0.42811000  1.0
  N  N93  1  0.66193000  0.81613000  0.57189000  1.0
  N  N94  1  0.33917000  0.15284000  0.89774000  1.0
  N  N95  1  0.66083000  0.84716000  0.10226000  1.0
  N  N96  1  0.34688000  0.19556000  0.80053000  1.0
  N  N97  1  0.65313000  0.80444000  0.19947000  1.0
  N  N98  1  0.32964000  0.93439000  0.73853000  1.0
  N  N99  1  0.67036000  0.06562000  0.26147000  1.0
  N  N100  1  0.00584000  0.74685000  0.93454000  1.0
  N  N101  1  0.99416000  0.25315000  0.06546000  1.0
  N  N102  1  0.00454000  0.69933000  0.84024000  1.0
  N  N103  1  0.99546000  0.30067000  0.15976000  1.0
  N  N104  1  0.99601000  0.34092000  0.79948000  1.0
  N  N105  1  0.00399000  0.65908000  0.20052000  1.0
  N  N106  1  0.99898000  0.43528000  0.75195000  1.0
  N  N107  1  0.00102000  0.56472000  0.24804000  1.0
  N  N108  1  0.00539000  0.26612000  0.53581000  1.0
  N  N109  1  0.99461000  0.73388000  0.46419000  1.0
  N  N110  1  0.00197000  0.96285000  0.76615000  1.0
  N  N111  1  0.99803000  0.03715000  0.23385000  1.0
  O  O112  1  0.31669000  0.57126000  0.40964000  1.0
  O  O113  1  0.68331000  0.42874000  0.59036000  1.0
  O  O114  1  0.32950000  0.72081000  0.47725000  1.0
  O  O115  1  0.67051000  0.27920000  0.52276000  1.0
  O  O116  1  0.32037000  0.95896000  0.12056000  1.0
  O  O117  1  0.67963000  0.04104000  0.87944000  1.0
  O  O118  1  0.31830000  0.88736000  0.27262000  1.0
  O  O119  1  0.68170000  0.11264000  0.72738000  1.0
  O  O120  1  0.33869000  0.24066000  0.50487000  1.0
  O  O121  1  0.66131000  0.75934000  0.49513000  1.0
  O  O122  1  0.33517000  0.08918000  0.43451000  1.0
  O  O123  1  0.66483000  0.91082000  0.56549000  1.0
  O  O124  1  0.31877000  0.86041000  0.79676000  1.0
  O  O125  1  0.68123000  0.13959000  0.20324000  1.0
  O  O126  1  0.33603000  0.92585000  0.64258000  1.0
  O  O127  1  0.66396000  0.07415000  0.35742000  1.0
  O  O128  1  0.00486000  0.17026000  0.53292000  1.0
  O  O129  1  0.99514000  0.82974000  0.46708000  1.0
  O  O130  1  0.00757000  0.32035000  0.45688000  1.0
  O  O131  1  0.99243000  0.67965000  0.54312000  1.0
  O  O132  1  0.99871000  0.04300000  0.82045000  1.0
  O  O133  1  0.00129000  0.95700000  0.17955000  1.0
  O  O134  1  0.00465000  0.96438000  0.67013000  1.0
  O  O135  1  0.99535000  0.03563000  0.32987000  1.0
