# generated using pymatgen
data_CuH14C15I(N3O)2
_symmetry_space_group_name_H-M   'P 1'
_cell_length_a   9.63685000
_cell_length_b   10.06530000
_cell_length_c   10.13550000
_cell_angle_alpha   101.66000000
_cell_angle_beta   96.31060000
_cell_angle_gamma   116.52300000
_symmetry_Int_Tables_number   1
_chemical_formula_structural   CuH14C15I(N3O)2
_chemical_formula_sum   'Cu2 H28 C30 I2 N12 O4'
_cell_volume   838.72300467
_cell_formula_units_Z   2
loop_
 _symmetry_equiv_pos_site_id
 _symmetry_equiv_pos_as_xyz
  1  'x, y, z'
loop_
 _atom_site_type_symbol
 _atom_site_label
 _atom_site_symmetry_multiplicity
 _atom_site_fract_x
 _atom_site_fract_y
 _atom_site_fract_z
 _atom_site_occupancy
  Cu  Cu0  1  0.59506000  0.14044000  0.59949000  1.0
  Cu  Cu1  1  0.40494000  0.85956000  0.40051000  1.0
  H  H2  1  0.22387000  0.53704000  0.66262000  1.0
  H  H3  1  0.77613000  0.46296000  0.33738000  1.0
  H  H4  1  0.99459000  0.31922000  0.47685000  1.0
  H  H5  1  0.00541000  0.68078000  0.52315000  1.0
  H  H6  1  0.00755000  0.08750000  0.36166000  1.0
  H  H7  1  0.99246000  0.91251000  0.63834000  1.0
  H  H8  1  0.24978000  0.05825000  0.42294000  1.0
  H  H9  1  0.75022000  0.94175000  0.57706000  1.0
  H  H10  1  0.60695000  0.79926000  0.76970000  1.0
  H  H11  1  0.39304000  0.20074000  0.23030000  1.0
  H  H12  1  0.75142000  0.73650000  0.80923000  1.0
  H  H13  1  0.24858000  0.26350000  0.19076000  1.0
  H  H14  1  0.62633000  0.89178000  0.02429000  1.0
  H  H15  1  0.37367000  0.10822000  0.97571000  1.0
  H  H16  1  0.81045000  0.98652000  0.97822000  1.0
  H  H17  1  0.18955000  0.01348000  0.02178000  1.0
  H  H18  1  0.84276000  0.91307000  0.19706000  1.0
  H  H19  1  0.15724000  0.08693000  0.80294000  1.0
  H  H20  1  0.71111000  0.71335000  0.10590000  1.0
  H  H21  1  0.28889000  0.28665000  0.89410000  1.0
  H  H22  1  0.15555000  0.49188000  0.33198000  1.0
  H  H23  1  0.84445000  0.50812000  0.66802000  1.0
  H  H24  1  0.91530000  0.23861000  0.20634000  1.0
  H  H25  1  0.08471000  0.76139000  0.79366000  1.0
  H  H26  1  0.70387000  0.22235000  0.03244000  1.0
  H  H27  1  0.29613000  0.77765000  0.96756000  1.0
  H  H28  1  0.72036000  0.45909000  0.97693000  1.0
  H  H29  1  0.27964000  0.54090000  0.02307000  1.0
  C  C30  1  0.35755000  0.41024000  0.64941000  1.0
  C  C31  1  0.64245000  0.58976000  0.35059000  1.0
  C  C32  1  0.22712000  0.43265000  0.61195000  1.0
  C  C33  1  0.77288000  0.56735000  0.38805000  1.0
  C  C34  1  0.10282000  0.31249000  0.50774000  1.0
  C  C35  1  0.89719000  0.68751000  0.49226000  1.0
  C  C36  1  0.11042000  0.17872000  0.44099000  1.0
  C  C37  1  0.88958000  0.82129000  0.55900000  1.0
  C  C38  1  0.24269000  0.15995000  0.47485000  1.0
  C  C39  1  0.75732000  0.84005000  0.52514000  1.0
  C  C40  1  0.36784000  0.27856000  0.58219000  1.0
  C  C41  1  0.63216000  0.72144000  0.41781000  1.0
  C  C42  1  0.65919000  0.76016000  0.84524000  1.0
  C  C43  1  0.34081000  0.23984000  0.15476000  1.0
  C  C44  1  0.72217000  0.87464000  0.98767000  1.0
  C  C45  1  0.27783000  0.12536000  0.01233000  1.0
  C  C46  1  0.79591000  0.82626000  0.09563000  1.0
  C  C47  1  0.20409000  0.17374000  0.90437000  1.0
  C  C48  1  0.07091000  0.61779000  0.22570000  1.0
  C  C49  1  0.92909000  0.38221000  0.77430000  1.0
  C  C50  1  0.06155000  0.48456000  0.25612000  1.0
  C  C51  1  0.93844000  0.51544000  0.74388000  1.0
  C  C52  1  0.92804000  0.34484000  0.18508000  1.0
  C  C53  1  0.07196000  0.65516000  0.81492000  1.0
  C  C54  1  0.80572000  0.33543000  0.08598000  1.0
  C  C55  1  0.19428000  0.66457000  0.91402000  1.0
  C  C56  1  0.81197000  0.46588000  0.05516000  1.0
  C  C57  1  0.18803000  0.53412000  0.94484000  1.0
  C  C58  1  0.94654000  0.60647000  0.12845000  1.0
  C  C59  1  0.05346000  0.39353000  0.87155000  1.0
  I  I60  1  0.38123000  0.89727000  0.66056000  1.0
  I  I61  1  0.61877000  0.10273000  0.33945000  1.0
  N  N62  1  0.50935000  0.29118000  0.64651000  1.0
  N  N63  1  0.49065000  0.70882000  0.35349000  1.0
  N  N64  1  0.58308000  0.41851000  0.75031000  1.0
  N  N65  1  0.41692000  0.58149000  0.24969000  1.0
  N  N66  1  0.49488000  0.49126000  0.75082000  1.0
  N  N67  1  0.50511000  0.50874000  0.24918000  1.0
  N  N68  1  0.99709000  0.75717000  0.12996000  1.0
  N  N69  1  0.00291000  0.24283000  0.87004000  1.0
  N  N70  1  0.14089000  0.85499000  0.21493000  1.0
  N  N71  1  0.85910000  0.14501000  0.78507000  1.0
  N  N72  1  0.18739000  0.77173000  0.27408000  1.0
  N  N73  1  0.81261000  0.22827000  0.72593000  1.0
  O  O74  1  0.53303000  0.61538000  0.86006000  1.0
  O  O75  1  0.46697000  0.38462000  0.13994000  1.0
  O  O76  1  0.92812000  0.81246000  0.04629000  1.0
  O  O77  1  0.07188000  0.18753000  0.95371000  1.0
