# generated using pymatgen
data_Zn4H36C38O13
_symmetry_space_group_name_H-M   'P 1'
_cell_length_a   17.74460000
_cell_length_b   18.62760000
_cell_length_c   23.35670000
_cell_angle_alpha   113.35320000
_cell_angle_beta   110.27860000
_cell_angle_gamma   90.09790000
_symmetry_Int_Tables_number   1
_chemical_formula_structural   Zn4H36C38O13
_chemical_formula_sum   'Zn8 H72 C76 O26'
_cell_volume   6561.23826053
_cell_formula_units_Z   2
loop_
 _symmetry_equiv_pos_site_id
 _symmetry_equiv_pos_as_xyz
  1  'x, y, z'
loop_
 _atom_site_type_symbol
 _atom_site_label
 _atom_site_symmetry_multiplicity
 _atom_site_fract_x
 _atom_site_fract_y
 _atom_site_fract_z
 _atom_site_occupancy
  Zn  Zn0  1  0.88219000  0.46858000  0.94364000  1.0
  Zn  Zn1  1  0.03105000  0.44334000  0.05338000  1.0
  Zn  Zn2  1  0.02114000  0.61132000  0.04978000  1.0
  Zn  Zn3  1  0.05978000  0.47031000  0.93308000  1.0
  Zn  Zn4  1  0.61399000  0.01955000  0.04784000  1.0
  Zn  Zn5  1  0.46891000  0.88492000  0.93840000  1.0
  Zn  Zn6  1  0.47593000  0.05266000  0.93464000  1.0
  Zn  Zn7  1  0.43426000  0.03097000  0.05248000  1.0
  H  H8  1  0.50771000  0.12190000  0.25940000  1.0
  H  H9  1  0.56518000  0.18446000  0.38506000  1.0
  H  H10  1  0.80573000  0.20217000  0.38195000  1.0
  H  H11  1  0.67942000  0.29495000  0.60886000  1.0
  H  H12  1  0.97804000  0.37437000  0.72642000  1.0
  H  H13  1  0.91744000  0.31151000  0.60083000  1.0
  H  H14  1  0.38320000  0.97225000  0.72899000  1.0
  H  H15  1  0.31471000  0.91140000  0.60361000  1.0
  H  H16  1  0.28839000  0.68272000  0.60595000  1.0
  H  H17  1  0.20146000  0.80777000  0.38929000  1.0
  H  H18  1  0.11510000  0.51844000  0.25427000  1.0
  H  H19  1  0.17432000  0.57293000  0.37979000  1.0
  H  H20  1  0.79620000  0.69442000  0.90509000  1.0
  H  H21  1  0.86777000  0.76709000  0.98121000  1.0
  H  H22  1  0.77629000  0.85709000  0.97699000  1.0
  H  H23  1  0.70407000  0.78277000  0.90237000  1.0
  H  H24  1  0.78180000  0.87198000  0.09010000  1.0
  H  H25  1  0.71055000  0.81224000  0.09656000  1.0
  H  H26  1  0.86968000  0.77863000  0.09320000  1.0
  H  H27  1  0.79594000  0.71749000  0.09592000  1.0
  H  H28  1  0.69192000  0.60482000  0.90894000  1.0
  H  H29  1  0.69319000  0.61208000  0.98658000  1.0
  H  H30  1  0.60503000  0.70546000  0.98896000  1.0
  H  H31  1  0.60093000  0.69543000  0.90992000  1.0
  H  H32  1  0.11098000  0.20294000  0.90751000  1.0
  H  H33  1  0.11766000  0.21741000  0.98882000  1.0
  H  H34  1  0.20602000  0.12422000  0.98787000  1.0
  H  H35  1  0.20104000  0.11251000  0.90759000  1.0
  H  H36  1  0.30993000  0.22939000  0.09275000  1.0
  H  H37  1  0.38212000  0.28992000  0.08801000  1.0
  H  H38  1  0.22355000  0.32430000  0.09238000  1.0
  H  H39  1  0.29473000  0.38234000  0.08438000  1.0
  H  H40  1  0.21142000  0.28825000  0.89572000  1.0
  H  H41  1  0.28506000  0.36296000  0.96766000  1.0
  H  H42  1  0.37613000  0.27296000  0.97207000  1.0
  H  H43  1  0.30351000  0.19909000  0.89882000  1.0
  H  H44  1  0.84028000  0.20465000  0.93632000  1.0
  H  H45  1  0.75573000  0.24221000  0.89744000  1.0
  H  H46  1  0.66879000  0.14521000  0.89451000  1.0
  H  H47  1  0.75390000  0.11010000  0.93575000  1.0
  H  H48  1  0.60998000  0.25496000  0.96232000  1.0
  H  H49  1  0.65067000  0.29475000  0.05119000  1.0
  H  H50  1  0.69967000  0.35220000  0.96784000  1.0
  H  H51  1  0.74180000  0.38936000  0.05658000  1.0
  H  H52  1  0.90228000  0.25958000  0.06438000  1.0
  H  H53  1  0.86338000  0.33634000  0.11340000  1.0
  H  H54  1  0.77199000  0.24351000  0.11081000  1.0
  H  H55  1  0.81287000  0.16675000  0.06382000  1.0
  H  H56  1  0.09997000  0.73113000  0.93184000  1.0
  H  H57  1  0.14752000  0.65715000  0.88838000  1.0
  H  H58  1  0.22897000  0.75600000  0.88835000  1.0
  H  H59  1  0.18455000  0.82975000  0.93560000  1.0
  H  H60  1  0.34980000  0.70614000  0.94727000  1.0
  H  H61  1  0.39574000  0.74871000  0.03604000  1.0
  H  H62  1  0.26780000  0.61114000  0.95166000  1.0
  H  H63  1  0.31094000  0.65739000  0.04059000  1.0
  H  H64  1  0.16071000  0.79742000  0.06026000  1.0
  H  H65  1  0.24441000  0.76512000  0.10492000  1.0
  H  H66  1  0.33414000  0.85679000  0.10461000  1.0
  H  H67  1  0.25032000  0.89268000  0.06403000  1.0
  H  H68  1  0.77264000  0.07434000  0.22426000  1.0
  H  H69  1  0.75105000  0.15953000  0.21085000  1.0
  H  H70  1  0.82971000  0.16862000  0.28711000  1.0
  H  H71  1  0.65722000  0.33309000  0.70385000  1.0
  H  H72  1  0.73505000  0.33260000  0.77674000  1.0
  H  H73  1  0.72017000  0.42266000  0.77065000  1.0
  H  H74  1  0.42371000  0.71960000  0.76002000  1.0
  H  H75  1  0.33741000  0.74518000  0.77904000  1.0
  H  H76  1  0.32572000  0.66472000  0.70091000  1.0
  H  H77  1  0.17204000  0.83204000  0.29718000  1.0
  H  H78  1  0.16294000  0.75526000  0.21796000  1.0
  H  H79  1  0.07501000  0.77809000  0.23515000  1.0
  C  C80  1  0.86255000  0.36302000  0.00477000  1.0
  C  C81  1  0.08568000  0.59285000  0.17637000  1.0
  C  C82  1  0.85174000  0.63299000  0.99642000  1.0
  C  C83  1  0.14198000  0.63595000  0.99499000  1.0
  C  C84  1  0.90598000  0.40991000  0.81332000  1.0
  C  C85  1  0.14163000  0.36019000  0.98931000  1.0
  C  C86  1  0.63433000  0.85371000  0.99402000  1.0
  C  C87  1  0.41823000  0.90423000  0.81216000  1.0
  C  C88  1  0.64634000  0.13439000  0.99846000  1.0
  C  C89  1  0.35970000  0.13882000  0.99261000  1.0
  C  C90  1  0.58360000  0.08479000  0.17496000  1.0
  C  C91  1  0.35094000  0.86442000  0.99346000  1.0
  C  C92  1  0.62357000  0.12482000  0.25002000  1.0
  C  C93  1  0.57322000  0.13935000  0.28721000  1.0
  C  C94  1  0.60504000  0.17427000  0.35704000  1.0
  C  C95  1  0.69004000  0.19696000  0.39215000  1.0
  C  C96  1  0.74015000  0.18364000  0.35466000  1.0
  C  C97  1  0.70924000  0.14778000  0.28427000  1.0
  C  C98  1  0.72522000  0.23265000  0.46345000  1.0
  C  C99  1  0.75714000  0.26342000  0.52493000  1.0
  C  C100  1  0.79364000  0.29917000  0.59617000  1.0
  C  C101  1  0.74519000  0.31292000  0.63503000  1.0
  C  C102  1  0.77785000  0.34855000  0.70545000  1.0
  C  C103  1  0.86378000  0.37111000  0.73837000  1.0
  C  C104  1  0.91239000  0.35681000  0.69970000  1.0
  C  C105  1  0.87883000  0.32179000  0.62991000  1.0
  C  C106  1  0.37621000  0.86222000  0.73760000  1.0
  C  C107  1  0.36256000  0.90858000  0.70098000  1.0
  C  C108  1  0.32438000  0.87502000  0.63152000  1.0
  C  C109  1  0.29753000  0.79247000  0.59640000  1.0
  C  C110  1  0.31012000  0.74637000  0.63331000  1.0
  C  C111  1  0.34937000  0.77909000  0.70338000  1.0
  C  C112  1  0.25911000  0.75690000  0.52542000  1.0
  C  C113  1  0.22718000  0.72747000  0.46402000  1.0
  C  C114  1  0.19161000  0.69455000  0.39293000  1.0
  C  C115  1  0.18141000  0.74416000  0.35919000  1.0
  C  C116  1  0.14701000  0.71493000  0.28905000  1.0
  C  C117  1  0.12285000  0.63178000  0.25141000  1.0
  C  C118  1  0.13373000  0.58200000  0.28489000  1.0
  C  C119  1  0.16679000  0.61210000  0.35449000  1.0
  C  C120  1  0.80444000  0.73666000  0.95649000  1.0
  C  C121  1  0.74391000  0.79629000  0.95463000  1.0
  C  C122  1  0.69080000  0.79243000  0.99402000  1.0
  C  C123  1  0.74768000  0.81186000  0.06727000  1.0
  C  C124  1  0.80572000  0.75000000  0.06805000  1.0
  C  C125  1  0.79083000  0.69023000  0.99522000  1.0
  C  C126  1  0.70244000  0.64732000  0.96067000  1.0
  C  C127  1  0.64313000  0.70814000  0.96124000  1.0
  C  C128  1  0.15394000  0.21760000  0.95913000  1.0
  C  C129  1  0.21330000  0.15663000  0.95927000  1.0
  C  C130  1  0.30226000  0.19952000  0.99118000  1.0
  C  C131  1  0.31823000  0.26073000  0.06370000  1.0
  C  C132  1  0.26004000  0.32247000  0.06244000  1.0
  C  C133  1  0.20203000  0.30202000  0.98923000  1.0
  C  C134  1  0.25254000  0.30267000  0.94772000  1.0
  C  C135  1  0.31282000  0.24292000  0.94983000  1.0
  C  C136  1  0.78397000  0.22687000  0.94010000  1.0
  C  C137  1  0.72599000  0.16352000  0.93872000  1.0
  C  C138  1  0.70633000  0.19698000  0.00314000  1.0
  C  C139  1  0.66697000  0.27176000  0.00651000  1.0
  C  C140  1  0.72670000  0.33519000  0.00963000  1.0
  C  C141  1  0.80599000  0.30296000  0.00638000  1.0
  C  C142  1  0.84562000  0.28204000  0.06634000  1.0
  C  C143  1  0.78594000  0.22010000  0.06503000  1.0
  C  C144  1  0.15933000  0.71304000  0.93322000  1.0
  C  C145  1  0.21493000  0.77795000  0.93403000  1.0
  C  C146  1  0.29562000  0.80438000  0.99631000  1.0
  C  C147  1  0.33675000  0.73049000  0.99338000  1.0
  C  C148  1  0.28099000  0.66823000  0.99556000  1.0
  C  C149  1  0.20020000  0.69786000  0.99682000  1.0
  C  C150  1  0.21828000  0.77630000  0.05972000  1.0
  C  C151  1  0.27679000  0.83856000  0.06045000  1.0
  C  C152  1  0.76895000  0.13722000  0.24990000  1.0
  C  C153  1  0.71928000  0.35966000  0.74091000  1.0
  C  C154  1  0.35934000  0.72409000  0.73755000  1.0
  C  C155  1  0.13913000  0.77330000  0.25831000  1.0
  O  O156  1  0.99983000  0.49722000  0.99365000  1.0
  O  O157  1  0.83245000  0.38710000  0.95861000  1.0
  O  O158  1  0.08713000  0.51860000  0.14804000  1.0
  O  O159  1  0.92693000  0.66394000  0.02694000  1.0
  O  O160  1  0.93527000  0.38381000  0.04817000  1.0
  O  O161  1  0.82405000  0.55904000  0.96679000  1.0
  O  O162  1  0.05446000  0.63566000  0.14573000  1.0
  O  O163  1  0.10962000  0.66011000  0.03885000  1.0
  O  O164  1  0.98394000  0.41956000  0.83778000  1.0
  O  O165  1  0.12870000  0.56548000  0.94926000  1.0
  O  O166  1  0.86103000  0.43112000  0.84770000  1.0
  O  O167  1  0.10264000  0.36774000  0.02771000  1.0
  O  O168  1  0.13375000  0.39590000  0.95144000  1.0
  O  O169  1  0.49724000  0.99889000  0.99435000  1.0
  O  O170  1  0.66784000  0.92633000  0.02269000  1.0
  O  O171  1  0.44688000  0.86235000  0.84434000  1.0
  O  O172  1  0.57650000  0.11527000  0.95078000  1.0
  O  O173  1  0.55797000  0.82851000  0.96554000  1.0
  O  O174  1  0.67019000  0.10538000  0.04169000  1.0
  O  O175  1  0.42316000  0.97972000  0.83886000  1.0
  O  O176  1  0.40144000  0.12746000  0.95598000  1.0
  O  O177  1  0.50700000  0.08417000  0.14862000  1.0
  O  O178  1  0.36127000  0.10382000  0.03026000  1.0
  O  O179  1  0.62873000  0.05316000  0.14248000  1.0
  O  O180  1  0.37417000  0.83864000  0.94380000  1.0
  O  O181  1  0.36987000  0.93490000  0.03963000  1.0
