# generated using pymatgen
data_AlH12C21S3NO15
_symmetry_space_group_name_H-M   'P 1'
_cell_length_a   4.51215000
_cell_length_b   23.39120000
_cell_length_c   23.39135356
_cell_angle_alpha   59.99865149
_cell_angle_beta   89.99600001
_cell_angle_gamma   89.99500000
_symmetry_Int_Tables_number   1
_chemical_formula_structural   AlH12C21S3NO15
_chemical_formula_sum   'Al3 H36 C63 S9 N3 O45'
_cell_volume   2138.04141052
_cell_formula_units_Z   3
loop_
 _symmetry_equiv_pos_site_id
 _symmetry_equiv_pos_as_xyz
  1  'x, y, z'
loop_
 _atom_site_type_symbol
 _atom_site_label
 _atom_site_symmetry_multiplicity
 _atom_site_fract_x
 _atom_site_fract_y
 _atom_site_fract_z
 _atom_site_occupancy
  Al  Al0  1  0.96437000  0.49822000  0.50187000  1.0
  Al  Al1  1  0.96436000  0.83324000  0.83158000  1.0
  Al  Al2  1  0.96431000  0.16853000  0.16657000  1.0
  H  H3  1  0.26786000  0.05183000  0.08022000  1.0
  H  H4  1  0.26421000  0.94873000  0.07659000  1.0
  H  H5  1  0.80399000  0.85681000  0.25202000  1.0
  H  H6  1  0.80398000  0.91869000  0.05785000  1.0
  H  H7  1  0.26777000  0.74692000  0.03462000  1.0
  H  H8  1  0.26419000  0.74327000  0.14136000  1.0
  H  H9  1  0.80399000  0.72454000  0.19012000  1.0
  H  H10  1  0.26778000  0.70128000  0.38514000  1.0
  H  H11  1  0.26421000  0.80802000  0.28206000  1.0
  H  H12  1  0.70645000  0.94702000  0.63944000  1.0
  H  H13  1  0.73799000  0.04847000  0.53144000  1.0
  H  H14  1  0.20154000  0.14919000  0.60617000  1.0
  H  H15  1  0.20171000  0.07790000  0.48258000  1.0
  H  H16  1  0.70605000  0.24686000  0.28036000  1.0
  H  H17  1  0.73758000  0.25342000  0.38180000  1.0
  H  H18  1  0.20148000  0.27285000  0.41130000  1.0
  H  H19  1  0.70636000  0.30601000  0.58027000  1.0
  H  H20  1  0.73785000  0.19803000  0.58677000  1.0
  H  H21  1  0.73221000  0.63990000  0.91315000  1.0
  H  H22  1  0.76672000  0.53251000  0.91859000  1.0
  H  H23  1  0.24412000  0.60911000  0.74076000  1.0
  H  H24  1  0.24415000  0.48351000  0.94240000  1.0
  H  H25  1  0.73210000  0.28027000  0.97323000  1.0
  H  H26  1  0.76664000  0.38223000  0.86583000  1.0
  H  H27  1  0.24408000  0.40747000  0.81680000  1.0
  H  H28  1  0.73215000  0.57985000  0.61360000  1.0
  H  H29  1  0.76669000  0.58529000  0.71555000  1.0
  H  H30  1  0.24023000  0.98276000  0.30238000  1.0
  H  H31  1  0.24008000  0.96899000  0.88151000  1.0
  H  H32  1  0.24005000  0.54816000  0.31623000  1.0
  H  H33  1  0.75392000  0.01316000  0.78582000  1.0
  H  H34  1  0.75407000  0.03433000  0.34649000  1.0
  H  H35  1  0.75384000  0.45248000  0.36772000  1.0
  H  H36  1  0.61005000  0.74393000  0.65939000  1.0
  H  H37  1  0.60998000  0.43007000  0.07721000  1.0
  H  H38  1  0.60996000  0.32610000  0.76336000  1.0
  C  C39  1  0.45905000  0.49233000  0.59058000  1.0
  C  C40  1  0.51460000  0.58784000  0.41323000  1.0
  C  C41  1  0.43980000  0.41552000  0.49338000  1.0
  C  C42  1  0.51454000  0.83224000  0.92119000  1.0
  C  C43  1  0.45909000  0.75044000  0.82565000  1.0
  C  C44  1  0.43974000  0.92444000  0.74890000  1.0
  C  C45  1  0.51460000  0.07993000  0.16555000  1.0
  C  C46  1  0.45904000  0.25727000  0.08377000  1.0
  C  C47  1  0.43961000  0.15997000  0.25779000  1.0
  C  C48  1  0.39254000  0.00947000  0.11718000  1.0
  C  C49  1  0.38726000  0.95094000  0.11550000  1.0
  C  C50  1  0.53724000  0.89494000  0.16407000  1.0
  C  C51  1  0.69553000  0.90008000  0.21249000  1.0
  C  C52  1  0.69538000  0.95860000  0.21429000  1.0
  C  C53  1  0.54320000  0.01481000  0.16681000  1.0
  C  C54  1  0.69547000  0.87918000  0.05410000  1.0
  C  C55  1  0.69527000  0.88098000  0.99378000  1.0
  C  C56  1  0.54310000  0.83350000  0.98505000  1.0
  C  C57  1  0.39245000  0.78387000  0.04002000  1.0
  C  C58  1  0.38720000  0.78218000  0.10024000  1.0
  C  C59  1  0.53720000  0.83075000  0.10767000  1.0
  C  C60  1  0.69548000  0.72077000  0.23339000  1.0
  C  C61  1  0.69531000  0.66044000  0.29191000  1.0
  C  C62  1  0.54313000  0.65170000  0.34812000  1.0
  C  C63  1  0.39248000  0.70668000  0.34279000  1.0
  C  C64  1  0.38723000  0.76690000  0.28426000  1.0
  C  C65  1  0.53722000  0.77434000  0.22826000  1.0
  C  C66  1  0.59019000  0.99117000  0.63179000  1.0
  C  C67  1  0.61033000  0.04868000  0.57087000  1.0
  C  C68  1  0.46714000  0.10647000  0.56048000  1.0
  C  C69  1  0.30429000  0.10453000  0.61211000  1.0
  C  C70  1  0.29149000  0.04728000  0.67343000  1.0
  C  C71  1  0.43290000  0.98909000  0.68456000  1.0
  C  C72  1  0.30433000  0.11664000  0.43790000  1.0
  C  C73  1  0.29153000  0.11256000  0.38065000  1.0
  C  C74  1  0.43276000  0.15964000  0.32245000  1.0
  C  C75  1  0.58989000  0.21035000  0.32452000  1.0
  C  C76  1  0.61004000  0.21377000  0.38202000  1.0
  C  C77  1  0.46705000  0.16636000  0.43982000  1.0
  C  C78  1  0.30423000  0.27877000  0.45004000  1.0
  C  C79  1  0.29144000  0.34008000  0.44600000  1.0
  C  C80  1  0.43286000  0.35118000  0.49306000  1.0
  C  C81  1  0.59011000  0.29838000  0.54375000  1.0
  C  C82  1  0.61024000  0.23748000  0.54713000  1.0
  C  C83  1  0.46712000  0.22712000  0.49972000  1.0
  C  C84  1  0.62273000  0.63310000  0.87543000  1.0
  C  C85  1  0.64393000  0.57246000  0.87827000  1.0
  C  C86  1  0.50379000  0.56203000  0.83043000  1.0
  C  C87  1  0.35091000  0.61481000  0.77930000  1.0
  C  C88  1  0.34130000  0.67617000  0.77572000  1.0
  C  C89  1  0.46967000  0.68650000  0.82425000  1.0
  C  C90  1  0.35090000  0.43926000  0.94811000  1.0
  C  C91  1  0.34131000  0.38147000  0.00948000  1.0
  C  C92  1  0.46964000  0.32261000  0.01981000  1.0
  C  C93  1  0.62267000  0.32481000  0.96642000  1.0
  C  C94  1  0.64392000  0.38262000  0.90577000  1.0
  C  C95  1  0.50378000  0.44089000  0.89533000  1.0
  C  C96  1  0.35085000  0.44601000  0.77256000  1.0
  C  C97  1  0.34124000  0.44243000  0.71478000  1.0
  C  C98  1  0.46961000  0.49096000  0.65591000  1.0
  C  C99  1  0.62271000  0.54213000  0.65813000  1.0
  C  C100  1  0.64392000  0.54497000  0.71593000  1.0
  C  C101  1  0.50375000  0.49714000  0.77420000  1.0
  S  S102  1  0.82521000  0.95001000  0.28989000  1.0
  S  S103  1  0.82511000  0.95660000  0.92678000  1.0
  S  S104  1  0.82517000  0.59346000  0.28327000  1.0
  S  S105  1  0.15405000  0.06030000  0.73753000  1.0
  S  S106  1  0.15410000  0.03542000  0.39371000  1.0
  S  S107  1  0.15403000  0.40420000  0.36889000  1.0
  S  S108  1  0.18272000  0.74150000  0.70230000  1.0
  S  S109  1  0.18269000  0.38958000  0.07479000  1.0
  S  S110  1  0.18263000  0.36901000  0.72288000  1.0
  N  N111  1  0.52237000  0.83334000  0.16667000  1.0
  N  N112  1  0.49037000  0.16666667  0.50000000  1.0
  N  N113  1  0.51878000  0.50001333  0.83332000  1.0
  O  O114  1  0.67997000  0.44718000  0.47801000  1.0
  O  O115  1  0.69360000  0.47326000  0.57544000  1.0
  O  O116  1  0.74240000  0.57330000  0.45135000  1.0
  O  O117  1  0.20173000  0.42885000  0.51390000  1.0
  O  O118  1  0.27048000  0.55837000  0.42618000  1.0
  O  O119  1  0.22416000  0.51635000  0.55662000  1.0
  O  O120  1  0.20165000  0.89061000  0.76221000  1.0
  O  O121  1  0.27040000  0.84876000  0.89174000  1.0
  O  O122  1  0.22422000  0.76037000  0.84968000  1.0
  O  O123  1  0.67989000  0.90813000  0.78057000  1.0
  O  O124  1  0.69364000  0.78465000  0.80659000  1.0
  O  O125  1  0.74233000  0.80865000  0.90666000  1.0
  O  O126  1  0.20150000  0.18050000  0.22396000  1.0
  O  O127  1  0.27042000  0.09286000  0.18206000  1.0
  O  O128  1  0.22418000  0.22332000  0.09371000  1.0
  O  O129  1  0.67976000  0.14462000  0.24147000  1.0
  O  O130  1  0.69356000  0.24213000  0.11799000  1.0
  O  O131  1  0.74232000  0.11807000  0.14195000  1.0
  O  O132  1  0.17131000  0.95287000  0.28534000  1.0
  O  O133  1  0.72651000  0.00883000  0.29039000  1.0
  O  O134  1  0.74021000  0.88570000  0.34192000  1.0
  O  O135  1  0.17120000  0.95204000  0.92843000  1.0
  O  O136  1  0.72629000  0.95713000  0.86745000  1.0
  O  O137  1  0.74032000  0.00862000  0.93909000  1.0
  O  O138  1  0.17124000  0.59508000  0.28622000  1.0
  O  O139  1  0.72622000  0.53412000  0.34205000  1.0
  O  O140  1  0.74050000  0.60580000  0.21893000  1.0
  O  O141  1  0.81112000  0.04973000  0.74030000  1.0
  O  O142  1  0.27458000  0.00757000  0.79887000  1.0
  O  O143  1  0.20864000  0.12804000  0.71793000  1.0
  O  O144  1  0.81120000  0.04325000  0.38309000  1.0
  O  O145  1  0.27480000  0.02675000  0.34103000  1.0
  O  O146  1  0.20850000  0.98730000  0.46147000  1.0
  O  O147  1  0.81108000  0.40695000  0.37668000  1.0
  O  O148  1  0.27450000  0.46553000  0.36033000  1.0
  O  O149  1  0.20880000  0.38465000  0.32072000  1.0
  O  O150  1  0.90788000  0.71565000  0.69111000  1.0
  O  O151  1  0.17525000  0.80122000  0.70525000  1.0
  O  O152  1  0.39111000  0.74734000  0.64636000  1.0
  O  O153  1  0.90781000  0.42661000  0.04895000  1.0
  O  O154  1  0.17526000  0.32690000  0.13453000  1.0
  O  O155  1  0.39105000  0.43970000  0.08062000  1.0
  O  O156  1  0.90780000  0.35781000  0.75993000  1.0
  O  O157  1  0.17513000  0.37195000  0.66021000  1.0
  O  O158  1  0.39103000  0.31306000  0.77298000  1.0
