# generated using pymatgen
data_ZnH9C16S2NO10
_symmetry_space_group_name_H-M   'P 1'
_cell_length_a   9.72569000
_cell_length_b   10.79690000
_cell_length_c   14.99440000
_cell_angle_alpha   90.78360000
_cell_angle_beta   103.48340000
_cell_angle_gamma   90.49570000
_symmetry_Int_Tables_number   1
_chemical_formula_structural   ZnH9C16S2NO10
_chemical_formula_sum   'Zn2 H18 C32 S4 N2 O20'
_cell_volume   1530.86706722
_cell_formula_units_Z   2
loop_
 _symmetry_equiv_pos_site_id
 _symmetry_equiv_pos_as_xyz
  1  'x, y, z'
loop_
 _atom_site_type_symbol
 _atom_site_label
 _atom_site_symmetry_multiplicity
 _atom_site_fract_x
 _atom_site_fract_y
 _atom_site_fract_z
 _atom_site_occupancy
  Zn  Zn0  1  0.14097000  0.50390000  0.48458000  1.0
  Zn  Zn1  1  0.85159000  0.50012000  0.50305000  1.0
  H  H2  1  0.79319000  0.45676000  0.88388000  1.0
  H  H3  1  0.23851000  0.66723000  0.09682000  1.0
  H  H4  1  0.34513000  0.51715000  0.76319000  1.0
  H  H5  1  0.67418000  0.55774000  0.22292000  1.0
  H  H6  1  0.93191000  0.60217000  0.79954000  1.0
  H  H7  1  0.07347000  0.42628000  0.18951000  1.0
  H  H8  1  0.98455000  0.42577000  0.01984000  1.0
  H  H9  1  0.03420000  0.65478000  0.96410000  1.0
  H  H10  1  0.54639000  0.50395000  0.81466000  1.0
  H  H11  1  0.48749000  0.62779000  0.16575000  1.0
  H  H12  1  0.66506000  0.44787000  0.63589000  1.0
  H  H13  1  0.32822000  0.56134000  0.35520000  1.0
  H  H14  1  0.40032000  0.44283000  0.62421000  1.0
  H  H15  1  0.59336000  0.55491000  0.36437000  1.0
  H  H16  1  0.64497000  0.85401000  0.36047000  1.0
  H  H17  1  0.09160000  0.29683000  0.34717000  1.0
  H  H18  1  0.93033000  0.31656000  0.66185000  1.0
  H  H19  1  0.24213000  0.71091000  0.60185000  1.0
  C  C20  1  0.99043000  0.73474000  0.49569000  1.0
  C  C21  1  0.00596000  0.27137000  0.50533000  1.0
  C  C22  1  0.58404000  0.51137000  0.88884000  1.0
  C  C23  1  0.44682000  0.60908000  0.09269000  1.0
  C  C24  1  0.72256000  0.48533000  0.92702000  1.0
  C  C25  1  0.30720000  0.63157000  0.05455000  1.0
  C  C26  1  0.88198000  0.94205000  0.52067000  1.0
  C  C27  1  0.11115000  0.06552000  0.47786000  1.0
  C  C28  1  0.89994000  0.06992000  0.53825000  1.0
  C  C29  1  0.11774000  0.93726000  0.49190000  1.0
  C  C30  1  0.00686000  0.13251000  0.50748000  1.0
  C  C31  1  0.99571000  0.87378000  0.50262000  1.0
  C  C32  1  0.58937000  0.47199000  0.57311000  1.0
  C  C33  1  0.40413000  0.53411000  0.41713000  1.0
  C  C34  1  0.44452000  0.47069000  0.56711000  1.0
  C  C35  1  0.54861000  0.53178000  0.42221000  1.0
  C  C36  1  0.92344000  0.48995000  0.31680000  1.0
  C  C37  1  0.08092000  0.52759000  0.67341000  1.0
  C  C38  1  0.87623000  0.49274000  0.21521000  1.0
  C  C39  1  0.13517000  0.55501000  0.77287000  1.0
  C  C40  1  0.91677000  0.45562000  0.06446000  1.0
  C  C41  1  0.10189000  0.62159000  0.92039000  1.0
  C  C42  1  0.96645000  0.45579000  0.15839000  1.0
  C  C43  1  0.04470000  0.59259000  0.82928000  1.0
  C  C44  1  0.73949000  0.53072000  0.17633000  1.0
  C  C45  1  0.27952000  0.54541000  0.80929000  1.0
  C  C46  1  0.68524000  0.53103000  0.08074000  1.0
  C  C47  1  0.33984000  0.56751000  0.90303000  1.0
  C  C48  1  0.77643000  0.49127000  0.02379000  1.0
  C  C49  1  0.24838000  0.60775000  0.95953000  1.0
  C  C50  1  0.54023000  0.56346000  0.03935000  1.0
  C  C51  1  0.48841000  0.54800000  0.94331000  1.0
  S  S52  1  0.70051000  0.88291000  0.50375000  1.0
  S  S53  1  0.21848000  0.13392000  0.40422000  1.0
  S  S54  1  0.80571000  0.14558000  0.61702000  1.0
  S  S55  1  0.29632000  0.87151000  0.52415000  1.0
  N  N56  1  0.35320000  0.50314000  0.48960000  1.0
  N  N57  1  0.64025000  0.50164000  0.50035000  1.0
  O  O58  1  0.07876000  0.68338000  0.45690000  1.0
  O  O59  1  0.88521000  0.32003000  0.47915000  1.0
  O  O60  1  0.90057000  0.67995000  0.53048000  1.0
  O  O61  1  0.12371000  0.32766000  0.52884000  1.0
  O  O62  1  0.05001000  0.45029000  0.35209000  1.0
  O  O63  1  0.95924000  0.47508000  0.64493000  1.0
  O  O64  1  0.83869000  0.52694000  0.36367000  1.0
  O  O65  1  0.16212000  0.55880000  0.62113000  1.0
  O  O66  1  0.67641000  0.80166000  0.57280000  1.0
  O  O67  1  0.61619000  0.99018000  0.47512000  1.0
  O  O68  1  0.69011000  0.79984000  0.41056000  1.0
  O  O69  1  0.32592000  0.22057000  0.44870000  1.0
  O  O70  1  0.25075000  0.02986000  0.35252000  1.0
  O  O71  1  0.09461000  0.20483000  0.33578000  1.0
  O  O72  1  0.69362000  0.22666000  0.57551000  1.0
  O  O73  1  0.78298000  0.04656000  0.67485000  1.0
  O  O74  1  0.93428000  0.22609000  0.67670000  1.0
  O  O75  1  0.33562000  0.79150000  0.45730000  1.0
  O  O76  1  0.38039000  0.97763000  0.56156000  1.0
  O  O77  1  0.28230000  0.79628000  0.61279000  1.0
