# generated using pymatgen
data_ZnH12C9NO4
_symmetry_space_group_name_H-M   'P 1'
_cell_length_a   8.16034000
_cell_length_b   8.96845000
_cell_length_c   11.06460000
_cell_angle_alpha   97.36990000
_cell_angle_beta   99.78060000
_cell_angle_gamma   91.03390000
_symmetry_Int_Tables_number   1
_chemical_formula_structural   ZnH12C9NO4
_chemical_formula_sum   'Zn2 H24 C18 N2 O8'
_cell_volume   790.74961028
_cell_formula_units_Z   2
loop_
 _symmetry_equiv_pos_site_id
 _symmetry_equiv_pos_as_xyz
  1  'x, y, z'
loop_
 _atom_site_type_symbol
 _atom_site_label
 _atom_site_symmetry_multiplicity
 _atom_site_fract_x
 _atom_site_fract_y
 _atom_site_fract_z
 _atom_site_occupancy
  Zn  Zn0  1  0.33183000  0.52837000  0.51134000  1.0
  Zn  Zn1  1  0.68524000  0.49717000  0.49306000  1.0
  H  H2  1  0.66370000  0.45223000  0.11149000  1.0
  H  H3  1  0.77730000  0.20196000  0.89887000  1.0
  H  H4  1  0.84134000  0.26261000  0.76650000  1.0
  H  H5  1  0.99033000  0.25267000  0.90272000  1.0
  H  H6  1  0.91938000  0.51892000  0.88591000  1.0
  H  H7  1  0.85480000  0.46096000  0.01763000  1.0
  H  H8  1  0.02048000  0.19088000  0.50395000  1.0
  H  H9  1  0.80649000  0.19472000  0.43199000  1.0
  H  H10  1  0.95655000  0.11344000  0.34615000  1.0
  H  H11  1  0.88434000  0.36871000  0.29183000  1.0
  H  H12  1  0.10137000  0.36268000  0.35664000  1.0
  H  H13  1  0.41020000  0.52730000  0.88389000  1.0
  H  H14  1  0.07468000  0.61182000  0.77222000  1.0
  H  H15  1  0.25826000  0.69646000  0.73690000  1.0
  H  H16  1  0.09742000  0.81091000  0.78283000  1.0
  H  H17  1  0.08821000  0.79114000  0.55549000  1.0
  H  H18  1  0.90034000  0.71345000  0.59042000  1.0
  H  H19  1  0.66072000  0.00627000  0.49045000  1.0
  H  H20  1  0.29740000  0.02605000  0.53318000  1.0
  H  H21  1  0.23333000  0.73475000  0.19469000  1.0
  H  H22  1  0.28920000  0.75491000  0.04874000  1.0
  H  H23  1  0.07834000  0.71224000  0.05870000  1.0
  H  H24  1  0.21209000  0.48004000  0.97604000  1.0
  H  H25  1  0.15538000  0.46135000  0.12088000  1.0
  C  C26  1  0.51302000  0.80264000  0.50253000  1.0
  C  C27  1  0.41952000  0.06511000  0.51969000  1.0
  C  C28  1  0.24035000  0.52217000  0.07534000  1.0
  C  C29  1  0.20841000  0.69117000  0.09562000  1.0
  C  C30  1  0.83041000  0.44437000  0.91598000  1.0
  C  C31  1  0.86161000  0.28043000  0.86809000  1.0
  C  C32  1  0.97424000  0.35429000  0.37549000  1.0
  C  C33  1  0.93591000  0.20403000  0.41807000  1.0
  C  C34  1  0.03466000  0.70035000  0.59696000  1.0
  C  C35  1  0.12317000  0.70401000  0.73036000  1.0
  C  C36  1  0.44297000  0.22934000  0.51665000  1.0
  C  C37  1  0.62157000  0.52012000  0.73672000  1.0
  C  C38  1  0.45718000  0.47785000  0.26249000  1.0
  C  C39  1  0.65739000  0.48894000  0.86816000  1.0
  C  C40  1  0.41602000  0.48823000  0.12698000  1.0
  C  C41  1  0.52994000  0.49784000  0.93354000  1.0
  C  C42  1  0.54244000  0.47606000  0.06073000  1.0
  C  C43  1  0.53859000  0.96730000  0.50386000  1.0
  N  N44  1  0.94453000  0.48144000  0.46557000  1.0
  N  N45  1  0.06781000  0.56355000  0.51822000  1.0
  O  O46  1  0.36943000  0.75270000  0.51303000  1.0
  O  O47  1  0.58521000  0.28124000  0.50698000  1.0
  O  O48  1  0.63909000  0.72393000  0.48968000  1.0
  O  O49  1  0.31281000  0.30548000  0.52321000  1.0
  O  O50  1  0.47318000  0.54669000  0.68990000  1.0
  O  O51  1  0.60853000  0.45758000  0.30878000  1.0
  O  O52  1  0.74559000  0.51695000  0.67896000  1.0
  O  O53  1  0.33792000  0.49345000  0.32386000  1.0
