# generated using pymatgen
data_EuH14C17NO7
_symmetry_space_group_name_H-M   'P 1'
_cell_length_a   6.42763000
_cell_length_b   16.53520000
_cell_length_c   24.28500000
_cell_angle_alpha   89.99870000
_cell_angle_beta   88.84990000
_cell_angle_gamma   89.99620000
_symmetry_Int_Tables_number   1
_chemical_formula_structural   EuH14C17NO7
_chemical_formula_sum   'Eu4 H56 C68 N4 O28'
_cell_volume   2580.54197582
_cell_formula_units_Z   4
loop_
 _symmetry_equiv_pos_site_id
 _symmetry_equiv_pos_as_xyz
  1  'x, y, z'
loop_
 _atom_site_type_symbol
 _atom_site_label
 _atom_site_symmetry_multiplicity
 _atom_site_fract_x
 _atom_site_fract_y
 _atom_site_fract_z
 _atom_site_occupancy
  Eu  Eu0  1  0.73727000  0.93619000  0.02203000  1.0
  Eu  Eu1  1  0.26273000  0.43619000  0.47797000  1.0
  Eu  Eu2  1  0.26274000  0.06381000  0.97797000  1.0
  Eu  Eu3  1  0.73726000  0.56381000  0.52203000  1.0
  H  H4  1  0.36099000  0.22116000  0.81945000  1.0
  H  H5  1  0.63898000  0.72116000  0.68055000  1.0
  H  H6  1  0.63901000  0.77883000  0.18054000  1.0
  H  H7  1  0.36101000  0.27884000  0.31946000  1.0
  H  H8  1  0.98427000  0.16049000  0.76313000  1.0
  H  H9  1  0.01572000  0.66049000  0.73687000  1.0
  H  H10  1  0.01573000  0.83950000  0.23687000  1.0
  H  H11  1  0.98427000  0.33951000  0.26313000  1.0
  H  H12  1  0.03369000  0.08103000  0.84830000  1.0
  H  H13  1  0.96631000  0.58103000  0.65171000  1.0
  H  H14  1  0.96631000  0.91897000  0.15170000  1.0
  H  H15  1  0.03369000  0.41896000  0.34829000  1.0
  H  H16  1  0.94290000  0.30139000  0.73783000  1.0
  H  H17  1  0.05707000  0.80139000  0.76218000  1.0
  H  H18  1  0.05710000  0.69861000  0.26217000  1.0
  H  H19  1  0.94292000  0.19861000  0.23782000  1.0
  H  H20  1  0.26850000  0.29405000  0.64195000  1.0
  H  H21  1  0.73152000  0.79404000  0.85804000  1.0
  H  H22  1  0.73151000  0.70594000  0.35805000  1.0
  H  H23  1  0.26849000  0.20596000  0.14196000  1.0
  H  H24  1  0.32277000  0.20427000  0.72287000  1.0
  H  H25  1  0.67723000  0.70426000  0.77713000  1.0
  H  H26  1  0.67723000  0.79573000  0.27713000  1.0
  H  H27  1  0.32277000  0.29574000  0.22287000  1.0
  H  H28  1  0.88382000  0.77988000  0.92854000  1.0
  H  H29  1  0.11620000  0.27988000  0.57146000  1.0
  H  H30  1  0.11619000  0.22013000  0.07146000  1.0
  H  H31  1  0.88379000  0.72012000  0.42855000  1.0
  H  H32  1  0.02849000  0.68365000  0.88269000  1.0
  H  H33  1  0.97153000  0.18366000  0.61731000  1.0
  H  H34  1  0.97152000  0.31635000  0.11731000  1.0
  H  H35  1  0.02846000  0.81634000  0.38269000  1.0
  H  H36  1  0.15636000  0.60959000  0.92367000  1.0
  H  H37  1  0.84369000  0.10959000  0.57633000  1.0
  H  H38  1  0.84365000  0.39042000  0.07634000  1.0
  H  H39  1  0.15631000  0.89040000  0.42367000  1.0
  H  H40  1  0.30538000  0.68155000  0.88430000  1.0
  H  H41  1  0.69465000  0.18156000  0.61569000  1.0
  H  H42  1  0.69463000  0.31845000  0.11570000  1.0
  H  H43  1  0.30534000  0.81844000  0.38430000  1.0
  H  H44  1  0.29574000  0.76822000  0.02727000  1.0
  H  H45  1  0.70430000  0.26823000  0.47273000  1.0
  H  H46  1  0.70427000  0.23179000  0.97273000  1.0
  H  H47  1  0.29570000  0.73177000  0.52727000  1.0
  H  H48  1  0.47237000  0.73673000  0.97368000  1.0
  H  H49  1  0.52767000  0.23674000  0.52632000  1.0
  H  H50  1  0.52764000  0.26327000  0.02633000  1.0
  H  H51  1  0.47233000  0.76326000  0.47368000  1.0
  H  H52  1  0.32863000  0.66260000  0.01271000  1.0
  H  H53  1  0.67143000  0.16261000  0.48728000  1.0
  H  H54  1  0.67137000  0.33741000  0.98729000  1.0
  H  H55  1  0.32858000  0.83739000  0.51272000  1.0
  H  H56  1  0.86700000  0.43265000  0.62555000  1.0
  H  H57  1  0.13299000  0.93265000  0.87445000  1.0
  H  H58  1  0.13299000  0.56735000  0.37445000  1.0
  H  H59  1  0.86701000  0.06735000  0.12555000  1.0
  C  C60  1  0.76802000  0.05950000  0.93191000  1.0
  C  C61  1  0.23197000  0.55950000  0.56810000  1.0
  C  C62  1  0.23198000  0.94051000  0.06809000  1.0
  C  C63  1  0.76803000  0.44050000  0.43190000  1.0
  C  C64  1  0.72809000  0.10585000  0.88237000  1.0
  C  C65  1  0.27190000  0.60585000  0.61763000  1.0
  C  C66  1  0.27191000  0.89415000  0.11763000  1.0
  C  C67  1  0.72810000  0.39415000  0.38237000  1.0
  C  C68  1  0.53120000  0.14531000  0.87421000  1.0
  C  C69  1  0.46878000  0.64531000  0.62579000  1.0
  C  C70  1  0.46880000  0.85469000  0.12578000  1.0
  C  C71  1  0.53121000  0.35469000  0.37421000  1.0
  C  C72  1  0.50875000  0.18996000  0.82484000  1.0
  C  C73  1  0.49123000  0.68996000  0.67516000  1.0
  C  C74  1  0.49125000  0.81004000  0.17516000  1.0
  C  C75  1  0.50876000  0.31004000  0.32484000  1.0
  C  C76  1  0.66844000  0.19654000  0.78554000  1.0
  C  C77  1  0.33155000  0.69653000  0.71447000  1.0
  C  C78  1  0.33157000  0.80346000  0.21446000  1.0
  C  C79  1  0.66844000  0.30346000  0.28553000  1.0
  C  C80  1  0.86024000  0.15697000  0.79428000  1.0
  C  C81  1  0.13976000  0.65697000  0.70573000  1.0
  C  C82  1  0.13976000  0.84303000  0.20572000  1.0
  C  C83  1  0.86024000  0.34303000  0.29428000  1.0
  C  C84  1  0.88720000  0.11234000  0.84164000  1.0
  C  C85  1  0.11279000  0.61234000  0.65837000  1.0
  C  C86  1  0.11280000  0.88766000  0.15836000  1.0
  C  C87  1  0.88720000  0.38766000  0.34163000  1.0
  C  C88  1  0.63737000  0.24612000  0.73576000  1.0
  C  C89  1  0.36262000  0.74611000  0.76425000  1.0
  C  C90  1  0.36263000  0.75388000  0.26424000  1.0
  C  C91  1  0.63738000  0.25389000  0.23576000  1.0
  C  C92  1  0.79549000  0.29743000  0.71654000  1.0
  C  C93  1  0.20450000  0.79743000  0.78347000  1.0
  C  C94  1  0.20451000  0.70257000  0.28346000  1.0
  C  C95  1  0.79550000  0.20257000  0.21653000  1.0
  C  C96  1  0.76519000  0.34858000  0.67130000  1.0
  C  C97  1  0.23480000  0.84858000  0.82871000  1.0
  C  C98  1  0.23481000  0.65142000  0.32870000  1.0
  C  C99  1  0.76520000  0.15142000  0.17130000  1.0
  C  C100  1  0.57356000  0.34603000  0.64304000  1.0
  C  C101  1  0.42644000  0.84602000  0.85696000  1.0
  C  C102  1  0.42644000  0.65397000  0.35696000  1.0
  C  C103  1  0.57356000  0.15398000  0.14304000  1.0
  C  C104  1  0.41701000  0.29358000  0.66273000  1.0
  C  C105  1  0.58299000  0.79357000  0.83727000  1.0
  C  C106  1  0.58299000  0.70642000  0.33727000  1.0
  C  C107  1  0.41701000  0.20643000  0.16273000  1.0
  C  C108  1  0.44597000  0.24461000  0.70823000  1.0
  C  C109  1  0.55402000  0.74460000  0.79177000  1.0
  C  C110  1  0.55403000  0.75539000  0.29177000  1.0
  C  C111  1  0.44597000  0.25540000  0.20823000  1.0
  C  C112  1  0.54041000  0.39699000  0.59376000  1.0
  C  C113  1  0.45959000  0.89699000  0.90624000  1.0
  C  C114  1  0.45959000  0.60301000  0.40624000  1.0
  C  C115  1  0.54041000  0.10302000  0.09376000  1.0
  C  C116  1  0.00007000  0.78136000  0.96127000  1.0
  C  C117  1  0.99995000  0.28136000  0.53873000  1.0
  C  C118  1  0.99994000  0.21865000  0.03873000  1.0
  C  C119  1  0.00004000  0.71864000  0.46127000  1.0
  C  C120  1  0.16207000  0.67251000  0.90897000  1.0
  C  C121  1  0.83797000  0.17252000  0.59103000  1.0
  C  C122  1  0.83794000  0.32749000  0.09103000  1.0
  C  C123  1  0.16203000  0.82748000  0.40897000  1.0
  C  C124  1  0.32313000  0.72357000  0.99467000  1.0
  C  C125  1  0.67691000  0.22358000  0.50532000  1.0
  C  C126  1  0.67687000  0.27644000  0.00533000  1.0
  C  C127  1  0.32309000  0.77642000  0.49468000  1.0
  N  N128  1  0.15534000  0.72813000  0.95538000  1.0
  N  N129  1  0.84469000  0.22814000  0.54462000  1.0
  N  N130  1  0.84467000  0.27187000  0.04462000  1.0
  N  N131  1  0.15531000  0.77186000  0.45538000  1.0
  O  O132  1  0.94279000  0.02323000  0.93969000  1.0
  O  O133  1  0.05721000  0.52323000  0.56032000  1.0
  O  O134  1  0.05721000  0.97677000  0.06031000  1.0
  O  O135  1  0.94279000  0.47677000  0.43968000  1.0
  O  O136  1  0.62659000  0.05176000  0.97003000  1.0
  O  O137  1  0.37339000  0.55176000  0.52997000  1.0
  O  O138  1  0.37341000  0.94824000  0.02997000  1.0
  O  O139  1  0.62660000  0.44824000  0.47003000  1.0
  O  O140  1  0.38821000  0.38189000  0.56248000  1.0
  O  O141  1  0.61179000  0.88188000  0.93752000  1.0
  O  O142  1  0.61178000  0.61811000  0.43752000  1.0
  O  O143  1  0.38821000  0.11812000  0.06248000  1.0
  O  O144  1  0.67357000  0.45407000  0.58508000  1.0
  O  O145  1  0.32643000  0.95407000  0.91492000  1.0
  O  O146  1  0.32643000  0.54593000  0.41492000  1.0
  O  O147  1  0.67358000  0.04593000  0.08508000  1.0
  O  O148  1  0.37418000  0.14287000  0.90952000  1.0
  O  O149  1  0.62580000  0.64287000  0.59048000  1.0
  O  O150  1  0.62582000  0.85713000  0.09048000  1.0
  O  O151  1  0.37419000  0.35713000  0.40952000  1.0
  O  O152  1  0.92316000  0.39786000  0.65595000  1.0
  O  O153  1  0.07683000  0.89786000  0.84406000  1.0
  O  O154  1  0.07684000  0.60214000  0.34405000  1.0
  O  O155  1  0.92316000  0.10214000  0.15594000  1.0
  O  O156  1  0.98219000  0.83041000  0.00039000  1.0
  O  O157  1  0.01784000  0.33041000  0.49960000  1.0
  O  O158  1  0.01782000  0.16960000  0.99961000  1.0
  O  O159  1  0.98215000  0.66959000  0.50040000  1.0
