# generated using pymatgen
data_CuH17C11S2IO2
_symmetry_space_group_name_H-M   'P 1'
_cell_length_a   8.16790000
_cell_length_b   9.39037000
_cell_length_c   10.15850000
_cell_angle_alpha   83.29950000
_cell_angle_beta   66.30800000
_cell_angle_gamma   73.10550000
_symmetry_Int_Tables_number   1
_chemical_formula_structural   CuH17C11S2IO2
_chemical_formula_sum   'Cu2 H34 C22 S4 I2 O4'
_cell_volume   682.69195012
_cell_formula_units_Z   2
loop_
 _symmetry_equiv_pos_site_id
 _symmetry_equiv_pos_as_xyz
  1  'x, y, z'
loop_
 _atom_site_type_symbol
 _atom_site_label
 _atom_site_symmetry_multiplicity
 _atom_site_fract_x
 _atom_site_fract_y
 _atom_site_fract_z
 _atom_site_occupancy
  Cu  Cu0  1  0.82702000  0.55409000  0.99991000  1.0
  Cu  Cu1  1  0.17299000  0.44591000  0.00009000  1.0
  H  H2  1  0.75494000  0.61719000  0.31775000  1.0
  H  H3  1  0.92734000  0.38257000  0.31801000  1.0
  H  H4  1  0.24505000  0.38280000  0.68227000  1.0
  H  H5  1  0.07266000  0.61743000  0.68198000  1.0
  H  H6  1  0.65301000  0.79562000  0.26766000  1.0
  H  H7  1  0.07931000  0.20420000  0.26779000  1.0
  H  H8  1  0.34699000  0.20437000  0.73234000  1.0
  H  H9  1  0.92069000  0.79580000  0.73220000  1.0
  H  H10  1  0.32969000  0.68563000  0.11281000  1.0
  H  H11  1  0.55734000  0.31452000  0.11286000  1.0
  H  H12  1  0.67031000  0.31437000  0.88720000  1.0
  H  H13  1  0.44266000  0.68548000  0.88714000  1.0
  H  H14  1  0.27540000  0.78584000  0.26848000  1.0
  H  H15  1  0.45637000  0.21419000  0.26850000  1.0
  H  H16  1  0.72461000  0.21416000  0.73152000  1.0
  H  H17  1  0.54363000  0.78582000  0.73149000  1.0
  H  H18  1  0.43574000  0.62160000  0.52387000  1.0
  H  H19  1  0.04064000  0.37794000  0.52412000  1.0
  H  H20  1  0.56425000  0.37840000  0.47613000  1.0
  H  H21  1  0.95937000  0.62206000  0.47588000  1.0
  H  H22  1  0.56306000  0.74221000  0.53457000  1.0
  H  H23  1  0.90234000  0.25763000  0.53472000  1.0
  H  H24  1  0.43693000  0.25779000  0.46544000  1.0
  H  H25  1  0.09766000  0.74237000  0.46527000  1.0
  H  H26  1  0.36756000  0.99993000  0.26526000  1.0
  H  H27  1  0.63245000  0.00006000  0.73473000  1.0
  H  H28  1  0.38929000  0.96850000  0.61227000  1.0
  H  H29  1  0.99818000  0.03099000  0.61221000  1.0
  H  H30  1  0.61070000  0.03150000  0.38774000  1.0
  H  H31  1  0.00181000  0.96901000  0.38779000  1.0
  H  H32  1  0.22131000  0.86757000  0.71014000  1.0
  H  H33  1  0.06831000  0.13168000  0.71030000  1.0
  H  H34  1  0.77868000  0.13243000  0.28987000  1.0
  H  H35  1  0.93168000  0.86833000  0.28970000  1.0
  C  C36  1  0.62227000  0.69204000  0.32015000  1.0
  C  C37  1  0.05765000  0.30774000  0.32034000  1.0
  C  C38  1  0.37773000  0.30796000  0.67985000  1.0
  C  C39  1  0.94235000  0.69226000  0.67965000  1.0
  C  C40  1  0.38517000  0.74564000  0.16452000  1.0
  C  C41  1  0.45038000  0.25435000  0.16459000  1.0
  C  C42  1  0.61484000  0.25436000  0.83548000  1.0
  C  C43  1  0.54963000  0.74565000  0.83541000  1.0
  C  C44  1  0.48626000  0.71997000  0.47495000  1.0
  C  C45  1  0.03880000  0.27970000  0.47513000  1.0
  C  C46  1  0.51373000  0.28002000  0.52506000  1.0
  C  C47  1  0.96120000  0.72030000  0.52487000  1.0
  C  C48  1  0.44799000  0.87307000  0.07586000  1.0
  C  C49  1  0.47618000  0.12692000  0.07589000  1.0
  C  C50  1  0.55200000  0.12691000  0.92415000  1.0
  C  C51  1  0.52383000  0.87306000  0.92409000  1.0
  C  C52  1  0.42619000  0.99999000  0.14780000  1.0
  C  C53  1  0.57382000  0.00002000  0.85219000  1.0
  C  C54  1  0.27195000  0.93294000  0.61138000  1.0
  C  C55  1  0.11640000  0.06648000  0.61144000  1.0
  C  C56  1  0.72804000  0.06706000  0.38862000  1.0
  C  C57  1  0.88359000  0.93353000  0.38857000  1.0
  S  S58  1  0.56402000  0.59881000  0.20485000  1.0
  S  S59  1  0.23101000  0.40107000  0.20509000  1.0
  S  S60  1  0.43598000  0.40120000  0.79515000  1.0
  S  S61  1  0.76899000  0.59894000  0.79490000  1.0
  I  I62  1  0.97869000  0.26224000  0.99994000  1.0
  I  I63  1  0.02132000  0.73776000  0.00005000  1.0
  O  O64  1  0.33337000  0.84633000  0.48486000  1.0
  O  O65  1  0.18159000  0.15317000  0.48503000  1.0
  O  O66  1  0.66666667  0.15367000  0.51515000  1.0
  O  O67  1  0.81841000  0.84683000  0.51497000  1.0
