# generated using pymatgen
data_Al3H4C42I5N5O14
_symmetry_space_group_name_H-M   'P 1'
_cell_length_a   13.01020000
_cell_length_b   13.37234496
_cell_length_c   28.44490000
_cell_angle_alpha   90.04388279
_cell_angle_beta   90.35190000
_cell_angle_gamma   118.90611593
_symmetry_Int_Tables_number   1
_chemical_formula_structural   Al3H4C42I5N5O14
_chemical_formula_sum   'Al6 H8 C84 I10 N10 O28'
_cell_volume   4332.08302319
_cell_formula_units_Z   2
loop_
 _symmetry_equiv_pos_site_id
 _symmetry_equiv_pos_as_xyz
  1  'x, y, z'
loop_
 _atom_site_type_symbol
 _atom_site_label
 _atom_site_symmetry_multiplicity
 _atom_site_fract_x
 _atom_site_fract_y
 _atom_site_fract_z
 _atom_site_occupancy
  Al  Al0  1  0.16844000  0.58653000  0.50025000  1.0
  Al  Al1  1  0.92020000  0.58325000  0.50140000  1.0
  Al  Al2  1  0.91720000  0.35710000  0.50070000  1.0
  Al  Al3  1  0.16720000  0.07516000  0.99914000  1.0
  Al  Al4  1  0.40623000  0.31655000  0.00016000  1.0
  Al  Al5  1  0.42572000  0.10195000  0.99947000  1.0
  H  H6  1  0.74851000  0.54919000  0.21264000  1.0
  H  H7  1  0.54842000  0.41527000  0.78717000  1.0
  H  H8  1  0.57381000  0.42468000  0.70003000  1.0
  H  H9  1  0.17160000  0.15848000  0.78522000  1.0
  H  H10  1  0.02555000  0.75685000  0.80540000  1.0
  H  H11  1  0.30740000  0.48963000  0.21116000  1.0
  H  H12  1  0.35958000  0.67752000  0.46982000  1.0
  H  H13  1  0.97402000  0.99594000  0.02647000  1.0
  C  C14  1  0.08542000  0.70504000  0.43253000  1.0
  C  C15  1  0.74209000  0.39377000  0.38686000  1.0
  C  C16  1  0.56466000  0.29302000  0.23972000  1.0
  C  C17  1  0.66138000  0.34923000  0.19977000  1.0
  C  C18  1  0.64567000  0.25591000  0.26761000  1.0
  C  C19  1  0.70207000  0.37297000  0.29583000  1.0
  C  C20  1  0.74137000  0.31053000  0.22827000  1.0
  C  C21  1  0.79903000  0.42827000  0.25592000  1.0
  C  C22  1  0.63749000  0.33288000  0.15104000  1.0
  C  C23  1  0.72405000  0.38510000  0.34464000  1.0
  C  C24  1  0.09599000  0.34506000  0.38843000  1.0
  C  C25  1  0.78480000  0.41287000  0.43455000  1.0
  C  C26  1  0.05537000  0.22255000  0.27209000  1.0
  C  C27  1  0.07824000  0.21855000  0.22397000  1.0
  C  C28  1  0.23663000  0.41552000  0.22804000  1.0
  C  C29  1  0.21579000  0.41881000  0.27587000  1.0
  C  C30  1  0.12478000  0.32267000  0.29875000  1.0
  C  C31  1  0.16883000  0.31609000  0.20164000  1.0
  C  C32  1  0.19178000  0.31077000  0.15367000  1.0
  C  C33  1  0.10577000  0.32947000  0.34694000  1.0
  C  C34  1  0.21054000  0.30117000  0.11255000  1.0
  C  C35  1  0.10336000  0.75112000  0.38556000  1.0
  C  C36  1  0.07810000  0.37699000  0.43477000  1.0
  C  C37  1  0.25446000  0.82751000  0.27805000  1.0
  C  C38  1  0.27703000  0.84705000  0.22955000  1.0
  C  C39  1  0.07239000  0.79770000  0.21498000  1.0
  C  C40  1  0.05002000  0.77841000  0.26337000  1.0
  C  C41  1  0.14098000  0.79508000  0.29555000  1.0
  C  C42  1  0.18752000  0.83639000  0.19775000  1.0
  C  C43  1  0.21517000  0.86882000  0.15043000  1.0
  C  C44  1  0.11842000  0.77341000  0.34385000  1.0
  C  C45  1  0.23965000  0.90574000  0.11057000  1.0
  C  C46  1  0.72269000  0.37218000  0.60959000  1.0
  C  C47  1  0.09034000  0.71667000  0.56551000  1.0
  C  C48  1  0.73953000  0.29742000  0.72897000  1.0
  C  C49  1  0.72735000  0.29456000  0.77795000  1.0
  C  C50  1  0.60190000  0.38319000  0.77047000  1.0
  C  C51  1  0.61549000  0.38790000  0.72219000  1.0
  C  C52  1  0.68417000  0.34560000  0.70062000  1.0
  C  C53  1  0.65678000  0.33638000  0.79914000  1.0
  C  C54  1  0.63337000  0.32585000  0.84789000  1.0
  C  C55  1  0.70198000  0.35655000  0.65151000  1.0
  C  C56  1  0.60437000  0.31364000  0.88908000  1.0
  C  C57  1  0.12034000  0.35449000  0.61008000  1.0
  C  C58  1  0.77727000  0.39955000  0.56431000  1.0
  C  C59  1  0.17272000  0.42266000  0.72761000  1.0
  C  C60  1  0.18608000  0.42016000  0.77670000  1.0
  C  C61  1  0.17245000  0.23222000  0.76863000  1.0
  C  C62  1  0.15975000  0.23520000  0.72015000  1.0
  C  C63  1  0.15903000  0.33023000  0.69863000  1.0
  C  C64  1  0.18571000  0.32362000  0.79741000  1.0
  C  C65  1  0.19917000  0.31660000  0.84628000  1.0
  C  C66  1  0.13989000  0.33653000  0.65021000  1.0
  C  C67  1  0.21124000  0.30311000  0.88783000  1.0
  C  C68  1  0.12074000  0.77490000  0.61002000  1.0
  C  C69  1  0.09173000  0.38877000  0.56605000  1.0
  C  C70  1  0.07532000  0.77558000  0.73238000  1.0
  C  C71  1  0.09660000  0.79592000  0.78017000  1.0
  C  C72  1  0.30616000  0.91676000  0.76490000  1.0
  C  C73  1  0.28366000  0.89965000  0.71653000  1.0
  C  C74  1  0.16753000  0.82808000  0.69939000  1.0
  C  C75  1  0.21148000  0.86677000  0.79709000  1.0
  C  C76  1  0.22920000  0.88959000  0.84582000  1.0
  C  C77  1  0.14456000  0.80413000  0.65101000  1.0
  C  C78  1  0.24086000  0.91304000  0.88761000  1.0
  C  C79  1  0.23831000  0.27732000  0.06646000  1.0
  C  C80  1  0.62192000  0.41062000  0.26686000  1.0
  C  C81  1  0.55801000  0.28195000  0.06367000  1.0
  C  C82  1  0.26172000  0.96420000  0.06609000  1.0
  C  C83  1  0.23288000  0.27287000  0.93397000  1.0
  C  C84  1  0.55184000  0.28654000  0.93466000  1.0
  C  C85  1  0.26252000  0.96327000  0.93363000  1.0
  C  C86  1  0.71797000  0.46505000  0.22816000  1.0
  C  C87  1  0.61090000  0.31341000  0.10964000  1.0
  C  C88  1  0.28960000  0.51811000  0.30278000  1.0
  C  C89  1  0.34479000  0.84134000  0.31003000  1.0
  C  C90  1  0.39002000  0.87750000  0.21133000  1.0
  C  C91  1  0.93421000  0.73338000  0.28119000  1.0
  C  C92  1  0.16960000  0.51785000  0.70680000  1.0
  C  C93  1  0.19787000  0.51323000  0.80486000  1.0
  C  C94  1  0.92250000  0.48934000  0.26352000  1.0
  C  C95  1  0.80793000  0.26453000  0.20711000  1.0
  C  C96  1  0.96147000  0.12630000  0.29399000  1.0
  C  C97  1  0.01219000  0.11649000  0.19756000  1.0
  I  I98  1  0.93804000  0.76813000  0.16783000  1.0
  I  I99  1  0.83609000  0.23192000  0.69468000  1.0
  I  I100  1  0.80763000  0.22712000  0.82229000  1.0
  I  I101  1  0.53100000  0.48771000  0.29679000  1.0
  I  I102  1  0.13907000  0.09707000  0.67906000  1.0
  I  I103  1  0.90436000  0.66079000  0.70998000  1.0
  I  I104  1  0.47592000  0.01258000  0.79262000  1.0
  I  I105  1  0.41743000  0.97757000  0.66686000  1.0
  I  I106  1  0.59727000  0.09994000  0.29988000  1.0
  I  I107  1  0.38525000  0.18754000  0.22549000  1.0
  N  N108  1  0.35438000  0.59806000  0.32473000  1.0
  N  N109  1  0.42027000  0.85695000  0.33642000  1.0
  N  N110  1  0.48154000  0.90058000  0.19563000  1.0
  N  N111  1  0.83955000  0.68989000  0.29672000  1.0
  N  N112  1  0.16626000  0.59619000  0.69039000  1.0
  N  N113  1  0.20694000  0.59030000  0.82734000  1.0
  N  N114  1  0.02417000  0.53225000  0.26886000  1.0
  N  N115  1  0.86680000  0.23291000  0.18856000  1.0
  N  N116  1  0.88333000  0.04781000  0.31168000  1.0
  N  N117  1  0.96053000  0.03263000  0.17568000  1.0
  O  O118  1  0.15484000  0.47207000  0.45060000  1.0
  O  O119  1  0.80302000  0.49665000  0.54677000  1.0
  O  O120  1  0.80197000  0.32593000  0.54618000  1.0
  O  O121  1  0.99319000  0.31725000  0.54707000  1.0
  O  O122  1  0.00004000  0.50755000  0.50052000  1.0
  O  O123  1  0.18494000  0.99039000  0.05302000  1.0
  O  O124  1  0.16630000  0.18407000  0.04744000  1.0
  O  O125  1  0.33790000  0.35267000  0.04979000  1.0
  O  O126  1  0.53103000  0.35166000  0.04364000  1.0
  O  O127  1  0.53659000  0.18442000  0.04766000  1.0
  O  O128  1  0.35778000  0.98754000  0.04489000  1.0
  O  O129  1  0.15860000  0.67489000  0.44635000  1.0
  O  O130  1  0.18207000  0.97658000  0.95233000  1.0
  O  O131  1  0.16812000  0.17089000  0.94626000  1.0
  O  O132  1  0.31965000  0.35125000  0.95732000  1.0
  O  O133  1  0.51504000  0.35288000  0.95102000  1.0
  O  O134  1  0.54050000  0.19622000  0.95468000  1.0
  O  O135  1  0.36565000  0.99552000  0.95141000  1.0
  O  O136  1  0.33483000  0.16599000  0.00008000  1.0
  O  O137  1  0.99523000  0.69433000  0.45496000  1.0
  O  O138  1  0.80607000  0.50754000  0.45370000  1.0
  O  O139  1  0.80410000  0.33656000  0.45301000  1.0
  O  O140  1  0.98109000  0.30623000  0.45476000  1.0
  O  O141  1  0.16351000  0.48690000  0.55158000  1.0
  O  O142  1  0.16303000  0.69098000  0.54757000  1.0
  O  O143  1  0.98802000  0.69115000  0.54842000  1.0
  O  O144  1  0.32137000  0.65615000  0.50003000  1.0
  O  O145  1  0.01434000  0.99391000  0.99834000  1.0
