# generated using pymatgen
data_ZnH10C17N3O4
_symmetry_space_group_name_H-M   'P 1'
_cell_length_a   11.80100000
_cell_length_b   14.97220000
_cell_length_c   14.97220000
_cell_angle_alpha   96.36290000
_cell_angle_beta   107.27900000
_cell_angle_gamma   107.27800000
_symmetry_Int_Tables_number   1
_chemical_formula_structural   ZnH10C17N3O4
_chemical_formula_sum   'Zn4 H40 C68 N12 O16'
_cell_volume   2353.84341779
_cell_formula_units_Z   4
loop_
 _symmetry_equiv_pos_site_id
 _symmetry_equiv_pos_as_xyz
  1  'x, y, z'
loop_
 _atom_site_type_symbol
 _atom_site_label
 _atom_site_symmetry_multiplicity
 _atom_site_fract_x
 _atom_site_fract_y
 _atom_site_fract_z
 _atom_site_occupancy
  Zn  Zn0  1  0.88308000  0.56201000  0.80499000  1.0
  Zn  Zn1  1  0.11692000  0.19501000  0.43799000  1.0
  Zn  Zn2  1  0.11692000  0.43799000  0.19501000  1.0
  Zn  Zn3  1  0.88308000  0.80499000  0.56201000  1.0
  H  H4  1  0.06858000  0.50585000  0.72798000  1.0
  H  H5  1  0.93143000  0.27202000  0.49415000  1.0
  H  H6  1  0.93142000  0.49415000  0.27202000  1.0
  H  H7  1  0.06858000  0.72798000  0.50585000  1.0
  H  H8  1  0.29631000  0.52423000  0.78575000  1.0
  H  H9  1  0.70369000  0.21425000  0.47577000  1.0
  H  H10  1  0.70369000  0.47577000  0.21425000  1.0
  H  H11  1  0.29631000  0.78575000  0.52423000  1.0
  H  H12  1  0.32607000  0.66707000  0.06318000  1.0
  H  H13  1  0.67393000  0.93682000  0.33294000  1.0
  H  H14  1  0.67393000  0.33294000  0.93682000  1.0
  H  H15  1  0.32607000  0.06318000  0.66707000  1.0
  H  H16  1  0.09280000  0.64068000  0.99282000  1.0
  H  H17  1  0.90720000  0.00718000  0.35932000  1.0
  H  H18  1  0.90720000  0.35932000  0.00718000  1.0
  H  H19  1  0.09280000  0.99282000  0.64068000  1.0
  H  H20  1  0.49171000  0.56500000  0.83620000  1.0
  H  H21  1  0.50829000  0.16380000  0.43500000  1.0
  H  H22  1  0.50829000  0.43500000  0.16380000  1.0
  H  H23  1  0.49171000  0.83620000  0.56500000  1.0
  H  H24  1  0.82123000  0.65655000  0.08866000  1.0
  H  H25  1  0.17877000  0.91134000  0.34345000  1.0
  H  H26  1  0.17876000  0.34345000  0.91134000  1.0
  H  H27  1  0.82123000  0.08866000  0.65655000  1.0
  H  H28  1  0.96572000  0.85873000  0.38946000  1.0
  H  H29  1  0.03428000  0.61054000  0.14127000  1.0
  H  H30  1  0.03428000  0.14127000  0.61054000  1.0
  H  H31  1  0.96572000  0.38947000  0.85873000  1.0
  H  H32  1  0.88030000  0.80133000  0.21131000  1.0
  H  H33  1  0.11970000  0.78869000  0.19867000  1.0
  H  H34  1  0.11970000  0.19867000  0.78869000  1.0
  H  H35  1  0.88030000  0.21131000  0.80133000  1.0
  H  H36  1  0.53938000  0.61552000  0.23861000  1.0
  H  H37  1  0.46062000  0.76139000  0.38448000  1.0
  H  H38  1  0.46062000  0.38448000  0.76139000  1.0
  H  H39  1  0.53938000  0.23861000  0.61552000  1.0
  H  H40  1  0.64278000  0.67789000  0.41779000  1.0
  H  H41  1  0.35722000  0.58221000  0.32211000  1.0
  H  H42  1  0.35722000  0.32211000  0.58221000  1.0
  H  H43  1  0.64278000  0.41779000  0.67789000  1.0
  C  C44  1  0.12915000  0.54076000  0.80203000  1.0
  C  C45  1  0.87086000  0.19797000  0.45924000  1.0
  C  C46  1  0.87085000  0.45924000  0.19797000  1.0
  C  C47  1  0.12914000  0.80203000  0.54076000  1.0
  C  C48  1  0.25671000  0.55220000  0.83485000  1.0
  C  C49  1  0.74329000  0.16515000  0.44780000  1.0
  C  C50  1  0.74329000  0.44780000  0.16515000  1.0
  C  C51  1  0.25671000  0.83485000  0.55220000  1.0
  C  C52  1  0.33103000  0.59848000  0.93048000  1.0
  C  C53  1  0.66897000  0.06952000  0.40152000  1.0
  C  C54  1  0.66897000  0.40152000  0.06952000  1.0
  C  C55  1  0.33103000  0.93048000  0.59848000  1.0
  C  C56  1  0.27131000  0.63118000  0.98862000  1.0
  C  C57  1  0.72869000  0.01138000  0.36883000  1.0
  C  C58  1  0.72869000  0.36883000  0.01138000  1.0
  C  C59  1  0.27131000  0.98862000  0.63118000  1.0
  C  C60  1  0.14318000  0.61660000  0.95038000  1.0
  C  C61  1  0.85682000  0.04961000  0.38340000  1.0
  C  C62  1  0.85682000  0.38340000  0.04962000  1.0
  C  C63  1  0.14318000  0.95038000  0.61660000  1.0
  C  C64  1  0.46758000  0.61290000  0.97077000  1.0
  C  C65  1  0.53242000  0.02923000  0.38710000  1.0
  C  C66  1  0.53242000  0.38710000  0.02923000  1.0
  C  C67  1  0.46758000  0.97077000  0.61290000  1.0
  C  C68  1  0.53507000  0.59203000  0.91340000  1.0
  C  C69  1  0.46493000  0.08660000  0.40797000  1.0
  C  C70  1  0.46493000  0.40797000  0.08660000  1.0
  C  C71  1  0.53507000  0.91340000  0.59203000  1.0
  C  C72  1  0.66336000  0.60652000  0.95611000  1.0
  C  C73  1  0.33664000  0.04389000  0.39348000  1.0
  C  C74  1  0.33664000  0.39348000  0.04389000  1.0
  C  C75  1  0.66336000  0.95611000  0.60652000  1.0
  C  C76  1  0.72124000  0.64493000  0.05424000  1.0
  C  C77  1  0.27876000  0.94576000  0.35507000  1.0
  C  C78  1  0.27876000  0.35507000  0.94576000  1.0
  C  C79  1  0.72124000  0.05424000  0.64493000  1.0
  C  C80  1  0.64730000  0.66450000  0.10636000  1.0
  C  C81  1  0.35270000  0.89364000  0.33550000  1.0
  C  C82  1  0.35270000  0.33550000  0.89364000  1.0
  C  C83  1  0.64730000  0.10636000  0.66450000  1.0
  C  C84  1  0.87256000  0.80352000  0.35339000  1.0
  C  C85  1  0.12744000  0.64661000  0.19648000  1.0
  C  C86  1  0.12744000  0.19648000  0.64661000  1.0
  C  C87  1  0.87256000  0.35339000  0.80352000  1.0
  C  C88  1  0.82474000  0.77123000  0.25437000  1.0
  C  C89  1  0.17526000  0.74563000  0.22877000  1.0
  C  C90  1  0.17526000  0.22877000  0.74563000  1.0
  C  C91  1  0.82474000  0.25437000  0.77123000  1.0
  C  C92  1  0.70311000  0.70228000  0.21112000  1.0
  C  C93  1  0.29689000  0.78888000  0.29772000  1.0
  C  C94  1  0.29689000  0.29772000  0.78888000  1.0
  C  C95  1  0.70311000  0.21112000  0.70228000  1.0
  C  C96  1  0.63459000  0.66873000  0.27000000  1.0
  C  C97  1  0.36541000  0.73000000  0.33127000  1.0
  C  C98  1  0.36541000  0.33127000  0.73000000  1.0
  C  C99  1  0.63459000  0.27000000  0.66873000  1.0
  C  C100  1  0.69066000  0.70306000  0.36853000  1.0
  C  C101  1  0.30934000  0.63147000  0.29694000  1.0
  C  C102  1  0.30934000  0.29694000  0.63147000  1.0
  C  C103  1  0.69066000  0.36853000  0.70306000  1.0
  C  C104  1  0.73688000  0.58086000  0.89687000  1.0
  C  C105  1  0.26312000  0.10313000  0.41914000  1.0
  C  C106  1  0.26312000  0.41914000  0.10313000  1.0
  C  C107  1  0.73688000  0.89687000  0.58086000  1.0
  C  C108  1  0.91151000  0.72658000  0.72659000  1.0
  C  C109  1  0.08849000  0.27341000  0.27342000  1.0
  C  C110  1  0.86848000  0.64009000  0.64010000  1.0
  C  C111  1  0.13152000  0.35990000  0.35991000  1.0
  N  N112  1  0.07277000  0.57187000  0.85876000  1.0
  N  N113  1  0.92723000  0.14124000  0.42813000  1.0
  N  N114  1  0.92723000  0.42813000  0.14124000  1.0
  N  N115  1  0.07277000  0.85876000  0.57187000  1.0
  N  N116  1  0.52306000  0.64732000  0.06602000  1.0
  N  N117  1  0.47694000  0.93398000  0.35268000  1.0
  N  N118  1  0.47694000  0.35268000  0.93398000  1.0
  N  N119  1  0.52306000  0.06603000  0.64732000  1.0
  N  N120  1  0.80744000  0.76948000  0.40964000  1.0
  N  N121  1  0.19256000  0.59036000  0.23052000  1.0
  N  N122  1  0.19256000  0.23052000  0.59036000  1.0
  N  N123  1  0.80744000  0.40964000  0.76948000  1.0
  O  O124  1  0.68236000  0.55408000  0.80685000  1.0
  O  O125  1  0.31764000  0.19315000  0.44592000  1.0
  O  O126  1  0.31764000  0.44593000  0.19315000  1.0
  O  O127  1  0.68236000  0.80685000  0.55407000  1.0
  O  O128  1  0.85137000  0.58788000  0.94052000  1.0
  O  O129  1  0.14863000  0.05948000  0.41212000  1.0
  O  O130  1  0.14863000  0.41212000  0.05948000  1.0
  O  O131  1  0.85137000  0.94052000  0.58788000  1.0
  O  O132  1  0.92846000  0.70810000  0.80901000  1.0
  O  O133  1  0.07154000  0.19099000  0.29190000  1.0
  O  O134  1  0.07154000  0.29191000  0.19099000  1.0
  O  O135  1  0.92846000  0.80901000  0.70809000  1.0
  O  O136  1  0.85357000  0.55758000  0.65857000  1.0
  O  O137  1  0.14643000  0.34143000  0.44242000  1.0
  O  O138  1  0.14644000  0.44243000  0.34144000  1.0
  O  O139  1  0.85357000  0.65856000  0.55757000  1.0
