# generated using pymatgen
data_CuH30C26(NO2)4
_symmetry_space_group_name_H-M   'P 1'
_cell_length_a   7.57368000
_cell_length_b   8.88033000
_cell_length_c   10.58120000
_cell_angle_alpha   69.75740000
_cell_angle_beta   75.40360000
_cell_angle_gamma   68.55440000
_symmetry_Int_Tables_number   1
_chemical_formula_structural   CuH30C26(NO2)4
_chemical_formula_sum   'Cu1 H30 C26 N4 O8'
_cell_volume   615.02253092
_cell_formula_units_Z   1
loop_
 _symmetry_equiv_pos_site_id
 _symmetry_equiv_pos_as_xyz
  1  'x, y, z'
loop_
 _atom_site_type_symbol
 _atom_site_label
 _atom_site_symmetry_multiplicity
 _atom_site_fract_x
 _atom_site_fract_y
 _atom_site_fract_z
 _atom_site_occupancy
  Cu  Cu0  1  0.00000000  0.00000000  0.00000000  1.0
  H  H1  1  0.80571000  0.32625000  0.29959000  1.0
  H  H2  1  0.19429000  0.67375000  0.70042000  1.0
  H  H3  1  0.32578000  0.69752000  0.97515000  1.0
  H  H4  1  0.67422000  0.30248000  0.02485000  1.0
  H  H5  1  0.38399000  0.38032000  0.05747000  1.0
  H  H6  1  0.61601000  0.61968000  0.94253000  1.0
  H  H7  1  0.11552000  0.27153000  0.19557000  1.0
  H  H8  1  0.88448000  0.72847000  0.80444000  1.0
  H  H9  1  0.75755000  0.78889000  0.14825000  1.0
  H  H10  1  0.24245000  0.21110000  0.85176000  1.0
  H  H11  1  0.50049000  0.36374000  0.46587000  1.0
  H  H12  1  0.49951000  0.63626000  0.53413000  1.0
  H  H13  1  0.44673000  0.35086000  0.31985000  1.0
  H  H14  1  0.55327000  0.64914000  0.68015000  1.0
  H  H15  1  0.18209000  0.62781000  0.30183000  1.0
  H  H16  1  0.81791000  0.37219000  0.69817000  1.0
  H  H17  1  0.23138000  0.64211000  0.44938000  1.0
  H  H18  1  0.76862000  0.35789000  0.55062000  1.0
  H  H19  1  0.10779000  0.35619000  0.43355000  1.0
  H  H20  1  0.89221000  0.64381000  0.56646000  1.0
  H  H21  1  0.15841000  0.36760000  0.58206000  1.0
  H  H22  1  0.84159000  0.63240000  0.41794000  1.0
  H  H23  1  0.20041000  0.98258000  0.45720000  1.0
  H  H24  1  0.79959000  0.01741000  0.54280000  1.0
  H  H25  1  0.47005000  0.01386000  0.26696000  1.0
  H  H26  1  0.52995000  0.98613000  0.73304000  1.0
  H  H27  1  0.14536000  0.02427000  0.18818000  1.0
  H  H28  1  0.85464000  0.97572000  0.81182000  1.0
  H  H29  1  0.33707000  0.88664000  0.15358000  1.0
  H  H30  1  0.66293000  0.11336000  0.84642000  1.0
  C  C31  1  0.21472000  0.64107000  0.03545000  1.0
  C  C32  1  0.78528000  0.35894000  0.96455000  1.0
  C  C33  1  0.24518000  0.46789000  0.08235000  1.0
  C  C34  1  0.75482000  0.53211000  0.91765000  1.0
  C  C35  1  0.09520000  0.40648000  0.15894000  1.0
  C  C36  1  0.90480000  0.59352000  0.84106000  1.0
  C  C37  1  0.91420000  0.52052000  0.18501000  1.0
  C  C38  1  0.08580000  0.47948000  0.81499000  1.0
  C  C39  1  0.89334000  0.69386000  0.13316000  1.0
  C  C40  1  0.10666000  0.30614000  0.86684000  1.0
  C  C41  1  0.57366000  0.54417000  0.28145000  1.0
  C  C42  1  0.42634000  0.45583000  0.71855000  1.0
  C  C43  1  0.44200000  0.44227000  0.37039000  1.0
  C  C44  1  0.55800000  0.55774000  0.62961000  1.0
  C  C45  1  0.23553000  0.55099000  0.39887000  1.0
  C  C46  1  0.76447000  0.44901000  0.60113000  1.0
  C  C47  1  0.10353000  0.44619000  0.48535000  1.0
  C  C48  1  0.89647000  0.55381000  0.51465000  1.0
  C  C49  1  0.18920000  0.95729000  0.72078000  1.0
  C  C50  1  0.81080000  0.04270000  0.27922000  1.0
  C  C51  1  0.34974000  0.98138000  0.60658000  1.0
  C  C52  1  0.65026000  0.01861000  0.39342000  1.0
  C  C53  1  0.33233000  0.98974000  0.47520000  1.0
  C  C54  1  0.66767000  0.01026000  0.52480000  1.0
  C  C55  1  0.48208000  0.00785000  0.36922000  1.0
  C  C56  1  0.51792000  0.99215000  0.63077000  1.0
  N  N57  1  0.04196000  0.74998000  0.06207000  1.0
  N  N58  1  0.95804000  0.25002000  0.93793000  1.0
  N  N59  1  0.76497000  0.45561000  0.26236000  1.0
  N  N60  1  0.23503000  0.54439000  0.73764000  1.0
  O  O61  1  0.51328000  0.69843000  0.22890000  1.0
  O  O62  1  0.48672000  0.30157000  0.77110000  1.0
  O  O63  1  0.05958000  0.91180000  0.70159000  1.0
  O  O64  1  0.94042000  0.08820000  0.29841000  1.0
  O  O65  1  0.19809000  0.98250000  0.83080000  1.0
  O  O66  1  0.80191000  0.01750000  0.16920000  1.0
  O  O67  1  0.24825000  0.99648000  0.11282000  1.0
  O  O68  1  0.75175000  0.00352000  0.88718000  1.0
