# generated using pymatgen
data_Hf3H26C54N9O16
_symmetry_space_group_name_H-M   'P 1'
_cell_length_a   18.90700000
_cell_length_b   18.90620000
_cell_length_c   19.05940000
_cell_angle_alpha   91.44880000
_cell_angle_beta   91.02200000
_cell_angle_gamma   91.48780000
_symmetry_Int_Tables_number   1
_chemical_formula_structural   Hf3H26C54N9O16
_chemical_formula_sum   'Hf6 H52 C108 N18 O32'
_cell_volume   6807.32415392
_cell_formula_units_Z   2
loop_
 _symmetry_equiv_pos_site_id
 _symmetry_equiv_pos_as_xyz
  1  'x, y, z'
loop_
 _atom_site_type_symbol
 _atom_site_label
 _atom_site_symmetry_multiplicity
 _atom_site_fract_x
 _atom_site_fract_y
 _atom_site_fract_z
 _atom_site_occupancy
  Hf  Hf0  1  0.06019000  0.18353000  0.14434000  1.0
  Hf  Hf1  1  0.15617000  0.23585000  0.99819000  1.0
  Hf  Hf2  1  0.03508000  0.01450000  0.06842000  1.0
  Hf  Hf3  1  0.20625000  0.08727000  0.09102000  1.0
  Hf  Hf4  1  0.98588000  0.16298000  0.97518000  1.0
  Hf  Hf5  1  0.13174000  0.06587000  0.92274000  1.0
  H  H6  1  0.20283000  0.22909000  0.13916000  1.0
  H  H7  1  0.93087000  0.11422000  0.09953000  1.0
  H  H8  1  0.16025000  0.95952000  0.02034000  1.0
  H  H9  1  0.08528000  0.19272000  0.87056000  1.0
  H  H10  1  0.25596000  0.74562000  0.25911000  1.0
  H  H11  1  0.05604000  0.80690000  0.34260000  1.0
  H  H12  1  0.05231000  0.90630000  0.25785000  1.0
  H  H13  1  0.25937000  0.85400000  0.18608000  1.0
  H  H14  1  0.11858000  0.44669000  0.36009000  1.0
  H  H15  1  0.18137000  0.57887000  0.19049000  1.0
  H  H16  1  0.17218000  0.47422000  0.10681000  1.0
  H  H17  1  0.10681000  0.34301000  0.27627000  1.0
  H  H18  1  0.05732000  0.80666000  0.70411000  1.0
  H  H19  1  0.99924000  0.67540000  0.87599000  1.0
  H  H20  1  0.00947000  0.78069000  0.95878000  1.0
  H  H21  1  0.07034000  0.91115000  0.78724000  1.0
  H  H22  1  0.12751000  0.44588000  0.72601000  1.0
  H  H23  1  0.93131000  0.50962000  0.81597000  1.0
  H  H24  1  0.93073000  0.40314000  0.89159000  1.0
  H  H25  1  0.13448000  0.34841000  0.81259000  1.0
  H  H26  1  0.70829000  0.34019000  0.18957000  1.0
  H  H27  1  0.78779000  0.44816000  0.01020000  1.0
  H  H28  1  0.89021000  0.36625000  0.00651000  1.0
  H  H29  1  0.81768000  0.26825000  0.19444000  1.0
  H  H30  1  0.41781000  0.45120000  0.06039000  1.0
  H  H31  1  0.55114000  0.27909000  0.11397000  1.0
  H  H32  1  0.44672000  0.19435000  0.10365000  1.0
  H  H33  1  0.31423000  0.36651000  0.04790000  1.0
  H  H34  1  0.88163000  0.88020000  0.00610000  1.0
  H  H35  1  0.75105000  0.05291000  0.94783000  1.0
  H  H36  1  0.64628000  0.96884000  0.93583000  1.0
  H  H37  1  0.77763000  0.79590000  0.99158000  1.0
  H  H38  1  0.48548000  0.91286000  0.86941000  1.0
  H  H39  1  0.41120000  0.80856000  0.05310000  1.0
  H  H40  1  0.31122000  0.89291000  0.06038000  1.0
  H  H41  1  0.37761000  0.98704000  0.86819000  1.0
  H  H42  1  0.30104000  0.26895000  0.63748000  1.0
  H  H43  1  0.42220000  0.10290000  0.72650000  1.0
  H  H44  1  0.34237000  0.10209000  0.83020000  1.0
  H  H45  1  0.22948000  0.27677000  0.74626000  1.0
  H  H46  1  0.24868000  0.19960000  0.48541000  1.0
  H  H47  1  0.42074000  0.13864000  0.35444000  1.0
  H  H48  1  0.33756000  0.12907000  0.25093000  1.0
  H  H49  1  0.16560000  0.19238000  0.38109000  1.0
  H  H50  1  0.85006000  0.10934000  0.81943000  1.0
  H  H51  1  0.02235000  0.04032000  0.69275000  1.0
  H  H52  1  0.93996000  0.02957000  0.58814000  1.0
  H  H53  1  0.76718000  0.09582000  0.71555000  1.0
  H  H54  1  0.76275000  0.11909000  0.33793000  1.0
  H  H55  1  0.91120000  0.98646000  0.44135000  1.0
  H  H56  1  0.98672000  0.98571000  0.33533000  1.0
  H  H57  1  0.84208000  0.12546000  0.23460000  1.0
  C  C58  1  0.79466000  0.06005000  0.46263000  1.0
  C  C59  1  0.80281000  0.06354000  0.58212000  1.0
  C  C60  1  0.69969000  0.08960000  0.52692000  1.0
  C  C61  1  0.40023000  0.17479000  0.60742000  1.0
  C  C62  1  0.38728000  0.16863000  0.48839000  1.0
  C  C63  1  0.49171000  0.14102000  0.54034000  1.0
  C  C64  1  0.52232000  0.82004000  0.96739000  1.0
  C  C65  1  0.58888000  0.72808000  0.99925000  1.0
  C  C66  1  0.64239000  0.83054000  0.96615000  1.0
  C  C67  1  0.67302000  0.43231000  0.09048000  1.0
  C  C68  1  0.60522000  0.52246000  0.05619000  1.0
  C  C69  1  0.55313000  0.41841000  0.08665000  1.0
  C  C70  1  0.03423000  0.55125000  0.72928000  1.0
  C  C71  1  0.06479000  0.61778000  0.63710000  1.0
  C  C72  1  0.03118000  0.67125000  0.73880000  1.0
  C  C73  1  0.14914000  0.70164000  0.34045000  1.0
  C  C74  1  0.11715000  0.63367000  0.43113000  1.0
  C  C75  1  0.14876000  0.58171000  0.32796000  1.0
  C  C76  1  0.96995000  0.06635000  0.22024000  1.0
  C  C77  1  0.12541000  0.33919000  0.13879000  1.0
  C  C78  1  0.19944000  0.14882000  0.24654000  1.0
  C  C79  1  0.91480000  0.25819000  0.09112000  1.0
  C  C80  1  0.22815000  0.18128000  0.85095000  1.0
  C  C81  1  0.05874000  0.91377000  0.92588000  1.0
  C  C82  1  0.31152000  0.22738000  0.06055000  1.0
  C  C83  1  0.04109000  0.31440000  0.91038000  1.0
  C  C84  1  0.88343000  0.02008000  0.99751000  1.0
  C  C85  1  0.14892000  0.94076000  0.16287000  1.0
  C  C86  1  0.28249000  0.99813000  0.97424000  1.0
  C  C87  1  0.98924000  0.09284000  0.82339000  1.0
  C  C88  1  0.21328000  0.78320000  0.26115000  1.0
  C  C89  1  0.15585000  0.77003000  0.30496000  1.0
  C  C90  1  0.09994000  0.81727000  0.30765000  1.0
  C  C91  1  0.09845000  0.87312000  0.26158000  1.0
  C  C92  1  0.15555000  0.88575000  0.21717000  1.0
  C  C93  1  0.21458000  0.84265000  0.21961000  1.0
  C  C94  1  0.13046000  0.45214000  0.30474000  1.0
  C  C95  1  0.15035000  0.51902000  0.28022000  1.0
  C  C96  1  0.16635000  0.52658000  0.20886000  1.0
  C  C97  1  0.16092000  0.46857000  0.16234000  1.0
  C  C98  1  0.13812000  0.40254000  0.18648000  1.0
  C  C99  1  0.12397000  0.39471000  0.25817000  1.0
  C  C100  1  0.04651000  0.80163000  0.75975000  1.0
  C  C101  1  0.02814000  0.73472000  0.78531000  1.0
  C  C102  1  0.01321000  0.72764000  0.85694000  1.0
  C  C103  1  0.01925000  0.78599000  0.90290000  1.0
  C  C104  1  0.04171000  0.85175000  0.87788000  1.0
  C  C105  1  0.05374000  0.85944000  0.80583000  1.0
  C  C106  1  0.08515000  0.43653000  0.76302000  1.0
  C  C107  1  0.02938000  0.48384000  0.76672000  1.0
  C  C108  1  0.97383000  0.47192000  0.81321000  1.0
  C  C109  1  0.97421000  0.41361000  0.85621000  1.0
  C  C110  1  0.03313000  0.37033000  0.85717000  1.0
  C  C111  1  0.08840000  0.38180000  0.81029000  1.0
  C  C112  1  0.08364000  0.62281000  0.56490000  1.0
  C  C113  1  0.09861000  0.62776000  0.50334000  1.0
  C  C114  1  0.75015000  0.34780000  0.15176000  1.0
  C  C115  1  0.74161000  0.39783000  0.09937000  1.0
  C  C116  1  0.79460000  0.40814000  0.04978000  1.0
  C  C117  1  0.85181000  0.36346000  0.04841000  1.0
  C  C118  1  0.85933000  0.31228000  0.09983000  1.0
  C  C119  1  0.81029000  0.30702000  0.15372000  1.0
  C  C120  1  0.42350000  0.39508000  0.07010000  1.0
  C  C121  1  0.49062000  0.37003000  0.08756000  1.0
  C  C122  1  0.49865000  0.29771000  0.10078000  1.0
  C  C123  1  0.44081000  0.25066000  0.09475000  1.0
  C  C124  1  0.37458000  0.27540000  0.07426000  1.0
  C  C125  1  0.36621000  0.34804000  0.06314000  1.0
  C  C126  1  0.83000000  0.89878000  0.98976000  1.0
  C  C127  1  0.82202000  0.97149000  0.97902000  1.0
  C  C128  1  0.75648000  0.99653000  0.95667000  1.0
  C  C129  1  0.69846000  0.94988000  0.94969000  1.0
  C  C130  1  0.70574000  0.87764000  0.96361000  1.0
  C  C131  1  0.77252000  0.85205000  0.98166000  1.0
  C  C132  1  0.44511000  0.90659000  0.90902000  1.0
  C  C133  1  0.45460000  0.85672000  0.96145000  1.0
  C  C134  1  0.40374000  0.84839000  0.01345000  1.0
  C  C135  1  0.34770000  0.89447000  0.01672000  1.0
  C  C136  1  0.33889000  0.94507000  0.96489000  1.0
  C  C137  1  0.38587000  0.94869000  0.90910000  1.0
  C  C138  1  0.59404000  0.65590000  0.01932000  1.0
  C  C139  1  0.59921000  0.59452000  0.03601000  1.0
  C  C140  1  0.31170000  0.23477000  0.68138000  1.0
  C  C141  1  0.36542000  0.18523000  0.67547000  1.0
  C  C142  1  0.37959000  0.14039000  0.73125000  1.0
  C  C143  1  0.33586000  0.14066000  0.78918000  1.0
  C  C144  1  0.28115000  0.18911000  0.79416000  1.0
  C  C145  1  0.27134000  0.23842000  0.74157000  1.0
  C  C146  1  0.26769000  0.18532000  0.43349000  1.0
  C  C147  1  0.33959000  0.16946000  0.42613000  1.0
  C  C148  1  0.36498000  0.15048000  0.35971000  1.0
  C  C149  1  0.31876000  0.14520000  0.30239000  1.0
  C  C150  1  0.24661000  0.15957000  0.30994000  1.0
  C  C151  1  0.22154000  0.18102000  0.37567000  1.0
  C  C152  1  0.86889000  0.09104000  0.76865000  1.0
  C  C153  1  0.94108000  0.07667000  0.76184000  1.0
  C  C154  1  0.96639000  0.05198000  0.69734000  1.0
  C  C155  1  0.92063000  0.04567000  0.63941000  1.0
  C  C156  1  0.84887000  0.06255000  0.64554000  1.0
  C  C157  1  0.82295000  0.08355000  0.71119000  1.0
  C  C158  1  0.81183000  0.09012000  0.33671000  1.0
  C  C159  1  0.83277000  0.05297000  0.39604000  1.0
  C  C160  1  0.89538000  0.01458000  0.39471000  1.0
  C  C161  1  0.93762000  0.01469000  0.33584000  1.0
  C  C162  1  0.91918000  0.05584000  0.27871000  1.0
  C  C163  1  0.85590000  0.09294000  0.27906000  1.0
  C  C164  1  0.56447000  0.12229000  0.53480000  1.0
  C  C165  1  0.62656000  0.10747000  0.53073000  1.0
  N  N166  1  0.83308000  0.04786000  0.52081000  1.0
  N  N167  1  0.73514000  0.08352000  0.58837000  1.0
  N  N168  1  0.72716000  0.08143000  0.46240000  1.0
  N  N169  1  0.35985000  0.18704000  0.55048000  1.0
  N  N170  1  0.45415000  0.14686000  0.48015000  1.0
  N  N171  1  0.46666000  0.15079000  0.60571000  1.0
  N  N172  1  0.52340000  0.75450000  0.99344000  1.0
  N  N173  1  0.64997000  0.76413000  0.98891000  1.0
  N  N174  1  0.57979000  0.85847000  0.94985000  1.0
  N  N175  1  0.67117000  0.49797000  0.06480000  1.0
  N  N176  1  0.54464000  0.48474000  0.06397000  1.0
  N  N177  1  0.61584000  0.39198000  0.10505000  1.0
  N  N178  1  0.06051000  0.55241000  0.66411000  1.0
  N  N179  1  0.05373000  0.67883000  0.67259000  1.0
  N  N180  1  0.01538000  0.60848000  0.76699000  1.0
  N  N181  1  0.12309000  0.69960000  0.40566000  1.0
  N  N182  1  0.12637000  0.57315000  0.39412000  1.0
  N  N183  1  0.16617000  0.64477000  0.30118000  1.0
  O  O184  1  0.98037000  0.01641000  0.17641000  1.0
  O  O185  1  0.15078000  0.33530000  0.07760000  1.0
  O  O186  1  0.13818000  0.17474000  0.24283000  1.0
  O  O187  1  0.95637000  0.24456000  0.14159000  1.0
  O  O188  1  0.91342000  0.22810000  0.02981000  1.0
  O  O189  1  0.22816000  0.11237000  0.19728000  1.0
  O  O190  1  0.08784000  0.29016000  0.16701000  1.0
  O  O191  1  0.99852000  0.12869000  0.22010000  1.0
  O  O192  1  0.06037000  0.21155000  0.04073000  1.0
  O  O193  1  0.10153000  0.08760000  0.11857000  1.0
  O  O194  1  0.17227000  0.19941000  0.10878000  1.0
  O  O195  1  0.97871000  0.11750000  0.08228000  1.0
  O  O196  1  0.21621000  0.23235000  0.89298000  1.0
  O  O197  1  0.03452000  0.91791000  0.98760000  1.0
  O  O198  1  0.30699000  0.16557000  0.08494000  1.0
  O  O199  1  0.98968000  0.27229000  0.92254000  1.0
  O  O200  1  0.88802000  0.08257000  0.97464000  1.0
  O  O201  1  0.20101000  0.98166000  0.14982000  1.0
  O  O202  1  0.23999000  0.01068000  0.92417000  1.0
  O  O203  1  0.05096000  0.06788000  0.82721000  1.0
  O  O204  1  0.28200000  0.02661000  0.03623000  1.0
  O  O205  1  0.96229000  0.13451000  0.86951000  1.0
  O  O206  1  0.26326000  0.25616000  0.02320000  1.0
  O  O207  1  0.08784000  0.94030000  0.13196000  1.0
  O  O208  1  0.92865000  0.99238000  0.03918000  1.0
  O  O209  1  0.10304000  0.31336000  0.93929000  1.0
  O  O210  1  0.19731000  0.11984000  0.85006000  1.0
  O  O211  1  0.10048000  0.95992000  0.89867000  1.0
  O  O212  1  0.03900000  0.06958000  0.97704000  1.0
  O  O213  1  0.18207000  0.13075000  0.99666000  1.0
  O  O214  1  0.14345000  0.00744000  0.02382000  1.0
  O  O215  1  0.08856000  0.17501000  0.91775000  1.0
