# generated using pymatgen
data_ZnH9C15N2O4F3
_symmetry_space_group_name_H-M   'P 1'
_cell_length_a   8.91377000
_cell_length_b   10.51060000
_cell_length_c   16.38900000
_cell_angle_alpha   90.00070000
_cell_angle_beta   90.00040000
_cell_angle_gamma   73.60500000
_symmetry_Int_Tables_number   1
_chemical_formula_structural   ZnH9C15N2O4F3
_chemical_formula_sum   'Zn4 H36 C60 N8 O16 F12'
_cell_volume   1473.03583163
_cell_formula_units_Z   4
loop_
 _symmetry_equiv_pos_site_id
 _symmetry_equiv_pos_as_xyz
  1  'x, y, z'
loop_
 _atom_site_type_symbol
 _atom_site_label
 _atom_site_symmetry_multiplicity
 _atom_site_fract_x
 _atom_site_fract_y
 _atom_site_fract_z
 _atom_site_occupancy
  Zn  Zn0  1  0.80869000  0.41023000  0.82906000  1.0
  Zn  Zn1  1  0.30869000  0.41023000  0.67094000  1.0
  Zn  Zn2  1  0.19131000  0.58977000  0.17095000  1.0
  Zn  Zn3  1  0.69131000  0.58977000  0.32906000  1.0
  H  H4  1  0.11686000  0.77024000  0.77337000  1.0
  H  H5  1  0.61686000  0.77025000  0.72663000  1.0
  H  H6  1  0.88314000  0.22976000  0.22663000  1.0
  H  H7  1  0.38314000  0.22974000  0.27337000  1.0
  H  H8  1  0.52968000  0.12993000  0.00680000  1.0
  H  H9  1  0.02968000  0.12994000  0.49320000  1.0
  H  H10  1  0.47032000  0.87007000  0.99320000  1.0
  H  H11  1  0.97032000  0.87006000  0.50680000  1.0
  H  H12  1  0.64413000  0.45716000  0.12707000  1.0
  H  H13  1  0.14413000  0.45716000  0.37293000  1.0
  H  H14  1  0.35588000  0.54284000  0.87293000  1.0
  H  H15  1  0.85588000  0.54284000  0.62707000  1.0
  H  H16  1  0.76725000  0.77051000  0.00816000  1.0
  H  H17  1  0.26725000  0.77051000  0.49184000  1.0
  H  H18  1  0.23275000  0.22949000  0.99184000  1.0
  H  H19  1  0.73274000  0.22948000  0.50816000  1.0
  H  H20  1  0.51843000  0.27032000  0.13214000  1.0
  H  H21  1  0.01843000  0.27033000  0.36786000  1.0
  H  H22  1  0.48157000  0.72968000  0.86786000  1.0
  H  H23  1  0.98157000  0.72967000  0.63214000  1.0
  H  H24  1  0.79498000  0.58195000  0.04856000  1.0
  H  H25  1  0.29499000  0.58195000  0.45144000  1.0
  H  H26  1  0.20502000  0.41805000  0.95144000  1.0
  H  H27  1  0.70502000  0.41805000  0.54856000  1.0
  H  H28  1  0.02853000  0.97095000  0.86038000  1.0
  H  H29  1  0.52853000  0.97095000  0.63962000  1.0
  H  H30  1  0.97147000  0.02906000  0.13962000  1.0
  H  H31  1  0.47147000  0.02905000  0.36038000  1.0
  H  H32  1  0.85651000  0.96828000  0.98052000  1.0
  H  H33  1  0.35651000  0.96828000  0.51948000  1.0
  H  H34  1  0.14349000  0.03172000  0.01948000  1.0
  H  H35  1  0.64348000  0.03172000  0.48052000  1.0
  H  H36  1  0.66230000  0.18313000  0.88102000  1.0
  H  H37  1  0.16230000  0.18313000  0.61897000  1.0
  H  H38  1  0.33770000  0.81687000  0.11898000  1.0
  H  H39  1  0.83770000  0.81687000  0.38102000  1.0
  C  C40  1  0.99114000  0.65709000  0.83909000  1.0
  C  C41  1  0.49114000  0.65709000  0.66091000  1.0
  C  C42  1  0.00886000  0.34292000  0.16091000  1.0
  C  C43  1  0.50886000  0.34291000  0.33909000  1.0
  C  C44  1  0.89211000  0.65705000  0.90690000  1.0
  C  C45  1  0.39211000  0.65706000  0.59310000  1.0
  C  C46  1  0.10789000  0.34295000  0.09310000  1.0
  C  C47  1  0.60789000  0.34294000  0.40690000  1.0
  C  C48  1  0.71614000  0.41577000  0.00188000  1.0
  C  C49  1  0.21614000  0.41577000  0.49812000  1.0
  C  C50  1  0.28386000  0.58423000  0.99812000  1.0
  C  C51  1  0.78386000  0.58423000  0.50188000  1.0
  C  C52  1  0.03909000  0.77140000  0.82470000  1.0
  C  C53  1  0.53910000  0.77140000  0.67531000  1.0
  C  C54  1  0.96090000  0.22860000  0.17530000  1.0
  C  C55  1  0.46090000  0.22860000  0.32469000  1.0
  C  C56  1  0.58167000  0.21191000  0.00735000  1.0
  C  C57  1  0.08167000  0.21192000  0.49264000  1.0
  C  C58  1  0.41832000  0.78809000  0.99265000  1.0
  C  C59  1  0.91833000  0.78809000  0.50735000  1.0
  C  C60  1  0.05652000  0.54028000  0.78364000  1.0
  C  C61  1  0.55653000  0.54028000  0.71636000  1.0
  C  C62  1  0.94348000  0.45972000  0.21636000  1.0
  C  C63  1  0.44347000  0.45971000  0.28364000  1.0
  C  C64  1  0.84036000  0.21201000  0.70119000  1.0
  C  C65  1  0.34037000  0.21200000  0.79881000  1.0
  C  C66  1  0.15964000  0.78800000  0.29880000  1.0
  C  C67  1  0.65964000  0.78799000  0.20119000  1.0
  C  C68  1  0.64553000  0.39321000  0.07448000  1.0
  C  C69  1  0.14553000  0.39321000  0.42553000  1.0
  C  C70  1  0.35448000  0.60678000  0.92553000  1.0
  C  C71  1  0.85447000  0.60679000  0.57447000  1.0
  C  C72  1  0.84513000  0.77025000  0.95691000  1.0
  C  C73  1  0.34513000  0.77025000  0.54309000  1.0
  C  C74  1  0.15487000  0.22976000  0.04309000  1.0
  C  C75  1  0.65486000  0.22975000  0.45691000  1.0
  C  C76  1  0.57623000  0.28947000  0.07677000  1.0
  C  C77  1  0.07623000  0.28947000  0.42323000  1.0
  C  C78  1  0.42377000  0.71053000  0.92323000  1.0
  C  C79  1  0.92377000  0.71053000  0.57677000  1.0
  C  C80  1  0.78822000  0.52380000  0.99383000  1.0
  C  C81  1  0.28822000  0.52380000  0.50617000  1.0
  C  C82  1  0.21179000  0.47620000  0.00617000  1.0
  C  C83  1  0.71178000  0.47620000  0.49383000  1.0
  C  C84  1  0.99169000  0.88299000  0.87427000  1.0
  C  C85  1  0.49169000  0.88299000  0.62573000  1.0
  C  C86  1  0.00831000  0.11701000  0.12573000  1.0
  C  C87  1  0.50830000  0.11700000  0.37427000  1.0
  C  C88  1  0.89480000  0.88177000  0.94102000  1.0
  C  C89  1  0.39480000  0.88177000  0.55898000  1.0
  C  C90  1  0.10520000  0.11823000  0.05898000  1.0
  C  C91  1  0.60520000  0.11823000  0.44102000  1.0
  C  C92  1  0.65445000  0.24074000  0.93688000  1.0
  C  C93  1  0.15445000  0.24074000  0.56312000  1.0
  C  C94  1  0.34555000  0.75926000  0.06312000  1.0
  C  C95  1  0.84555000  0.75926000  0.43688000  1.0
  C  C96  1  0.84686000  0.06621000  0.67841000  1.0
  C  C97  1  0.34687000  0.06620000  0.82159000  1.0
  C  C98  1  0.15314000  0.93379000  0.32159000  1.0
  C  C99  1  0.65313000  0.93379000  0.17841000  1.0
  N  N100  1  0.83645000  0.54732000  0.92259000  1.0
  N  N101  1  0.33645000  0.54733000  0.57741000  1.0
  N  N102  1  0.16355000  0.45268000  0.07741000  1.0
  N  N103  1  0.66355000  0.45267000  0.42259000  1.0
  N  N104  1  0.71902000  0.34082000  0.93427000  1.0
  N  N105  1  0.21902000  0.34082000  0.56573000  1.0
  N  N106  1  0.28098000  0.65918000  0.06573000  1.0
  N  N107  1  0.78098000  0.65918000  0.43427000  1.0
  O  O108  1  0.84429000  0.22887000  0.77814000  1.0
  O  O109  1  0.34429000  0.22887000  0.72185000  1.0
  O  O110  1  0.15572000  0.77113000  0.22185000  1.0
  O  O111  1  0.65571000  0.77113000  0.27815000  1.0
  O  O112  1  0.83651000  0.28999000  0.64397000  1.0
  O  O113  1  0.33653000  0.28996000  0.85602000  1.0
  O  O114  1  0.16349000  0.71002000  0.35603000  1.0
  O  O115  1  0.66349000  0.71003000  0.14398000  1.0
  O  O116  1  0.01250000  0.43578000  0.78527000  1.0
  O  O117  1  0.51250000  0.43579000  0.71473000  1.0
  O  O118  1  0.98751000  0.56422000  0.21473000  1.0
  O  O119  1  0.48750000  0.56421000  0.28527000  1.0
  O  O120  1  0.16244000  0.55455000  0.73440000  1.0
  O  O121  1  0.66245000  0.55455000  0.76560000  1.0
  O  O122  1  0.83756000  0.44545000  0.26560000  1.0
  O  O123  1  0.33755000  0.44545000  0.23440000  1.0
  F  F124  1  0.77363000  0.00724000  0.73307000  1.0
  F  F125  1  0.27367000  0.00722000  0.76692000  1.0
  F  F126  1  0.22634000  0.99278000  0.26692000  1.0
  F  F127  1  0.72633000  0.99278000  0.23308000  1.0
  F  F128  1  0.99960000  0.98963000  0.67263000  1.0
  F  F129  1  0.49960000  0.98963000  0.82739000  1.0
  F  F130  1  0.00040000  0.01037000  0.32738000  1.0
  F  F131  1  0.50040000  0.01037000  0.17261000  1.0
  F  F132  1  0.78010000  0.05802000  0.60421000  1.0
  F  F133  1  0.28007000  0.05802000  0.89578000  1.0
  F  F134  1  0.21993000  0.94198000  0.39578000  1.0
  F  F135  1  0.71993000  0.94197000  0.10422000  1.0
