# generated using pymatgen
data_HgH17C16S2NCl2
_symmetry_space_group_name_H-M   'P 1'
_cell_length_a   14.27630000
_cell_length_b   14.76085289
_cell_length_c   23.43170000
_cell_angle_alpha   79.46113372
_cell_angle_beta   89.97200000
_cell_angle_gamma   61.08214127
_symmetry_Int_Tables_number   1
_chemical_formula_structural   HgH17C16S2NCl2
_chemical_formula_sum   'Hg8 H136 C128 S16 N8 Cl16'
_cell_volume   4226.93711838
_cell_formula_units_Z   8
loop_
 _symmetry_equiv_pos_site_id
 _symmetry_equiv_pos_as_xyz
  1  'x, y, z'
loop_
 _atom_site_type_symbol
 _atom_site_label
 _atom_site_symmetry_multiplicity
 _atom_site_fract_x
 _atom_site_fract_y
 _atom_site_fract_z
 _atom_site_occupancy
  Hg  Hg0  1  0.35163000  0.32929000  0.90983000  1.0
  Hg  Hg1  1  0.68142000  0.67066000  0.59004000  1.0
  Hg  Hg2  1  0.64838000  0.67071000  0.09017000  1.0
  Hg  Hg3  1  0.31858000  0.32934000  0.40997000  1.0
  Hg  Hg4  1  0.58373000  0.35879000  0.06531000  1.0
  Hg  Hg5  1  0.94239000  0.64125000  0.43445000  1.0
  Hg  Hg6  1  0.41627000  0.64121000  0.93470000  1.0
  Hg  Hg7  1  0.05761000  0.35874000  0.56555000  1.0
  H  H8  1  0.23972000  0.87921000  0.90483000  1.0
  H  H9  1  0.11917000  0.12085000  0.59550000  1.0
  H  H10  1  0.76028000  0.12079000  0.09517000  1.0
  H  H11  1  0.88082000  0.87915000  0.40450000  1.0
  H  H12  1  0.07211000  0.20843000  0.81975000  1.0
  H  H13  1  0.28065000  0.79152000  0.68040000  1.0
  H  H14  1  0.92789000  0.79157000  0.18025000  1.0
  H  H15  1  0.71935000  0.20848000  0.31960000  1.0
  H  H16  1  0.41248000  0.09969000  0.94504000  1.0
  H  H17  1  0.51260000  0.90010000  0.55497000  1.0
  H  H18  1  0.58752000  0.90031000  0.05496000  1.0
  H  H19  1  0.48740000  0.09990000  0.44503000  1.0
  H  H20  1  0.51479000  0.96269000  0.95536000  1.0
  H  H21  1  0.47748000  0.03724000  0.54468000  1.0
  H  H22  1  0.48521000  0.03731000  0.04464000  1.0
  H  H23  1  0.52251000  0.96276000  0.45533000  1.0
  H  H24  1  0.59163000  0.29001000  0.91908000  1.0
  H  H25  1  0.88187000  0.71050000  0.58063000  1.0
  H  H26  1  0.40837000  0.70999000  0.08092000  1.0
  H  H27  1  0.11813000  0.28950000  0.41937000  1.0
  H  H28  1  0.78438000  0.15978000  0.95154000  1.0
  H  H29  1  0.94411000  0.84095000  0.54807000  1.0
  H  H30  1  0.21562000  0.84022000  0.04845000  1.0
  H  H31  1  0.05588000  0.15905000  0.45193000  1.0
  H  H32  1  0.84050000  0.96477000  0.97669000  1.0
  H  H33  1  0.80509000  0.03587000  0.52297000  1.0
  H  H34  1  0.15949000  0.03524000  0.02331000  1.0
  H  H35  1  0.19490000  0.96414000  0.47703000  1.0
  H  H36  1  0.70002000  0.91229000  0.96692000  1.0
  H  H37  1  0.61219000  0.08809000  0.53289000  1.0
  H  H38  1  0.29998000  0.08771000  0.03308000  1.0
  H  H39  1  0.38781000  0.91191000  0.46711000  1.0
  H  H40  1  0.08541000  0.94424000  0.95334000  1.0
  H  H41  1  0.02987000  0.05613000  0.54692000  1.0
  H  H42  1  0.91459000  0.05576000  0.04666000  1.0
  H  H43  1  0.97013000  0.94387000  0.45307000  1.0
  H  H44  1  0.94515000  0.01110000  0.93198000  1.0
  H  H45  1  0.95626000  0.98942000  0.56813000  1.0
  H  H46  1  0.05485000  0.98890000  0.06802000  1.0
  H  H47  1  0.04373000  0.01058000  0.43187000  1.0
  H  H48  1  0.00730000  0.08339000  0.94948000  1.0
  H  H49  1  0.09069000  0.91705000  0.55057000  1.0
  H  H50  1  0.99270000  0.91661000  0.05052000  1.0
  H  H51  1  0.90931000  0.08295000  0.44944000  1.0
  H  H52  1  0.06905000  0.95572000  0.79221000  1.0
  H  H53  1  0.02473000  0.04414000  0.70804000  1.0
  H  H54  1  0.93095000  0.04428000  0.20779000  1.0
  H  H55  1  0.97527000  0.95586000  0.29196000  1.0
  H  H56  1  0.97058000  0.94759000  0.83621000  1.0
  H  H57  1  0.91821000  0.05234000  0.66401000  1.0
  H  H58  1  0.02942000  0.05241000  0.16379000  1.0
  H  H59  1  0.08178000  0.94767000  0.33599000  1.0
  H  H60  1  0.10909000  0.87025000  0.86237000  1.0
  H  H61  1  0.97940000  0.12973000  0.63792000  1.0
  H  H62  1  0.89090000  0.12976000  0.13763000  1.0
  H  H63  1  0.02060000  0.87027000  0.36208000  1.0
  H  H64  1  0.92768000  0.21002000  0.85114000  1.0
  H  H65  1  0.13764000  0.79007000  0.64884000  1.0
  H  H66  1  0.07232000  0.78998000  0.14886000  1.0
  H  H67  1  0.86236000  0.20993000  0.35116000  1.0
  H  H68  1  0.86729000  0.13596000  0.83501000  1.0
  H  H69  1  0.00316000  0.86413000  0.66495000  1.0
  H  H70  1  0.13271000  0.86404000  0.16499000  1.0
  H  H71  1  0.99683000  0.13587000  0.33505000  1.0
  H  H72  1  0.95052000  0.16094000  0.78547000  1.0
  H  H73  1  0.11125000  0.83892000  0.71459000  1.0
  H  H74  1  0.04948000  0.83906000  0.21453000  1.0
  H  H75  1  0.88875000  0.16108000  0.28541000  1.0
  H  H76  1  0.68869000  0.73670000  0.71826000  1.0
  H  H77  1  0.42568000  0.26305000  0.78192000  1.0
  H  H78  1  0.31131000  0.26330000  0.28174000  1.0
  H  H79  1  0.57433000  0.73695000  0.21808000  1.0
  H  H80  1  0.65718000  0.80685000  0.89010000  1.0
  H  H81  1  0.46444000  0.19295000  0.61006000  1.0
  H  H82  1  0.34283000  0.19314000  0.10990000  1.0
  H  H83  1  0.53556000  0.80705000  0.38994000  1.0
  H  H84  1  0.34642000  0.61918000  0.81523000  1.0
  H  H85  1  0.96582000  0.38068000  0.68503000  1.0
  H  H86  1  0.65357000  0.38083000  0.18477000  1.0
  H  H87  1  0.03418000  0.61931000  0.31497000  1.0
  H  H88  1  0.39765000  0.64285000  0.74772000  1.0
  H  H89  1  0.04073000  0.35706000  0.75248000  1.0
  H  H90  1  0.60235000  0.35715000  0.25228000  1.0
  H  H91  1  0.95929000  0.64293000  0.24752000  1.0
  H  H92  1  0.65744000  0.46606000  0.94976000  1.0
  H  H93  1  0.12325000  0.53416000  0.55029000  1.0
  H  H94  1  0.34256000  0.53394000  0.05024000  1.0
  H  H95  1  0.87675000  0.46584000  0.44971000  1.0
  H  H96  1  0.80116000  0.35235000  0.89381000  1.0
  H  H97  1  0.15321000  0.64794000  0.60620000  1.0
  H  H98  1  0.19884000  0.64765000  0.10619000  1.0
  H  H99  1  0.84679000  0.35206000  0.39380000  1.0
  H  H100  1  0.75738000  0.37598000  0.78529000  1.0
  H  H101  1  0.13348000  0.62403000  0.71476000  1.0
  H  H102  1  0.24262000  0.62402000  0.21471000  1.0
  H  H103  1  0.86652000  0.37597000  0.28524000  1.0
  H  H104  1  0.57158000  0.51055000  0.73993000  1.0
  H  H105  1  0.08254000  0.48923000  0.76024000  1.0
  H  H106  1  0.42842000  0.48946000  0.26007000  1.0
  H  H107  1  0.91746000  0.51077000  0.23976000  1.0
  H  H108  1  0.87418000  0.61145000  0.77327000  1.0
  H  H109  1  0.48602000  0.38849000  0.72682000  1.0
  H  H110  1  0.12581000  0.38855000  0.22673000  1.0
  H  H111  1  0.51399000  0.61151000  0.27317000  1.0
  H  H112  1  0.88552000  0.59529000  0.85069000  1.0
  H  H113  1  0.48116000  0.40471000  0.64940000  1.0
  H  H114  1  0.11447000  0.40471000  0.14931000  1.0
  H  H115  1  0.51885000  0.59529000  0.35060000  1.0
  H  H116  1  0.96748000  0.63647000  0.80879000  1.0
  H  H117  1  0.60429000  0.36346000  0.69120000  1.0
  H  H118  1  0.03253000  0.36352000  0.19121000  1.0
  H  H119  1  0.39571000  0.63654000  0.30879000  1.0
  H  H120  1  0.90305000  0.79938000  0.85029000  1.0
  H  H121  1  0.70260000  0.20061000  0.64961000  1.0
  H  H122  1  0.09695000  0.20062000  0.14971000  1.0
  H  H123  1  0.29740000  0.79939000  0.35039000  1.0
  H  H124  1  0.82742000  0.75737000  0.89685000  1.0
  H  H125  1  0.58484000  0.24271000  0.60319000  1.0
  H  H126  1  0.17258000  0.24263000  0.10315000  1.0
  H  H127  1  0.41516000  0.75729000  0.39681000  1.0
  H  H128  1  0.76350000  0.88666000  0.85151000  1.0
  H  H129  1  0.65024000  0.11337000  0.64847000  1.0
  H  H130  1  0.23650000  0.11334000  0.14849000  1.0
  H  H131  1  0.34976000  0.88663000  0.35153000  1.0
  H  H132  1  0.74219000  0.90920000  0.73924000  1.0
  H  H133  1  0.65172000  0.09071000  0.76074000  1.0
  H  H134  1  0.25781000  0.09080000  0.26076000  1.0
  H  H135  1  0.34828000  0.90929000  0.23926000  1.0
  H  H136  1  0.79642000  0.79554000  0.70770000  1.0
  H  H137  1  0.59233000  0.20429000  0.79236000  1.0
  H  H138  1  0.20358000  0.20446000  0.29230000  1.0
  H  H139  1  0.40767000  0.79571000  0.20764000  1.0
  H  H140  1  0.88390000  0.82341000  0.74555000  1.0
  H  H141  1  0.70761000  0.17653000  0.75442000  1.0
  H  H142  1  0.11610000  0.17659000  0.25445000  1.0
  H  H143  1  0.29239000  0.82347000  0.24558000  1.0
  C  C144  1  0.24332000  0.13613000  0.83492000  1.0
  C  C145  1  0.37959000  0.86379000  0.66523000  1.0
  C  C146  1  0.75668000  0.86387000  0.16508000  1.0
  C  C147  1  0.62041000  0.13621000  0.33477000  1.0
  C  C148  1  0.34158000  0.04344000  0.85648000  1.0
  C  C149  1  0.38523000  0.95647000  0.64365000  1.0
  C  C150  1  0.65842000  0.95656000  0.14352000  1.0
  C  C151  1  0.61476000  0.04353000  0.35635000  1.0
  C  C152  1  0.33784000  0.95047000  0.88137000  1.0
  C  C153  1  0.28855000  0.04949000  0.61884000  1.0
  C  C154  1  0.66216000  0.04953000  0.11863000  1.0
  C  C155  1  0.71145000  0.95051000  0.38116000  1.0
  C  C156  1  0.23957000  0.95195000  0.88467000  1.0
  C  C157  1  0.19172000  0.04807000  0.61562000  1.0
  C  C158  1  0.76043000  0.04805000  0.11533000  1.0
  C  C159  1  0.80827000  0.95193000  0.38438000  1.0
  C  C160  1  0.14202000  0.04352000  0.86187000  1.0
  C  C161  1  0.18565000  0.95649000  0.63836000  1.0
  C  C162  1  0.85798000  0.95648000  0.13813000  1.0
  C  C163  1  0.81435000  0.04351000  0.36164000  1.0
  C  C164  1  0.14568000  0.13521000  0.83748000  1.0
  C  C165  1  0.28099000  0.86478000  0.66270000  1.0
  C  C166  1  0.85432000  0.86479000  0.16252000  1.0
  C  C167  1  0.71900000  0.13522000  0.33730000  1.0
  C  C168  1  0.48830000  0.04322000  0.93081000  1.0
  C  C169  1  0.53172000  0.95673000  0.56917000  1.0
  C  C170  1  0.51170000  0.95678000  0.06919000  1.0
  C  C171  1  0.46828000  0.04327000  0.43083000  1.0
  C  C172  1  0.57314000  0.07330000  0.93722000  1.0
  C  C173  1  0.64654000  0.92698000  0.56264000  1.0
  C  C174  1  0.42686000  0.92670000  0.06278000  1.0
  C  C175  1  0.35346000  0.07302000  0.43736000  1.0
  C  C176  1  0.61951000  0.20533000  0.92884000  1.0
  C  C177  1  0.82498000  0.79515000  0.57086000  1.0
  C  C178  1  0.38049000  0.79467000  0.07116000  1.0
  C  C179  1  0.17502000  0.20485000  0.42915000  1.0
  C  C180  1  0.72728000  0.13196000  0.94706000  1.0
  C  C181  1  0.85922000  0.86864000  0.55258000  1.0
  C  C182  1  0.27273000  0.86804000  0.05294000  1.0
  C  C183  1  0.14078000  0.13136000  0.44743000  1.0
  C  C184  1  0.75758000  0.02492000  0.96112000  1.0
  C  C185  1  0.78240000  0.97564000  0.53856000  1.0
  C  C186  1  0.24242000  0.97508000  0.03888000  1.0
  C  C187  1  0.21760000  0.02436000  0.46144000  1.0
  C  C188  1  0.67973000  0.99516000  0.95571000  1.0
  C  C189  1  0.67485000  0.00525000  0.54407000  1.0
  C  C190  1  0.32027000  0.00484000  0.04429000  1.0
  C  C191  1  0.32514000  0.99476000  0.45593000  1.0
  C  C192  1  0.03734000  0.03912000  0.86435000  1.0
  C  C193  1  0.07654000  0.96091000  0.63582000  1.0
  C  C194  1  0.96266000  0.96088000  0.13565000  1.0
  C  C195  1  0.92346000  0.03909000  0.36418000  1.0
  C  C196  1  0.01802000  0.01828000  0.92881000  1.0
  C  C197  1  0.03639000  0.98204000  0.57132000  1.0
  C  C198  1  0.98198000  0.98172000  0.07119000  1.0
  C  C199  1  0.96361000  0.01796000  0.42868000  1.0
  C  C200  1  0.04770000  0.94747000  0.83714000  1.0
  C  C201  1  0.99520000  0.05247000  0.66310000  1.0
  C  C202  1  0.95230000  0.05253000  0.16286000  1.0
  C  C203  1  0.00480000  0.94753000  0.33690000  1.0
  C  C204  1  0.94060000  0.14268000  0.83199000  1.0
  C  C205  1  0.08322000  0.85733000  0.66805000  1.0
  C  C206  1  0.05940000  0.85732000  0.16801000  1.0
  C  C207  1  0.91678000  0.14267000  0.33195000  1.0
  C  C208  1  0.52789000  0.79703000  0.85168000  1.0
  C  C209  1  0.32529000  0.20284000  0.64850000  1.0
  C  C210  1  0.47211000  0.20297000  0.14832000  1.0
  C  C211  1  0.67472000  0.79715000  0.35150000  1.0
  C  C212  1  0.48564000  0.77639000  0.80419000  1.0
  C  C213  1  0.26232000  0.22354000  0.69599000  1.0
  C  C214  1  0.51436000  0.22361000  0.19581000  1.0
  C  C215  1  0.73768000  0.77646000  0.30401000  1.0
  C  C216  1  0.54509000  0.75817000  0.75521000  1.0
  C  C217  1  0.30354000  0.24167000  0.74498000  1.0
  C  C218  1  0.45490000  0.24184000  0.24479000  1.0
  C  C219  1  0.69646000  0.75833000  0.25502000  1.0
  C  C220  1  0.64579000  0.75207000  0.75676000  1.0
  C  C221  1  0.39817000  0.24773000  0.74341000  1.0
  C  C222  1  0.35421000  0.24793000  0.24324000  1.0
  C  C223  1  0.60184000  0.75226000  0.25659000  1.0
  C  C224  1  0.69036000  0.76711000  0.80502000  1.0
  C  C225  1  0.45780000  0.23279000  0.69512000  1.0
  C  C226  1  0.30964000  0.23289000  0.19498000  1.0
  C  C227  1  0.54220000  0.76721000  0.30489000  1.0
  C  C228  1  0.62880000  0.79111000  0.85201000  1.0
  C  C229  1  0.42027000  0.20874000  0.64815000  1.0
  C  C230  1  0.37121000  0.20888000  0.14800000  1.0
  C  C231  1  0.57973000  0.79125000  0.35185000  1.0
  C  C232  1  0.40521000  0.63933000  0.79469000  1.0
  C  C233  1  0.04476000  0.36060000  0.70551000  1.0
  C  C234  1  0.59478000  0.36068000  0.20531000  1.0
  C  C235  1  0.95524000  0.63940000  0.29449000  1.0
  C  C236  1  0.51703000  0.55771000  0.82060000  1.0
  C  C237  1  0.07488000  0.44227000  0.67955000  1.0
  C  C238  1  0.48297000  0.44229000  0.17940000  1.0
  C  C239  1  0.92512000  0.55773000  0.32045000  1.0
  C  C240  1  0.64232000  0.47243000  0.90320000  1.0
  C  C241  1  0.11458000  0.52774000  0.59685000  1.0
  C  C242  1  0.35768000  0.52757000  0.09680000  1.0
  C  C243  1  0.88542000  0.47226000  0.40314000  1.0
  C  C244  1  0.72179000  0.40958000  0.87141000  1.0
  C  C245  1  0.13119000  0.59060000  0.62863000  1.0
  C  C246  1  0.27821000  0.59042000  0.12859000  1.0
  C  C247  1  0.86882000  0.40940000  0.37137000  1.0
  C  C248  1  0.69705000  0.42261000  0.81192000  1.0
  C  C249  1  0.11973000  0.57741000  0.68815000  1.0
  C  C250  1  0.30295000  0.57739000  0.18808000  1.0
  C  C251  1  0.88027000  0.42259000  0.31185000  1.0
  C  C252  1  0.59355000  0.49750000  0.78636000  1.0
  C  C253  1  0.09130000  0.50240000  0.71379000  1.0
  C  C254  1  0.40645000  0.50250000  0.21364000  1.0
  C  C255  1  0.90870000  0.49760000  0.28621000  1.0
  C  C256  1  0.80069000  0.76064000  0.80378000  1.0
  C  C257  1  0.56162000  0.23931000  0.69628000  1.0
  C  C258  1  0.19932000  0.23936000  0.19622000  1.0
  C  C259  1  0.43839000  0.76069000  0.30372000  1.0
  C  C260  1  0.88710000  0.64362000  0.80940000  1.0
  C  C261  1  0.53107000  0.35631000  0.69066000  1.0
  C  C262  1  0.11290000  0.35638000  0.19060000  1.0
  C  C263  1  0.46894000  0.64369000  0.30933000  1.0
  C  C264  1  0.82433000  0.80349000  0.85367000  1.0
  C  C265  1  0.62798000  0.19651000  0.64632000  1.0
  C  C266  1  0.17567000  0.19651000  0.14633000  1.0
  C  C267  1  0.37203000  0.80348000  0.35368000  1.0
  C  C268  1  0.80560000  0.82595000  0.74549000  1.0
  C  C269  1  0.63185000  0.17396000  0.75451000  1.0
  C  C270  1  0.19441000  0.17405000  0.25451000  1.0
  C  C271  1  0.36814000  0.82605000  0.24549000  1.0
  S  S272  1  0.23797000  0.25980000  0.80994000  1.0
  S  S273  1  0.49779000  0.74007000  0.69022000  1.0
  S  S274  1  0.76204000  0.74020000  0.19006000  1.0
  S  S275  1  0.50220000  0.25993000  0.30978000  1.0
  S  S276  1  0.46287000  0.04783000  0.85354000  1.0
  S  S277  1  0.51098000  0.95199000  0.64649000  1.0
  S  S278  1  0.53713000  0.95217000  0.14646000  1.0
  S  S279  1  0.48902000  0.04801000  0.35351000  1.0
  S  S280  1  0.45699000  0.83054000  0.91362000  1.0
  S  S281  1  0.28787000  0.16938000  0.58658000  1.0
  S  S282  1  0.54302000  0.16945000  0.08638000  1.0
  S  S283  1  0.71212000  0.83062000  0.41342000  1.0
  S  S284  1  0.36509000  0.77031000  0.80918000  1.0
  S  S285  1  0.13568000  0.22964000  0.69100000  1.0
  S  S286  1  0.63491000  0.22969000  0.19082000  1.0
  S  S287  1  0.86432000  0.77036000  0.30900000  1.0
  N  N288  1  0.54390000  0.17709000  0.92414000  1.0
  N  N289  1  0.72120000  0.82323000  0.57566000  1.0
  N  N290  1  0.45610000  0.82291000  0.07586000  1.0
  N  N291  1  0.27880000  0.17677000  0.42434000  1.0
  N  N292  1  0.54313000  0.54454000  0.87798000  1.0
  N  N293  1  0.08764000  0.45554000  0.62215000  1.0
  N  N294  1  0.45687000  0.45546000  0.12203000  1.0
  N  N295  1  0.91236000  0.54446000  0.37785000  1.0
  Cl  Cl296  1  0.34178000  0.44528000  0.82108000  1.0
  Cl  Cl297  1  0.78722000  0.55487000  0.67890000  1.0
  Cl  Cl298  1  0.65821000  0.55473000  0.17892000  1.0
  Cl  Cl299  1  0.21278000  0.44513000  0.32110000  1.0
  Cl  Cl300  1  0.26263000  0.27226000  0.98209000  1.0
  Cl  Cl301  1  0.53518000  0.72767000  0.51798000  1.0
  Cl  Cl302  1  0.73738000  0.72774000  0.01790000  1.0
  Cl  Cl303  1  0.46482000  0.27233000  0.48202000  1.0
  Cl  Cl304  1  0.43731000  0.42268000  0.97646000  1.0
  Cl  Cl305  1  0.86010000  0.57733000  0.52348000  1.0
  Cl  Cl306  1  0.56269000  0.57732000  0.02354000  1.0
  Cl  Cl307  1  0.13989000  0.42268000  0.47652000  1.0
  Cl  Cl308  1  0.76616000  0.28466000  0.03926000  1.0
  Cl  Cl309  1  0.05068000  0.71530000  0.46052000  1.0
  Cl  Cl310  1  0.23384000  0.71534000  0.96074000  1.0
  Cl  Cl311  1  0.94933000  0.28470000  0.53948000  1.0
