# generated using pymatgen
data_CdH14C12(SN2)2
_symmetry_space_group_name_H-M   'P 1'
_cell_length_a   3.87327000
_cell_length_b   11.93060000
_cell_length_c   15.11100000
_cell_angle_alpha   89.99950000
_cell_angle_beta   94.64620000
_cell_angle_gamma   89.99960000
_symmetry_Int_Tables_number   1
_chemical_formula_structural   CdH14C12(SN2)2
_chemical_formula_sum   'Cd2 H28 C24 S4 N8'
_cell_volume   695.99123761
_cell_formula_units_Z   2
loop_
 _symmetry_equiv_pos_site_id
 _symmetry_equiv_pos_as_xyz
  1  'x, y, z'
loop_
 _atom_site_type_symbol
 _atom_site_label
 _atom_site_symmetry_multiplicity
 _atom_site_fract_x
 _atom_site_fract_y
 _atom_site_fract_z
 _atom_site_occupancy
  Cd  Cd0  1  0.50000000  0.99999000  0.00001000  1.0
  Cd  Cd1  1  0.50002000  0.50000000  0.49999000  1.0
  H  H2  1  0.57883000  0.74925000  0.68616000  1.0
  H  H3  1  0.57878000  0.75075000  0.18615000  1.0
  H  H4  1  0.42118000  0.25075000  0.31384000  1.0
  H  H5  1  0.42123000  0.24925000  0.81385000  1.0
  H  H6  1  0.28546000  0.75386000  0.91990000  1.0
  H  H7  1  0.28546000  0.74614000  0.41989000  1.0
  H  H8  1  0.71451000  0.24613000  0.08010000  1.0
  H  H9  1  0.71456000  0.25385000  0.58011000  1.0
  H  H10  1  0.59908000  0.66320000  0.87720000  1.0
  H  H11  1  0.59907000  0.83679000  0.37719000  1.0
  H  H12  1  0.40089000  0.33680000  0.12279000  1.0
  H  H13  1  0.40093000  0.16320000  0.62280000  1.0
  H  H14  1  0.20495000  0.68595000  0.81358000  1.0
  H  H15  1  0.20494000  0.81405000  0.31357000  1.0
  H  H16  1  0.79505000  0.31404000  0.18642000  1.0
  H  H17  1  0.79506000  0.18595000  0.68643000  1.0
  H  H18  1  0.04830000  0.99621000  0.58899000  1.0
  H  H19  1  0.04831000  0.50380000  0.08898000  1.0
  H  H20  1  0.95169000  0.00380000  0.41102000  1.0
  H  H21  1  0.95169000  0.49621000  0.91101000  1.0
  H  H22  1  0.67012000  0.91539000  0.55587000  1.0
  H  H23  1  0.67015000  0.58462000  0.05586000  1.0
  H  H24  1  0.32985000  0.08462000  0.44414000  1.0
  H  H25  1  0.32985000  0.41539000  0.94413000  1.0
  H  H26  1  0.06504000  0.84585000  0.58518000  1.0
  H  H27  1  0.06503000  0.65416000  0.08517000  1.0
  H  H28  1  0.93496000  0.15416000  0.41483000  1.0
  H  H29  1  0.93496000  0.34585000  0.91482000  1.0
  C  C30  1  0.83190000  0.99880000  0.83210000  1.0
  C  C31  1  0.83193000  0.50120000  0.33208000  1.0
  C  C32  1  0.16808000  0.00119000  0.16792000  1.0
  C  C33  1  0.16812000  0.49880000  0.66790000  1.0
  C  C34  1  0.82202000  0.91361000  0.69589000  1.0
  C  C35  1  0.82206000  0.58640000  0.19586000  1.0
  C  C36  1  0.17793000  0.08639000  0.30413000  1.0
  C  C37  1  0.17797000  0.41361000  0.80412000  1.0
  C  C38  1  0.56752000  0.82354000  0.81651000  1.0
  C  C39  1  0.56751000  0.67646000  0.31650000  1.0
  C  C40  1  0.43244000  0.17645000  0.18350000  1.0
  C  C41  1  0.43252000  0.32354000  0.68349000  1.0
  C  C42  1  0.64855000  0.82126000  0.72822000  1.0
  C  C43  1  0.64849000  0.67876000  0.22822000  1.0
  C  C44  1  0.35146000  0.17875000  0.27177000  1.0
  C  C45  1  0.35149000  0.32125000  0.77177000  1.0
  C  C46  1  0.40007000  0.72711000  0.85926000  1.0
  C  C47  1  0.40005000  0.77290000  0.35926000  1.0
  C  C48  1  0.59990000  0.27289000  0.14073000  1.0
  C  C49  1  0.59995000  0.22710000  0.64074000  1.0
  C  C50  1  0.90756000  0.91879000  0.60100000  1.0
  C  C51  1  0.90755000  0.58121000  0.10099000  1.0
  C  C52  1  0.09244000  0.08121000  0.39901000  1.0
  C  C53  1  0.09244000  0.41879000  0.89900000  1.0
  S  S54  1  0.94750000  0.10897000  0.90489000  1.0
  S  S55  1  0.94752000  0.39103000  0.40487000  1.0
  S  S56  1  0.05251000  0.89102000  0.09513000  1.0
  S  S57  1  0.05250000  0.60898000  0.59511000  1.0
  N  N58  1  0.65135000  0.91391000  0.86703000  1.0
  N  N59  1  0.65135000  0.58609000  0.36702000  1.0
  N  N60  1  0.34863000  0.08608000  0.13298000  1.0
  N  N61  1  0.34868000  0.41390000  0.63297000  1.0
  N  N62  1  0.92103000  0.00131000  0.74826000  1.0
  N  N63  1  0.92105000  0.49869000  0.24825000  1.0
  N  N64  1  0.07897000  0.99869000  0.25175000  1.0
  N  N65  1  0.07898000  0.50131000  0.75175000  1.0
