# generated using pymatgen
data_KH7C7N2O5
_symmetry_space_group_name_H-M   'P 1'
_cell_length_a   7.42295000
_cell_length_b   11.11190000
_cell_length_c   11.71520000
_cell_angle_alpha   70.16100000
_cell_angle_beta   89.99990000
_cell_angle_gamma   89.99970000
_symmetry_Int_Tables_number   1
_chemical_formula_structural   KH7C7N2O5
_chemical_formula_sum   'K4 H28 C28 N8 O20'
_cell_volume   908.95549006
_cell_formula_units_Z   4
loop_
 _symmetry_equiv_pos_site_id
 _symmetry_equiv_pos_as_xyz
  1  'x, y, z'
loop_
 _atom_site_type_symbol
 _atom_site_label
 _atom_site_symmetry_multiplicity
 _atom_site_fract_x
 _atom_site_fract_y
 _atom_site_fract_z
 _atom_site_occupancy
  K  K0  1  0.02977000  0.45371000  0.20515000  1.0
  K  K1  1  0.52977000  0.54629000  0.29485000  1.0
  K  K2  1  0.97023000  0.54629000  0.79485000  1.0
  K  K3  1  0.47023000  0.45371000  0.70515000  1.0
  H  H4  1  0.29494000  0.72478000  0.11792000  1.0
  H  H5  1  0.79494000  0.27522000  0.38208000  1.0
  H  H6  1  0.70506000  0.27522000  0.88208000  1.0
  H  H7  1  0.20506000  0.72478000  0.61792000  1.0
  H  H8  1  0.38023000  0.83452000  0.98282000  1.0
  H  H9  1  0.88023000  0.16548000  0.51718000  1.0
  H  H10  1  0.61977000  0.16548000  0.01718000  1.0
  H  H11  1  0.11977000  0.83451000  0.48282000  1.0
  H  H12  1  0.31345000  0.06654000  0.93658000  1.0
  H  H13  1  0.81345000  0.93346000  0.56342000  1.0
  H  H14  1  0.68655000  0.93346000  0.06342000  1.0
  H  H15  1  0.18655000  0.06654000  0.43658000  1.0
  H  H16  1  0.96742000  0.17126000  0.18309000  1.0
  H  H17  1  0.46742000  0.82874000  0.31692000  1.0
  H  H18  1  0.03258000  0.82874000  0.81691000  1.0
  H  H19  1  0.53258000  0.17126000  0.68309000  1.0
  H  H20  1  0.95057000  0.94111000  0.31506000  1.0
  H  H21  1  0.45057000  0.05889000  0.18494000  1.0
  H  H22  1  0.04943000  0.05889000  0.68494000  1.0
  H  H23  1  0.54943000  0.94111000  0.81506000  1.0
  H  H24  1  0.90785000  0.56119000  0.40814000  1.0
  H  H25  1  0.40785000  0.43881000  0.09186000  1.0
  H  H26  1  0.09215000  0.43881000  0.59186000  1.0
  H  H27  1  0.59215000  0.56119000  0.90814000  1.0
  H  H28  1  0.88792000  0.41514000  0.48650000  1.0
  H  H29  1  0.38792000  0.58486000  0.01351000  1.0
  H  H30  1  0.11208000  0.58486000  0.51350000  1.0
  H  H31  1  0.61208000  0.41514000  0.98649000  1.0
  C  C32  1  0.12526000  0.87371000  0.20517000  1.0
  C  C33  1  0.62526000  0.12629000  0.29482000  1.0
  C  C34  1  0.87474000  0.12629000  0.79483000  1.0
  C  C35  1  0.37474000  0.87370000  0.70517000  1.0
  C  C36  1  0.23006000  0.90707000  0.09571000  1.0
  C  C37  1  0.73006000  0.09293000  0.40428000  1.0
  C  C38  1  0.76995000  0.09293000  0.90428000  1.0
  C  C39  1  0.26994000  0.90707000  0.59572000  1.0
  C  C40  1  0.23681000  0.03730000  0.02081000  1.0
  C  C41  1  0.73681000  0.96270000  0.47919000  1.0
  C  C42  1  0.76318000  0.96270000  0.97919000  1.0
  C  C43  1  0.26318000  0.03730000  0.52081000  1.0
  C  C44  1  0.14419000  0.12818000  0.05489000  1.0
  C  C45  1  0.64419000  0.87183000  0.44511000  1.0
  C  C46  1  0.85581000  0.87182000  0.94510000  1.0
  C  C47  1  0.35581000  0.12818000  0.55490000  1.0
  C  C48  1  0.04103000  0.09777000  0.16092000  1.0
  C  C49  1  0.54103000  0.90223000  0.33908000  1.0
  C  C50  1  0.95896000  0.90223000  0.83908000  1.0
  C  C51  1  0.45896000  0.09777000  0.66092000  1.0
  C  C52  1  0.03327000  0.97009000  0.23343000  1.0
  C  C53  1  0.53327000  0.02991000  0.26657000  1.0
  C  C54  1  0.96673000  0.02991000  0.76657000  1.0
  C  C55  1  0.46673000  0.97009000  0.73343000  1.0
  C  C56  1  0.10920000  0.73796000  0.29089000  1.0
  C  C57  1  0.60920000  0.26204000  0.20911000  1.0
  C  C58  1  0.89080000  0.26204000  0.70911000  1.0
  C  C59  1  0.39080000  0.73796000  0.79089000  1.0
  N  N60  1  0.32249000  0.81728000  0.06548000  1.0
  N  N61  1  0.82249000  0.18272000  0.43452000  1.0
  N  N62  1  0.67751000  0.18272000  0.93452000  1.0
  N  N63  1  0.17751000  0.81727000  0.56548000  1.0
  N  N64  1  0.15075000  0.26123000  0.97516000  1.0
  N  N65  1  0.65074000  0.73876000  0.52483000  1.0
  N  N66  1  0.84925000  0.73877000  0.02484000  1.0
  N  N67  1  0.34925000  0.26123000  0.47516000  1.0
  O  O68  1  0.18924000  0.64965000  0.26410000  1.0
  O  O69  1  0.68924000  0.35035000  0.23590000  1.0
  O  O70  1  0.81076000  0.35035000  0.73590000  1.0
  O  O71  1  0.31076000  0.64965000  0.76410000  1.0
  O  O72  1  0.01591000  0.71759000  0.38766000  1.0
  O  O73  1  0.51590000  0.28241000  0.11234000  1.0
  O  O74  1  0.98409000  0.28241000  0.61234000  1.0
  O  O75  1  0.48410000  0.71759000  0.88766000  1.0
  O  O76  1  0.23212000  0.28810000  0.87677000  1.0
  O  O77  1  0.73212000  0.71190000  0.62323000  1.0
  O  O78  1  0.76789000  0.71190000  0.12322000  1.0
  O  O79  1  0.26789000  0.28810000  0.37678000  1.0
  O  O80  1  0.07080000  0.34298000  0.00757000  1.0
  O  O81  1  0.57079000  0.65702000  0.49244000  1.0
  O  O82  1  0.92920000  0.65702000  0.99243000  1.0
  O  O83  1  0.42920000  0.34298000  0.50757000  1.0
  O  O84  1  0.85106000  0.48037000  0.40881000  1.0
  O  O85  1  0.35106000  0.51963000  0.09119000  1.0
  O  O86  1  0.14894000  0.51963000  0.59119000  1.0
  O  O87  1  0.64894000  0.48037000  0.90881000  1.0
