# generated using pymatgen
data_NdH20C24NO10
_symmetry_space_group_name_H-M   'P 1'
_cell_length_a   9.05084000
_cell_length_b   23.15620000
_cell_length_c   23.15296390
_cell_angle_alpha   118.29962210
_cell_angle_beta   97.50344393
_cell_angle_gamma   97.48110000
_symmetry_Int_Tables_number   1
_chemical_formula_structural   NdH20C24NO10
_chemical_formula_sum   'Nd6 H120 C144 N6 O60'
_cell_volume   4132.07204844
_cell_formula_units_Z   6
loop_
 _symmetry_equiv_pos_site_id
 _symmetry_equiv_pos_as_xyz
  1  'x, y, z'
loop_
 _atom_site_type_symbol
 _atom_site_label
 _atom_site_symmetry_multiplicity
 _atom_site_fract_x
 _atom_site_fract_y
 _atom_site_fract_z
 _atom_site_occupancy
  Nd  Nd0  1  0.35934000  0.56429000  0.55168000  1.0
  Nd  Nd1  1  0.80771000  0.44827000  0.01261000  1.0
  Nd  Nd2  1  0.79513000  0.98744000  0.43567000  1.0
  Nd  Nd3  1  0.64066000  0.43571000  0.44832000  1.0
  Nd  Nd4  1  0.19229000  0.55173000  0.98739000  1.0
  Nd  Nd5  1  0.20488000  0.01256000  0.56433000  1.0
  H  H6  1  0.21147000  0.78557000  0.66278000  1.0
  H  H7  1  0.54899000  0.33729000  0.12285000  1.0
  H  H8  1  0.42589000  0.87744000  0.21460000  1.0
  H  H9  1  0.78853000  0.21443000  0.33722000  1.0
  H  H10  1  0.45101000  0.66271000  0.87715000  1.0
  H  H11  1  0.57411000  0.12256000  0.78540000  1.0
  H  H12  1  0.89267000  0.62724000  0.48491000  1.0
  H  H13  1  0.40787000  0.51511000  0.14223000  1.0
  H  H14  1  0.26515000  0.85797000  0.37295000  1.0
  H  H15  1  0.10733000  0.37276000  0.51509000  1.0
  H  H16  1  0.59213000  0.48489000  0.85777000  1.0
  H  H17  1  0.73485000  0.14203000  0.62705000  1.0
  H  H18  1  0.80050000  0.82581000  0.58542000  1.0
  H  H19  1  0.21563000  0.41463000  0.24048000  1.0
  H  H20  1  0.97486000  0.75972000  0.17420000  1.0
  H  H21  1  0.19949000  0.17418000  0.41457000  1.0
  H  H22  1  0.78438000  0.58537000  0.75952000  1.0
  H  H23  1  0.02513000  0.24028000  0.82580000  1.0
  H  H24  1  0.65740000  0.49565000  0.24803000  1.0
  H  H25  1  0.40855000  0.75206000  0.24748000  1.0
  H  H26  1  0.16156000  0.75257000  0.50459000  1.0
  H  H27  1  0.34261000  0.50435000  0.75197000  1.0
  H  H28  1  0.59145000  0.24794000  0.75252000  1.0
  H  H29  1  0.83845000  0.24744000  0.49542000  1.0
  H  H30  1  0.82737000  0.70634000  0.39282000  1.0
  H  H31  1  0.43464000  0.60740000  0.31360000  1.0
  H  H32  1  0.12124000  0.68669000  0.29386000  1.0
  H  H33  1  0.17263000  0.29365000  0.60717000  1.0
  H  H34  1  0.56537000  0.39260000  0.68640000  1.0
  H  H35  1  0.87876000  0.31331000  0.70614000  1.0
  H  H36  1  0.51766000  0.48326000  0.32824000  1.0
  H  H37  1  0.18880000  0.67172000  0.15493000  1.0
  H  H38  1  0.03406000  0.84508000  0.51682000  1.0
  H  H39  1  0.48234000  0.51674000  0.67176000  1.0
  H  H40  1  0.81121000  0.32829000  0.84508000  1.0
  H  H41  1  0.96594000  0.15492000  0.48318000  1.0
  H  H42  1  0.81257000  0.60774000  0.27953000  1.0
  H  H43  1  0.53257000  0.72070000  0.32815000  1.0
  H  H44  1  0.20492000  0.67205000  0.39258000  1.0
  H  H45  1  0.18743000  0.39226000  0.72047000  1.0
  H  H46  1  0.46743000  0.27930000  0.67185000  1.0
  H  H47  1  0.79508000  0.32795000  0.60742000  1.0
  H  H48  1  0.08263000  0.44185000  0.46827000  1.0
  H  H49  1  0.61453000  0.53185000  0.97379000  1.0
  H  H50  1  0.64083000  0.02620000  0.55798000  1.0
  H  H51  1  0.91737000  0.55815000  0.53173000  1.0
  H  H52  1  0.38548000  0.46815000  0.02621000  1.0
  H  H53  1  0.35917000  0.97380000  0.44202000  1.0
  H  H54  1  0.22995000  0.41916000  0.43745000  1.0
  H  H55  1  0.79261000  0.56268000  0.98185000  1.0
  H  H56  1  0.81090000  0.01816000  0.58079000  1.0
  H  H57  1  0.77005000  0.58084000  0.56255000  1.0
  H  H58  1  0.20739000  0.43732000  0.01815000  1.0
  H  H59  1  0.18910000  0.98184000  0.41921000  1.0
  H  H60  1  0.79834000  0.03937000  0.69547000  1.0
  H  H61  1  0.10323000  0.30456000  0.34409000  1.0
  H  H62  1  0.75937000  0.65609000  0.96046000  1.0
  H  H63  1  0.20166000  0.96063000  0.30453000  1.0
  H  H64  1  0.89677000  0.69544000  0.65591000  1.0
  H  H65  1  0.24064000  0.34391000  0.03954000  1.0
  H  H66  1  0.86913000  0.86147000  0.75147000  1.0
  H  H67  1  0.11764000  0.24860000  0.11021000  1.0
  H  H68  1  0.00778000  0.88984000  0.13841000  1.0
  H  H69  1  0.13087000  0.13853000  0.24853000  1.0
  H  H70  1  0.88236000  0.75140000  0.88979000  1.0
  H  H71  1  0.99221000  0.11016000  0.86159000  1.0
  H  H72  1  0.63193000  0.01579000  0.76261000  1.0
  H  H73  1  0.86949000  0.23740000  0.25343000  1.0
  H  H74  1  0.61627000  0.74674000  0.98406000  1.0
  H  H75  1  0.36807000  0.98421000  0.23739000  1.0
  H  H76  1  0.13051000  0.76260000  0.74657000  1.0
  H  H77  1  0.38372000  0.25325000  0.01593000  1.0
  H  H78  1  0.66739000  0.92613000  0.79140000  1.0
  H  H79  1  0.87595000  0.20867000  0.13495000  1.0
  H  H80  1  0.74136000  0.86516000  0.07377000  1.0
  H  H81  1  0.33261000  0.07387000  0.20860000  1.0
  H  H82  1  0.12405000  0.79133000  0.86505000  1.0
  H  H83  1  0.25864000  0.13484000  0.92624000  1.0
  H  H84  1  0.28392000  0.60752000  0.71117000  1.0
  H  H85  1  0.57302000  0.28885000  0.89626000  1.0
  H  H86  1  0.67663000  0.10374000  0.39251000  1.0
  H  H87  1  0.71608000  0.39248000  0.28883000  1.0
  H  H88  1  0.42698000  0.71115000  0.10374000  1.0
  H  H89  1  0.32337000  0.89626000  0.60749000  1.0
  H  H90  1  0.96358000  0.46947000  0.60561000  1.0
  H  H91  1  0.35757000  0.39432000  0.86384000  1.0
  H  H92  1  0.49400000  0.13603000  0.53042000  1.0
  H  H93  1  0.03642000  0.53053000  0.39439000  1.0
  H  H94  1  0.64243000  0.60568000  0.13616000  1.0
  H  H95  1  0.50600000  0.86397000  0.46958000  1.0
  H  H96  1  0.84526000  0.50952000  0.66180000  1.0
  H  H97  1  0.18323000  0.33803000  0.84773000  1.0
  H  H98  1  0.33558000  0.15215000  0.49031000  1.0
  H  H99  1  0.15474000  0.49048000  0.33820000  1.0
  H  H100  1  0.81677000  0.66197000  0.15227000  1.0
  H  H101  1  0.66441000  0.84785000  0.50969000  1.0
  H  H102  1  0.94746000  0.45393000  0.67406000  1.0
  H  H103  1  0.27299000  0.32591000  0.77987000  1.0
  H  H104  1  0.49333000  0.22000000  0.54597000  1.0
  H  H105  1  0.05254000  0.54607000  0.32594000  1.0
  H  H106  1  0.72701000  0.67409000  0.22013000  1.0
  H  H107  1  0.50667000  0.78000000  0.45403000  1.0
  H  H108  1  0.08636000  0.54181000  0.78936000  1.0
  H  H109  1  0.29741000  0.21067000  0.75239000  1.0
  H  H110  1  0.54454000  0.24753000  0.45817000  1.0
  H  H111  1  0.91364000  0.45819000  0.21064000  1.0
  H  H112  1  0.70259000  0.78933000  0.24761000  1.0
  H  H113  1  0.45546000  0.75247000  0.54183000  1.0
  H  H114  1  0.01749000  0.61094000  0.79064000  1.0
  H  H115  1  0.22716000  0.20920000  0.82015000  1.0
  H  H116  1  0.40657000  0.17974000  0.38898000  1.0
  H  H117  1  0.98251000  0.38906000  0.20936000  1.0
  H  H118  1  0.77285000  0.79081000  0.17986000  1.0
  H  H119  1  0.59343000  0.82027000  0.61102000  1.0
  H  H120  1  0.21589000  0.61180000  0.79779000  1.0
  H  H121  1  0.41855000  0.20226000  0.81402000  1.0
  H  H122  1  0.60407000  0.18601000  0.38815000  1.0
  H  H123  1  0.78412000  0.38820000  0.20221000  1.0
  H  H124  1  0.58145000  0.79774000  0.18598000  1.0
  H  H125  1  0.39593000  0.81399000  0.61185000  1.0
  C  C126  1  0.58862000  0.58753000  0.40440000  1.0
  C  C127  1  0.18402000  0.59558000  0.18310000  1.0
  C  C128  1  0.00090000  0.81696000  0.41252000  1.0
  C  C129  1  0.41138000  0.41247000  0.59560000  1.0
  C  C130  1  0.81598000  0.40442000  0.81690000  1.0
  C  C131  1  0.99911000  0.18304000  0.58748000  1.0
  C  C132  1  0.10503000  0.76896000  0.62582000  1.0
  C  C133  1  0.47953000  0.37422000  0.14321000  1.0
  C  C134  1  0.33602000  0.85708000  0.23116000  1.0
  C  C135  1  0.89496000  0.23104000  0.37418000  1.0
  C  C136  1  0.52048000  0.62578000  0.85679000  1.0
  C  C137  1  0.66398000  0.14294000  0.76885000  1.0
  C  C138  1  0.92312000  0.67923000  0.52555000  1.0
  C  C139  1  0.39772000  0.47448000  0.15364000  1.0
  C  C140  1  0.24367000  0.84660000  0.32093000  1.0
  C  C141  1  0.07688000  0.32077000  0.47445000  1.0
  C  C142  1  0.60228000  0.52552000  0.84636000  1.0
  C  C143  1  0.75633000  0.15340000  0.67907000  1.0
  C  C144  1  0.15906000  0.65424000  0.56891000  1.0
  C  C145  1  0.59022000  0.43111000  0.08532000  1.0
  C  C146  1  0.50465000  0.91488000  0.34592000  1.0
  C  C147  1  0.84094000  0.34576000  0.43109000  1.0
  C  C148  1  0.40979000  0.56889000  0.91468000  1.0
  C  C149  1  0.49536000  0.08514000  0.65409000  1.0
  C  C150  1  0.00835000  0.81257000  0.63073000  1.0
  C  C151  1  0.37802000  0.36930000  0.18194000  1.0
  C  C152  1  0.19593000  0.81825000  0.18744000  1.0
  C  C153  1  0.99164000  0.18743000  0.36927000  1.0
  C  C154  1  0.62198000  0.63070000  0.81806000  1.0
  C  C155  1  0.80407000  0.18175000  0.81256000  1.0
  C  C156  1  0.06000000  0.70230000  0.57352000  1.0
  C  C157  1  0.48666000  0.42652000  0.12880000  1.0
  C  C158  1  0.35749000  0.87151000  0.29788000  1.0
  C  C159  1  0.93999000  0.29770000  0.42648000  1.0
  C  C160  1  0.51334000  0.57348000  0.87120000  1.0
  C  C161  1  0.64252000  0.12850000  0.70213000  1.0
  C  C162  1  0.67907000  0.64991000  0.42193000  1.0
  C  C163  1  0.25715000  0.57810000  0.22797000  1.0
  C  C164  1  0.02912000  0.77216000  0.35018000  1.0
  C  C165  1  0.32093000  0.35010000  0.57807000  1.0
  C  C166  1  0.74285000  0.42190000  0.77203000  1.0
  C  C167  1  0.97088000  0.22784000  0.64982000  1.0
  C  C168  1  0.87198000  0.79091000  0.58307000  1.0
  C  C169  1  0.28942000  0.41700000  0.20792000  1.0
  C  C170  1  0.08120000  0.79228000  0.20912000  1.0
  C  C171  1  0.12802000  0.20909000  0.41693000  1.0
  C  C172  1  0.71058000  0.58300000  0.79208000  1.0
  C  C173  1  0.91880000  0.20772000  0.79088000  1.0
  C  C174  1  0.83038000  0.72424000  0.53057000  1.0
  C  C175  1  0.30018000  0.46948000  0.19371000  1.0
  C  C176  1  0.10610000  0.80651000  0.27583000  1.0
  C  C177  1  0.16962000  0.27576000  0.46943000  1.0
  C  C178  1  0.69983000  0.53052000  0.80629000  1.0
  C  C179  1  0.89390000  0.19349000  0.72417000  1.0
  C  C180  1  0.66422000  0.53913000  0.29682000  1.0
  C  C181  1  0.36681000  0.70326000  0.24221000  1.0
  C  C182  1  0.12492000  0.75788000  0.46108000  1.0
  C  C183  1  0.33578000  0.46087000  0.70318000  1.0
  C  C184  1  0.63319000  0.29674000  0.75779000  1.0
  C  C185  1  0.87508000  0.24212000  0.53892000  1.0
  C  C186  1  0.94275000  0.91428000  0.70176000  1.0
  C  C187  1  0.24102000  0.29832000  0.21269000  1.0
  C  C188  1  0.02871000  0.78739000  0.08559000  1.0
  C  C189  1  0.05725000  0.08572000  0.29824000  1.0
  C  C190  1  0.75898000  0.70168000  0.78731000  1.0
  C  C191  1  0.97129000  0.21261000  0.91441000  1.0
  C  C192  1  0.75850000  0.65717000  0.37723000  1.0
  C  C193  1  0.38114000  0.62290000  0.27995000  1.0
  C  C194  1  0.10138000  0.72024000  0.34300000  1.0
  C  C195  1  0.24150000  0.34283000  0.62277000  1.0
  C  C196  1  0.61885000  0.37709000  0.72004000  1.0
  C  C197  1  0.89862000  0.27976000  0.65700000  1.0
  C  C198  1  0.58445000  0.53218000  0.34148000  1.0
  C  C199  1  0.24250000  0.65851000  0.19063000  1.0
  C  C200  1  0.05204000  0.80943000  0.46793000  1.0
  C  C201  1  0.41555000  0.46782000  0.65852000  1.0
  C  C202  1  0.75750000  0.34149000  0.80937000  1.0
  C  C203  1  0.94797000  0.19058000  0.53208000  1.0
  C  C204  1  0.75066000  0.60185000  0.31444000  1.0
  C  C205  1  0.43580000  0.68571000  0.28737000  1.0
  C  C206  1  0.14884000  0.71281000  0.39839000  1.0
  C  C207  1  0.24934000  0.39815000  0.68556000  1.0
  C  C208  1  0.56420000  0.31429000  0.71263000  1.0
  C  C209  1  0.85116000  0.28719000  0.60161000  1.0
  C  C210  1  0.01390000  0.97930000  0.64145000  1.0
  C  C211  1  0.37258000  0.35869000  0.33799000  1.0
  C  C212  1  0.03496000  0.66213000  0.02063000  1.0
  C  C213  1  0.98610000  0.02070000  0.35855000  1.0
  C  C214  1  0.62742000  0.64131000  0.66201000  1.0
  C  C215  1  0.96504000  0.33787000  0.97937000  1.0
  C  C216  1  0.49758000  0.57692000  0.44920000  1.0
  C  C217  1  0.04837000  0.55070000  0.12767000  1.0
  C  C218  1  0.92060000  0.87238000  0.42308000  1.0
  C  C219  1  0.50242000  0.42308000  0.55080000  1.0
  C  C220  1  0.95163000  0.44931000  0.87233000  1.0
  C  C221  1  0.07940000  0.12762000  0.57692000  1.0
  C  C222  1  0.92411000  0.96399000  0.68450000  1.0
  C  C223  1  0.23973000  0.31558000  0.27965000  1.0
  C  C224  1  0.96048000  0.72046000  0.03587000  1.0
  C  C225  1  0.07589000  0.03602000  0.31550000  1.0
  C  C226  1  0.76027000  0.68442000  0.72035000  1.0
  C  C227  1  0.03951000  0.27953000  0.96412000  1.0
  C  C228  1  0.81139000  0.00026000  0.70798000  1.0
  C  C229  1  0.10360000  0.29207000  0.29247000  1.0
  C  C230  1  0.81144000  0.70768000  0.99959000  1.0
  C  C231  1  0.18861000  0.99974000  0.29202000  1.0
  C  C232  1  0.89640000  0.70793000  0.70753000  1.0
  C  C233  1  0.18856000  0.29233000  0.00041000  1.0
  C  C234  1  0.85097000  0.90085000  0.73991000  1.0
  C  C235  1  0.11098000  0.26019000  0.16114000  1.0
  C  C236  1  0.95026000  0.83893000  0.09902000  1.0
  C  C237  1  0.14903000  0.09915000  0.26009000  1.0
  C  C238  1  0.88902000  0.73982000  0.83886000  1.0
  C  C239  1  0.04973000  0.16106000  0.90098000  1.0
  C  C240  1  0.71913000  0.98710000  0.74583000  1.0
  C  C241  1  0.97339000  0.25424000  0.24151000  1.0
  C  C242  1  0.73218000  0.75863000  0.01276000  1.0
  C  C243  1  0.28087000  0.01290000  0.25417000  1.0
  C  C244  1  0.02661000  0.74576000  0.75849000  1.0
  C  C245  1  0.26781000  0.24136000  0.98724000  1.0
  C  C246  1  0.73890000  0.93704000  0.76182000  1.0
  C  C247  1  0.97702000  0.23828000  0.17546000  1.0
  C  C248  1  0.80195000  0.82466000  0.06283000  1.0
  C  C249  1  0.26109000  0.06296000  0.23818000  1.0
  C  C250  1  0.02297000  0.76172000  0.82454000  1.0
  C  C251  1  0.19804000  0.17534000  0.93717000  1.0
  C  C252  1  0.18878000  0.56564000  0.67427000  1.0
  C  C253  1  0.51460000  0.32573000  0.89131000  1.0
  C  C254  1  0.62322000  0.10866000  0.43435000  1.0
  C  C255  1  0.81122000  0.43436000  0.32573000  1.0
  C  C256  1  0.48541000  0.67427000  0.10869000  1.0
  C  C257  1  0.37677000  0.89133000  0.56565000  1.0
  C  C258  1  0.95213000  0.49159000  0.65792000  1.0
  C  C259  1  0.29392000  0.34199000  0.83365000  1.0
  C  C260  1  0.46040000  0.16623000  0.50830000  1.0
  C  C261  1  0.04787000  0.50841000  0.34208000  1.0
  C  C262  1  0.70608000  0.65801000  0.16635000  1.0
  C  C263  1  0.53960000  0.83377000  0.49170000  1.0
  C  C264  1  0.10113000  0.57960000  0.77351000  1.0
  C  C265  1  0.32793000  0.22646000  0.80603000  1.0
  C  C266  1  0.52152000  0.19393000  0.42035000  1.0
  C  C267  1  0.89887000  0.42040000  0.22649000  1.0
  C  C268  1  0.67208000  0.77355000  0.19398000  1.0
  C  C269  1  0.47849000  0.80608000  0.57966000  1.0
  N  N270  1  0.08261000  0.54712000  0.70072000  1.0
  N  N271  1  0.38192000  0.29924000  0.84636000  1.0
  N  N272  1  0.53544000  0.15357000  0.45280000  1.0
  N  N273  1  0.91739000  0.45288000  0.29928000  1.0
  N  N274  1  0.61808000  0.70076000  0.15364000  1.0
  N  N275  1  0.46456000  0.84643000  0.54720000  1.0
  O  O276  1  0.10724000  0.59146000  0.52554000  1.0
  O  O277  1  0.58189000  0.47449000  0.06588000  1.0
  O  O278  1  0.51579000  0.93423000  0.40871000  1.0
  O  O279  1  0.89276000  0.40854000  0.47446000  1.0
  O  O280  1  0.41812000  0.52552000  0.93413000  1.0
  O  O281  1  0.48420000  0.06577000  0.59129000  1.0
  O  O282  1  0.29137000  0.67595000  0.60743000  1.0
  O  O283  1  0.68391000  0.39255000  0.06850000  1.0
  O  O284  1  0.61518000  0.93165000  0.32415000  1.0
  O  O285  1  0.70863000  0.32405000  0.39257000  1.0
  O  O286  1  0.31610000  0.60745000  0.93150000  1.0
  O  O287  1  0.38482000  0.06835000  0.67585000  1.0
  O  O288  1  0.69421000  0.70602000  0.48514000  1.0
  O  O289  1  0.20943000  0.51487000  0.22093000  1.0
  O  O290  1  0.98818000  0.77922000  0.29399000  1.0
  O  O291  1  0.30578000  0.29397000  0.51485000  1.0
  O  O292  1  0.79056000  0.48512000  0.77906000  1.0
  O  O293  1  0.01182000  0.22078000  0.70601000  1.0
  O  O294  1  0.05526000  0.87760000  0.68351000  1.0
  O  O295  1  0.37182000  0.31650000  0.19421000  1.0
  O  O296  1  0.17791000  0.80583000  0.12233000  1.0
  O  O297  1  0.94474000  0.12240000  0.31649000  1.0
  O  O298  1  0.62817000  0.68350000  0.80579000  1.0
  O  O299  1  0.82209000  0.19417000  0.87767000  1.0
  O  O300  1  0.49841000  0.52304000  0.45326000  1.0
  O  O301  1  0.04516000  0.54670000  0.06975000  1.0
  O  O302  1  0.97535000  0.93027000  0.47698000  1.0
  O  O303  1  0.50160000  0.47696000  0.54674000  1.0
  O  O304  1  0.95484000  0.45331000  0.93025000  1.0
  O  O305  1  0.02466000  0.06973000  0.52302000  1.0
  O  O306  1  0.98687000  0.02598000  0.62906000  1.0
  O  O307  1  0.35791000  0.37113000  0.39706000  1.0
  O  O308  1  0.96112000  0.60309000  0.97404000  1.0
  O  O309  1  0.01312000  0.97401000  0.37093000  1.0
  O  O310  1  0.64209000  0.62887000  0.60294000  1.0
  O  O311  1  0.03889000  0.39692000  0.02597000  1.0
  O  O312  1  0.18534000  0.45802000  0.46394000  1.0
  O  O313  1  0.72160000  0.53621000  0.99427000  1.0
  O  O314  1  0.72744000  0.00574000  0.54189000  1.0
  O  O315  1  0.81466000  0.54198000  0.53606000  1.0
  O  O316  1  0.27842000  0.46380000  0.00574000  1.0
  O  O317  1  0.27256000  0.99426000  0.45811000  1.0
  O  O318  1  0.11392000  0.94646000  0.61737000  1.0
  O  O319  1  0.49666000  0.38279000  0.32922000  1.0
  O  O320  1  0.16787000  0.67087000  0.05345000  1.0
  O  O321  1  0.88607000  0.05354000  0.38263000  1.0
  O  O322  1  0.50334000  0.61721000  0.67078000  1.0
  O  O323  1  0.83213000  0.32913000  0.94655000  1.0
  O  O324  1  0.41941000  0.61801000  0.48094000  1.0
  O  O325  1  0.93853000  0.51886000  0.13699000  1.0
  O  O326  1  0.80140000  0.86309000  0.38195000  1.0
  O  O327  1  0.58060000  0.38199000  0.51906000  1.0
  O  O328  1  0.06147000  0.48114000  0.86301000  1.0
  O  O329  1  0.19861000  0.13691000  0.61805000  1.0
  O  O330  1  0.18541000  0.53802000  0.61239000  1.0
  O  O331  1  0.57294000  0.38762000  0.92560000  1.0
  O  O332  1  0.64748000  0.07441000  0.46199000  1.0
  O  O333  1  0.81459000  0.46198000  0.38761000  1.0
  O  O334  1  0.42706000  0.61238000  0.07440000  1.0
  O  O335  1  0.35252000  0.92559000  0.53801000  1.0
