# generated using pymatgen
data_CoH62C56N2(ClO3)2
_symmetry_space_group_name_H-M   'P 1'
_cell_length_a   9.05921000
_cell_length_b   13.53460000
_cell_length_c   23.95900000
_cell_angle_alpha   91.42890000
_cell_angle_beta   98.01930000
_cell_angle_gamma   95.33360000
_symmetry_Int_Tables_number   1
_chemical_formula_structural   CoH62C56N2(ClO3)2
_chemical_formula_sum   'Co2 H124 C112 N4 Cl4 O12'
_cell_volume   2894.21655745
_cell_formula_units_Z   2
loop_
 _symmetry_equiv_pos_site_id
 _symmetry_equiv_pos_as_xyz
  1  'x, y, z'
loop_
 _atom_site_type_symbol
 _atom_site_label
 _atom_site_symmetry_multiplicity
 _atom_site_fract_x
 _atom_site_fract_y
 _atom_site_fract_z
 _atom_site_occupancy
  Co  Co0  1  0.03048000  0.79638000  0.20668000  1.0
  Co  Co1  1  0.96952000  0.20362000  0.79332000  1.0
  H  H2  1  0.00662000  0.11971000  0.41631000  1.0
  H  H3  1  0.99340000  0.88029000  0.58369000  1.0
  H  H4  1  0.72676000  0.65749000  0.99790000  1.0
  H  H5  1  0.27326000  0.34251000  0.00210000  1.0
  H  H6  1  0.13532000  0.88763000  0.32233000  1.0
  H  H7  1  0.86467000  0.11236000  0.67766000  1.0
  H  H8  1  0.02275000  0.91151000  0.41061000  1.0
  H  H9  1  0.97726000  0.08850000  0.58939000  1.0
  H  H10  1  0.60347000  0.77440000  0.32163000  1.0
  H  H11  1  0.39653000  0.22562000  0.67837000  1.0
  H  H12  1  0.72995000  0.76130000  0.23603000  1.0
  H  H13  1  0.27005000  0.23869000  0.76397000  1.0
  H  H14  1  0.59246000  0.07258000  0.59630000  1.0
  H  H15  1  0.40754000  0.92742000  0.40370000  1.0
  H  H16  1  0.72905000  0.78241000  0.63382000  1.0
  H  H17  1  0.27092000  0.21758000  0.36618000  1.0
  H  H18  1  0.74144000  0.69299000  0.51094000  1.0
  H  H19  1  0.25857000  0.30701000  0.48907000  1.0
  H  H20  1  0.85229000  0.69965000  0.57741000  1.0
  H  H21  1  0.14772000  0.30034000  0.42260000  1.0
  H  H22  1  0.41472000  0.02662000  0.65041000  1.0
  H  H23  1  0.58525000  0.97337000  0.34958000  1.0
  H  H24  1  0.58284000  0.08886000  0.68851000  1.0
  H  H25  1  0.41714000  0.91113000  0.31149000  1.0
  H  H26  1  0.45565000  0.01761000  0.72441000  1.0
  H  H27  1  0.54432000  0.98238000  0.27559000  1.0
  H  H28  1  0.76244000  0.85045000  0.72445000  1.0
  H  H29  1  0.23755000  0.14955000  0.27555000  1.0
  H  H30  1  0.65385000  0.91402000  0.76730000  1.0
  H  H31  1  0.34614000  0.08598000  0.23270000  1.0
  H  H32  1  0.78944000  0.98194000  0.73339000  1.0
  H  H33  1  0.21054000  0.01806000  0.26660000  1.0
  H  H34  1  0.37253000  0.84442000  0.63872000  1.0
  H  H35  1  0.62746000  0.15558000  0.36127000  1.0
  H  H36  1  0.41349000  0.83430000  0.71304000  1.0
  H  H37  1  0.58649000  0.16569000  0.28695000  1.0
  H  H38  1  0.50977000  0.76689000  0.66734000  1.0
  H  H39  1  0.49022000  0.23310000  0.33266000  1.0
  H  H40  1  0.66202000  0.05718000  0.44861000  1.0
  H  H41  1  0.33800000  0.94281000  0.55140000  1.0
  H  H42  1  0.56027000  0.11254000  0.49687000  1.0
  H  H43  1  0.43974000  0.88745000  0.50313000  1.0
  H  H44  1  0.68020000  0.23620000  0.56749000  1.0
  H  H45  1  0.31979000  0.76380000  0.43250000  1.0
  H  H46  1  0.11263000  0.37852000  0.54599000  1.0
  H  H47  1  0.88738000  0.62147000  0.45401000  1.0
  H  H48  1  0.96660000  0.52289000  0.55800000  1.0
  H  H49  1  0.03338000  0.47710000  0.44200000  1.0
  H  H50  1  0.85614000  0.55806000  0.60979000  1.0
  H  H51  1  0.14384000  0.44194000  0.39021000  1.0
  H  H52  1  0.76842000  0.49652000  0.54545000  1.0
  H  H53  1  0.23156000  0.50346000  0.45455000  1.0
  H  H54  1  0.12264000  0.42665000  0.63406000  1.0
  H  H55  1  0.87736000  0.57335000  0.36594000  1.0
  H  H56  1  0.02738000  0.34182000  0.67534000  1.0
  H  H57  1  0.97262000  0.65818000  0.32466000  1.0
  H  H58  1  0.01077000  0.47103000  0.68252000  1.0
  H  H59  1  0.98923000  0.52897000  0.31748000  1.0
  H  H60  1  0.63627000  0.37440000  0.60612000  1.0
  H  H61  1  0.36373000  0.62560000  0.39388000  1.0
  H  H62  1  0.73713000  0.43723000  0.66743000  1.0
  H  H63  1  0.26286000  0.56277000  0.33257000  1.0
  H  H64  1  0.74285000  0.30772000  0.65795000  1.0
  H  H65  1  0.25715000  0.69228000  0.34205000  1.0
  H  H66  1  0.10131000  0.58894000  0.20858000  1.0
  H  H67  1  0.89870000  0.41106000  0.79142000  1.0
  H  H68  1  0.99466000  0.42631000  0.15909000  1.0
  H  H69  1  0.00535000  0.57369000  0.84090000  1.0
  H  H70  1  0.62437000  0.57680000  0.08091000  1.0
  H  H71  1  0.37565000  0.42320000  0.91909000  1.0
  H  H72  1  0.74639000  0.73312000  0.13136000  1.0
  H  H73  1  0.25362000  0.26688000  0.86864000  1.0
  H  H74  1  0.35589000  0.11589000  0.98879000  1.0
  H  H75  1  0.64412000  0.88411000  0.01122000  1.0
  H  H76  1  0.66046000  0.22828000  0.87742000  1.0
  H  H77  1  0.33953000  0.77173000  0.12258000  1.0
  H  H78  1  0.31201000  0.20697000  0.06439000  1.0
  H  H79  1  0.68799000  0.79303000  0.93562000  1.0
  H  H80  1  0.49449000  0.21505000  0.10107000  1.0
  H  H81  1  0.50553000  0.78495000  0.89893000  1.0
  H  H82  1  0.29577000  0.11683000  0.83208000  1.0
  H  H83  1  0.70422000  0.88317000  0.16792000  1.0
  H  H84  1  0.38400000  0.01902000  0.80490000  1.0
  H  H85  1  0.61599000  0.98099000  0.19510000  1.0
  H  H86  1  0.48048000  0.14025000  0.81261000  1.0
  H  H87  1  0.51950000  0.85976000  0.18739000  1.0
  H  H88  1  0.40697000  0.96318000  0.95690000  1.0
  H  H89  1  0.59305000  0.03681000  0.04310000  1.0
  H  H90  1  0.34093000  0.91998000  0.88669000  1.0
  H  H91  1  0.65910000  0.08002000  0.11330000  1.0
  H  H92  1  0.25304000  0.01489000  0.91690000  1.0
  H  H93  1  0.74697000  0.98510000  0.08311000  1.0
  H  H94  1  0.67421000  0.00131000  0.93159000  1.0
  H  H95  1  0.32581000  0.99871000  0.06839000  1.0
  H  H96  1  0.70082000  0.06606000  0.86979000  1.0
  H  H97  1  0.29918000  0.93396000  0.13020000  1.0
  H  H98  1  0.59874000  0.94718000  0.86394000  1.0
  H  H99  1  0.40128000  0.05284000  0.13605000  1.0
  H  H100  1  0.83952000  0.43231000  0.97265000  1.0
  H  H101  1  0.16049000  0.56769000  0.02735000  1.0
  H  H102  1  0.83618000  0.36589000  0.90789000  1.0
  H  H103  1  0.16382000  0.63411000  0.09211000  1.0
  H  H104  1  0.63564000  0.39403000  0.82695000  1.0
  H  H105  1  0.36436000  0.60597000  0.17305000  1.0
  H  H106  1  0.47755000  0.68456000  0.82328000  1.0
  H  H107  1  0.52245000  0.31544000  0.17672000  1.0
  H  H108  1  0.25433000  0.51259000  0.76139000  1.0
  H  H109  1  0.74566000  0.48742000  0.23861000  1.0
  H  H110  1  0.29537000  0.55093000  0.69440000  1.0
  H  H111  1  0.70463000  0.44908000  0.30561000  1.0
  H  H112  1  0.32884000  0.63650000  0.75298000  1.0
  H  H113  1  0.67117000  0.36350000  0.24702000  1.0
  H  H114  1  0.41260000  0.36934000  0.75626000  1.0
  H  H115  1  0.58738000  0.63066000  0.24374000  1.0
  H  H116  1  0.59419000  0.38746000  0.73666000  1.0
  H  H117  1  0.40580000  0.61253000  0.26334000  1.0
  H  H118  1  0.43623000  0.40882000  0.68750000  1.0
  H  H119  1  0.56375000  0.59118000  0.31250000  1.0
  H  H120  1  0.56269000  0.58235000  0.67522000  1.0
  H  H121  1  0.43732000  0.41764000  0.32478000  1.0
  H  H122  1  0.71396000  0.56581000  0.72934000  1.0
  H  H123  1  0.28604000  0.43419000  0.27066000  1.0
  H  H124  1  0.60597000  0.66762000  0.73460000  1.0
  H  H125  1  0.39404000  0.33237000  0.26540000  1.0
  C  C126  1  0.01708000  0.86582000  0.32365000  1.0
  C  C127  1  0.98292000  0.13417000  0.67635000  1.0
  C  C128  1  0.95398000  0.87843000  0.37270000  1.0
  C  C129  1  0.04602000  0.12157000  0.62730000  1.0
  C  C130  1  0.80355000  0.84398000  0.37285000  1.0
  C  C131  1  0.19646000  0.15603000  0.62715000  1.0
  C  C132  1  0.72090000  0.80128000  0.32302000  1.0
  C  C133  1  0.27909000  0.19872000  0.67699000  1.0
  C  C134  1  0.79100000  0.79363000  0.27557000  1.0
  C  C135  1  0.20899000  0.20637000  0.72443000  1.0
  C  C136  1  0.72721000  0.84753000  0.42388000  1.0
  C  C137  1  0.27281000  0.15249000  0.57612000  1.0
  C  C138  1  0.75306000  0.91528000  0.51732000  1.0
  C  C139  1  0.24696000  0.08472000  0.48269000  1.0
  C  C140  1  0.69239000  0.00160000  0.53232000  1.0
  C  C141  1  0.30763000  0.99840000  0.46768000  1.0
  C  C142  1  0.64415000  0.00648000  0.58549000  1.0
  C  C143  1  0.35585000  0.99352000  0.41451000  1.0
  C  C144  1  0.65235000  0.92816000  0.62241000  1.0
  C  C145  1  0.34765000  0.07184000  0.37759000  1.0
  C  C146  1  0.71884000  0.84472000  0.60588000  1.0
  C  C147  1  0.28116000  0.15527000  0.39412000  1.0
  C  C148  1  0.76907000  0.83558000  0.55357000  1.0
  C  C149  1  0.23094000  0.16442000  0.44644000  1.0
  C  C150  1  0.83050000  0.73969000  0.53813000  1.0
  C  C151  1  0.16950000  0.26031000  0.46187000  1.0
  C  C152  1  0.58338000  0.92712000  0.67723000  1.0
  C  C153  1  0.41661000  0.07288000  0.32276000  1.0
  C  C154  1  0.50556000  0.02085000  0.68528000  1.0
  C  C155  1  0.49442000  0.97914000  0.31472000  1.0
  C  C156  1  0.70463000  0.91766000  0.72824000  1.0
  C  C157  1  0.29535000  0.08234000  0.27175000  1.0
  C  C158  1  0.46306000  0.83756000  0.67365000  1.0
  C  C159  1  0.53692000  0.16243000  0.32635000  1.0
  C  C160  1  0.66847000  0.08547000  0.49214000  1.0
  C  C161  1  0.33154000  0.91453000  0.50786000  1.0
  C  C162  1  0.78845000  0.17136000  0.50406000  1.0
  C  C163  1  0.21156000  0.82863000  0.49594000  1.0
  C  C164  1  0.77973000  0.24260000  0.54653000  1.0
  C  C165  1  0.22027000  0.75740000  0.45347000  1.0
  C  C166  1  0.89261000  0.31978000  0.56203000  1.0
  C  C167  1  0.10739000  0.68022000  0.43797000  1.0
  C  C168  1  0.01905000  0.32158000  0.53418000  1.0
  C  C169  1  0.98095000  0.67842000  0.46582000  1.0
  C  C170  1  0.96902000  0.74667000  0.50933000  1.0
  C  C171  1  0.03099000  0.25333000  0.49067000  1.0
  C  C172  1  0.91105000  0.17992000  0.47416000  1.0
  C  C173  1  0.08896000  0.82008000  0.52584000  1.0
  C  C174  1  0.87956000  0.40016000  0.60658000  1.0
  C  C175  1  0.12044000  0.59983000  0.39342000  1.0
  C  C176  1  0.86741000  0.50020000  0.57800000  1.0
  C  C177  1  0.13257000  0.49979000  0.42200000  1.0
  C  C178  1  0.01847000  0.41020000  0.65207000  1.0
  C  C179  1  0.98153000  0.58980000  0.34793000  1.0
  C  C180  1  0.74083000  0.37780000  0.63582000  1.0
  C  C181  1  0.25917000  0.62219000  0.36418000  1.0
  C  C182  1  0.99551000  0.58227000  0.18022000  1.0
  C  C183  1  0.00450000  0.41772000  0.81978000  1.0
  C  C184  1  0.93643000  0.49288000  0.15267000  1.0
  C  C185  1  0.06358000  0.50712000  0.84732000  1.0
  C  C186  1  0.80237000  0.48956000  0.11546000  1.0
  C  C187  1  0.19764000  0.51044000  0.88454000  1.0
  C  C188  1  0.73043000  0.57649000  0.10845000  1.0
  C  C189  1  0.26958000  0.42352000  0.89155000  1.0
  C  C190  1  0.79679000  0.66330000  0.13719000  1.0
  C  C191  1  0.20322000  0.33670000  0.86281000  1.0
  C  C192  1  0.74439000  0.39375000  0.08441000  1.0
  C  C193  1  0.25562000  0.60625000  0.91559000  1.0
  C  C194  1  0.59193000  0.32585000  0.00154000  1.0
  C  C195  1  0.40807000  0.67416000  0.99846000  1.0
  C  C196  1  0.48255000  0.25442000  0.01546000  1.0
  C  C197  1  0.51745000  0.74558000  0.98454000  1.0
  C  C198  1  0.43936000  0.17242000  0.97762000  1.0
  C  C199  1  0.56064000  0.82759000  0.02238000  1.0
  C  C200  1  0.50466000  0.15892000  0.92882000  1.0
  C  C201  1  0.49534000  0.84108000  0.07118000  1.0
  C  C202  1  0.60868000  0.23532000  0.91566000  1.0
  C  C203  1  0.39132000  0.76469000  0.08433000  1.0
  C  C204  1  0.65310000  0.31977000  0.95100000  1.0
  C  C205  1  0.34690000  0.68023000  0.04900000  1.0
  C  C206  1  0.41938000  0.25430000  0.07101000  1.0
  C  C207  1  0.58063000  0.74570000  0.92899000  1.0
  C  C208  1  0.47176000  0.06315000  0.89181000  1.0
  C  C209  1  0.52824000  0.93685000  0.10818000  1.0
  C  C210  1  0.40460000  0.08741000  0.83176000  1.0
  C  C211  1  0.59539000  0.91260000  0.16824000  1.0
  C  C212  1  0.36205000  0.98667000  0.91485000  1.0
  C  C213  1  0.63797000  0.01333000  0.08515000  1.0
  C  C214  1  0.62044000  0.01733000  0.88922000  1.0
  C  C215  1  0.37957000  0.98269000  0.11077000  1.0
  C  C216  1  0.76570000  0.40064000  0.93504000  1.0
  C  C217  1  0.23430000  0.59935000  0.06496000  1.0
  C  C218  1  0.69093000  0.48293000  0.90342000  1.0
  C  C219  1  0.30907000  0.51707000  0.09659000  1.0
  C  C220  1  0.62613000  0.46622000  0.84681000  1.0
  C  C221  1  0.37387000  0.53378000  0.15319000  1.0
  C  C222  1  0.55170000  0.53797000  0.81609000  1.0
  C  C223  1  0.44829000  0.46203000  0.18391000  1.0
  C  C224  1  0.53853000  0.62739000  0.84486000  1.0
  C  C225  1  0.46147000  0.37261000  0.15514000  1.0
  C  C226  1  0.39941000  0.35236000  0.09904000  1.0
  C  C227  1  0.60060000  0.64764000  0.90096000  1.0
  C  C228  1  0.68212000  0.57582000  0.92959000  1.0
  C  C229  1  0.31788000  0.42418000  0.07042000  1.0
  C  C230  1  0.49236000  0.52493000  0.75307000  1.0
  C  C231  1  0.50763000  0.47507000  0.24693000  1.0
  C  C232  1  0.33388000  0.55871000  0.74000000  1.0
  C  C233  1  0.66612000  0.44130000  0.26000000  1.0
  C  C234  1  0.48434000  0.41652000  0.73230000  1.0
  C  C235  1  0.51565000  0.58348000  0.26771000  1.0
  C  C236  1  0.60006000  0.58909000  0.72103000  1.0
  C  C237  1  0.39994000  0.41090000  0.27898000  1.0
  N  N238  1  0.93753000  0.82362000  0.27561000  1.0
  N  N239  1  0.06246000  0.17638000  0.72439000  1.0
  N  N240  1  0.92828000  0.66708000  0.17230000  1.0
  N  N241  1  0.07173000  0.33292000  0.82770000  1.0
  Cl  Cl242  1  0.26698000  0.77432000  0.23357000  1.0
  Cl  Cl243  1  0.73302000  0.22568000  0.76643000  1.0
  Cl  Cl244  1  0.99368000  0.91050000  0.14571000  1.0
  Cl  Cl245  1  0.00633000  0.08950000  0.85429000  1.0
  O  O246  1  0.60780000  0.80021000  0.42812000  1.0
  O  O247  1  0.39217000  0.19984000  0.57189000  1.0
  O  O248  1  0.80565000  0.91061000  0.46486000  1.0
  O  O249  1  0.19439000  0.08938000  0.53514000  1.0
  O  O250  1  0.90820000  0.11467000  0.42907000  1.0
  O  O251  1  0.09181000  0.88532000  0.57094000  1.0
  O  O252  1  0.78484000  0.31328000  0.09799000  1.0
  O  O253  1  0.21515000  0.68673000  0.90201000  1.0
  O  O254  1  0.64438000  0.40890000  0.03799000  1.0
  O  O255  1  0.35561000  0.59111000  0.96201000  1.0
  O  O256  1  0.75491000  0.59477000  0.98353000  1.0
  O  O257  1  0.24510000  0.40523000  0.01647000  1.0
