# generated using pymatgen
data_CuH15C11(NO2)2
_symmetry_space_group_name_H-M   'P 1'
_cell_length_a   8.76491000
_cell_length_b   12.82970000
_cell_length_c   13.05556268
_cell_angle_alpha   60.56417750
_cell_angle_beta   87.35900215
_cell_angle_gamma   90.00950000
_symmetry_Int_Tables_number   1
_chemical_formula_structural   CuH15C11(NO2)2
_chemical_formula_sum   'Cu4 H60 C44 N8 O16'
_cell_volume   1276.79253203
_cell_formula_units_Z   4
loop_
 _symmetry_equiv_pos_site_id
 _symmetry_equiv_pos_as_xyz
  1  'x, y, z'
loop_
 _atom_site_type_symbol
 _atom_site_label
 _atom_site_symmetry_multiplicity
 _atom_site_fract_x
 _atom_site_fract_y
 _atom_site_fract_z
 _atom_site_occupancy
  Cu  Cu0  1  0.56495000  0.42668000  0.59654000  1.0
  Cu  Cu1  1  0.93515000  0.02318000  0.40335000  1.0
  Cu  Cu2  1  0.43505000  0.57332000  0.40345000  1.0
  Cu  Cu3  1  0.06479000  0.97684000  0.59655000  1.0
  H  H4  1  0.75715000  0.21061000  0.67258000  1.0
  H  H5  1  0.74268000  0.88370000  0.32712000  1.0
  H  H6  1  0.24285000  0.78939000  0.32742000  1.0
  H  H7  1  0.25732000  0.11630000  0.67288000  1.0
  H  H8  1  0.66535000  0.42991000  0.89246000  1.0
  H  H9  1  0.83487000  0.32271000  0.10724000  1.0
  H  H10  1  0.33465000  0.57008000  0.10754000  1.0
  H  H11  1  0.16513000  0.67730000  0.89276000  1.0
  H  H12  1  0.55578000  0.30321000  0.99910000  1.0
  H  H13  1  0.94455000  0.30288000  0.00054000  1.0
  H  H14  1  0.44421000  0.69678000  0.00090000  1.0
  H  H15  1  0.05545000  0.69712000  0.99946000  1.0
  H  H16  1  0.48973000  0.39375000  0.85414000  1.0
  H  H17  1  0.01061000  0.24844000  0.14550000  1.0
  H  H18  1  0.51026000  0.60624000  0.14586000  1.0
  H  H19  1  0.98939000  0.75155000  0.85451000  1.0
  H  H20  1  0.80908000  0.96239000  0.85097000  1.0
  H  H21  1  0.69108000  0.81365000  0.14881000  1.0
  H  H22  1  0.19092000  0.03761000  0.14903000  1.0
  H  H23  1  0.30892000  0.18635000  0.85119000  1.0
  H  H24  1  0.90086000  0.96482000  0.96900000  1.0
  H  H25  1  0.59939000  0.93410000  0.03071000  1.0
  H  H26  1  0.09914000  0.03518000  0.03100000  1.0
  H  H27  1  0.40061000  0.06590000  0.96929000  1.0
  H  H28  1  0.98141000  0.04348000  0.82225000  1.0
  H  H29  1  0.51884000  0.86615000  0.17746000  1.0
  H  H30  1  0.01859000  0.95651000  0.17775000  1.0
  H  H31  1  0.48117000  0.13385000  0.82254000  1.0
  H  H32  1  0.47785000  0.15785000  0.47219000  1.0
  H  H33  1  0.02208000  0.63001000  0.52788000  1.0
  H  H34  1  0.52216000  0.84216000  0.52780000  1.0
  H  H35  1  0.97792000  0.36999000  0.47213000  1.0
  H  H36  1  0.63456000  0.23676000  0.37686000  1.0
  H  H37  1  0.86541000  0.61348000  0.62325000  1.0
  H  H38  1  0.36544000  0.76325000  0.62313000  1.0
  H  H39  1  0.13459000  0.38653000  0.37675000  1.0
  H  H40  1  0.42817000  0.00503000  0.28225000  1.0
  H  H41  1  0.07200000  0.28721000  0.71801000  1.0
  H  H42  1  0.57182000  0.99497000  0.71776000  1.0
  H  H43  1  0.92800000  0.71277000  0.28200000  1.0
  H  H44  1  0.51013000  0.02699000  0.39261000  1.0
  H  H45  1  0.98991000  0.41945000  0.60762000  1.0
  H  H46  1  0.48988000  0.97302000  0.60739000  1.0
  H  H47  1  0.01009000  0.58056000  0.39237000  1.0
  H  H48  1  0.36837000  0.21567000  0.16691000  1.0
  H  H49  1  0.13192000  0.38268000  0.83314000  1.0
  H  H50  1  0.63162000  0.78434000  0.83308000  1.0
  H  H51  1  0.86808000  0.61731000  0.16687000  1.0
  H  H52  1  0.56277000  0.20309000  0.20240000  1.0
  H  H53  1  0.93747000  0.40543000  0.79780000  1.0
  H  H54  1  0.43723000  0.79692000  0.79759000  1.0
  H  H55  1  0.06253000  0.59457000  0.20220000  1.0
  H  H56  1  0.44348000  0.36700000  0.22183000  1.0
  H  H57  1  0.05665000  0.58891000  0.77816000  1.0
  H  H58  1  0.55652000  0.63301000  0.77816000  1.0
  H  H59  1  0.94335000  0.41108000  0.22185000  1.0
  H  H60  1  0.29593000  0.27103000  0.31717000  1.0
  H  H61  1  0.20412000  0.58833000  0.68276000  1.0
  H  H62  1  0.70408000  0.72897000  0.68283000  1.0
  H  H63  1  0.79588000  0.41166000  0.31725000  1.0
  C  C64  1  0.74234000  0.16617000  0.93620000  1.0
  C  C65  1  0.75841000  0.10265000  0.06336000  1.0
  C  C66  1  0.25767000  0.83384000  0.06379000  1.0
  C  C67  1  0.24160000  0.89735000  0.93664000  1.0
  C  C68  1  0.50541000  0.33653000  0.43875000  1.0
  C  C69  1  0.99443000  0.77527000  0.56129000  1.0
  C  C70  1  0.49460000  0.66346000  0.56126000  1.0
  C  C71  1  0.00559000  0.22473000  0.43875000  1.0
  C  C72  1  0.79075000  0.12645000  0.85768000  1.0
  C  C73  1  0.70965000  0.98448000  0.14195000  1.0
  C  C74  1  0.20925000  0.87355000  0.14232000  1.0
  C  C75  1  0.29035000  0.01552000  0.85805000  1.0
  C  C76  1  0.66964000  0.27650000  0.86633000  1.0
  C  C77  1  0.83085000  0.14321000  0.13326000  1.0
  C  C78  1  0.33037000  0.72350000  0.13367000  1.0
  C  C79  1  0.16915000  0.85679000  0.86674000  1.0
  C  C80  1  0.59070000  0.35504000  0.90520000  1.0
  C  C81  1  0.90965000  0.26069000  0.09444000  1.0
  C  C82  1  0.40930000  0.64497000  0.09479000  1.0
  C  C83  1  0.09034000  0.73930000  0.90557000  1.0
  C  C84  1  0.87425000  0.01842000  0.87644000  1.0
  C  C85  1  0.62601000  0.89521000  0.12326000  1.0
  C  C86  1  0.12575000  0.98159000  0.12355000  1.0
  C  C87  1  0.37399000  0.10480000  0.87673000  1.0
  C  C88  1  0.51281000  0.24493000  0.39664000  1.0
  C  C89  1  0.98715000  0.64154000  0.60343000  1.0
  C  C90  1  0.48719000  0.75506000  0.60336000  1.0
  C  C91  1  0.01286000  0.35846000  0.39659000  1.0
  C  C92  1  0.26479000  0.03142000  0.39389000  1.0
  C  C93  1  0.23525000  0.42532000  0.60624000  1.0
  C  C94  1  0.73523000  0.96857000  0.60615000  1.0
  C  C95  1  0.76476000  0.57466000  0.39378000  1.0
  C  C96  1  0.42076000  0.05681000  0.32883000  1.0
  C  C97  1  0.07934000  0.38557000  0.67136000  1.0
  C  C98  1  0.57924000  0.94319000  0.67119000  1.0
  C  C99  1  0.92066000  0.61442000  0.32865000  1.0
  C  C100  1  0.44466000  0.19071000  0.23968000  1.0
  C  C101  1  0.05551000  0.43040000  0.76044000  1.0
  C  C102  1  0.55534000  0.80929000  0.76032000  1.0
  C  C103  1  0.94449000  0.56960000  0.23956000  1.0
  C  C104  1  0.41787000  0.27426000  0.29103000  1.0
  C  C105  1  0.08220000  0.56534000  0.70898000  1.0
  C  C106  1  0.58213000  0.72575000  0.70897000  1.0
  C  C107  1  0.91780000  0.43465000  0.29103000  1.0
  N  N108  1  0.67437000  0.30236000  0.75334000  1.0
  N  N109  1  0.82575000  0.05616000  0.24632000  1.0
  N  N110  1  0.32564000  0.69764000  0.24666000  1.0
  N  N111  1  0.17425000  0.94384000  0.75368000  1.0
  N  N112  1  0.74802000  0.21108000  0.75026000  1.0
  N  N113  1  0.75205000  0.96180000  0.24940000  1.0
  N  N114  1  0.25198000  0.78891000  0.24975000  1.0
  N  N115  1  0.24795000  0.03818000  0.75061000  1.0
  O  O116  1  0.56256000  0.30611000  0.53753000  1.0
  O  O117  1  0.93747000  0.84357000  0.46238000  1.0
  O  O118  1  0.43743000  0.69390000  0.46247000  1.0
  O  O119  1  0.06252000  0.15639000  0.53762000  1.0
  O  O120  1  0.26258000  0.00580000  0.50132000  1.0
  O  O121  1  0.23726000  0.50689000  0.49868000  1.0
  O  O122  1  0.73737000  0.99420000  0.49868000  1.0
  O  O123  1  0.76274000  0.49309000  0.50133000  1.0
  O  O124  1  0.14958000  0.04116000  0.33413000  1.0
  O  O125  1  0.35057000  0.37566000  0.66598000  1.0
  O  O126  1  0.85045000  0.95886000  0.66583000  1.0
  O  O127  1  0.64944000  0.62433000  0.33403000  1.0
  O  O128  1  0.44491000  0.43586000  0.37194000  1.0
  O  O129  1  0.05462000  0.80788000  0.62812000  1.0
  O  O130  1  0.55508000  0.56413000  0.62805000  1.0
  O  O131  1  0.94537000  0.19216000  0.37186000  1.0
