# generated using pymatgen
data_CoH11C18(NO2)2
_symmetry_space_group_name_H-M   'P 1'
_cell_length_a   11.32850000
_cell_length_b   13.16510000
_cell_length_c   17.35510000
_cell_angle_alpha   90.01710000
_cell_angle_beta   90.15230000
_cell_angle_gamma   87.27270000
_symmetry_Int_Tables_number   1
_chemical_formula_structural   CoH11C18(NO2)2
_chemical_formula_sum   'Co4 H44 C72 N8 O16'
_cell_volume   2585.41315347
_cell_formula_units_Z   4
loop_
 _symmetry_equiv_pos_site_id
 _symmetry_equiv_pos_as_xyz
  1  'x, y, z'
loop_
 _atom_site_type_symbol
 _atom_site_label
 _atom_site_symmetry_multiplicity
 _atom_site_fract_x
 _atom_site_fract_y
 _atom_site_fract_z
 _atom_site_occupancy
  Co  Co0  1  0.53409000  0.53814000  0.61332000  1.0
  Co  Co1  1  0.46499000  0.96191000  0.11316000  1.0
  Co  Co2  1  0.46590000  0.46186000  0.38668000  1.0
  Co  Co3  1  0.53503000  0.03809000  0.88683000  1.0
  H  H4  1  0.46972000  0.73683000  0.32162000  1.0
  H  H5  1  0.53083000  0.76306000  0.82176000  1.0
  H  H6  1  0.53028000  0.26316000  0.67838000  1.0
  H  H7  1  0.46917000  0.23691000  0.17826000  1.0
  H  H8  1  0.48731000  0.05470000  0.36904000  1.0
  H  H9  1  0.51337000  0.44526000  0.86918000  1.0
  H  H10  1  0.51272000  0.94531000  0.63093000  1.0
  H  H11  1  0.48659000  0.55472000  0.13085000  1.0
  H  H12  1  0.50834000  0.83521000  0.55579000  1.0
  H  H13  1  0.49131000  0.66492000  0.05577000  1.0
  H  H14  1  0.49164000  0.16481000  0.44420000  1.0
  H  H15  1  0.50869000  0.33508000  0.94425000  1.0
  H  H16  1  0.73662000  0.38712000  0.64479000  1.0
  H  H17  1  0.26298000  0.11298000  0.14495000  1.0
  H  H18  1  0.26339000  0.61291000  0.35522000  1.0
  H  H19  1  0.73705000  0.88698000  0.85504000  1.0
  H  H20  1  0.95525000  0.37842000  0.64345000  1.0
  H  H21  1  0.04433000  0.12163000  0.14359000  1.0
  H  H22  1  0.04476000  0.62160000  0.35654000  1.0
  H  H23  1  0.95571000  0.87832000  0.85640000  1.0
  H  H24  1  0.13216000  0.37615000  0.63604000  1.0
  H  H25  1  0.86735000  0.12393000  0.13596000  1.0
  H  H26  1  0.86782000  0.62388000  0.36396000  1.0
  H  H27  1  0.13266000  0.87607000  0.86403000  1.0
  H  H28  1  0.34867000  0.38509000  0.63953000  1.0
  H  H29  1  0.65087000  0.11483000  0.13941000  1.0
  H  H30  1  0.65130000  0.61493000  0.36049000  1.0
  H  H31  1  0.34915000  0.88519000  0.86060000  1.0
  H  H32  1  0.33132000  0.69173000  0.58744000  1.0
  H  H33  1  0.66799000  0.80809000  0.08772000  1.0
  H  H34  1  0.66870000  0.30829000  0.41260000  1.0
  H  H35  1  0.33196000  0.19192000  0.91236000  1.0
  H  H36  1  0.11364000  0.69828000  0.58344000  1.0
  H  H37  1  0.88564000  0.80166000  0.08371000  1.0
  H  H38  1  0.88638000  0.30175000  0.41655000  1.0
  H  H39  1  0.11432000  0.19831000  0.91635000  1.0
  H  H40  1  0.93728000  0.69576000  0.57573000  1.0
  H  H41  1  0.06176000  0.80429000  0.07607000  1.0
  H  H42  1  0.06270000  0.30427000  0.42422000  1.0
  H  H43  1  0.93824000  0.19567000  0.92391000  1.0
  H  H44  1  0.71954000  0.68953000  0.58189000  1.0
  H  H45  1  0.27956000  0.81041000  0.08218000  1.0
  H  H46  1  0.28044000  0.31049000  0.41811000  1.0
  H  H47  1  0.72044000  0.18955000  0.91780000  1.0
  C  C48  1  0.49122000  0.66941000  0.47049000  1.0
  C  C49  1  0.50869000  0.83073000  0.97044000  1.0
  C  C50  1  0.50878000  0.33060000  0.52951000  1.0
  C  C51  1  0.49132000  0.16927000  0.02955000  1.0
  C  C52  1  0.48857000  0.77675000  0.44221000  1.0
  C  C53  1  0.51160000  0.72328000  0.94226000  1.0
  C  C54  1  0.51143000  0.22326000  0.55778000  1.0
  C  C55  1  0.48840000  0.27672000  0.05775000  1.0
  C  C56  1  0.47773000  0.79790000  0.36346000  1.0
  C  C57  1  0.52276000  0.70203000  0.86357000  1.0
  C  C58  1  0.52228000  0.20209000  0.63653000  1.0
  C  C59  1  0.47723000  0.29794000  0.13644000  1.0
  C  C60  1  0.47914000  0.89884000  0.33850000  1.0
  C  C61  1  0.52153000  0.60106000  0.83863000  1.0
  C  C62  1  0.52088000  0.10116000  0.66149000  1.0
  C  C63  1  0.47845000  0.39892000  0.16139000  1.0
  C  C64  1  0.47284000  0.92288000  0.25445000  1.0
  C  C65  1  0.52782000  0.57694000  0.75462000  1.0
  C  C66  1  0.52717000  0.07709000  0.74552000  1.0
  C  C67  1  0.47220000  0.42308000  0.24540000  1.0
  C  C68  1  0.48741000  0.97766000  0.39202000  1.0
  C  C69  1  0.51320000  0.52232000  0.89213000  1.0
  C  C70  1  0.51261000  0.02235000  0.60796000  1.0
  C  C71  1  0.48677000  0.47767000  0.10789000  1.0
  C  C72  1  0.49622000  0.95807000  0.47154000  1.0
  C  C73  1  0.50392000  0.54196000  0.97160000  1.0
  C  C74  1  0.50378000  0.04194000  0.52845000  1.0
  C  C75  1  0.49604000  0.45804000  0.02842000  1.0
  C  C76  1  0.49860000  0.85599000  0.49527000  1.0
  C  C77  1  0.50137000  0.64410000  0.99530000  1.0
  C  C78  1  0.50138000  0.14402000  0.50471000  1.0
  C  C79  1  0.49861000  0.35591000  0.00471000  1.0
  C  C80  1  0.78569000  0.45360000  0.62999000  1.0
  C  C81  1  0.21382000  0.04645000  0.13023000  1.0
  C  C82  1  0.21432000  0.54643000  0.37002000  1.0
  C  C83  1  0.78620000  0.95351000  0.86975000  1.0
  C  C84  1  0.90840000  0.44990000  0.62860000  1.0
  C  C85  1  0.09112000  0.05016000  0.12881000  1.0
  C  C86  1  0.09161000  0.55012000  0.37137000  1.0
  C  C87  1  0.90890000  0.94979000  0.87116000  1.0
  C  C88  1  0.96934000  0.53691000  0.60918000  1.0
  C  C89  1  0.03003000  0.96311000  0.10944000  1.0
  C  C90  1  0.03066000  0.46311000  0.39078000  1.0
  C  C91  1  0.96997000  0.03684000  0.89055000  1.0
  C  C92  1  0.09975000  0.53692000  0.60898000  1.0
  C  C93  1  0.89962000  0.96306000  0.10913000  1.0
  C  C94  1  0.90024000  0.46311000  0.39100000  1.0
  C  C95  1  0.10038000  0.03691000  0.89089000  1.0
  C  C96  1  0.17074000  0.44871000  0.62448000  1.0
  C  C97  1  0.82878000  0.05132000  0.12447000  1.0
  C  C98  1  0.82924000  0.55131000  0.37552000  1.0
  C  C99  1  0.17124000  0.94868000  0.87553000  1.0
  C  C100  1  0.29291000  0.45249000  0.62595000  1.0
  C  C101  1  0.70663000  0.04748000  0.12590000  1.0
  C  C102  1  0.70708000  0.54753000  0.37406000  1.0
  C  C103  1  0.29338000  0.95253000  0.87411000  1.0
  C  C104  1  0.28305000  0.62329000  0.59729000  1.0
  C  C105  1  0.71627000  0.87660000  0.09752000  1.0
  C  C106  1  0.71695000  0.37673000  0.40273000  1.0
  C  C107  1  0.28372000  0.12341000  0.90254000  1.0
  C  C108  1  0.16051000  0.62585000  0.59528000  1.0
  C  C109  1  0.83881000  0.87408000  0.09551000  1.0
  C  C110  1  0.83950000  0.37418000  0.40472000  1.0
  C  C111  1  0.16117000  0.12591000  0.90453000  1.0
  C  C112  1  0.89855000  0.62465000  0.59171000  1.0
  C  C113  1  0.10064000  0.87538000  0.09201000  1.0
  C  C114  1  0.10144000  0.37537000  0.40825000  1.0
  C  C115  1  0.89937000  0.12458000  0.90796000  1.0
  C  C116  1  0.77626000  0.62251000  0.59485000  1.0
  C  C117  1  0.22295000  0.87746000  0.09512000  1.0
  C  C118  1  0.22373000  0.37750000  0.40513000  1.0
  C  C119  1  0.77706000  0.12250000  0.90486000  1.0
  N  N120  1  0.71941000  0.53838000  0.61332000  1.0
  N  N121  1  0.27992000  0.96162000  0.11358000  1.0
  N  N122  1  0.28059000  0.46163000  0.38668000  1.0
  N  N123  1  0.72009000  0.03834000  0.88642000  1.0
  N  N124  1  0.34989000  0.53798000  0.61174000  1.0
  N  N125  1  0.64959000  0.96195000  0.11181000  1.0
  N  N126  1  0.65011000  0.46204000  0.38828000  1.0
  N  N127  1  0.35042000  0.03807000  0.88823000  1.0
  O  O128  1  0.44995000  0.60250000  0.42646000  1.0
  O  O129  1  0.55068000  0.89752000  0.92679000  1.0
  O  O130  1  0.55005000  0.39751000  0.57353000  1.0
  O  O131  1  0.44933000  0.10248000  0.07320000  1.0
  O  O132  1  0.53458000  0.65264000  0.53736000  1.0
  O  O133  1  0.46436000  0.84779000  0.03687000  1.0
  O  O134  1  0.46541000  0.34738000  0.46263000  1.0
  O  O135  1  0.53565000  0.15221000  0.96312000  1.0
  O  O136  1  0.47160000  0.01537000  0.23172000  1.0
  O  O137  1  0.52927000  0.48446000  0.73184000  1.0
  O  O138  1  0.52835000  0.98462000  0.76827000  1.0
  O  O139  1  0.47079000  0.51556000  0.26819000  1.0
  O  O140  1  0.46972000  0.85079000  0.20525000  1.0
  O  O141  1  0.53048000  0.64904000  0.70544000  1.0
  O  O142  1  0.53031000  0.14917000  0.79473000  1.0
  O  O143  1  0.46952000  0.35098000  0.29457000  1.0
