# generated using pymatgen
data_ZnH6C6I4N6O
_symmetry_space_group_name_H-M   'P 1'
_cell_length_a   8.45088000
_cell_length_b   10.91522257
_cell_length_c   18.89030000
_cell_angle_alpha   91.67145507
_cell_angle_beta   102.92390000
_cell_angle_gamma   112.75317382
_symmetry_Int_Tables_number   1
_chemical_formula_structural   ZnH6C6I4N6O
_chemical_formula_sum   'Zn4 H24 C24 I16 N24 O4'
_cell_volume   1553.17069036
_cell_formula_units_Z   4
loop_
 _symmetry_equiv_pos_site_id
 _symmetry_equiv_pos_as_xyz
  1  'x, y, z'
loop_
 _atom_site_type_symbol
 _atom_site_label
 _atom_site_symmetry_multiplicity
 _atom_site_fract_x
 _atom_site_fract_y
 _atom_site_fract_z
 _atom_site_occupancy
  Zn  Zn0  1  0.93207000  0.35770000  0.66844000  1.0
  Zn  Zn1  1  0.40604000  0.14241000  0.83158000  1.0
  Zn  Zn2  1  0.06793000  0.64230000  0.33156000  1.0
  Zn  Zn3  1  0.59396000  0.85759000  0.16842000  1.0
  H  H4  1  0.65815000  0.90637000  0.69567000  1.0
  H  H5  1  0.55616000  0.59383000  0.80439000  1.0
  H  H6  1  0.34186000  0.09364000  0.30433000  1.0
  H  H7  1  0.44385000  0.40617000  0.19561000  1.0
  H  H8  1  0.63932000  0.05101000  0.66158000  1.0
  H  H9  1  0.42680000  0.44923000  0.83849000  1.0
  H  H10  1  0.36068000  0.94899000  0.33842000  1.0
  H  H11  1  0.57321000  0.55077000  0.16151000  1.0
  H  H12  1  0.75003000  0.17734000  0.55512000  1.0
  H  H13  1  0.51766000  0.32281000  0.94494000  1.0
  H  H14  1  0.24997000  0.82266000  0.44488000  1.0
  H  H15  1  0.48234000  0.67719000  0.05506000  1.0
  H  H16  1  0.73687000  0.43486000  0.52515000  1.0
  H  H17  1  0.27642000  0.06538000  0.97469000  1.0
  H  H18  1  0.26314000  0.56514000  0.47484000  1.0
  H  H19  1  0.72356000  0.93462000  0.02531000  1.0
  H  H20  1  0.65193000  0.28506000  0.46231000  1.0
  H  H21  1  0.40406000  0.21503000  0.03763000  1.0
  H  H22  1  0.34808000  0.71494000  0.53768000  1.0
  H  H23  1  0.59592000  0.78496000  0.96237000  1.0
  H  H24  1  0.88651000  0.37938000  0.49368000  1.0
  H  H25  1  0.51288000  0.12052000  0.00631000  1.0
  H  H26  1  0.11349000  0.62062000  0.50632000  1.0
  H  H27  1  0.48710000  0.87947000  0.99369000  1.0
  C  C28  1  0.90455000  0.07544000  0.71259000  1.0
  C  C29  1  0.61643000  0.42464000  0.78740000  1.0
  C  C30  1  0.09545000  0.92456000  0.28741000  1.0
  C  C31  1  0.38357000  0.57536000  0.21260000  1.0
  C  C32  1  0.72075000  0.99254000  0.66813000  1.0
  C  C33  1  0.56010000  0.50761000  0.83191000  1.0
  C  C34  1  0.27925000  0.00746000  0.33187000  1.0
  C  C35  1  0.43991000  0.49239000  0.16809000  1.0
  C  C36  1  0.74013000  0.95516000  0.48373000  1.0
  C  C37  1  0.80154000  0.54493000  0.01625000  1.0
  C  C38  1  0.25987000  0.04484000  0.51627000  1.0
  C  C39  1  0.19846000  0.45507000  0.98375000  1.0
  C  C40  1  0.73763000  0.82892000  0.49991000  1.0
  C  C41  1  0.90913000  0.67109000  0.00001000  1.0
  C  C42  1  0.26237000  0.17108000  0.50009000  1.0
  C  C43  1  0.09087000  0.32891000  0.99999000  1.0
  C  C44  1  0.72733000  0.82494000  0.57287000  1.0
  C  C45  1  0.82968000  0.67507000  0.92708000  1.0
  C  C46  1  0.27267000  0.17507000  0.42713000  1.0
  C  C47  1  0.17032000  0.32493000  0.07292000  1.0
  C  C48  1  0.76005000  0.34715000  0.50915000  1.0
  C  C49  1  0.40336000  0.15296000  0.99079000  1.0
  C  C50  1  0.23995000  0.65285000  0.49085000  1.0
  C  C51  1  0.59662000  0.84703000  0.00920000  1.0
  I  I52  1  0.19761000  0.57364000  0.67851000  1.0
  I  I53  1  0.44554000  0.92637000  0.82151000  1.0
  I  I54  1  0.80239000  0.42637000  0.32149000  1.0
  I  I55  1  0.55445000  0.07362000  0.17849000  1.0
  I  I56  1  0.75490000  0.03708000  0.38626000  1.0
  I  I57  1  0.83188000  0.46317000  0.11378000  1.0
  I  I58  1  0.24509000  0.96291000  0.61374000  1.0
  I  I59  1  0.16811000  0.53682000  0.88622000  1.0
  I  I60  1  0.74511000  0.68023000  0.43123000  1.0
  I  I61  1  0.13394000  0.81974000  0.06862000  1.0
  I  I62  1  0.25489000  0.31977000  0.56877000  1.0
  I  I63  1  0.86607000  0.18026000  0.93138000  1.0
  I  I64  1  0.73223000  0.68017000  0.64092000  1.0
  I  I65  1  0.91113000  0.81985000  0.85903000  1.0
  I  I66  1  0.26777000  0.31983000  0.35909000  1.0
  I  I67  1  0.08887000  0.18015000  0.14097000  1.0
  N  N68  1  0.99267000  0.20861000  0.71214000  1.0
  N  N69  1  0.57191000  0.29146000  0.78786000  1.0
  N  N70  1  0.00733000  0.79139000  0.28786000  1.0
  N  N71  1  0.42809000  0.70853000  0.21214000  1.0
  N  N72  1  0.15668000  0.24375000  0.75446000  1.0
  N  N73  1  0.65844000  0.25629000  0.74552000  1.0
  N  N74  1  0.84333000  0.75626000  0.24554000  1.0
  N  N75  1  0.34157000  0.74371000  0.25448000  1.0
  N  N76  1  0.16500000  0.13447000  0.77913000  1.0
  N  N77  1  0.75126000  0.36556000  0.72083000  1.0
  N  N78  1  0.83501000  0.86554000  0.22087000  1.0
  N  N79  1  0.24874000  0.63444000  0.27917000  1.0
  N  N80  1  0.01081000  0.02727000  0.75467000  1.0
  N  N81  1  0.72869000  0.47278000  0.74530000  1.0
  N  N82  1  0.98919000  0.97274000  0.24533000  1.0
  N  N83  1  0.27131000  0.52722000  0.25470000  1.0
  N  N84  1  0.72020000  0.94247000  0.59538000  1.0
  N  N85  1  0.68244000  0.55764000  0.90464000  1.0
  N  N86  1  0.27981000  0.05754000  0.40462000  1.0
  N  N87  1  0.31757000  0.44236000  0.09536000  1.0
  N  N88  1  0.72972000  0.02332000  0.54149000  1.0
  N  N89  1  0.66508000  0.47681000  0.95855000  1.0
  N  N90  1  0.27027000  0.97668000  0.45851000  1.0
  N  N91  1  0.33492000  0.52319000  0.04145000  1.0
  O  O92  1  0.76159000  0.27158000  0.57053000  1.0
  O  O93  1  0.41950000  0.22865000  0.92947000  1.0
  O  O94  1  0.23841000  0.72842000  0.42947000  1.0
  O  O95  1  0.58050000  0.77135000  0.07053000  1.0
