# generated using pymatgen
data_ZnSiH8C24(N2F7)2
_symmetry_space_group_name_H-M   'P 1'
_cell_length_a   7.71565000
_cell_length_b   14.02170000
_cell_length_c   14.02150000
_cell_angle_alpha   90.00080000
_cell_angle_beta   89.99780000
_cell_angle_gamma   89.99880000
_symmetry_Int_Tables_number   1
_chemical_formula_structural   ZnSiH8C24(N2F7)2
_chemical_formula_sum   'Zn1 Si1 H8 C24 N4 F14'
_cell_volume   1516.93742326
_cell_formula_units_Z   1
loop_
 _symmetry_equiv_pos_site_id
 _symmetry_equiv_pos_as_xyz
  1  'x, y, z'
loop_
 _atom_site_type_symbol
 _atom_site_label
 _atom_site_symmetry_multiplicity
 _atom_site_fract_x
 _atom_site_fract_y
 _atom_site_fract_z
 _atom_site_occupancy
  Zn  Zn0  1  0.50002000  0.50000000  0.50000000  1.0
  Si  Si1  1  0.00001000  0.50001000  0.49999000  1.0
  H  H2  1  0.22800000  0.66292000  0.49997000  1.0
  H  H3  1  0.77201000  0.66292000  0.49997000  1.0
  H  H4  1  0.22802000  0.33710000  0.49997000  1.0
  H  H5  1  0.77204000  0.33708000  0.50019000  1.0
  H  H6  1  0.22800000  0.50003000  0.66291000  1.0
  H  H7  1  0.77201000  0.50003000  0.66291000  1.0
  H  H8  1  0.22802000  0.50002000  0.33709000  1.0
  H  H9  1  0.77203000  0.49980000  0.33707000  1.0
  C  C10  1  0.34878000  0.70315000  0.49997000  1.0
  C  C11  1  0.34639000  0.80207000  0.49998000  1.0
  C  C12  1  0.49999000  0.85635000  0.49999000  1.0
  C  C13  1  0.65360000  0.80207000  0.49998000  1.0
  C  C14  1  0.65123000  0.70315000  0.49997000  1.0
  C  C15  1  0.49998000  0.95659000  0.50000000  1.0
  C  C16  1  0.49999000  0.04343000  0.50003000  1.0
  C  C17  1  0.50001000  0.14366000  0.50007000  1.0
  C  C18  1  0.34641000  0.19794000  0.50002000  1.0
  C  C19  1  0.34880000  0.29686000  0.50003000  1.0
  C  C20  1  0.65125000  0.29685000  0.50015000  1.0
  C  C21  1  0.65362000  0.19792000  0.50015000  1.0
  C  C22  1  0.34878000  0.50003000  0.70314000  1.0
  C  C23  1  0.34639000  0.50002000  0.80207000  1.0
  C  C24  1  0.50000000  0.50002000  0.85634000  1.0
  C  C25  1  0.65360000  0.50002000  0.80207000  1.0
  C  C26  1  0.65123000  0.50003000  0.70314000  1.0
  C  C27  1  0.49999000  0.49999000  0.95658000  1.0
  C  C28  1  0.50000000  0.49997000  0.04342000  1.0
  C  C29  1  0.50002000  0.49993000  0.14365000  1.0
  C  C30  1  0.34642000  0.49998000  0.19794000  1.0
  C  C31  1  0.34880000  0.49996000  0.29686000  1.0
  C  C32  1  0.65125000  0.49984000  0.29684000  1.0
  C  C33  1  0.65363000  0.49986000  0.19792000  1.0
  N  N34  1  0.50000000  0.65512000  0.49996000  1.0
  N  N35  1  0.50003000  0.34489000  0.50010000  1.0
  N  N36  1  0.50001000  0.50004000  0.65511000  1.0
  N  N37  1  0.50003000  0.49990000  0.34489000  1.0
  F  F38  1  0.22878000  0.50000000  0.50000000  1.0
  F  F39  1  0.77125000  0.50001000  0.49999000  1.0
  F  F40  1  0.00003000  0.58555000  0.41443000  1.0
  F  F41  1  0.00001000  0.41446000  0.58555000  1.0
  F  F42  1  0.00000000  0.58557000  0.58554000  1.0
  F  F43  1  0.00003000  0.41445000  0.41444000  1.0
  F  F44  1  0.80685000  0.84795000  0.50000000  1.0
  F  F45  1  0.19314000  0.84794000  0.49999000  1.0
  F  F46  1  0.80687000  0.15205000  0.50017000  1.0
  F  F47  1  0.19316000  0.15208000  0.49993000  1.0
  F  F48  1  0.80685000  0.50000000  0.84794000  1.0
  F  F49  1  0.19314000  0.50001000  0.84794000  1.0
  F  F50  1  0.80688000  0.49983000  0.15205000  1.0
  F  F51  1  0.19316000  0.50006000  0.15207000  1.0
