# generated using pymatgen
data_FeH16Au2(C14N3)2
_symmetry_space_group_name_H-M   'P 1'
_cell_length_a   11.16840000
_cell_length_b   15.86550000
_cell_length_c   16.86920000
_cell_angle_alpha   89.99040000
_cell_angle_beta   90.85680000
_cell_angle_gamma   89.98380000
_symmetry_Int_Tables_number   1
_chemical_formula_structural   FeH16Au2(C14N3)2
_chemical_formula_sum   'Fe4 H64 Au8 C112 N24'
_cell_volume   2988.75713709
_cell_formula_units_Z   4
loop_
 _symmetry_equiv_pos_site_id
 _symmetry_equiv_pos_as_xyz
  1  'x, y, z'
loop_
 _atom_site_type_symbol
 _atom_site_label
 _atom_site_symmetry_multiplicity
 _atom_site_fract_x
 _atom_site_fract_y
 _atom_site_fract_z
 _atom_site_occupancy
  Fe  Fe0  1  0.99996000  0.41911000  0.25000000  1.0
  Fe  Fe1  1  0.00036000  0.58015000  0.75001000  1.0
  Fe  Fe2  1  0.50000000  0.35043000  0.75000000  1.0
  Fe  Fe3  1  0.49953000  0.65141000  0.24952000  1.0
  H  H4  1  0.15618000  0.56520000  0.31767000  1.0
  H  H5  1  0.84387000  0.56523000  0.18226000  1.0
  H  H6  1  0.84338000  0.43515000  0.68301000  1.0
  H  H7  1  0.15682000  0.43498000  0.81707000  1.0
  H  H8  1  0.16437000  0.72190000  0.31939000  1.0
  H  H9  1  0.83546000  0.72196000  0.18064000  1.0
  H  H10  1  0.83524000  0.27878000  0.68112000  1.0
  H  H11  1  0.16484000  0.27862000  0.81894000  1.0
  H  H12  1  0.89717000  0.75938000  0.38010000  1.0
  H  H13  1  0.10270000  0.75936000  0.11995000  1.0
  H  H14  1  0.10270000  0.23985000  0.62031000  1.0
  H  H15  1  0.89731000  0.23986000  0.87970000  1.0
  H  H16  1  0.81222000  0.83732000  0.49189000  1.0
  H  H17  1  0.18778000  0.83728000  0.00818000  1.0
  H  H18  1  0.18764000  0.16222000  0.50831000  1.0
  H  H19  1  0.81234000  0.16222000  0.99169000  1.0
  H  H20  1  0.81529000  0.99515000  0.49336000  1.0
  H  H21  1  0.18472000  0.99510000  0.00668000  1.0
  H  H22  1  0.18483000  0.00434000  0.50673000  1.0
  H  H23  1  0.81514000  0.00434000  0.99328000  1.0
  H  H24  1  0.90124000  0.07396000  0.38211000  1.0
  H  H25  1  0.09878000  0.07393000  0.11792000  1.0
  H  H26  1  0.09921000  0.92532000  0.61789000  1.0
  H  H27  1  0.90076000  0.92533000  0.88213000  1.0
  H  H28  1  0.18370000  0.11136000  0.29227000  1.0
  H  H29  1  0.81633000  0.11139000  0.20775000  1.0
  H  H30  1  0.81598000  0.88530000  0.70852000  1.0
  H  H31  1  0.18401000  0.88535000  0.79153000  1.0
  H  H32  1  0.17438000  0.26891000  0.29284000  1.0
  H  H33  1  0.82556000  0.26895000  0.20719000  1.0
  H  H34  1  0.82541000  0.72857000  0.70749000  1.0
  H  H35  1  0.17481000  0.72861000  0.79255000  1.0
  H  H36  1  0.68542000  0.49501000  0.74729000  1.0
  H  H37  1  0.31470000  0.49506000  0.75274000  1.0
  H  H38  1  0.31490000  0.50589000  0.25314000  1.0
  H  H39  1  0.68538000  0.50551000  0.24554000  1.0
  H  H40  1  0.69305000  0.65053000  0.74679000  1.0
  H  H41  1  0.30705000  0.65057000  0.75326000  1.0
  H  H42  1  0.30708000  0.34992000  0.25484000  1.0
  H  H43  1  0.69286000  0.34960000  0.24518000  1.0
  H  H44  1  0.46446000  0.69190000  0.89583000  1.0
  H  H45  1  0.53540000  0.69190000  0.60422000  1.0
  H  H46  1  0.53552000  0.30882000  0.10374000  1.0
  H  H47  1  0.46428000  0.30879000  0.39627000  1.0
  H  H48  1  0.42658000  0.76991000  0.01869000  1.0
  H  H49  1  0.57323000  0.76992000  0.48135000  1.0
  H  H50  1  0.57308000  0.23042000  0.98116000  1.0
  H  H51  1  0.42677000  0.23033000  0.51885000  1.0
  H  H52  1  0.41422000  0.92764000  0.01691000  1.0
  H  H53  1  0.58575000  0.92764000  0.48311000  1.0
  H  H54  1  0.58532000  0.07279000  0.98311000  1.0
  H  H55  1  0.41461000  0.07270000  0.51688000  1.0
  H  H56  1  0.44724000  0.00603000  0.89317000  1.0
  H  H57  1  0.55278000  0.00602000  0.60685000  1.0
  H  H58  1  0.55262000  0.99468000  0.10705000  1.0
  H  H59  1  0.44759000  0.99463000  0.39298000  1.0
  H  H60  1  0.68624000  0.04732000  0.78679000  1.0
  H  H61  1  0.31376000  0.04736000  0.71323000  1.0
  H  H62  1  0.31373000  0.95526000  0.21345000  1.0
  H  H63  1  0.68650000  0.95474000  0.28666000  1.0
  H  H64  1  0.67844000  0.20422000  0.78500000  1.0
  H  H65  1  0.32151000  0.20426000  0.71501000  1.0
  H  H66  1  0.32117000  0.79775000  0.21584000  1.0
  H  H67  1  0.67803000  0.79720000  0.28492000  1.0
  Au  Au68  1  0.73251000  0.39542000  0.48817000  1.0
  Au  Au69  1  0.26747000  0.39519000  0.01190000  1.0
  Au  Au70  1  0.26993000  0.60297000  0.50745000  1.0
  Au  Au71  1  0.73000000  0.60302000  0.99220000  1.0
  Au  Au72  1  0.76500000  0.39446000  0.99734000  1.0
  Au  Au73  1  0.23503000  0.39449000  0.50265000  1.0
  Au  Au74  1  0.23171000  0.60343000  0.01264000  1.0
  Au  Au75  1  0.76980000  0.60454000  0.48736000  1.0
  C  C76  1  0.08741000  0.60230000  0.28749000  1.0
  C  C77  1  0.91254000  0.60233000  0.21251000  1.0
  C  C78  1  0.91246000  0.39814000  0.71298000  1.0
  C  C79  1  0.08772000  0.39806000  0.78709000  1.0
  C  C80  1  0.09103000  0.68972000  0.28878000  1.0
  C  C81  1  0.90880000  0.68975000  0.21126000  1.0
  C  C82  1  0.90887000  0.31064000  0.71171000  1.0
  C  C83  1  0.09124000  0.31055000  0.78834000  1.0
  C  C84  1  0.99990000  0.73476000  0.25003000  1.0
  C  C85  1  0.00005000  0.26510000  0.75002000  1.0
  C  C86  1  0.99993000  0.82799000  0.25002000  1.0
  C  C87  1  0.00001000  0.17158000  0.75001000  1.0
  C  C88  1  0.94973000  0.87136000  0.31443000  1.0
  C  C89  1  0.05018000  0.87134000  0.18561000  1.0
  C  C90  1  0.05022000  0.12781000  0.68579000  1.0
  C  C91  1  0.94977000  0.12781000  0.81422000  1.0
  C  C92  1  0.89838000  0.82806000  0.38002000  1.0
  C  C93  1  0.10153000  0.82803000  0.12002000  1.0
  C  C94  1  0.10159000  0.17116000  0.62022000  1.0
  C  C95  1  0.89840000  0.17117000  0.87979000  1.0
  C  C96  1  0.85097000  0.87166000  0.44249000  1.0
  C  C97  1  0.14900000  0.87162000  0.05756000  1.0
  C  C98  1  0.14901000  0.12773000  0.55766000  1.0
  C  C99  1  0.85097000  0.12774000  0.94235000  1.0
  C  C100  1  0.85220000  0.96126000  0.44305000  1.0
  C  C101  1  0.14779000  0.96122000  0.05699000  1.0
  C  C102  1  0.14790000  0.03817000  0.55706000  1.0
  C  C103  1  0.85208000  0.03817000  0.94296000  1.0
  C  C104  1  0.90011000  0.00530000  0.38095000  1.0
  C  C105  1  0.09989000  0.00527000  0.11909000  1.0
  C  C106  1  0.10011000  0.99399000  0.61913000  1.0
  C  C107  1  0.89986000  0.99399000  0.88089000  1.0
  C  C108  1  0.94991000  0.96237000  0.31456000  1.0
  C  C109  1  0.05007000  0.96235000  0.18548000  1.0
  C  C110  1  0.05011000  0.03658000  0.68566000  1.0
  C  C111  1  0.94985000  0.03658000  0.81435000  1.0
  C  C112  1  0.00001000  0.00570000  0.25002000  1.0
  C  C113  1  0.99997000  0.99265000  0.75000000  1.0
  C  C114  1  0.00002000  0.09886000  0.25001000  1.0
  C  C115  1  0.99999000  0.89903000  0.75002000  1.0
  C  C116  1  0.10214000  0.14404000  0.27349000  1.0
  C  C117  1  0.89786000  0.14407000  0.22653000  1.0
  C  C118  1  0.89806000  0.85314000  0.72705000  1.0
  C  C119  1  0.10198000  0.85316000  0.77300000  1.0
  C  C120  1  0.09772000  0.23155000  0.27317000  1.0
  C  C121  1  0.90223000  0.23156000  0.22687000  1.0
  C  C122  1  0.90242000  0.76552000  0.72722000  1.0
  C  C123  1  0.09775000  0.76555000  0.77283000  1.0
  C  C124  1  0.81729000  0.41035000  0.38775000  1.0
  C  C125  1  0.18258000  0.41007000  0.11228000  1.0
  C  C126  1  0.18505000  0.58663000  0.60676000  1.0
  C  C127  1  0.81533000  0.58671000  0.89308000  1.0
  C  C128  1  0.60309000  0.53164000  0.74795000  1.0
  C  C129  1  0.39703000  0.53167000  0.75210000  1.0
  C  C130  1  0.39696000  0.46895000  0.25230000  1.0
  C  C131  1  0.60320000  0.46876000  0.24670000  1.0
  C  C132  1  0.60671000  0.61918000  0.74763000  1.0
  C  C133  1  0.39340000  0.61921000  0.75243000  1.0
  C  C134  1  0.39328000  0.38141000  0.25319000  1.0
  C  C135  1  0.60673000  0.38123000  0.24655000  1.0
  C  C136  1  0.50004000  0.66526000  0.75004000  1.0
  C  C137  1  0.49995000  0.33543000  0.24997000  1.0
  C  C138  1  0.50002000  0.75904000  0.75004000  1.0
  C  C139  1  0.49995000  0.24172000  0.25002000  1.0
  C  C140  1  0.47866000  0.80332000  0.82113000  1.0
  C  C141  1  0.52134000  0.80332000  0.67893000  1.0
  C  C142  1  0.52147000  0.19762000  0.17882000  1.0
  C  C143  1  0.47855000  0.19760000  0.32121000  1.0
  C  C144  1  0.46042000  0.76052000  0.89464000  1.0
  C  C145  1  0.53951000  0.76052000  0.60541000  1.0
  C  C146  1  0.53951000  0.24022000  0.10520000  1.0
  C  C147  1  0.46039000  0.24017000  0.39481000  1.0
  C  C148  1  0.43908000  0.80412000  0.96335000  1.0
  C  C149  1  0.56082000  0.80413000  0.53670000  1.0
  C  C150  1  0.56068000  0.19638000  0.03658000  1.0
  C  C151  1  0.43924000  0.19631000  0.46343000  1.0
  C  C152  1  0.43333000  0.89358000  0.96240000  1.0
  C  C153  1  0.56663000  0.89358000  0.53763000  1.0
  C  C154  1  0.56647000  0.10694000  0.03761000  1.0
  C  C155  1  0.43354000  0.10687000  0.46240000  1.0
  C  C156  1  0.45161000  0.93739000  0.89334000  1.0
  C  C157  1  0.54839000  0.93738000  0.60669000  1.0
  C  C158  1  0.54843000  0.06332000  0.10678000  1.0
  C  C159  1  0.45175000  0.06328000  0.39325000  1.0
  C  C160  1  0.47676000  0.89472000  0.82078000  1.0
  C  C161  1  0.52325000  0.89472000  0.67925000  1.0
  C  C162  1  0.52352000  0.10631000  0.17921000  1.0
  C  C163  1  0.47673000  0.10628000  0.32084000  1.0
  C  C164  1  0.50001000  0.93904000  0.75002000  1.0
  C  C165  1  0.50022000  0.06232000  0.25003000  1.0
  C  C166  1  0.50000000  0.03311000  0.75001000  1.0
  C  C167  1  0.50016000  0.96851000  0.25007000  1.0
  C  C168  1  0.60316000  0.07931000  0.77015000  1.0
  C  C169  1  0.39682000  0.07934000  0.72986000  1.0
  C  C170  1  0.39652000  0.92291000  0.23008000  1.0
  C  C171  1  0.60352000  0.92262000  0.27017000  1.0
  C  C172  1  0.59948000  0.16707000  0.76921000  1.0
  C  C173  1  0.40048000  0.16710000  0.73079000  1.0
  C  C174  1  0.39993000  0.83524000  0.23127000  1.0
  C  C175  1  0.59952000  0.83493000  0.26936000  1.0
  C  C176  1  0.65498000  0.37127000  0.58973000  1.0
  C  C177  1  0.34510000  0.37116000  0.91034000  1.0
  C  C178  1  0.35033000  0.63075000  0.40866000  1.0
  C  C179  1  0.64911000  0.63050000  0.09086000  1.0
  C  C180  1  0.69144000  0.36973000  0.89329000  1.0
  C  C181  1  0.30857000  0.36978000  0.60672000  1.0
  C  C182  1  0.30153000  0.63112000  0.11629000  1.0
  C  C183  1  0.69837000  0.63119000  0.38395000  1.0
  C  C184  1  0.84201000  0.41044000  0.10194000  1.0
  C  C185  1  0.15802000  0.41042000  0.39804000  1.0
  C  C186  1  0.16504000  0.58754000  0.90604000  1.0
  C  C187  1  0.83645000  0.58824000  0.59388000  1.0
  N  N188  1  0.49997000  0.21112000  0.75000000  1.0
  N  N189  1  0.49958000  0.79174000  0.25040000  1.0
  N  N190  1  0.00000000  0.55927000  0.24999000  1.0
  N  N191  1  0.00012000  0.44173000  0.75003000  1.0
  N  N192  1  0.50006000  0.48785000  0.75002000  1.0
  N  N193  1  0.50012000  0.51238000  0.24927000  1.0
  N  N194  1  0.99995000  0.27456000  0.25003000  1.0
  N  N195  1  0.00013000  0.72157000  0.75002000  1.0
  N  N196  1  0.64472000  0.35352000  0.83246000  1.0
  N  N197  1  0.35529000  0.35358000  0.66757000  1.0
  N  N198  1  0.35053000  0.65148000  0.17515000  1.0
  N  N199  1  0.64715000  0.64929000  0.32527000  1.0
  N  N200  1  0.89385000  0.41641000  0.16270000  1.0
  N  N201  1  0.10611000  0.41637000  0.33730000  1.0
  N  N202  1  0.12481000  0.58213000  0.84175000  1.0
  N  N203  1  0.87608000  0.58211000  0.65827000  1.0
  N  N204  1  0.61328000  0.35502000  0.65122000  1.0
  N  N205  1  0.38679000  0.35502000  0.84883000  1.0
  N  N206  1  0.39459000  0.65073000  0.34906000  1.0
  N  N207  1  0.60434000  0.65024000  0.15036000  1.0
  N  N208  1  0.87224000  0.41587000  0.32937000  1.0
  N  N209  1  0.12762000  0.41569000  0.17066000  1.0
  N  N210  1  0.13245000  0.58104000  0.66594000  1.0
  N  N211  1  0.86825000  0.58105000  0.83403000  1.0
