# generated using pymatgen
data_Pr2U3H30(C5O7)6
_symmetry_space_group_name_H-M   'P 1'
_cell_length_a   10.88510000
_cell_length_b   11.53660000
_cell_length_c   13.24370000
_cell_angle_alpha   69.05730000
_cell_angle_beta   80.32210000
_cell_angle_gamma   62.68230000
_symmetry_Int_Tables_number   1
_chemical_formula_structural   Pr2U3H30(C5O7)6
_chemical_formula_sum   'Pr2 U3 H30 C30 O42'
_cell_volume   1379.99663257
_cell_formula_units_Z   1
loop_
 _symmetry_equiv_pos_site_id
 _symmetry_equiv_pos_as_xyz
  1  'x, y, z'
loop_
 _atom_site_type_symbol
 _atom_site_label
 _atom_site_symmetry_multiplicity
 _atom_site_fract_x
 _atom_site_fract_y
 _atom_site_fract_z
 _atom_site_occupancy
  Pr  Pr0  1  0.60899000  0.21647000  0.75917000  1.0
  Pr  Pr1  1  0.39101000  0.78354000  0.24083000  1.0
  U  U2  1  0.62566000  0.70218000  0.83636000  1.0
  U  U3  1  0.37434000  0.29782000  0.16364000  1.0
  U  U4  1  0.00000000  0.49999000  0.49999000  1.0
  H  H5  1  0.80712000  0.99705000  0.91147000  1.0
  H  H6  1  0.19286000  0.00297000  0.08855000  1.0
  H  H7  1  0.76438000  0.90151000  0.87781000  1.0
  H  H8  1  0.23561000  0.09849000  0.12220000  1.0
  H  H9  1  0.68247000  0.14272000  0.03625000  1.0
  H  H10  1  0.31754000  0.85728000  0.96377000  1.0
  H  H11  1  0.78602000  0.19617000  0.95665000  1.0
  H  H12  1  0.21398000  0.80384000  0.04336000  1.0
  H  H13  1  0.48223000  0.42263000  0.89097000  1.0
  H  H14  1  0.51776000  0.57737000  0.10902000  1.0
  H  H15  1  0.49236000  0.52053000  0.77271000  1.0
  H  H16  1  0.50764000  0.47948000  0.22729000  1.0
  H  H17  1  0.29376000  0.42365000  0.68064000  1.0
  H  H18  1  0.70625000  0.57636000  0.31933000  1.0
  H  H19  1  0.35376000  0.36302000  0.58611000  1.0
  H  H20  1  0.64625000  0.63698000  0.41387000  1.0
  H  H21  1  0.72945000  0.38579000  0.57956000  1.0
  H  H22  1  0.27055000  0.61420000  0.42043000  1.0
  H  H23  1  0.61697000  0.38648000  0.51542000  1.0
  H  H24  1  0.38304000  0.61352000  0.48458000  1.0
  H  H25  1  0.70411000  0.00824000  0.63983000  1.0
  H  H26  1  0.29588000  0.99176000  0.36018000  1.0
  H  H27  1  0.67479000  0.15420000  0.54743000  1.0
  H  H28  1  0.32521000  0.84580000  0.45258000  1.0
  H  H29  1  0.09516000  0.37252000  0.96035000  1.0
  H  H30  1  0.90484000  0.62747000  0.03966000  1.0
  H  H31  1  0.16694000  0.09233000  0.72741000  1.0
  H  H32  1  0.83306000  0.90769000  0.27258000  1.0
  H  H33  1  0.71998000  0.99573000  0.41115000  1.0
  H  H34  1  0.28003000  0.00427000  0.58885000  1.0
  C  C35  1  0.00189000  0.33987000  0.84895000  1.0
  C  C36  1  0.99811000  0.66013000  0.15105000  1.0
  C  C37  1  0.11234000  0.31219000  0.90772000  1.0
  C  C38  1  0.88765000  0.68780000  0.09229000  1.0
  C  C39  1  0.24497000  0.21272000  0.89660000  1.0
  C  C40  1  0.75503000  0.78728000  0.10340000  1.0
  C  C41  1  0.26556000  0.13453000  0.82898000  1.0
  C  C42  1  0.73444000  0.86547000  0.17102000  1.0
  C  C43  1  0.15198000  0.15576000  0.77668000  1.0
  C  C44  1  0.84802000  0.84425000  0.22331000  1.0
  C  C45  1  0.02115000  0.26039000  0.78313000  1.0
  C  C46  1  0.97884000  0.73961000  0.21687000  1.0
  C  C47  1  0.62212000  0.99890000  0.44934000  1.0
  C  C48  1  0.37788000  0.00109000  0.55066000  1.0
  C  C49  1  0.61359000  0.87394000  0.50185000  1.0
  C  C50  1  0.38642000  0.12606000  0.49815000  1.0
  C  C51  1  0.48942000  0.87480000  0.55383000  1.0
  C  C52  1  0.51059000  0.12519000  0.44617000  1.0
  C  C53  1  0.86869000  0.45923000  0.85212000  1.0
  C  C54  1  0.13131000  0.54077000  0.14788000  1.0
  C  C55  1  0.35614000  0.19468000  0.96110000  1.0
  C  C56  1  0.64386000  0.80532000  0.03890000  1.0
  C  C57  1  0.40460000  0.02679000  0.81021000  1.0
  C  C58  1  0.59540000  0.97321000  0.18979000  1.0
  C  C59  1  0.90491000  0.28468000  0.71875000  1.0
  C  C60  1  0.09509000  0.71532000  0.28124000  1.0
  C  C61  1  0.46474000  0.74857000  0.61361000  1.0
  C  C62  1  0.53527000  0.25142000  0.38639000  1.0
  C  C63  1  0.73883000  0.74461000  0.50107000  1.0
  C  C64  1  0.26117000  0.25538000  0.49892000  1.0
  O  O65  1  0.55041000  0.61449000  0.95369000  1.0
  O  O66  1  0.44958000  0.38551000  0.04631000  1.0
  O  O67  1  0.70133000  0.79379000  0.72388000  1.0
  O  O68  1  0.29868000  0.20620000  0.27613000  1.0
  O  O69  1  0.06108000  0.49786000  0.61986000  1.0
  O  O70  1  0.93892000  0.50212000  0.38011000  1.0
  O  O71  1  0.85600000  0.53627000  0.90656000  1.0
  O  O72  1  0.14399000  0.46372000  0.09346000  1.0
  O  O73  1  0.76586000  0.48853000  0.79740000  1.0
  O  O74  1  0.23415000  0.51148000  0.20259000  1.0
  O  O75  1  0.82974000  0.22465000  0.76604000  1.0
  O  O76  1  0.17024000  0.77538000  0.23397000  1.0
  O  O77  1  0.89285000  0.35831000  0.61896000  1.0
  O  O78  1  0.10716000  0.64166000  0.38103000  1.0
  O  O79  1  0.41249000  0.90425000  0.83514000  1.0
  O  O80  1  0.58751000  0.09575000  0.16486000  1.0
  O  O81  1  0.50220000  0.05769000  0.76999000  1.0
  O  O82  1  0.49780000  0.94230000  0.23002000  1.0
  O  O83  1  0.47601000  0.17237000  0.92556000  1.0
  O  O84  1  0.52398000  0.82765000  0.07444000  1.0
  O  O85  1  0.31813000  0.20571000  0.05663000  1.0
  O  O86  1  0.68188000  0.79429000  0.94338000  1.0
  O  O87  1  0.50368000  0.68422000  0.71325000  1.0
  O  O88  1  0.49633000  0.31578000  0.28675000  1.0
  O  O89  1  0.39621000  0.71996000  0.56731000  1.0
  O  O90  1  0.60381000  0.28003000  0.43269000  1.0
  O  O91  1  0.72910000  0.63167000  0.52242000  1.0
  O  O92  1  0.27091000  0.36832000  0.47757000  1.0
  O  O93  1  0.85601000  0.74756000  0.47724000  1.0
  O  O94  1  0.14399000  0.25243000  0.52274000  1.0
  O  O95  1  0.79066000  0.97892000  0.84893000  1.0
  O  O96  1  0.20933000  0.02109000  0.15109000  1.0
  O  O97  1  0.73283000  0.14442000  0.96678000  1.0
  O  O98  1  0.26717000  0.85559000  0.03323000  1.0
  O  O99  1  0.49255000  0.42976000  0.81398000  1.0
  O  O100  1  0.50743000  0.57025000  0.18601000  1.0
  O  O101  1  0.38033000  0.36564000  0.65306000  1.0
  O  O102  1  0.61968000  0.63435000  0.34692000  1.0
  O  O103  1  0.63729000  0.38620000  0.58491000  1.0
  O  O104  1  0.36271000  0.61380000  0.41508000  1.0
  O  O105  1  0.70887000  0.09581000  0.62288000  1.0
  O  O106  1  0.29113000  0.90419000  0.37712000  1.0
