# generated using pymatgen
data_CdH8C6(NCl)2
_symmetry_space_group_name_H-M   'P 1'
_cell_length_a   6.02458000
_cell_length_b   7.58430000
_cell_length_c   10.04970000
_cell_angle_alpha   89.99990000
_cell_angle_beta   72.86300000
_cell_angle_gamma   89.99960000
_symmetry_Int_Tables_number   1
_chemical_formula_structural   CdH8C6(NCl)2
_chemical_formula_sum   'Cd2 H16 C12 N4 Cl4'
_cell_volume   438.80629626
_cell_formula_units_Z   2
loop_
 _symmetry_equiv_pos_site_id
 _symmetry_equiv_pos_as_xyz
  1  'x, y, z'
loop_
 _atom_site_type_symbol
 _atom_site_label
 _atom_site_symmetry_multiplicity
 _atom_site_fract_x
 _atom_site_fract_y
 _atom_site_fract_z
 _atom_site_occupancy
  Cd  Cd0  1  0.50000000  0.99999000  0.50000000  1.0
  Cd  Cd1  1  0.50001000  0.50000000  0.50000000  1.0
  H  H2  1  0.90104000  0.06492000  0.27997000  1.0
  H  H3  1  0.09897000  0.56492000  0.72002000  1.0
  H  H4  1  0.09897000  0.93508000  0.72003000  1.0
  H  H5  1  0.90104000  0.43508000  0.27997000  1.0
  H  H6  1  0.96269000  0.88472000  0.35373000  1.0
  H  H7  1  0.03732000  0.38472000  0.64627000  1.0
  H  H8  1  0.03731000  0.11528000  0.64627000  1.0
  H  H9  1  0.96270000  0.61528000  0.35373000  1.0
  H  H10  1  0.75373000  0.07663000  0.09104000  1.0
  H  H11  1  0.24628000  0.57663000  0.90896000  1.0
  H  H12  1  0.24625000  0.92338000  0.90896000  1.0
  H  H13  1  0.75374000  0.42338000  0.09104000  1.0
  H  H14  1  0.67434000  0.91434000  0.89480000  1.0
  H  H15  1  0.32567000  0.41434000  0.10520000  1.0
  H  H16  1  0.32565000  0.08566000  0.10520000  1.0
  H  H17  1  0.67434000  0.58566000  0.89480000  1.0
  C  C18  1  0.80694000  0.84289000  0.19806000  1.0
  C  C19  1  0.19305000  0.34288000  0.80194000  1.0
  C  C20  1  0.19305000  0.15712000  0.80193000  1.0
  C  C21  1  0.80695000  0.65712000  0.19807000  1.0
  C  C22  1  0.75678000  0.93293000  0.08907000  1.0
  C  C23  1  0.24323000  0.43294000  0.91093000  1.0
  C  C24  1  0.24322000  0.06707000  0.91094000  1.0
  C  C25  1  0.75677000  0.56707000  0.08906000  1.0
  C  C26  1  0.71182000  0.84199000  0.97933000  1.0
  C  C27  1  0.28818000  0.34199000  0.02067000  1.0
  C  C28  1  0.28817000  0.15801000  0.02066000  1.0
  C  C29  1  0.71182000  0.65800000  0.97935000  1.0
  N  N30  1  0.84356000  0.94055000  0.31104000  1.0
  N  N31  1  0.15644000  0.44056000  0.68896000  1.0
  N  N32  1  0.15644000  0.05944000  0.68896000  1.0
  N  N33  1  0.84356000  0.55945000  0.31104000  1.0
  Cl  Cl34  1  0.25269000  0.75000000  0.42031000  1.0
  Cl  Cl35  1  0.74731000  0.25000000  0.57969000  1.0
  Cl  Cl36  1  0.61112000  0.75000000  0.65172000  1.0
  Cl  Cl37  1  0.38889000  0.25000000  0.34828000  1.0
