# generated using pymatgen
data_NbCuH8C10N2OF4
_symmetry_space_group_name_H-M   'P 1'
_cell_length_a   3.94671000
_cell_length_b   13.29680000
_cell_length_c   13.29670000
_cell_angle_alpha   70.65200000
_cell_angle_beta   89.99970000
_cell_angle_gamma   89.99970000
_symmetry_Int_Tables_number   1
_chemical_formula_structural   NbCuH8C10N2OF4
_chemical_formula_sum   'Nb2 Cu2 H16 C20 N4 O2 F8'
_cell_volume   658.38366913
_cell_formula_units_Z   2
loop_
 _symmetry_equiv_pos_site_id
 _symmetry_equiv_pos_as_xyz
  1  'x, y, z'
loop_
 _atom_site_type_symbol
 _atom_site_label
 _atom_site_symmetry_multiplicity
 _atom_site_fract_x
 _atom_site_fract_y
 _atom_site_fract_z
 _atom_site_occupancy
  Nb  Nb0  1  0.89201000  0.75001000  0.75002000  1.0
  Nb  Nb1  1  0.10800000  0.25002000  0.25002000  1.0
  Cu  Cu2  1  0.50000000  0.00000000  0.50000000  1.0
  Cu  Cu3  1  0.49999000  0.50001000  0.00000000  1.0
  H  H4  1  0.68754000  0.03472000  0.28164000  1.0
  H  H5  1  0.68738000  0.46527000  0.21836000  1.0
  H  H6  1  0.31245000  0.78163000  0.53473000  1.0
  H  H7  1  0.31253000  0.71836000  0.96526000  1.0
  H  H8  1  0.31257000  0.96527000  0.71836000  1.0
  H  H9  1  0.31249000  0.53473000  0.78164000  1.0
  H  H10  1  0.68750000  0.21836000  0.46527000  1.0
  H  H11  1  0.68753000  0.28163000  0.03474000  1.0
  H  H12  1  0.69355000  0.92621000  0.16259000  1.0
  H  H13  1  0.69345000  0.57379000  0.33739000  1.0
  H  H14  1  0.30647000  0.66261000  0.42619000  1.0
  H  H15  1  0.30653000  0.83740000  0.07378000  1.0
  H  H16  1  0.30650000  0.07378000  0.83741000  1.0
  H  H17  1  0.30647000  0.42620000  0.66260000  1.0
  H  H18  1  0.69350000  0.33738000  0.57380000  1.0
  H  H19  1  0.69352000  0.16261000  0.92620000  1.0
  C  C20  1  0.60233000  0.95232000  0.31044000  1.0
  C  C21  1  0.60225000  0.54768000  0.18955000  1.0
  C  C22  1  0.39766000  0.81046000  0.45232000  1.0
  C  C23  1  0.39770000  0.68955000  0.04767000  1.0
  C  C24  1  0.39773000  0.04766000  0.68957000  1.0
  C  C25  1  0.39768000  0.45231000  0.81045000  1.0
  C  C26  1  0.60230000  0.18954000  0.54770000  1.0
  C  C27  1  0.60235000  0.31045000  0.95234000  1.0
  C  C28  1  0.60372000  0.89075000  0.24427000  1.0
  C  C29  1  0.60364000  0.60926000  0.25573000  1.0
  C  C30  1  0.39629000  0.74425000  0.39074000  1.0
  C  C31  1  0.39632000  0.75576000  0.10925000  1.0
  C  C32  1  0.39636000  0.10925000  0.75574000  1.0
  C  C33  1  0.39629000  0.39075000  0.74427000  1.0
  C  C34  1  0.60370000  0.25576000  0.60926000  1.0
  C  C35  1  0.60370000  0.24425000  0.89075000  1.0
  C  C36  1  0.50000000  0.78391000  0.28390000  1.0
  C  C37  1  0.50000000  0.71609000  0.21607000  1.0
  C  C38  1  0.50000000  0.21609000  0.71609000  1.0
  C  C39  1  0.49999000  0.28390000  0.78391000  1.0
  N  N40  1  0.49999000  0.91332000  0.41332000  1.0
  N  N41  1  0.49997000  0.58666000  0.08666000  1.0
  N  N42  1  0.50001000  0.08665000  0.58668000  1.0
  N  N43  1  0.50002000  0.41332000  0.91333000  1.0
  O  O44  1  0.43729000  0.75003000  0.75000000  1.0
  O  O45  1  0.56271000  0.25002000  0.25000000  1.0
  F  F46  1  0.95568000  0.87556000  0.62441000  1.0
  F  F47  1  0.95569000  0.62438000  0.87558000  1.0
  F  F48  1  0.04429000  0.12439000  0.37559000  1.0
  F  F49  1  0.04432000  0.37557000  0.12440000  1.0
  F  F50  1  0.94655000  0.66087000  0.66085000  1.0
  F  F51  1  0.94667000  0.83917000  0.83916000  1.0
  F  F52  1  0.05344000  0.16087000  0.16086000  1.0
  F  F53  1  0.05333000  0.33917000  0.33917000  1.0
