# generated using pymatgen
data_CdNiH21C13N6
_symmetry_space_group_name_H-M   'P 1'
_cell_length_a   7.21937000
_cell_length_b   11.37470000
_cell_length_c   13.42669478
_cell_angle_alpha   104.88745302
_cell_angle_beta   104.99400870
_cell_angle_gamma   106.85400000
_symmetry_Int_Tables_number   1
_chemical_formula_structural   CdNiH21C13N6
_chemical_formula_sum   'Cd2 Ni2 H42 C26 N12'
_cell_volume   951.31950839
_cell_formula_units_Z   2
loop_
 _symmetry_equiv_pos_site_id
 _symmetry_equiv_pos_as_xyz
  1  'x, y, z'
loop_
 _atom_site_type_symbol
 _atom_site_label
 _atom_site_symmetry_multiplicity
 _atom_site_fract_x
 _atom_site_fract_y
 _atom_site_fract_z
 _atom_site_occupancy
  Cd  Cd0  1  0.00000000  0.00000000  0.00000000  1.0
  Cd  Cd1  1  0.50000000  0.50000000  0.50000000  1.0
  Ni  Ni2  1  0.74037000  0.16933000  0.27339000  1.0
  Ni  Ni3  1  0.25963000  0.83067000  0.72661000  1.0
  H  H4  1  0.69306000  0.74066000  0.90897000  1.0
  H  H5  1  0.88312000  0.75291000  0.01739000  1.0
  H  H6  1  0.83641000  0.66613000  0.78144000  1.0
  H  H7  1  0.15093000  0.62064000  0.84128000  1.0
  H  H8  1  0.23663000  0.79024000  0.91470000  1.0
  H  H9  1  0.20336000  0.74869000  0.08399000  1.0
  H  H10  1  0.11942000  0.57718000  0.01319000  1.0
  H  H11  1  0.45162000  0.61839000  0.97426000  1.0
  H  H12  1  0.53375000  0.78827000  0.05044000  1.0
  H  H13  1  0.52969000  0.73886000  0.22073000  1.0
  H  H14  1  0.43890000  0.56827000  0.14494000  1.0
  H  H15  1  0.76293000  0.60844000  0.09702000  1.0
  H  H16  1  0.85345000  0.77756000  0.17894000  1.0
  H  H17  1  0.85416000  0.71577000  0.34645000  1.0
  H  H18  1  0.76272000  0.54862000  0.26399000  1.0
  H  H19  1  0.08421000  0.60196000  0.20906000  1.0
  H  H20  1  0.17987000  0.76285000  0.30710000  1.0
  H  H21  1  0.05976000  0.50917000  0.35917000  1.0
  H  H22  1  0.17524000  0.66940000  0.45788000  1.0
  H  H23  1  0.48338000  0.69967000  0.41753000  1.0
  H  H24  1  0.37385000  0.56083000  0.31116000  1.0
  H  H25  1  0.30694000  0.25934000  0.09103000  1.0
  H  H26  1  0.11688000  0.24709000  0.98261000  1.0
  H  H27  1  0.16359000  0.33387000  0.21856000  1.0
  H  H28  1  0.84907000  0.37936000  0.15872000  1.0
  H  H29  1  0.76337000  0.20976000  0.08530000  1.0
  H  H30  1  0.79663000  0.25131000  0.91601000  1.0
  H  H31  1  0.88058000  0.42282000  0.98681000  1.0
  H  H32  1  0.54838000  0.38161000  0.02574000  1.0
  H  H33  1  0.46625000  0.21173000  0.94956000  1.0
  H  H34  1  0.47031000  0.26114000  0.77927000  1.0
  H  H35  1  0.56111000  0.43173000  0.85506000  1.0
  H  H36  1  0.23708000  0.39157000  0.90298000  1.0
  H  H37  1  0.14655000  0.22245000  0.82106000  1.0
  H  H38  1  0.14585000  0.28424000  0.65355000  1.0
  H  H39  1  0.23727000  0.45137000  0.73600000  1.0
  H  H40  1  0.91579000  0.39803000  0.79093000  1.0
  H  H41  1  0.82014000  0.23715000  0.69290000  1.0
  H  H42  1  0.94024000  0.49083000  0.64083000  1.0
  H  H43  1  0.82475000  0.33060000  0.54212000  1.0
  H  H44  1  0.51662000  0.30033000  0.58247000  1.0
  H  H45  1  0.62616000  0.43918000  0.68884000  1.0
  C  C46  1  0.62978000  0.28892000  0.32450000  1.0
  C  C47  1  0.48707000  0.06973000  0.16277000  1.0
  C  C48  1  0.99857000  0.27031000  0.38084000  1.0
  C  C49  1  0.85020000  0.05824000  0.20829000  1.0
  C  C50  1  0.91351000  0.68243000  0.86795000  1.0
  C  C51  1  0.13208000  0.69227000  0.90662000  1.0
  C  C52  1  0.21425000  0.67460000  0.01681000  1.0
  C  C53  1  0.44040000  0.68907000  0.04413000  1.0
  C  C54  1  0.53487000  0.66656000  0.14984000  1.0
  C  C55  1  0.75861000  0.67756000  0.17044000  1.0
  C  C56  1  0.85662000  0.64853000  0.27169000  1.0
  C  C57  1  0.07953000  0.65984000  0.28754000  1.0
  C  C58  1  0.16564000  0.60967000  0.37682000  1.0
  C  C59  1  0.37022000  0.71108000  0.67550000  1.0
  C  C60  1  0.51293000  0.93027000  0.83723000  1.0
  C  C61  1  0.00142000  0.72969000  0.61916000  1.0
  C  C62  1  0.14979000  0.94176000  0.79171000  1.0
  C  C63  1  0.08649000  0.31756000  0.13205000  1.0
  C  C64  1  0.86791000  0.30773000  0.09338000  1.0
  C  C65  1  0.78574000  0.32540000  0.98319000  1.0
  C  C66  1  0.55960000  0.31093000  0.95587000  1.0
  C  C67  1  0.46513000  0.33344000  0.85016000  1.0
  C  C68  1  0.24138000  0.32244000  0.82955000  1.0
  C  C69  1  0.14339000  0.35148000  0.72831000  1.0
  C  C70  1  0.92048000  0.34016000  0.71246000  1.0
  C  C71  1  0.83435000  0.39032000  0.62317000  1.0
  N  N72  1  0.55661000  0.36582000  0.35144000  1.0
  N  N73  1  0.32567000  0.01018000  0.09060000  1.0
  N  N74  1  0.16650000  0.33531000  0.44557000  1.0
  N  N75  1  0.91993000  0.99390000  0.15794000  1.0
  N  N76  1  0.84753000  0.75925000  0.94065000  1.0
  N  N77  1  0.37296000  0.60644000  0.38744000  1.0
  N  N78  1  0.44341000  0.63418000  0.64856000  1.0
  N  N79  1  0.67433000  0.98982000  0.90940000  1.0
  N  N80  1  0.83350000  0.66468000  0.55443000  1.0
  N  N81  1  0.08006000  0.00609000  0.84206000  1.0
  N  N82  1  0.15247000  0.24075000  0.05935000  1.0
  N  N83  1  0.62702000  0.39355000  0.61255000  1.0
