# generated using pymatgen
data_CuH24C20S2(NO2)4
_symmetry_space_group_name_H-M   'P 1'
_cell_length_a   7.36699000
_cell_length_b   7.86346000
_cell_length_c   11.36770000
_cell_angle_alpha   100.46200000
_cell_angle_beta   100.46700000
_cell_angle_gamma   114.95200000
_symmetry_Int_Tables_number   1
_chemical_formula_structural   CuH24C20S2(NO2)4
_chemical_formula_sum   'Cu1 H24 C20 S2 N4 O8'
_cell_volume   561.96534350
_cell_formula_units_Z   1
loop_
 _symmetry_equiv_pos_site_id
 _symmetry_equiv_pos_as_xyz
  1  'x, y, z'
loop_
 _atom_site_type_symbol
 _atom_site_label
 _atom_site_symmetry_multiplicity
 _atom_site_fract_x
 _atom_site_fract_y
 _atom_site_fract_z
 _atom_site_occupancy
  Cu  Cu0  1  0.00000000  0.50000000  0.50000000  1.0
  H  H1  1  0.29639000  0.56528000  0.67362000  1.0
  H  H2  1  0.70361000  0.43472000  0.32638000  1.0
  H  H3  1  0.38079000  0.57571000  0.54922000  1.0
  H  H4  1  0.61921000  0.42429000  0.45078000  1.0
  H  H5  1  0.48783000  0.78283000  0.94613000  1.0
  H  H6  1  0.51217000  0.21716000  0.05387000  1.0
  H  H7  1  0.19731000  0.88663000  0.73614000  1.0
  H  H8  1  0.80269000  0.11337000  0.26386000  1.0
  H  H9  1  0.33674000  0.08076000  0.67427000  1.0
  H  H10  1  0.66326000  0.91924000  0.32573000  1.0
  H  H11  1  0.94681000  0.98298000  0.62392000  1.0
  H  H12  1  0.05320000  0.01703000  0.37608000  1.0
  H  H13  1  0.80042000  0.80555000  0.47442000  1.0
  H  H14  1  0.19958000  0.19446000  0.52558000  1.0
  H  H15  1  0.54150000  0.61353000  0.10656000  1.0
  H  H16  1  0.45850000  0.38647000  0.89344000  1.0
  H  H17  1  0.20693000  0.88078000  0.92627000  1.0
  H  H18  1  0.79307000  0.11923000  0.07373000  1.0
  H  H19  1  0.97215000  0.81109000  0.06346000  1.0
  H  H20  1  0.02785000  0.18891000  0.93654000  1.0
  H  H21  1  0.54022000  0.89973000  0.72262000  1.0
  H  H22  1  0.45977000  0.10027000  0.27738000  1.0
  H  H23  1  0.47183000  0.88663000  0.56197000  1.0
  H  H24  1  0.52818000  0.11337000  0.43803000  1.0
  C  C25  1  0.12228000  0.66951000  0.15824000  1.0
  C  C26  1  0.87772000  0.33049000  0.84176000  1.0
  C  C27  1  0.28000000  0.61460000  0.16761000  1.0
  C  C28  1  0.72000000  0.38540000  0.83239000  1.0
  C  C29  1  0.99605000  0.60461000  0.24610000  1.0
  C  C30  1  0.00395000  0.39539000  0.75390000  1.0
  C  C31  1  0.38665000  0.75127000  0.00695000  1.0
  C  C32  1  0.61336000  0.24873000  0.99306000  1.0
  C  C33  1  0.25827000  0.92094000  0.65692000  1.0
  C  C34  1  0.74173000  0.07905000  0.34308000  1.0
  C  C35  1  0.95642000  0.92045000  0.53183000  1.0
  C  C36  1  0.04359000  0.07955000  0.46817000  1.0
  C  C37  1  0.41596000  0.65367000  0.09437000  1.0
  C  C38  1  0.58404000  0.34633000  0.90563000  1.0
  C  C39  1  0.22902000  0.80770000  0.99614000  1.0
  C  C40  1  0.77098000  0.19230000  0.00386000  1.0
  C  C41  1  0.09538000  0.76812000  0.07200000  1.0
  C  C42  1  0.90462000  0.23188000  0.92800000  1.0
  C  C43  1  0.40802000  0.84036000  0.63749000  1.0
  C  C44  1  0.59197000  0.15964000  0.36251000  1.0
  S  S45  1  0.26364000  0.48861000  0.28284000  1.0
  S  S46  1  0.73636000  0.51139000  0.71717000  1.0
  N  N47  1  0.07021000  0.51472000  0.32052000  1.0
  N  N48  1  0.92979000  0.48528000  0.67947000  1.0
  N  N49  1  0.30071000  0.62375000  0.59936000  1.0
  N  N50  1  0.69929000  0.37624000  0.40064000  1.0
  O  O51  1  0.08768000  0.82837000  0.54420000  1.0
  O  O52  1  0.91232000  0.17163000  0.45579000  1.0
  O  O53  1  0.20476000  0.28408000  0.22763000  1.0
  O  O54  1  0.79524000  0.71591000  0.77237000  1.0
  O  O55  1  0.83969000  0.62836000  0.24878000  1.0
  O  O56  1  0.16031000  0.37163000  0.75121000  1.0
  O  O57  1  0.45405000  0.59591000  0.38771000  1.0
  O  O58  1  0.54595000  0.40409000  0.61229000  1.0
