# generated using pymatgen
data_RbH6C7NO6
_symmetry_space_group_name_H-M   'P 1'
_cell_length_a   6.85901000
_cell_length_b   11.73693341
_cell_length_c   11.78670000
_cell_angle_alpha   89.99978827
_cell_angle_beta   89.99950000
_cell_angle_gamma   106.18221131
_symmetry_Int_Tables_number   1
_chemical_formula_structural   RbH6C7NO6
_chemical_formula_sum   'Rb4 H24 C28 N4 O24'
_cell_volume   911.27935291
_cell_formula_units_Z   4
loop_
 _symmetry_equiv_pos_site_id
 _symmetry_equiv_pos_as_xyz
  1  'x, y, z'
loop_
 _atom_site_type_symbol
 _atom_site_label
 _atom_site_symmetry_multiplicity
 _atom_site_fract_x
 _atom_site_fract_y
 _atom_site_fract_z
 _atom_site_occupancy
  Rb  Rb0  1  0.87229000  0.10928000  0.11254000  1.0
  Rb  Rb1  1  0.62770000  0.89072000  0.61255000  1.0
  Rb  Rb2  1  0.12771000  0.89072000  0.88745000  1.0
  Rb  Rb3  1  0.37230000  0.10928000  0.38745000  1.0
  H  H4  1  0.51342000  0.11526000  0.69420000  1.0
  H  H5  1  0.98658000  0.88475000  0.19422000  1.0
  H  H6  1  0.48656000  0.88474000  0.30579000  1.0
  H  H7  1  0.01342000  0.11525000  0.80578000  1.0
  H  H8  1  0.75018000  0.34940000  0.49841000  1.0
  H  H9  1  0.74983000  0.65062000  0.99842000  1.0
  H  H10  1  0.24983000  0.65061000  0.50158000  1.0
  H  H11  1  0.25016000  0.34937000  0.00158000  1.0
  H  H12  1  0.94748000  0.54599000  0.57782000  1.0
  H  H13  1  0.55251000  0.45402000  0.07783000  1.0
  H  H14  1  0.05253000  0.45401000  0.42218000  1.0
  H  H15  1  0.44747000  0.54597000  0.92218000  1.0
  H  H16  1  0.81975000  0.40837000  0.91748000  1.0
  H  H17  1  0.68024000  0.59163000  0.41750000  1.0
  H  H18  1  0.18025000  0.59163000  0.08251000  1.0
  H  H19  1  0.31975000  0.40837000  0.58251000  1.0
  H  H20  1  0.38533000  0.12079000  0.05039000  1.0
  H  H21  1  0.11468000  0.87921000  0.55040000  1.0
  H  H22  1  0.61467000  0.87921000  0.94961000  1.0
  H  H23  1  0.88533000  0.12079000  0.44960000  1.0
  H  H24  1  0.35576000  0.01091000  0.12862000  1.0
  H  H25  1  0.14424000  0.98909000  0.62862000  1.0
  H  H26  1  0.64424000  0.98909000  0.87138000  1.0
  H  H27  1  0.85576000  0.01091000  0.37138000  1.0
  C  C28  1  0.68975000  0.28683000  0.78329000  1.0
  C  C29  1  0.81026000  0.71318000  0.28331000  1.0
  C  C30  1  0.31025000  0.71317000  0.21670000  1.0
  C  C31  1  0.18974000  0.28682000  0.71669000  1.0
  C  C32  1  0.67246000  0.27040000  0.66345000  1.0
  C  C33  1  0.82755000  0.72961000  0.16347000  1.0
  C  C34  1  0.32754000  0.72960000  0.33654000  1.0
  C  C35  1  0.17245000  0.27038000  0.83653000  1.0
  C  C36  1  0.76791000  0.36366000  0.58943000  1.0
  C  C37  1  0.73209000  0.63635000  0.08945000  1.0
  C  C38  1  0.23209000  0.63634000  0.41056000  1.0
  C  C39  1  0.26790000  0.36364000  0.91055000  1.0
  C  C40  1  0.87754000  0.47145000  0.63277000  1.0
  C  C41  1  0.62247000  0.52856000  0.13279000  1.0
  C  C42  1  0.12247000  0.52856000  0.36722000  1.0
  C  C43  1  0.37752000  0.47143000  0.86722000  1.0
  C  C44  1  0.89665000  0.48658000  0.75094000  1.0
  C  C45  1  0.60336000  0.51343000  0.25096000  1.0
  C  C46  1  0.10335000  0.51342000  0.24905000  1.0
  C  C47  1  0.39664000  0.48657000  0.74905000  1.0
  C  C48  1  0.80330000  0.39565000  0.82609000  1.0
  C  C49  1  0.69671000  0.60435000  0.32611000  1.0
  C  C50  1  0.19670000  0.60435000  0.17390000  1.0
  C  C51  1  0.30329000  0.39564000  0.67390000  1.0
  C  C52  1  0.58634000  0.18799000  0.86157000  1.0
  C  C53  1  0.91365000  0.81201000  0.36159000  1.0
  C  C54  1  0.41366000  0.81201000  0.13842000  1.0
  C  C55  1  0.08636000  0.18799000  0.63842000  1.0
  N  N56  1  0.01627000  0.59881000  0.79422000  1.0
  N  N57  1  0.48374000  0.40120000  0.29423000  1.0
  N  N58  1  0.98374000  0.40120000  0.20578000  1.0
  N  N59  1  0.51626000  0.59880000  0.70578000  1.0
  O  O60  1  0.28250000  0.06590000  0.09914000  1.0
  O  O61  1  0.21751000  0.93410000  0.59915000  1.0
  O  O62  1  0.71750000  0.93410000  0.90086000  1.0
  O  O63  1  0.78251000  0.06591000  0.40086000  1.0
  O  O64  1  0.56313000  0.16735000  0.62022000  1.0
  O  O65  1  0.93688000  0.83266000  0.12024000  1.0
  O  O66  1  0.43685000  0.83265000  0.37978000  1.0
  O  O67  1  0.06311000  0.16733000  0.87976000  1.0
  O  O68  1  0.58991000  0.20434000  0.96668000  1.0
  O  O69  1  0.91007000  0.79566000  0.46670000  1.0
  O  O70  1  0.41009000  0.79566000  0.03331000  1.0
  O  O71  1  0.08994000  0.20434000  0.53329000  1.0
  O  O72  1  0.49681000  0.08665000  0.81284000  1.0
  O  O73  1  0.00319000  0.91336000  0.31286000  1.0
  O  O74  1  0.50319000  0.91336000  0.18715000  1.0
  O  O75  1  0.99681000  0.08664000  0.68713000  1.0
  O  O76  1  0.11139000  0.67599000  0.72554000  1.0
  O  O77  1  0.38862000  0.32401000  0.22555000  1.0
  O  O78  1  0.88861000  0.32401000  0.27446000  1.0
  O  O79  1  0.61137000  0.67598000  0.77446000  1.0
  O  O80  1  0.02099000  0.61597000  0.89895000  1.0
  O  O81  1  0.47900000  0.38404000  0.39896000  1.0
  O  O82  1  0.97902000  0.38404000  0.10104000  1.0
  O  O83  1  0.52100000  0.61596000  0.60105000  1.0
