# generated using pymatgen
data_Zn3H18C23SN3O10
_symmetry_space_group_name_H-M   'P 1'
_cell_length_a   10.22600000
_cell_length_b   23.15140000
_cell_length_c   27.42720000
_cell_angle_alpha   90.00010000
_cell_angle_beta   89.99950000
_cell_angle_gamma   89.99970000
_symmetry_Int_Tables_number   1
_chemical_formula_structural   Zn3H18C23SN3O10
_chemical_formula_sum   'Zn24 H144 C184 S8 N24 O80'
_cell_volume   6493.28582610
_cell_formula_units_Z   8
loop_
 _symmetry_equiv_pos_site_id
 _symmetry_equiv_pos_as_xyz
  1  'x, y, z'
loop_
 _atom_site_type_symbol
 _atom_site_label
 _atom_site_symmetry_multiplicity
 _atom_site_fract_x
 _atom_site_fract_y
 _atom_site_fract_z
 _atom_site_occupancy
  Zn  Zn0  1  0.58963000  0.80227000  0.95916000  1.0
  Zn  Zn1  1  0.44196000  0.72887000  0.04149000  1.0
  Zn  Zn2  1  0.75594000  0.77148000  0.04424000  1.0
  Zn  Zn3  1  0.08963000  0.69773000  0.04084000  1.0
  Zn  Zn4  1  0.94197000  0.77113000  0.95851000  1.0
  Zn  Zn5  1  0.25594000  0.72852000  0.95576000  1.0
  Zn  Zn6  1  0.41038000  0.19773000  0.45916000  1.0
  Zn  Zn7  1  0.55804000  0.27113000  0.54149000  1.0
  Zn  Zn8  1  0.24406000  0.22852000  0.54424000  1.0
  Zn  Zn9  1  0.91037000  0.30227000  0.54084000  1.0
  Zn  Zn10  1  0.05804000  0.22887000  0.45851000  1.0
  Zn  Zn11  1  0.74406000  0.27148000  0.45576000  1.0
  Zn  Zn12  1  0.41037000  0.19773000  0.04084000  1.0
  Zn  Zn13  1  0.55804000  0.27113000  0.95851000  1.0
  Zn  Zn14  1  0.24407000  0.22852000  0.95576000  1.0
  Zn  Zn15  1  0.91038000  0.30227000  0.95916000  1.0
  Zn  Zn16  1  0.05804000  0.22887000  0.04149000  1.0
  Zn  Zn17  1  0.74407000  0.27148000  0.04424000  1.0
  Zn  Zn18  1  0.58963000  0.80226000  0.54084000  1.0
  Zn  Zn19  1  0.44197000  0.72887000  0.45851000  1.0
  Zn  Zn20  1  0.75593000  0.77148000  0.45576000  1.0
  Zn  Zn21  1  0.08963000  0.69774000  0.45916000  1.0
  Zn  Zn22  1  0.94196000  0.77113000  0.54149000  1.0
  Zn  Zn23  1  0.25593000  0.72852000  0.54424000  1.0
  H  H24  1  0.49817000  0.70036000  0.94906000  1.0
  H  H25  1  0.94453000  0.04742000  0.08539000  1.0
  H  H26  1  0.69376000  0.98404000  0.94048000  1.0
  H  H27  1  0.44003000  0.81778000  0.12457000  1.0
  H  H28  1  0.78322000  0.85828000  0.12302000  1.0
  H  H29  1  0.89288000  0.94331000  0.07374000  1.0
  H  H30  1  0.56855000  0.90005000  0.87773000  1.0
  H  H31  1  0.41321000  0.63937000  0.12300000  1.0
  H  H32  1  0.40840000  0.63419000  0.21346000  1.0
  H  H33  1  0.60841000  0.71931000  0.78588000  1.0
  H  H34  1  0.43905000  0.82102000  0.21441000  1.0
  H  H35  1  0.74165000  0.68110000  0.12373000  1.0
  H  H36  1  0.56670000  0.90568000  0.78749000  1.0
  H  H37  1  0.60670000  0.72189000  0.87542000  1.0
  H  H38  1  0.79642000  0.86278000  0.21358000  1.0
  H  H39  1  0.75064000  0.67662000  0.21431000  1.0
  H  H40  1  0.23524000  0.78524000  0.46011000  1.0
  H  H41  1  0.51992000  0.83086000  0.45123000  1.0
  H  H42  1  0.99816000  0.79964000  0.05094000  1.0
  H  H43  1  0.44454000  0.45258000  0.91462000  1.0
  H  H44  1  0.19375000  0.51596000  0.05952000  1.0
  H  H45  1  0.94003000  0.68222000  0.87543000  1.0
  H  H46  1  0.28321000  0.64172000  0.87698000  1.0
  H  H47  1  0.39290000  0.55669000  0.92626000  1.0
  H  H48  1  0.06855000  0.59996000  0.12227000  1.0
  H  H49  1  0.91320000  0.86063000  0.87700000  1.0
  H  H50  1  0.90838000  0.86581000  0.78654000  1.0
  H  H51  1  0.10842000  0.78069000  0.21413000  1.0
  H  H52  1  0.93906000  0.67898000  0.78559000  1.0
  H  H53  1  0.24165000  0.81891000  0.87627000  1.0
  H  H54  1  0.06670000  0.59432000  0.21251000  1.0
  H  H55  1  0.10671000  0.77811000  0.12458000  1.0
  H  H56  1  0.29641000  0.63723000  0.78641000  1.0
  H  H57  1  0.25064000  0.82339000  0.78569000  1.0
  H  H58  1  0.73524000  0.71476000  0.53989000  1.0
  H  H59  1  0.01992000  0.66913000  0.54877000  1.0
  H  H60  1  0.50183000  0.29964000  0.44906000  1.0
  H  H61  1  0.05547000  0.95258000  0.58539000  1.0
  H  H62  1  0.30624000  0.01597000  0.44047000  1.0
  H  H63  1  0.55997000  0.18222000  0.62457000  1.0
  H  H64  1  0.21680000  0.14172000  0.62301000  1.0
  H  H65  1  0.10713000  0.05668000  0.57373000  1.0
  H  H66  1  0.43144000  0.09994000  0.37773000  1.0
  H  H67  1  0.58679000  0.36063000  0.62300000  1.0
  H  H68  1  0.59160000  0.36581000  0.71346000  1.0
  H  H69  1  0.39159000  0.28069000  0.28588000  1.0
  H  H70  1  0.56095000  0.17898000  0.71441000  1.0
  H  H71  1  0.25834000  0.31890000  0.62373000  1.0
  H  H72  1  0.43329000  0.09432000  0.28748000  1.0
  H  H73  1  0.39329000  0.27811000  0.37542000  1.0
  H  H74  1  0.20359000  0.13722000  0.71358000  1.0
  H  H75  1  0.24934000  0.32338000  0.71431000  1.0
  H  H76  1  0.76476000  0.21477000  0.96011000  1.0
  H  H77  1  0.48008000  0.16914000  0.95123000  1.0
  H  H78  1  0.00183000  0.20035000  0.55094000  1.0
  H  H79  1  0.55547000  0.54742000  0.41461000  1.0
  H  H80  1  0.80624000  0.48403000  0.55952000  1.0
  H  H81  1  0.05997000  0.31777000  0.37544000  1.0
  H  H82  1  0.71680000  0.35828000  0.37698000  1.0
  H  H83  1  0.60712000  0.44331000  0.42626000  1.0
  H  H84  1  0.93143000  0.40005000  0.62227000  1.0
  H  H85  1  0.08677000  0.13937000  0.37700000  1.0
  H  H86  1  0.09159000  0.13419000  0.28654000  1.0
  H  H87  1  0.89160000  0.21931000  0.71412000  1.0
  H  H88  1  0.06095000  0.32102000  0.28560000  1.0
  H  H89  1  0.75834000  0.18110000  0.37627000  1.0
  H  H90  1  0.93329000  0.40568000  0.71251000  1.0
  H  H91  1  0.89329000  0.22189000  0.62458000  1.0
  H  H92  1  0.70359000  0.36277000  0.28642000  1.0
  H  H93  1  0.74934000  0.17662000  0.28569000  1.0
  H  H94  1  0.26475000  0.28523000  0.03989000  1.0
  H  H95  1  0.98008000  0.33086000  0.04877000  1.0
  H  H96  1  0.50184000  0.29964000  0.05094000  1.0
  H  H97  1  0.05548000  0.95258000  0.91461000  1.0
  H  H98  1  0.30623000  0.01597000  0.05952000  1.0
  H  H99  1  0.55997000  0.18222000  0.87543000  1.0
  H  H100  1  0.21678000  0.14172000  0.87698000  1.0
  H  H101  1  0.10713000  0.05669000  0.92626000  1.0
  H  H102  1  0.43145000  0.09996000  0.12226000  1.0
  H  H103  1  0.58680000  0.36063000  0.87701000  1.0
  H  H104  1  0.59161000  0.36581000  0.78654000  1.0
  H  H105  1  0.39160000  0.28069000  0.21412000  1.0
  H  H106  1  0.56095000  0.17898000  0.78559000  1.0
  H  H107  1  0.25834000  0.31890000  0.87627000  1.0
  H  H108  1  0.43331000  0.09433000  0.21251000  1.0
  H  H109  1  0.39330000  0.27811000  0.12458000  1.0
  H  H110  1  0.20358000  0.13722000  0.78642000  1.0
  H  H111  1  0.24934000  0.32338000  0.78569000  1.0
  H  H112  1  0.76475000  0.21476000  0.53989000  1.0
  H  H113  1  0.48008000  0.16913000  0.54877000  1.0
  H  H114  1  0.00184000  0.20036000  0.94906000  1.0
  H  H115  1  0.55547000  0.54742000  0.08539000  1.0
  H  H116  1  0.80624000  0.48403000  0.94048000  1.0
  H  H117  1  0.05996000  0.31778000  0.12457000  1.0
  H  H118  1  0.71679000  0.35828000  0.12302000  1.0
  H  H119  1  0.60711000  0.44332000  0.07374000  1.0
  H  H120  1  0.93145000  0.40005000  0.87774000  1.0
  H  H121  1  0.08680000  0.13937000  0.12300000  1.0
  H  H122  1  0.09162000  0.13419000  0.21346000  1.0
  H  H123  1  0.89159000  0.21931000  0.78587000  1.0
  H  H124  1  0.06094000  0.32102000  0.21441000  1.0
  H  H125  1  0.75835000  0.18110000  0.12373000  1.0
  H  H126  1  0.93330000  0.40568000  0.78749000  1.0
  H  H127  1  0.89330000  0.22189000  0.87541000  1.0
  H  H128  1  0.70359000  0.36277000  0.21359000  1.0
  H  H129  1  0.74936000  0.17662000  0.21431000  1.0
  H  H130  1  0.26475000  0.28523000  0.46011000  1.0
  H  H131  1  0.98008000  0.33086000  0.45123000  1.0
  H  H132  1  0.49816000  0.70036000  0.55094000  1.0
  H  H133  1  0.94453000  0.04742000  0.41461000  1.0
  H  H134  1  0.69376000  0.98403000  0.55953000  1.0
  H  H135  1  0.44004000  0.81778000  0.37543000  1.0
  H  H136  1  0.78320000  0.85829000  0.37698000  1.0
  H  H137  1  0.89287000  0.94331000  0.42626000  1.0
  H  H138  1  0.56855000  0.90005000  0.62227000  1.0
  H  H139  1  0.41321000  0.63937000  0.37700000  1.0
  H  H140  1  0.40840000  0.63419000  0.28654000  1.0
  H  H141  1  0.60842000  0.71931000  0.71412000  1.0
  H  H142  1  0.43906000  0.82102000  0.28560000  1.0
  H  H143  1  0.74166000  0.68110000  0.37627000  1.0
  H  H144  1  0.56670000  0.90567000  0.71251000  1.0
  H  H145  1  0.60671000  0.72189000  0.62458000  1.0
  H  H146  1  0.79641000  0.86278000  0.28642000  1.0
  H  H147  1  0.75065000  0.67662000  0.28569000  1.0
  H  H148  1  0.23524000  0.78523000  0.03989000  1.0
  H  H149  1  0.51993000  0.83086000  0.04877000  1.0
  H  H150  1  0.99816000  0.79964000  0.44906000  1.0
  H  H151  1  0.44453000  0.45258000  0.58538000  1.0
  H  H152  1  0.19376000  0.51597000  0.44048000  1.0
  H  H153  1  0.94004000  0.68222000  0.62457000  1.0
  H  H154  1  0.28320000  0.64172000  0.62302000  1.0
  H  H155  1  0.39288000  0.55669000  0.57373000  1.0
  H  H156  1  0.06856000  0.59995000  0.37774000  1.0
  H  H157  1  0.91320000  0.86063000  0.62300000  1.0
  H  H158  1  0.90839000  0.86581000  0.71346000  1.0
  H  H159  1  0.10841000  0.78069000  0.28588000  1.0
  H  H160  1  0.93904000  0.67898000  0.71441000  1.0
  H  H161  1  0.24165000  0.81891000  0.62373000  1.0
  H  H162  1  0.06672000  0.59432000  0.28749000  1.0
  H  H163  1  0.10671000  0.77811000  0.37542000  1.0
  H  H164  1  0.29641000  0.63723000  0.71358000  1.0
  H  H165  1  0.25065000  0.82339000  0.71431000  1.0
  H  H166  1  0.73525000  0.71477000  0.96011000  1.0
  H  H167  1  0.01993000  0.66914000  0.95123000  1.0
  C  C168  1  0.87077000  0.13720000  0.03401000  1.0
  C  C169  1  0.78185000  0.95772000  0.00807000  1.0
  C  C170  1  0.77694000  0.05664000  0.97871000  1.0
  C  C171  1  0.58584000  0.81254000  0.77713000  1.0
  C  C172  1  0.84234000  0.07532000  0.02087000  1.0
  C  C173  1  0.77263000  0.76978000  0.22302000  1.0
  C  C174  1  0.42531000  0.72749000  0.22303000  1.0
  C  C175  1  0.74268000  0.89568000  0.00350000  1.0
  C  C176  1  0.88580000  0.03357000  0.05434000  1.0
  C  C177  1  0.74542000  0.99833000  0.97301000  1.0
  C  C178  1  0.43514000  0.77792000  0.14586000  1.0
  C  C179  1  0.77645000  0.81936000  0.14536000  1.0
  C  C180  1  0.85682000  0.97554000  0.04812000  1.0
  C  C181  1  0.57488000  0.86099000  0.85558000  1.0
  C  C182  1  0.41895000  0.67841000  0.14524000  1.0
  C  C183  1  0.41687000  0.67616000  0.19586000  1.0
  C  C184  1  0.59776000  0.76096000  0.80383000  1.0
  C  C185  1  0.43372000  0.77917000  0.19647000  1.0
  C  C186  1  0.75288000  0.71999000  0.14582000  1.0
  C  C187  1  0.57464000  0.86347000  0.80478000  1.0
  C  C188  1  0.59642000  0.76181000  0.85449000  1.0
  C  C189  1  0.78361000  0.82105000  0.19593000  1.0
  C  C190  1  0.75852000  0.71837000  0.19633000  1.0
  C  C191  1  0.37077000  0.36280000  0.96600000  1.0
  C  C192  1  0.28184000  0.54228000  0.99193000  1.0
  C  C193  1  0.27693000  0.44335000  0.02130000  1.0
  C  C194  1  0.08585000  0.68746000  0.22287000  1.0
  C  C195  1  0.34235000  0.42468000  0.97913000  1.0
  C  C196  1  0.27262000  0.73023000  0.77698000  1.0
  C  C197  1  0.92530000  0.77250000  0.77697000  1.0
  C  C198  1  0.24267000  0.60432000  0.99651000  1.0
  C  C199  1  0.38580000  0.46643000  0.94566000  1.0
  C  C200  1  0.24542000  0.50167000  0.02700000  1.0
  C  C201  1  0.93514000  0.72208000  0.85414000  1.0
  C  C202  1  0.27645000  0.68064000  0.85464000  1.0
  C  C203  1  0.35682000  0.52446000  0.95189000  1.0
  C  C204  1  0.07489000  0.63902000  0.14442000  1.0
  C  C205  1  0.91895000  0.82159000  0.85476000  1.0
  C  C206  1  0.91686000  0.82383000  0.80414000  1.0
  C  C207  1  0.09776000  0.73904000  0.19618000  1.0
  C  C208  1  0.93372000  0.72083000  0.80353000  1.0
  C  C209  1  0.25288000  0.78002000  0.85418000  1.0
  C  C210  1  0.07464000  0.63653000  0.19522000  1.0
  C  C211  1  0.09644000  0.73819000  0.14552000  1.0
  C  C212  1  0.28361000  0.67895000  0.80407000  1.0
  C  C213  1  0.25852000  0.78163000  0.80367000  1.0
  C  C214  1  0.12924000  0.86280000  0.53400000  1.0
  C  C215  1  0.21817000  0.04227000  0.50806000  1.0
  C  C216  1  0.22306000  0.94336000  0.47870000  1.0
  C  C217  1  0.41416000  0.18746000  0.27713000  1.0
  C  C218  1  0.15766000  0.92468000  0.52087000  1.0
  C  C219  1  0.22737000  0.23022000  0.72301000  1.0
  C  C220  1  0.57470000  0.27251000  0.72303000  1.0
  C  C221  1  0.25733000  0.10432000  0.50349000  1.0
  C  C222  1  0.11421000  0.96643000  0.55433000  1.0
  C  C223  1  0.25458000  0.00167000  0.47300000  1.0
  C  C224  1  0.56486000  0.22208000  0.64586000  1.0
  C  C225  1  0.22357000  0.18063000  0.64536000  1.0
  C  C226  1  0.14319000  0.02447000  0.54811000  1.0
  C  C227  1  0.42511000  0.13901000  0.35558000  1.0
  C  C228  1  0.58105000  0.32159000  0.64524000  1.0
  C  C229  1  0.58313000  0.32384000  0.69586000  1.0
  C  C230  1  0.40224000  0.23903000  0.30382000  1.0
  C  C231  1  0.56627000  0.22084000  0.69647000  1.0
  C  C232  1  0.24711000  0.28001000  0.64582000  1.0
  C  C233  1  0.42537000  0.13653000  0.30478000  1.0
  C  C234  1  0.40356000  0.23819000  0.35449000  1.0
  C  C235  1  0.21640000  0.17895000  0.69593000  1.0
  C  C236  1  0.24147000  0.28163000  0.69634000  1.0
  C  C237  1  0.62924000  0.63720000  0.46600000  1.0
  C  C238  1  0.71817000  0.45772000  0.49193000  1.0
  C  C239  1  0.72307000  0.55664000  0.52130000  1.0
  C  C240  1  0.91415000  0.31254000  0.72287000  1.0
  C  C241  1  0.65766000  0.57532000  0.47913000  1.0
  C  C242  1  0.72737000  0.26977000  0.27699000  1.0
  C  C243  1  0.07469000  0.22750000  0.27697000  1.0
  C  C244  1  0.75733000  0.39568000  0.49651000  1.0
  C  C245  1  0.61421000  0.53357000  0.44567000  1.0
  C  C246  1  0.75458000  0.49833000  0.52700000  1.0
  C  C247  1  0.06486000  0.27792000  0.35414000  1.0
  C  C248  1  0.72356000  0.31936000  0.35464000  1.0
  C  C249  1  0.64319000  0.47553000  0.45188000  1.0
  C  C250  1  0.92510000  0.36099000  0.64442000  1.0
  C  C251  1  0.08103000  0.17841000  0.35476000  1.0
  C  C252  1  0.08311000  0.17616000  0.30414000  1.0
  C  C253  1  0.90225000  0.26097000  0.69617000  1.0
  C  C254  1  0.06628000  0.27916000  0.30354000  1.0
  C  C255  1  0.74712000  0.21999000  0.35418000  1.0
  C  C256  1  0.92536000  0.36347000  0.69522000  1.0
  C  C257  1  0.90357000  0.26181000  0.64551000  1.0
  C  C258  1  0.71639000  0.32105000  0.30407000  1.0
  C  C259  1  0.74147000  0.21836000  0.30367000  1.0
  C  C260  1  0.12923000  0.86280000  0.96600000  1.0
  C  C261  1  0.21816000  0.04228000  0.99193000  1.0
  C  C262  1  0.22306000  0.94335000  0.02129000  1.0
  C  C263  1  0.41416000  0.18746000  0.22287000  1.0
  C  C264  1  0.15766000  0.92468000  0.97913000  1.0
  C  C265  1  0.22737000  0.23022000  0.77698000  1.0
  C  C266  1  0.57469000  0.27251000  0.77697000  1.0
  C  C267  1  0.25733000  0.10432000  0.99651000  1.0
  C  C268  1  0.11422000  0.96643000  0.94566000  1.0
  C  C269  1  0.25457000  0.00167000  0.02699000  1.0
  C  C270  1  0.56487000  0.22208000  0.85414000  1.0
  C  C271  1  0.22355000  0.18064000  0.85464000  1.0
  C  C272  1  0.14320000  0.02447000  0.95188000  1.0
  C  C273  1  0.42511000  0.13902000  0.14441000  1.0
  C  C274  1  0.58105000  0.32159000  0.85476000  1.0
  C  C275  1  0.58313000  0.32384000  0.80414000  1.0
  C  C276  1  0.40224000  0.23904000  0.19617000  1.0
  C  C277  1  0.56629000  0.22083000  0.80353000  1.0
  C  C278  1  0.24712000  0.28001000  0.85417000  1.0
  C  C279  1  0.42536000  0.13653000  0.19522000  1.0
  C  C280  1  0.40357000  0.23819000  0.14551000  1.0
  C  C281  1  0.21638000  0.17895000  0.80407000  1.0
  C  C282  1  0.24148000  0.28163000  0.80366000  1.0
  C  C283  1  0.62923000  0.63720000  0.03400000  1.0
  C  C284  1  0.71816000  0.45772000  0.00807000  1.0
  C  C285  1  0.72307000  0.55665000  0.97870000  1.0
  C  C286  1  0.91415000  0.31254000  0.77713000  1.0
  C  C287  1  0.65766000  0.57532000  0.02087000  1.0
  C  C288  1  0.72737000  0.26977000  0.22302000  1.0
  C  C289  1  0.07469000  0.22749000  0.22303000  1.0
  C  C290  1  0.75733000  0.39568000  0.00349000  1.0
  C  C291  1  0.61421000  0.53357000  0.05434000  1.0
  C  C292  1  0.75458000  0.49833000  0.97300000  1.0
  C  C293  1  0.06486000  0.27792000  0.14586000  1.0
  C  C294  1  0.72355000  0.31936000  0.14537000  1.0
  C  C295  1  0.64319000  0.47554000  0.04812000  1.0
  C  C296  1  0.92512000  0.36098000  0.85558000  1.0
  C  C297  1  0.08105000  0.17841000  0.14524000  1.0
  C  C298  1  0.08314000  0.17616000  0.19586000  1.0
  C  C299  1  0.90224000  0.26096000  0.80382000  1.0
  C  C300  1  0.06628000  0.27917000  0.19647000  1.0
  C  C301  1  0.74713000  0.21998000  0.14583000  1.0
  C  C302  1  0.92536000  0.36347000  0.80478000  1.0
  C  C303  1  0.90357000  0.26181000  0.85448000  1.0
  C  C304  1  0.71639000  0.32105000  0.19593000  1.0
  C  C305  1  0.74149000  0.21837000  0.19634000  1.0
  C  C306  1  0.87076000  0.13720000  0.46600000  1.0
  C  C307  1  0.78183000  0.95772000  0.49194000  1.0
  C  C308  1  0.77693000  0.05664000  0.52130000  1.0
  C  C309  1  0.58585000  0.81254000  0.72287000  1.0
  C  C310  1  0.84234000  0.07532000  0.47913000  1.0
  C  C311  1  0.77262000  0.76978000  0.27699000  1.0
  C  C312  1  0.42531000  0.72749000  0.27697000  1.0
  C  C313  1  0.74267000  0.89568000  0.49651000  1.0
  C  C314  1  0.88579000  0.03357000  0.44567000  1.0
  C  C315  1  0.74542000  0.99833000  0.52700000  1.0
  C  C316  1  0.43515000  0.77792000  0.35414000  1.0
  C  C317  1  0.77644000  0.81937000  0.35464000  1.0
  C  C318  1  0.85680000  0.97553000  0.45188000  1.0
  C  C319  1  0.57488000  0.86099000  0.64442000  1.0
  C  C320  1  0.41895000  0.67841000  0.35476000  1.0
  C  C321  1  0.41687000  0.67616000  0.30414000  1.0
  C  C322  1  0.59777000  0.76097000  0.69618000  1.0
  C  C323  1  0.43373000  0.77916000  0.30353000  1.0
  C  C324  1  0.75288000  0.71999000  0.35418000  1.0
  C  C325  1  0.57463000  0.86347000  0.69522000  1.0
  C  C326  1  0.59643000  0.76181000  0.64552000  1.0
  C  C327  1  0.78360000  0.82105000  0.30407000  1.0
  C  C328  1  0.75852000  0.71837000  0.30367000  1.0
  C  C329  1  0.37076000  0.36280000  0.53400000  1.0
  C  C330  1  0.28184000  0.54228000  0.50806000  1.0
  C  C331  1  0.27693000  0.44336000  0.47870000  1.0
  C  C332  1  0.08585000  0.68746000  0.27713000  1.0
  C  C333  1  0.34234000  0.42468000  0.52087000  1.0
  C  C334  1  0.27262000  0.73023000  0.72301000  1.0
  C  C335  1  0.92530000  0.77250000  0.72303000  1.0
  C  C336  1  0.24268000  0.60432000  0.50349000  1.0
  C  C337  1  0.38579000  0.46643000  0.55433000  1.0
  C  C338  1  0.24542000  0.50167000  0.47300000  1.0
  C  C339  1  0.93514000  0.72208000  0.64586000  1.0
  C  C340  1  0.27644000  0.68064000  0.64536000  1.0
  C  C341  1  0.35681000  0.52446000  0.54812000  1.0
  C  C342  1  0.07489000  0.63901000  0.35558000  1.0
  C  C343  1  0.91895000  0.82159000  0.64524000  1.0
  C  C344  1  0.91687000  0.82384000  0.69586000  1.0
  C  C345  1  0.09776000  0.73903000  0.30383000  1.0
  C  C346  1  0.93372000  0.72084000  0.69647000  1.0
  C  C347  1  0.25288000  0.78002000  0.64583000  1.0
  C  C348  1  0.07464000  0.63653000  0.30478000  1.0
  C  C349  1  0.09643000  0.73819000  0.35449000  1.0
  C  C350  1  0.28361000  0.67895000  0.69594000  1.0
  C  C351  1  0.25852000  0.78164000  0.69633000  1.0
  S  S352  1  0.74056000  0.10276000  0.92776000  1.0
  S  S353  1  0.24056000  0.39724000  0.07224000  1.0
  S  S354  1  0.25943000  0.89724000  0.42775000  1.0
  S  S355  1  0.75943000  0.60276000  0.57224000  1.0
  S  S356  1  0.25944000  0.89724000  0.07224000  1.0
  S  S357  1  0.75944000  0.60276000  0.92776000  1.0
  S  S358  1  0.74056000  0.10276000  0.57225000  1.0
  S  S359  1  0.24057000  0.39724000  0.42776000  1.0
  N  N360  1  0.75982000  0.76971000  0.12075000  1.0
  N  N361  1  0.58450000  0.81102000  0.88031000  1.0
  N  N362  1  0.42887000  0.72830000  0.12056000  1.0
  N  N363  1  0.25982000  0.73029000  0.87925000  1.0
  N  N364  1  0.08451000  0.68899000  0.11969000  1.0
  N  N365  1  0.92888000  0.77170000  0.87944000  1.0
  N  N366  1  0.24018000  0.23029000  0.62074000  1.0
  N  N367  1  0.41549000  0.18898000  0.38031000  1.0
  N  N368  1  0.57112000  0.27171000  0.62056000  1.0
  N  N369  1  0.74019000  0.26971000  0.37926000  1.0
  N  N370  1  0.91549000  0.31102000  0.61969000  1.0
  N  N371  1  0.07112000  0.22829000  0.37944000  1.0
  N  N372  1  0.24017000  0.23029000  0.87925000  1.0
  N  N373  1  0.41550000  0.18899000  0.11969000  1.0
  N  N374  1  0.57113000  0.27170000  0.87944000  1.0
  N  N375  1  0.74018000  0.26971000  0.12075000  1.0
  N  N376  1  0.91550000  0.31101000  0.88031000  1.0
  N  N377  1  0.07113000  0.22830000  0.12056000  1.0
  N  N378  1  0.75982000  0.76971000  0.37926000  1.0
  N  N379  1  0.58451000  0.81102000  0.61969000  1.0
  N  N380  1  0.42888000  0.72829000  0.37944000  1.0
  N  N381  1  0.25981000  0.73030000  0.62074000  1.0
  N  N382  1  0.08451000  0.68898000  0.38031000  1.0
  N  N383  1  0.92888000  0.77171000  0.62056000  1.0
  O  O384  1  0.55934000  0.79518000  0.03580000  1.0
  O  O385  1  0.75449000  0.75564000  0.96900000  1.0
  O  O386  1  0.78375000  0.86183000  0.03650000  1.0
  O  O387  1  0.99313000  0.14874000  0.03789000  1.0
  O  O388  1  0.77707000  0.17080000  0.04372000  1.0
  O  O389  1  0.66942000  0.88210000  0.96714000  1.0
  O  O390  1  0.45678000  0.73672000  0.95871000  1.0
  O  O391  1  0.77401000  0.06947000  0.88441000  1.0
  O  O392  1  0.60023000  0.11703000  0.93106000  1.0
  O  O393  1  0.82540000  0.15451000  0.93402000  1.0
  O  O394  1  0.05934000  0.70482000  0.96420000  1.0
  O  O395  1  0.25449000  0.74436000  0.03100000  1.0
  O  O396  1  0.28375000  0.63817000  0.96350000  1.0
  O  O397  1  0.49313000  0.35126000  0.96212000  1.0
  O  O398  1  0.27706000  0.32920000  0.95628000  1.0
  O  O399  1  0.16942000  0.61790000  0.03286000  1.0
  O  O400  1  0.95677000  0.76328000  0.04129000  1.0
  O  O401  1  0.27402000  0.43053000  0.11559000  1.0
  O  O402  1  0.10022000  0.38297000  0.06894000  1.0
  O  O403  1  0.32539000  0.34549000  0.06598000  1.0
  O  O404  1  0.44067000  0.20481000  0.53580000  1.0
  O  O405  1  0.24551000  0.24436000  0.46899000  1.0
  O  O406  1  0.21626000  0.13817000  0.53650000  1.0
  O  O407  1  0.00688000  0.85126000  0.53788000  1.0
  O  O408  1  0.22295000  0.82921000  0.54371000  1.0
  O  O409  1  0.33058000  0.11790000  0.46713000  1.0
  O  O410  1  0.54323000  0.26328000  0.45870000  1.0
  O  O411  1  0.22598000  0.93053000  0.38440000  1.0
  O  O412  1  0.39976000  0.88297000  0.43105000  1.0
  O  O413  1  0.17460000  0.84549000  0.43401000  1.0
  O  O414  1  0.94067000  0.29518000  0.46420000  1.0
  O  O415  1  0.74551000  0.25564000  0.53100000  1.0
  O  O416  1  0.71626000  0.36183000  0.46350000  1.0
  O  O417  1  0.50688000  0.64874000  0.46212000  1.0
  O  O418  1  0.72296000  0.67079000  0.45629000  1.0
  O  O419  1  0.83058000  0.38210000  0.53286000  1.0
  O  O420  1  0.04322000  0.23672000  0.54130000  1.0
  O  O421  1  0.72597000  0.56946000  0.61560000  1.0
  O  O422  1  0.89976000  0.61703000  0.56894000  1.0
  O  O423  1  0.67459000  0.65451000  0.56598000  1.0
  O  O424  1  0.44066000  0.20482000  0.96420000  1.0
  O  O425  1  0.24551000  0.24436000  0.03100000  1.0
  O  O426  1  0.21625000  0.13817000  0.96350000  1.0
  O  O427  1  0.00687000  0.85126000  0.96212000  1.0
  O  O428  1  0.22294000  0.82921000  0.95629000  1.0
  O  O429  1  0.33058000  0.11790000  0.03286000  1.0
  O  O430  1  0.54323000  0.26328000  0.04129000  1.0
  O  O431  1  0.22599000  0.93053000  0.11559000  1.0
  O  O432  1  0.39977000  0.88297000  0.06894000  1.0
  O  O433  1  0.17460000  0.84549000  0.06598000  1.0
  O  O434  1  0.94067000  0.29518000  0.03580000  1.0
  O  O435  1  0.74552000  0.25564000  0.96900000  1.0
  O  O436  1  0.71625000  0.36183000  0.03650000  1.0
  O  O437  1  0.50687000  0.64874000  0.03788000  1.0
  O  O438  1  0.72294000  0.67080000  0.04372000  1.0
  O  O439  1  0.83058000  0.38210000  0.96714000  1.0
  O  O440  1  0.04323000  0.23672000  0.95871000  1.0
  O  O441  1  0.72598000  0.56947000  0.88441000  1.0
  O  O442  1  0.89977000  0.61703000  0.93106000  1.0
  O  O443  1  0.67460000  0.65451000  0.93402000  1.0
  O  O444  1  0.55934000  0.79518000  0.46420000  1.0
  O  O445  1  0.75449000  0.75564000  0.53101000  1.0
  O  O446  1  0.78374000  0.86183000  0.46350000  1.0
  O  O447  1  0.99312000  0.14874000  0.46212000  1.0
  O  O448  1  0.77705000  0.17079000  0.45629000  1.0
  O  O449  1  0.66942000  0.88210000  0.53287000  1.0
  O  O450  1  0.45677000  0.73673000  0.54129000  1.0
  O  O451  1  0.77403000  0.06947000  0.61560000  1.0
  O  O452  1  0.60023000  0.11702000  0.56895000  1.0
  O  O453  1  0.82539000  0.15451000  0.56598000  1.0
  O  O454  1  0.05933000  0.70482000  0.53580000  1.0
  O  O455  1  0.25449000  0.74436000  0.46899000  1.0
  O  O456  1  0.28374000  0.63817000  0.53650000  1.0
  O  O457  1  0.49312000  0.35126000  0.53788000  1.0
  O  O458  1  0.27705000  0.32920000  0.54371000  1.0
  O  O459  1  0.16943000  0.61790000  0.46713000  1.0
  O  O460  1  0.95677000  0.76328000  0.45871000  1.0
  O  O461  1  0.27403000  0.43053000  0.38440000  1.0
  O  O462  1  0.10024000  0.38298000  0.43105000  1.0
  O  O463  1  0.32539000  0.34549000  0.43402000  1.0
