# generated using pymatgen
data_CdH4C4N3ClO2
_symmetry_space_group_name_H-M   'P 1'
_cell_length_a   6.92344000
_cell_length_b   7.96648000
_cell_length_c   12.75420000
_cell_angle_alpha   90.00000000
_cell_angle_beta   90.00020000
_cell_angle_gamma   108.64900000
_symmetry_Int_Tables_number   1
_chemical_formula_structural   CdH4C4N3ClO2
_chemical_formula_sum   'Cd4 H16 C16 N12 Cl4 O8'
_cell_volume   666.52843820
_cell_formula_units_Z   4
loop_
 _symmetry_equiv_pos_site_id
 _symmetry_equiv_pos_as_xyz
  1  'x, y, z'
loop_
 _atom_site_type_symbol
 _atom_site_label
 _atom_site_symmetry_multiplicity
 _atom_site_fract_x
 _atom_site_fract_y
 _atom_site_fract_z
 _atom_site_occupancy
  Cd  Cd0  1  0.95791000  0.74107000  0.51565000  1.0
  Cd  Cd1  1  0.04209000  0.75894000  0.01565000  1.0
  Cd  Cd2  1  0.04209000  0.25894000  0.48435000  1.0
  Cd  Cd3  1  0.95791000  0.24106000  0.98435000  1.0
  H  H4  1  0.58451000  0.79098000  0.14257000  1.0
  H  H5  1  0.41548000  0.70902000  0.64258000  1.0
  H  H6  1  0.41548000  0.20902000  0.85742000  1.0
  H  H7  1  0.58453000  0.29097000  0.35742000  1.0
  H  H8  1  0.07222000  0.65065000  0.27071000  1.0
  H  H9  1  0.92778000  0.84935000  0.77072000  1.0
  H  H10  1  0.92778000  0.34935000  0.72928000  1.0
  H  H11  1  0.07222000  0.15065000  0.22929000  1.0
  H  H12  1  0.40779000  0.82096000  0.31101000  1.0
  H  H13  1  0.59221000  0.67904000  0.81101000  1.0
  H  H14  1  0.59221000  0.17904000  0.68899000  1.0
  H  H15  1  0.40779000  0.32097000  0.18898000  1.0
  H  H16  1  0.54699000  0.83290000  0.42905000  1.0
  H  H17  1  0.45301000  0.66710000  0.92905000  1.0
  H  H18  1  0.45301000  0.16711000  0.57095000  1.0
  H  H19  1  0.54700000  0.33290000  0.07095000  1.0
  C  C20  1  0.68715000  0.75310000  0.19488000  1.0
  C  C21  1  0.31285000  0.74691000  0.69488000  1.0
  C  C22  1  0.31285000  0.24690000  0.80511000  1.0
  C  C23  1  0.68712000  0.25310000  0.30513000  1.0
  C  C24  1  0.93258000  0.68291000  0.26289000  1.0
  C  C25  1  0.06742000  0.81709000  0.76289000  1.0
  C  C26  1  0.06742000  0.31709000  0.73711000  1.0
  C  C27  1  0.93258000  0.18290000  0.23711000  1.0
  C  C28  1  0.48757000  0.75035000  0.35974000  1.0
  C  C29  1  0.51243000  0.74965000  0.85974000  1.0
  C  C30  1  0.51243000  0.24965000  0.64026000  1.0
  C  C31  1  0.48757000  0.25035000  0.14026000  1.0
  C  C32  1  0.34102000  0.57090000  0.39439000  1.0
  C  C33  1  0.65898000  0.92910000  0.89440000  1.0
  C  C34  1  0.65898000  0.42911000  0.60561000  1.0
  C  C35  1  0.34103000  0.07091000  0.10561000  1.0
  N  N36  1  0.86050000  0.72171000  0.17025000  1.0
  N  N37  1  0.13950000  0.77830000  0.67025000  1.0
  N  N38  1  0.13950000  0.27829000  0.82975000  1.0
  N  N39  1  0.86051000  0.22170000  0.32975000  1.0
  N  N40  1  0.81334000  0.68900000  0.34335000  1.0
  N  N41  1  0.18666000  0.81100000  0.84335000  1.0
  N  N42  1  0.18666000  0.31100000  0.65665000  1.0
  N  N43  1  0.81335000  0.18900000  0.15666000  1.0
  N  N44  1  0.65796000  0.73474000  0.29885000  1.0
  N  N45  1  0.34204000  0.76526000  0.79885000  1.0
  N  N46  1  0.34204000  0.26526000  0.70115000  1.0
  N  N47  1  0.65795000  0.23474000  0.20114000  1.0
  Cl  Cl48  1  0.77979000  0.97724000  0.57430000  1.0
  Cl  Cl49  1  0.22020000  0.52276000  0.07430000  1.0
  Cl  Cl50  1  0.22020000  0.02276000  0.42570000  1.0
  Cl  Cl51  1  0.77980000  0.47724000  0.92570000  1.0
  O  O52  1  0.19236000  0.57466000  0.45359000  1.0
  O  O53  1  0.80764000  0.92534000  0.95359000  1.0
  O  O54  1  0.80765000  0.42535000  0.54641000  1.0
  O  O55  1  0.19235000  0.07466000  0.04640000  1.0
  O  O56  1  0.36886000  0.43010000  0.36534000  1.0
  O  O57  1  0.63115000  0.06989000  0.86535000  1.0
  O  O58  1  0.63115000  0.56990000  0.63466000  1.0
  O  O59  1  0.36885000  0.93010000  0.13466000  1.0
