# generated using pymatgen
data_Zn4H16C38O13
_symmetry_space_group_name_H-M   'P 1'
_cell_length_a   24.26818969
_cell_length_b   24.26830000
_cell_length_c   24.26830000
_cell_angle_alpha   69.71700000
_cell_angle_beta   70.93318554
_cell_angle_gamma   109.06681446
_symmetry_Int_Tables_number   1
_chemical_formula_structural   Zn4H16C38O13
_chemical_formula_sum   'Zn8 H32 C76 O26'
_cell_volume   11000.92519926
_cell_formula_units_Z   2
loop_
 _symmetry_equiv_pos_site_id
 _symmetry_equiv_pos_as_xyz
  1  'x, y, z'
loop_
 _atom_site_type_symbol
 _atom_site_label
 _atom_site_symmetry_multiplicity
 _atom_site_fract_x
 _atom_site_fract_y
 _atom_site_fract_z
 _atom_site_occupancy
  Zn  Zn0  1  0.55748000  0.29018000  0.15234000  1.0
  Zn  Zn1  1  0.44252000  0.70982000  0.84766000  1.0
  Zn  Zn2  1  0.55748000  0.84766000  0.70982000  1.0
  Zn  Zn3  1  0.44252000  0.15234000  0.29018000  1.0
  Zn  Zn4  1  0.44252000  0.29018000  0.26730000  1.0
  Zn  Zn5  1  0.55748000  0.70982000  0.73270000  1.0
  Zn  Zn6  1  0.44252000  0.73270000  0.70982000  1.0
  Zn  Zn7  1  0.55748000  0.26730000  0.29018000  1.0
  H  H8  1  0.23561000  0.60211000  0.97488000  1.0
  H  H9  1  0.42300000  0.78951000  0.97488000  1.0
  H  H10  1  0.23561000  0.63349000  0.78951000  1.0
  H  H11  1  0.76439000  0.36651000  0.21049000  1.0
  H  H12  1  0.42300000  0.39788000  0.36651000  1.0
  H  H13  1  0.57700000  0.60212000  0.63349000  1.0
  H  H14  1  0.76439000  0.97488000  0.60211000  1.0
  H  H15  1  0.23561000  0.02512000  0.39789000  1.0
  H  H16  1  0.76439000  0.39788000  0.02512000  1.0
  H  H17  1  0.42300000  0.02512000  0.21049000  1.0
  H  H18  1  0.57700000  0.97488000  0.78951000  1.0
  H  H19  1  0.76439000  0.78951000  0.63349000  1.0
  H  H20  1  0.23561000  0.21049000  0.36651000  1.0
  H  H21  1  0.57700000  0.36651000  0.39788000  1.0
  H  H22  1  0.42300000  0.63349000  0.60212000  1.0
  H  H23  1  0.57700000  0.21049000  0.02512000  1.0
  H  H24  1  0.11015000  0.53935000  0.03803000  1.0
  H  H25  1  0.88985000  0.46065000  0.96197000  1.0
  H  H26  1  0.42262000  0.96197000  0.14818000  1.0
  H  H27  1  0.57738000  0.03803000  0.85183000  1.0
  H  H28  1  0.88985000  0.85182000  0.57080000  1.0
  H  H29  1  0.11015000  0.14818000  0.42920000  1.0
  H  H30  1  0.57738000  0.42920000  0.46065000  1.0
  H  H31  1  0.42262000  0.57080000  0.53935000  1.0
  H  H32  1  0.57738000  0.14818000  0.96197000  1.0
  H  H33  1  0.42262000  0.85182000  0.03803000  1.0
  H  H34  1  0.11015000  0.57080000  0.85182000  1.0
  H  H35  1  0.88985000  0.42920000  0.14818000  1.0
  H  H36  1  0.42262000  0.46065000  0.42920000  1.0
  H  H37  1  0.57738000  0.53935000  0.57080000  1.0
  H  H38  1  0.88985000  0.03803000  0.53935000  1.0
  H  H39  1  0.11015000  0.96197000  0.46065000  1.0
  C  C40  1  0.10169000  0.55084000  0.94916000  1.0
  C  C41  1  0.50000000  0.94915000  0.94915000  1.0
  C  C42  1  0.86220000  0.42226000  0.12142000  1.0
  C  C43  1  0.45631000  0.43993000  0.42227000  1.0
  C  C44  1  0.54369000  0.56007000  0.57773000  1.0
  C  C45  1  0.86220000  0.98362000  0.56006000  1.0
  C  C46  1  0.13780000  0.01638000  0.43994000  1.0
  C  C47  1  0.20748000  0.59492000  0.94862000  1.0
  C  C48  1  0.79252000  0.40508000  0.05138000  1.0
  C  C49  1  0.45646000  0.05138000  0.15610000  1.0
  C  C50  1  0.54354000  0.94862000  0.84390000  1.0
  C  C51  1  0.79252000  0.84390000  0.61257000  1.0
  C  C52  1  0.20748000  0.15610000  0.38743000  1.0
  C  C53  1  0.54354000  0.38744000  0.40508000  1.0
  C  C54  1  0.45647000  0.61257000  0.59491000  1.0
  C  C55  1  0.54354000  0.15610000  0.05138000  1.0
  C  C56  1  0.45646000  0.84390000  0.94862000  1.0
  C  C57  1  0.20748000  0.61256000  0.84390000  1.0
  C  C58  1  0.79252000  0.38743000  0.15610000  1.0
  C  C59  1  0.45647000  0.40509000  0.38743000  1.0
  C  C60  1  0.54354000  0.59492000  0.61256000  1.0
  C  C61  1  0.79252000  0.94862000  0.59492000  1.0
  C  C62  1  0.89831000  0.44916000  0.05084000  1.0
  C  C63  1  0.20748000  0.05138000  0.40509000  1.0
  C  C64  1  0.50000000  0.44915000  0.44916000  1.0
  C  C65  1  0.24298000  0.62149000  0.87851000  1.0
  C  C66  1  0.75702000  0.37851000  0.12149000  1.0
  C  C67  1  0.50000000  0.12149000  0.12149000  1.0
  C  C68  1  0.50000000  0.55084000  0.55085000  1.0
  C  C69  1  0.50000000  0.87851000  0.87851000  1.0
  C  C70  1  0.75702000  0.87851000  0.62149000  1.0
  C  C71  1  0.24298000  0.12149000  0.37851000  1.0
  C  C72  1  0.50000000  0.37851000  0.37851000  1.0
  C  C73  1  0.50000000  0.62149000  0.62149000  1.0
  C  C74  1  0.89831000  0.94916000  0.55085000  1.0
  C  C75  1  0.10169000  0.05084000  0.44916000  1.0
  C  C76  1  0.03068000  0.51534000  0.98466000  1.0
  C  C77  1  0.96932000  0.48466000  0.01534000  1.0
  C  C78  1  0.50000000  0.01534000  0.01534000  1.0
  C  C79  1  0.50000000  0.98466000  0.98466000  1.0
  C  C80  1  0.96933000  0.98467000  0.51533000  1.0
  C  C81  1  0.03068000  0.01534000  0.48466000  1.0
  C  C82  1  0.50000000  0.48466000  0.48466000  1.0
  C  C83  1  0.50000000  0.51534000  0.51534000  1.0
  C  C84  1  0.50000000  0.05085000  0.05084000  1.0
  C  C85  1  0.50000000  0.43160000  0.06840000  1.0
  C  C86  1  0.50000000  0.56839000  0.93161000  1.0
  C  C87  1  0.50000000  0.93161000  0.56839000  1.0
  C  C88  1  0.50000000  0.06840000  0.43160000  1.0
  C  C89  1  0.50000000  0.47568000  0.02432000  1.0
  C  C90  1  0.50000000  0.52431000  0.97569000  1.0
  C  C91  1  0.50000000  0.97569000  0.52431000  1.0
  C  C92  1  0.50000000  0.02432000  0.47568000  1.0
  C  C93  1  0.50000000  0.12041000  0.37959000  1.0
  C  C94  1  0.50000000  0.87959000  0.62041000  1.0
  C  C95  1  0.50000000  0.62041000  0.87959000  1.0
  C  C96  1  0.50000000  0.37959000  0.12041000  1.0
  C  C97  1  0.50000000  0.15890000  0.15890000  1.0
  C  C98  1  0.50000000  0.84110000  0.84110000  1.0
  C  C99  1  0.68221000  0.84111000  0.65889000  1.0
  C  C100  1  0.31779000  0.15889000  0.34111000  1.0
  C  C101  1  0.50000000  0.34110000  0.34110000  1.0
  C  C102  1  0.50000000  0.65890000  0.65890000  1.0
  C  C103  1  0.31779000  0.65889000  0.84111000  1.0
  C  C104  1  0.68221000  0.34111000  0.15889000  1.0
  C  C105  1  0.13780000  0.56006000  0.98362000  1.0
  C  C106  1  0.86220000  0.43994000  0.01638000  1.0
  C  C107  1  0.45631000  0.01637000  0.12143000  1.0
  C  C108  1  0.54369000  0.98363000  0.87857000  1.0
  C  C109  1  0.86220000  0.87858000  0.57774000  1.0
  C  C110  1  0.13780000  0.12142000  0.42226000  1.0
  C  C111  1  0.54369000  0.42227000  0.43993000  1.0
  C  C112  1  0.45631000  0.57773000  0.56007000  1.0
  C  C113  1  0.54369000  0.12143000  0.01637000  1.0
  C  C114  1  0.45631000  0.87857000  0.98363000  1.0
  C  C115  1  0.13780000  0.57774000  0.87858000  1.0
  O  O116  1  0.50000000  0.25000000  0.25000000  1.0
  O  O117  1  0.54070000  0.90018000  0.64052000  1.0
  O  O118  1  0.54070000  0.64053000  0.81878000  1.0
  O  O119  1  0.45931000  0.35948000  0.18121000  1.0
  O  O120  1  0.54070000  0.18122000  0.35947000  1.0
  O  O121  1  0.45930000  0.81878000  0.64053000  1.0
  O  O122  1  0.45930000  0.64052000  0.90018000  1.0
  O  O123  1  0.54070000  0.35948000  0.09982000  1.0
  O  O124  1  0.45930000  0.09982000  0.35948000  1.0
  O  O125  1  0.50000000  0.75000000  0.75000000  1.0
  O  O126  1  0.45937000  0.12424000  0.22271000  1.0
  O  O127  1  0.54063000  0.87576000  0.77729000  1.0
  O  O128  1  0.65305000  0.77729000  0.68208000  1.0
  O  O129  1  0.34695000  0.22271000  0.31792000  1.0
  O  O130  1  0.54063000  0.31792000  0.33513000  1.0
  O  O131  1  0.45937000  0.68207000  0.66487000  1.0
  O  O132  1  0.34695000  0.66487000  0.87576000  1.0
  O  O133  1  0.65305000  0.33513000  0.12425000  1.0
  O  O134  1  0.34695000  0.68208000  0.77729000  1.0
  O  O135  1  0.65305000  0.31792000  0.22271000  1.0
  O  O136  1  0.45937000  0.33513000  0.31792000  1.0
  O  O137  1  0.54063000  0.66487000  0.68208000  1.0
  O  O138  1  0.65305000  0.87575000  0.66487000  1.0
  O  O139  1  0.34695000  0.12425000  0.33513000  1.0
  O  O140  1  0.54063000  0.22271000  0.12424000  1.0
  O  O141  1  0.45937000  0.77729000  0.87576000  1.0
