# generated using pymatgen
data_SmH24C33(NO3)3
_symmetry_space_group_name_H-M   'P 1'
_cell_length_a   10.32390000
_cell_length_b   11.67910000
_cell_length_c   13.85700000
_cell_angle_alpha   66.77340000
_cell_angle_beta   82.65700000
_cell_angle_gamma   76.94200000
_symmetry_Int_Tables_number   1
_chemical_formula_structural   SmH24C33(NO3)3
_chemical_formula_sum   'Sm2 H48 C66 N6 O18'
_cell_volume   1494.27740980
_cell_formula_units_Z   2
loop_
 _symmetry_equiv_pos_site_id
 _symmetry_equiv_pos_as_xyz
  1  'x, y, z'
loop_
 _atom_site_type_symbol
 _atom_site_label
 _atom_site_symmetry_multiplicity
 _atom_site_fract_x
 _atom_site_fract_y
 _atom_site_fract_z
 _atom_site_occupancy
  Sm  Sm0  1  0.61629000  0.26048000  0.29091000  1.0
  Sm  Sm1  1  0.38371000  0.73952000  0.70909000  1.0
  H  H2  1  0.29582000  0.30034000  0.94752000  1.0
  H  H3  1  0.70419000  0.69966000  0.05249000  1.0
  H  H4  1  0.23380000  0.17805000  0.85663000  1.0
  H  H5  1  0.76620000  0.82195000  0.14337000  1.0
  H  H6  1  0.01656000  0.10822000  0.89798000  1.0
  H  H7  1  0.98344000  0.89178000  0.10202000  1.0
  H  H8  1  0.85301000  0.17400000  0.02581000  1.0
  H  H9  1  0.14700000  0.82599000  0.97419000  1.0
  H  H10  1  0.84707000  0.44076000  0.21618000  1.0
  H  H11  1  0.15293000  0.55923000  0.78382000  1.0
  H  H12  1  0.07183000  0.49322000  0.17600000  1.0
  H  H13  1  0.92817000  0.50678000  0.82400000  1.0
  H  H14  1  0.26143000  0.49659000  0.09665000  1.0
  H  H15  1  0.73857000  0.50342000  0.90334000  1.0
  H  H16  1  0.30727000  0.44571000  0.99148000  1.0
  H  H17  1  0.69272000  0.55430000  0.00851000  1.0
  H  H18  1  0.37761000  0.00444000  0.14882000  1.0
  H  H19  1  0.62239000  0.99556000  0.85118000  1.0
  H  H20  1  0.32301000  0.99580000  0.98573000  1.0
  H  H21  1  0.67699000  0.00420000  0.01427000  1.0
  H  H22  1  0.37353000  0.79184000  0.95619000  1.0
  H  H23  1  0.62646000  0.20816000  0.04382000  1.0
  H  H24  1  0.48278000  0.59389000  0.09576000  1.0
  H  H25  1  0.51721000  0.40611000  0.90425000  1.0
  H  H26  1  0.61925000  0.49026000  0.44176000  1.0
  H  H27  1  0.38075000  0.50974000  0.55824000  1.0
  H  H28  1  0.56100000  0.69822000  0.46314000  1.0
  H  H29  1  0.43900000  0.30177000  0.53686000  1.0
  H  H30  1  0.46418000  0.89840000  0.41345000  1.0
  H  H31  1  0.53583000  0.10160000  0.58655000  1.0
  H  H32  1  0.41636000  0.99674000  0.28403000  1.0
  H  H33  1  0.58364000  0.00326000  0.71597000  1.0
  H  H34  1  0.83804000  0.45228000  0.42749000  1.0
  H  H35  1  0.16196000  0.54772000  0.57251000  1.0
  H  H36  1  0.88341000  0.66552000  0.32468000  1.0
  H  H37  1  0.11659000  0.33448000  0.67532000  1.0
  H  H38  1  0.11590000  0.69649000  0.26181000  1.0
  H  H39  1  0.88409000  0.30351000  0.73818000  1.0
  H  H40  1  0.30260000  0.50802000  0.30473000  1.0
  H  H41  1  0.69740000  0.49197000  0.69527000  1.0
  H  H42  1  0.32862000  0.05870000  0.48490000  1.0
  H  H43  1  0.67138000  0.94130000  0.51511000  1.0
  H  H44  1  0.09893000  0.04151000  0.55414000  1.0
  H  H45  1  0.90106000  0.95849000  0.44586000  1.0
  H  H46  1  0.84148000  0.28483000  0.56398000  1.0
  H  H47  1  0.15851000  0.71517000  0.43602000  1.0
  H  H48  1  0.89917000  0.12073000  0.59511000  1.0
  H  H49  1  0.10083000  0.87927000  0.40489000  1.0
  C  C50  1  0.10644000  0.31287000  0.03517000  1.0
  C  C51  1  0.89356000  0.68712000  0.96484000  1.0
  C  C52  1  0.19828000  0.27454000  0.96409000  1.0
  C  C53  1  0.80172000  0.72547000  0.03591000  1.0
  C  C54  1  0.16436000  0.20426000  0.91421000  1.0
  C  C55  1  0.83564000  0.79574000  0.08579000  1.0
  C  C56  1  0.04015000  0.16608000  0.93635000  1.0
  C  C57  1  0.95986000  0.83392000  0.06365000  1.0
  C  C58  1  0.94989000  0.20158000  0.00692000  1.0
  C  C59  1  0.05011000  0.79841000  0.99308000  1.0
  C  C60  1  0.98002000  0.27684000  0.05640000  1.0
  C  C61  1  0.01999000  0.72315000  0.94361000  1.0
  C  C62  1  0.88202000  0.31911000  0.12657000  1.0
  C  C63  1  0.11798000  0.68088000  0.87344000  1.0
  C  C64  1  0.91823000  0.40093000  0.16732000  1.0
  C  C65  1  0.08178000  0.59906000  0.83269000  1.0
  C  C66  1  0.04213000  0.43139000  0.14470000  1.0
  C  C67  1  0.95788000  0.56861000  0.85530000  1.0
  C  C68  1  0.26831000  0.41594000  0.07332000  1.0
  C  C69  1  0.73169000  0.58406000  0.92668000  1.0
  C  C70  1  0.36631000  0.30145000  0.14404000  1.0
  C  C71  1  0.63370000  0.69857000  0.85596000  1.0
  C  C72  1  0.46257000  0.80184000  0.21823000  1.0
  C  C73  1  0.53743000  0.19816000  0.78177000  1.0
  C  C74  1  0.40101000  0.91388000  0.13884000  1.0
  C  C75  1  0.59899000  0.08612000  0.86116000  1.0
  C  C76  1  0.37025000  0.90873000  0.04635000  1.0
  C  C77  1  0.62975000  0.09128000  0.95365000  1.0
  C  C78  1  0.39840000  0.79433000  0.02933000  1.0
  C  C79  1  0.60160000  0.20567000  0.97067000  1.0
  C  C80  1  0.45964000  0.68435000  0.10612000  1.0
  C  C81  1  0.54036000  0.31566000  0.89388000  1.0
  C  C82  1  0.49416000  0.68611000  0.20081000  1.0
  C  C83  1  0.50584000  0.31389000  0.79919000  1.0
  C  C84  1  0.56366000  0.57114000  0.27908000  1.0
  C  C85  1  0.43634000  0.42886000  0.72092000  1.0
  C  C86  1  0.57901000  0.57641000  0.37706000  1.0
  C  C87  1  0.42099000  0.42359000  0.62294000  1.0
  C  C88  1  0.54578000  0.69049000  0.38985000  1.0
  C  C89  1  0.45422000  0.30951000  0.61015000  1.0
  C  C90  1  0.49078000  0.91676000  0.33020000  1.0
  C  C91  1  0.50922000  0.08324000  0.66980000  1.0
  C  C92  1  0.62794000  0.95572000  0.30371000  1.0
  C  C93  1  0.37206000  0.04428000  0.69628000  1.0
  C  C94  1  0.04496000  0.35661000  0.42702000  1.0
  C  C95  1  0.95504000  0.64339000  0.57299000  1.0
  C  C96  1  0.94008000  0.46339000  0.40201000  1.0
  C  C97  1  0.05992000  0.53660000  0.59799000  1.0
  C  C98  1  0.96569000  0.58391000  0.34378000  1.0
  C  C99  1  0.03430000  0.41608000  0.65622000  1.0
  C  C100  1  0.09683000  0.60155000  0.30893000  1.0
  C  C101  1  0.90317000  0.39845000  0.69107000  1.0
  C  C102  1  0.20051000  0.49756000  0.33208000  1.0
  C  C103  1  0.79949000  0.50244000  0.66791000  1.0
  C  C104  1  0.17710000  0.37360000  0.39004000  1.0
  C  C105  1  0.82290000  0.62640000  0.60996000  1.0
  C  C106  1  0.28651000  0.26440000  0.41013000  1.0
  C  C107  1  0.71349000  0.73559000  0.58987000  1.0
  C  C108  1  0.25176000  0.14389000  0.46623000  1.0
  C  C109  1  0.74823000  0.85611000  0.53377000  1.0
  C  C110  1  0.12395000  0.13354000  0.50489000  1.0
  C  C111  1  0.87605000  0.86646000  0.49511000  1.0
  C  C112  1  0.88900000  0.21416000  0.53035000  1.0
  C  C113  1  0.11099000  0.78584000  0.46965000  1.0
  C  C114  1  0.79770000  0.21501000  0.45061000  1.0
  C  C115  1  0.20230000  0.78499000  0.54939000  1.0
  N  N116  1  0.13507000  0.38924000  0.08188000  1.0
  N  N117  1  0.86493000  0.61076000  0.91812000  1.0
  N  N118  1  0.49273000  0.80056000  0.31365000  1.0
  N  N119  1  0.50727000  0.19944000  0.68635000  1.0
  N  N120  1  0.02232000  0.23504000  0.48754000  1.0
  N  N121  1  0.97768000  0.76496000  0.51246000  1.0
  O  O122  1  0.76841000  0.28580000  0.14696000  1.0
  O  O123  1  0.23159000  0.71419000  0.85304000  1.0
  O  O124  1  0.33416000  0.19561000  0.18638000  1.0
  O  O125  1  0.66585000  0.80440000  0.81362000  1.0
  O  O126  1  0.47638000  0.33105000  0.15155000  1.0
  O  O127  1  0.52363000  0.66898000  0.84844000  1.0
  O  O128  1  0.60853000  0.47126000  0.25838000  1.0
  O  O129  1  0.39148000  0.52874000  0.74162000  1.0
  O  O130  1  0.72327000  0.89376000  0.27007000  1.0
  O  O131  1  0.27673000  0.10624000  0.72992000  1.0
  O  O132  1  0.62910000  0.05481000  0.32313000  1.0
  O  O133  1  0.37090000  0.94519000  0.67686000  1.0
  O  O134  1  0.40634000  0.27883000  0.38119000  1.0
  O  O135  1  0.59365000  0.72117000  0.61882000  1.0
  O  O136  1  0.84801000  0.19066000  0.37098000  1.0
  O  O137  1  0.15199000  0.80934000  0.62902000  1.0
  O  O138  1  0.67280000  0.23944000  0.47030000  1.0
  O  O139  1  0.32720000  0.76056000  0.52970000  1.0
