# generated using pymatgen
data_NiH9C10NO5
_symmetry_space_group_name_H-M   'P 1'
_cell_length_a   9.67404000
_cell_length_b   10.46550000
_cell_length_c   23.57550000
_cell_angle_alpha   90.00000000
_cell_angle_beta   90.00010000
_cell_angle_gamma   89.99990000
_symmetry_Int_Tables_number   1
_chemical_formula_structural   NiH9C10NO5
_chemical_formula_sum   'Ni8 H72 C80 N8 O40'
_cell_volume   2386.87003882
_cell_formula_units_Z   8
loop_
 _symmetry_equiv_pos_site_id
 _symmetry_equiv_pos_as_xyz
  1  'x, y, z'
loop_
 _atom_site_type_symbol
 _atom_site_label
 _atom_site_symmetry_multiplicity
 _atom_site_fract_x
 _atom_site_fract_y
 _atom_site_fract_z
 _atom_site_occupancy
  Ni  Ni0  1  0.38570000  0.49278000  0.78856000  1.0
  Ni  Ni1  1  0.35723000  0.00301000  0.71257000  1.0
  Ni  Ni2  1  0.61430000  0.49278000  0.21144000  1.0
  Ni  Ni3  1  0.64277000  0.00302000  0.28743000  1.0
  Ni  Ni4  1  0.88571000  0.50722000  0.71144000  1.0
  Ni  Ni5  1  0.85723000  0.99698000  0.78743000  1.0
  Ni  Ni6  1  0.11430000  0.50722000  0.28856000  1.0
  Ni  Ni7  1  0.14277000  0.99698000  0.21257000  1.0
  H  H8  1  0.24844000  0.40781000  0.64216000  1.0
  H  H9  1  0.19737000  0.52348000  0.72421000  1.0
  H  H10  1  0.45541000  0.52839000  0.61747000  1.0
  H  H11  1  0.49600000  0.36398000  0.61919000  1.0
  H  H12  1  0.42832000  0.08070000  0.86863000  1.0
  H  H13  1  0.31535000  0.16145000  0.78973000  1.0
  H  H14  1  0.29190000  0.87777000  0.86583000  1.0
  H  H15  1  0.47192000  0.85455000  0.87767000  1.0
  H  H16  1  0.46834000  0.60217000  0.90071000  1.0
  H  H17  1  0.62000000  0.53620000  0.98244000  1.0
  H  H18  1  0.68595000  0.17816000  0.89389000  1.0
  H  H19  1  0.54610000  0.26529000  0.81614000  1.0
  H  H20  1  0.76437000  0.38128000  0.02765000  1.0
  H  H21  1  0.75626000  0.11082000  0.97580000  1.0
  H  H22  1  0.02123000  0.87794000  0.10984000  1.0
  H  H23  1  0.86617000  0.94461000  0.02962000  1.0
  H  H24  1  0.88838000  0.32933000  0.09592000  1.0
  H  H25  1  0.04660000  0.24671000  0.17066000  1.0
  H  H26  1  0.75156000  0.40781000  0.35784000  1.0
  H  H27  1  0.80263000  0.52348000  0.27579000  1.0
  H  H28  1  0.54459000  0.52839000  0.38252000  1.0
  H  H29  1  0.50400000  0.36398000  0.38081000  1.0
  H  H30  1  0.57168000  0.08070000  0.13137000  1.0
  H  H31  1  0.68465000  0.16144000  0.21027000  1.0
  H  H32  1  0.70810000  0.87777000  0.13417000  1.0
  H  H33  1  0.52808000  0.85455000  0.12233000  1.0
  H  H34  1  0.53166000  0.60217000  0.09929000  1.0
  H  H35  1  0.38000000  0.53620000  0.01756000  1.0
  H  H36  1  0.31405000  0.17816000  0.10611000  1.0
  H  H37  1  0.45390000  0.26529000  0.18386000  1.0
  H  H38  1  0.23562000  0.38128000  0.97235000  1.0
  H  H39  1  0.24374000  0.11082000  0.02420000  1.0
  H  H40  1  0.97878000  0.87794000  0.89016000  1.0
  H  H41  1  0.13383000  0.94461000  0.97038000  1.0
  H  H42  1  0.11162000  0.32933000  0.90408000  1.0
  H  H43  1  0.95340000  0.24672000  0.82934000  1.0
  H  H44  1  0.74845000  0.59219000  0.85784000  1.0
  H  H45  1  0.69737000  0.47652000  0.77579000  1.0
  H  H46  1  0.95541000  0.47161000  0.88253000  1.0
  H  H47  1  0.99600000  0.63602000  0.88081000  1.0
  H  H48  1  0.92832000  0.91930000  0.63137000  1.0
  H  H49  1  0.81535000  0.83856000  0.71027000  1.0
  H  H50  1  0.79190000  0.12223000  0.63417000  1.0
  H  H51  1  0.97192000  0.14545000  0.62233000  1.0
  H  H52  1  0.96834000  0.39784000  0.59929000  1.0
  H  H53  1  0.11999000  0.46380000  0.51756000  1.0
  H  H54  1  0.18595000  0.82185000  0.60611000  1.0
  H  H55  1  0.04610000  0.73472000  0.68386000  1.0
  H  H56  1  0.26437000  0.61872000  0.47235000  1.0
  H  H57  1  0.25626000  0.88918000  0.52420000  1.0
  H  H58  1  0.52122000  0.12206000  0.39016000  1.0
  H  H59  1  0.36616000  0.05539000  0.47038000  1.0
  H  H60  1  0.38838000  0.67067000  0.40408000  1.0
  H  H61  1  0.54660000  0.75329000  0.32934000  1.0
  H  H62  1  0.25156000  0.59219000  0.14216000  1.0
  H  H63  1  0.30263000  0.47651000  0.22421000  1.0
  H  H64  1  0.04459000  0.47161000  0.11747000  1.0
  H  H65  1  0.00400000  0.63602000  0.11919000  1.0
  H  H66  1  0.07168000  0.91930000  0.36863000  1.0
  H  H67  1  0.18465000  0.83855000  0.28973000  1.0
  H  H68  1  0.20810000  0.12223000  0.36583000  1.0
  H  H69  1  0.02808000  0.14545000  0.37767000  1.0
  H  H70  1  0.03167000  0.39784000  0.40071000  1.0
  H  H71  1  0.88000000  0.46380000  0.48244000  1.0
  H  H72  1  0.81405000  0.82185000  0.39389000  1.0
  H  H73  1  0.95390000  0.73471000  0.31614000  1.0
  H  H74  1  0.73562000  0.61872000  0.52765000  1.0
  H  H75  1  0.74374000  0.88918000  0.47580000  1.0
  H  H76  1  0.47878000  0.12206000  0.60984000  1.0
  H  H77  1  0.63383000  0.05539000  0.52962000  1.0
  H  H78  1  0.61162000  0.67067000  0.59592000  1.0
  H  H79  1  0.45340000  0.75329000  0.67066000  1.0
  C  C80  1  0.33264000  0.29458000  0.70889000  1.0
  C  C81  1  0.32875000  0.41966000  0.67481000  1.0
  C  C82  1  0.46688000  0.44576000  0.64589000  1.0
  C  C83  1  0.58712000  0.47163000  0.68614000  1.0
  C  C84  1  0.55738000  0.03454000  0.79653000  1.0
  C  C85  1  0.42064000  0.02284000  0.82969000  1.0
  C  C86  1  0.39493000  0.88415000  0.84612000  1.0
  C  C87  1  0.39673000  0.78740000  0.79752000  1.0
  C  C88  1  0.51817000  0.50890000  0.90241000  1.0
  C  C89  1  0.60215000  0.47116000  0.94710000  1.0
  C  C90  1  0.66174000  0.34844000  0.94755000  1.0
  C  C91  1  0.63989000  0.27238000  0.89918000  1.0
  C  C92  1  0.55954000  0.31918000  0.85520000  1.0
  C  C93  1  0.74111000  0.30691000  0.99648000  1.0
  C  C94  1  0.78332000  0.18556000  0.00628000  1.0
  C  C95  1  0.99015000  0.97722000  0.10399000  1.0
  C  C96  1  0.90372000  0.01511000  0.06003000  1.0
  C  C97  1  0.86622000  0.14437000  0.05433000  1.0
  C  C98  1  0.91701000  0.22867000  0.09585000  1.0
  C  C99  1  0.00414000  0.18407000  0.13804000  1.0
  C  C100  1  0.66736000  0.29458000  0.29111000  1.0
  C  C101  1  0.67125000  0.41966000  0.32519000  1.0
  C  C102  1  0.53311000  0.44576000  0.35411000  1.0
  C  C103  1  0.41288000  0.47163000  0.31386000  1.0
  C  C104  1  0.44262000  0.03454000  0.20347000  1.0
  C  C105  1  0.57936000  0.02284000  0.17031000  1.0
  C  C106  1  0.60507000  0.88414000  0.15388000  1.0
  C  C107  1  0.60327000  0.78740000  0.20247000  1.0
  C  C108  1  0.48183000  0.50890000  0.09759000  1.0
  C  C109  1  0.39785000  0.47117000  0.05290000  1.0
  C  C110  1  0.33826000  0.34844000  0.05245000  1.0
  C  C111  1  0.36011000  0.27238000  0.10082000  1.0
  C  C112  1  0.44046000  0.31918000  0.14480000  1.0
  C  C113  1  0.25889000  0.30691000  0.00352000  1.0
  C  C114  1  0.21668000  0.18556000  0.99373000  1.0
  C  C115  1  0.00985000  0.97722000  0.89601000  1.0
  C  C116  1  0.09628000  0.01510000  0.93997000  1.0
  C  C117  1  0.13378000  0.14437000  0.94567000  1.0
  C  C118  1  0.08299000  0.22867000  0.90415000  1.0
  C  C119  1  0.99586000  0.18407000  0.86197000  1.0
  C  C120  1  0.83264000  0.70543000  0.79112000  1.0
  C  C121  1  0.82875000  0.58034000  0.82519000  1.0
  C  C122  1  0.96689000  0.55424000  0.85411000  1.0
  C  C123  1  0.08712000  0.52837000  0.81387000  1.0
  C  C124  1  0.05736000  0.96545000  0.70349000  1.0
  C  C125  1  0.92064000  0.97716000  0.67031000  1.0
  C  C126  1  0.89493000  0.11585000  0.65388000  1.0
  C  C127  1  0.89673000  0.21260000  0.70248000  1.0
  C  C128  1  0.01817000  0.49110000  0.59759000  1.0
  C  C129  1  0.10215000  0.52884000  0.55290000  1.0
  C  C130  1  0.16174000  0.65156000  0.55245000  1.0
  C  C131  1  0.13989000  0.72762000  0.60082000  1.0
  C  C132  1  0.05954000  0.68082000  0.64480000  1.0
  C  C133  1  0.24111000  0.69309000  0.50352000  1.0
  C  C134  1  0.28332000  0.81444000  0.49373000  1.0
  C  C135  1  0.49015000  0.02278000  0.39601000  1.0
  C  C136  1  0.40372000  0.98490000  0.43997000  1.0
  C  C137  1  0.36622000  0.85563000  0.44567000  1.0
  C  C138  1  0.41701000  0.77133000  0.40415000  1.0
  C  C139  1  0.50414000  0.81593000  0.36196000  1.0
  C  C140  1  0.16736000  0.70543000  0.20888000  1.0
  C  C141  1  0.17125000  0.58034000  0.17481000  1.0
  C  C142  1  0.03312000  0.55424000  0.14589000  1.0
  C  C143  1  0.91288000  0.52837000  0.18613000  1.0
  C  C144  1  0.94264000  0.96545000  0.29651000  1.0
  C  C145  1  0.07936000  0.97716000  0.32969000  1.0
  C  C146  1  0.10507000  0.11586000  0.34612000  1.0
  C  C147  1  0.10327000  0.21260000  0.29752000  1.0
  C  C148  1  0.98183000  0.49110000  0.40241000  1.0
  C  C149  1  0.89785000  0.52884000  0.44710000  1.0
  C  C150  1  0.83826000  0.65156000  0.44755000  1.0
  C  C151  1  0.86011000  0.72762000  0.39918000  1.0
  C  C152  1  0.94046000  0.68082000  0.35520000  1.0
  C  C153  1  0.75889000  0.69309000  0.49648000  1.0
  C  C154  1  0.71668000  0.81444000  0.50627000  1.0
  C  C155  1  0.50985000  0.02278000  0.60399000  1.0
  C  C156  1  0.59628000  0.98489000  0.56003000  1.0
  C  C157  1  0.63378000  0.85563000  0.55433000  1.0
  C  C158  1  0.58300000  0.77133000  0.59585000  1.0
  C  C159  1  0.49586000  0.81593000  0.63804000  1.0
  N  N160  1  0.49600000  0.43380000  0.85685000  1.0
  N  N161  1  0.04196000  0.06015000  0.14210000  1.0
  N  N162  1  0.50401000  0.43380000  0.14315000  1.0
  N  N163  1  0.95804000  0.06015000  0.85790000  1.0
  N  N164  1  0.99599000  0.56620000  0.64315000  1.0
  N  N165  1  0.54196000  0.93985000  0.35790000  1.0
  N  N166  1  0.00401000  0.56620000  0.35685000  1.0
  N  N167  1  0.45804000  0.93985000  0.64210000  1.0
  O  O168  1  0.33119000  0.30475000  0.76320000  1.0
  O  O169  1  0.33666000  0.19231000  0.68081000  1.0
  O  O170  1  0.29685000  0.52755000  0.70961000  1.0
  O  O171  1  0.56591000  0.47138000  0.73991000  1.0
  O  O172  1  0.70421000  0.49017000  0.66370000  1.0
  O  O173  1  0.54862000  0.05048000  0.74344000  1.0
  O  O174  1  0.66856000  0.02550000  0.82496000  1.0
  O  O175  1  0.30657000  0.06649000  0.79614000  1.0
  O  O176  1  0.36778000  0.82016000  0.74721000  1.0
  O  O177  1  0.42618000  0.67400000  0.81333000  1.0
  O  O178  1  0.66881000  0.30475000  0.23680000  1.0
  O  O179  1  0.66334000  0.19231000  0.31919000  1.0
  O  O180  1  0.70315000  0.52754000  0.29038000  1.0
  O  O181  1  0.43409000  0.47138000  0.26008000  1.0
  O  O182  1  0.29579000  0.49016000  0.33630000  1.0
  O  O183  1  0.45138000  0.05048000  0.25656000  1.0
  O  O184  1  0.33144000  0.02550000  0.17504000  1.0
  O  O185  1  0.69343000  0.06649000  0.20385000  1.0
  O  O186  1  0.63223000  0.82016000  0.25279000  1.0
  O  O187  1  0.57383000  0.67400000  0.18667000  1.0
  O  O188  1  0.83119000  0.69524000  0.73680000  1.0
  O  O189  1  0.83666000  0.80768000  0.81918000  1.0
  O  O190  1  0.79685000  0.47245000  0.79038000  1.0
  O  O191  1  0.06591000  0.52862000  0.76008000  1.0
  O  O192  1  0.20421000  0.50983000  0.83630000  1.0
  O  O193  1  0.04862000  0.94952000  0.75655000  1.0
  O  O194  1  0.16857000  0.97450000  0.67504000  1.0
  O  O195  1  0.80657000  0.93351000  0.70386000  1.0
  O  O196  1  0.86778000  0.17984000  0.75279000  1.0
  O  O197  1  0.92618000  0.32600000  0.68667000  1.0
  O  O198  1  0.16881000  0.69524000  0.26320000  1.0
  O  O199  1  0.16334000  0.80768000  0.18082000  1.0
  O  O200  1  0.20315000  0.47245000  0.20961000  1.0
  O  O201  1  0.93409000  0.52862000  0.23992000  1.0
  O  O202  1  0.79579000  0.50983000  0.16370000  1.0
  O  O203  1  0.95138000  0.94952000  0.24345000  1.0
  O  O204  1  0.83143000  0.97450000  0.32496000  1.0
  O  O205  1  0.19343000  0.93351000  0.29615000  1.0
  O  O206  1  0.13223000  0.17984000  0.24721000  1.0
  O  O207  1  0.07382000  0.32600000  0.31333000  1.0
