# generated using pymatgen
data_H9Pb2C15NO10
_symmetry_space_group_name_H-M   'P 1'
_cell_length_a   8.14542000
_cell_length_b   10.18540000
_cell_length_c   10.33720000
_cell_angle_alpha   92.44310000
_cell_angle_beta   106.99100000
_cell_angle_gamma   97.74720000
_symmetry_Int_Tables_number   1
_chemical_formula_structural   H9Pb2C15NO10
_chemical_formula_sum   'H18 Pb4 C30 N2 O20'
_cell_volume   809.64859090
_cell_formula_units_Z   2
loop_
 _symmetry_equiv_pos_site_id
 _symmetry_equiv_pos_as_xyz
  1  'x, y, z'
loop_
 _atom_site_type_symbol
 _atom_site_label
 _atom_site_symmetry_multiplicity
 _atom_site_fract_x
 _atom_site_fract_y
 _atom_site_fract_z
 _atom_site_occupancy
  H  H0  1  0.08950000  0.75754000  0.41416000  1.0
  H  H1  1  0.91051000  0.24243000  0.58585000  1.0
  H  H2  1  0.13937000  0.34500000  0.36275000  1.0
  H  H3  1  0.86065000  0.65497000  0.63723000  1.0
  H  H4  1  0.80680000  0.84621000  0.75837000  1.0
  H  H5  1  0.19320000  0.15378000  0.24161000  1.0
  H  H6  1  0.17003000  0.13756000  0.64405000  1.0
  H  H7  1  0.82995000  0.86248000  0.35596000  1.0
  H  H8  1  0.86972000  0.99978000  0.58706000  1.0
  H  H9  1  0.13027000  0.00025000  0.41295000  1.0
  H  H10  1  0.48511000  0.59243000  0.70649000  1.0
  H  H11  1  0.51489000  0.40752000  0.29351000  1.0
  H  H12  1  0.34337000  0.96128000  0.00161000  1.0
  H  H13  1  0.65660000  0.03876000  0.99840000  1.0
  H  H14  1  0.53864000  0.73251000  0.03756000  1.0
  H  H15  1  0.46137000  0.26750000  0.96245000  1.0
  H  H16  1  0.46917000  0.71729000  0.87942000  1.0
  H  H17  1  0.53084000  0.28272000  0.12059000  1.0
  Pb  Pb18  1  0.74180000  0.51326000  0.95628000  1.0
  Pb  Pb19  1  0.25823000  0.48675000  0.04372000  1.0
  Pb  Pb20  1  0.58809000  0.11813000  0.69390000  1.0
  Pb  Pb21  1  0.41190000  0.88187000  0.30610000  1.0
  C  C22  1  0.29544000  0.68998000  0.56982000  1.0
  C  C23  1  0.70457000  0.30999000  0.43018000  1.0
  C  C24  1  0.15437000  0.67366000  0.45090000  1.0
  C  C25  1  0.84565000  0.32631000  0.54910000  1.0
  C  C26  1  0.31582000  0.45542000  0.54384000  1.0
  C  C27  1  0.68419000  0.54455000  0.45615000  1.0
  C  C28  1  0.37673000  0.82465000  0.64010000  1.0
  C  C29  1  0.62326000  0.17533000  0.35990000  1.0
  C  C30  1  0.18070000  0.44107000  0.42197000  1.0
  C  C31  1  0.81932000  0.55890000  0.57802000  1.0
  C  C32  1  0.40551000  0.34119000  0.59601000  1.0
  C  C33  1  0.59450000  0.65878000  0.40398000  1.0
  C  C34  1  0.09935000  0.55016000  0.37569000  1.0
  C  C35  1  0.90067000  0.44981000  0.62430000  1.0
  C  C36  1  0.93463000  0.90474000  0.77551000  1.0
  C  C37  1  0.06536000  0.09528000  0.22448000  1.0
  C  C38  1  0.06783000  0.89218000  0.89350000  1.0
  C  C39  1  0.93215000  0.10785000  0.10650000  1.0
  C  C40  1  0.96317000  0.53802000  0.24074000  1.0
  C  C41  1  0.03685000  0.46198000  0.75927000  1.0
  C  C42  1  0.13128000  0.06690000  0.70968000  1.0
  C  C43  1  0.86870000  0.93314000  0.29033000  1.0
  C  C44  1  0.96883000  0.99080000  0.68208000  1.0
  C  C45  1  0.03116000  0.00923000  0.31792000  1.0
  C  C46  1  0.37358000  0.58027000  0.61591000  1.0
  C  C47  1  0.62642000  0.41970000  0.38409000  1.0
  C  C48  1  0.23043000  0.96731000  0.91561000  1.0
  C  C49  1  0.76954000  0.03273000  0.08440000  1.0
  C  C50  1  0.03651000  0.79347000  0.99244000  1.0
  C  C51  1  0.96348000  0.20655000  0.00756000  1.0
  N  N52  1  0.25773000  0.05419000  0.82570000  1.0
  N  N53  1  0.74225000  0.94585000  0.17431000  1.0
  O  O54  1  0.41438000  0.12776000  0.85220000  1.0
  O  O55  1  0.58561000  0.87227000  0.14780000  1.0
  O  O56  1  0.98707000  0.46178000  0.14631000  1.0
  O  O57  1  0.01295000  0.53822000  0.85368000  1.0
  O  O58  1  0.35362000  0.92420000  0.56686000  1.0
  O  O59  1  0.64635000  0.07577000  0.43315000  1.0
  O  O60  1  0.46905000  0.83665000  0.76306000  1.0
  O  O61  1  0.53093000  0.16334000  0.23695000  1.0
  O  O62  1  0.53853000  0.36239000  0.70130000  1.0
  O  O63  1  0.46149000  0.63759000  0.29868000  1.0
  O  O64  1  0.87798000  0.74919000  0.97638000  1.0
  O  O65  1  0.12201000  0.25082000  0.02361000  1.0
  O  O66  1  0.83588000  0.60028000  0.22069000  1.0
  O  O67  1  0.16414000  0.39972000  0.77933000  1.0
  O  O68  1  0.16747000  0.76198000  0.08011000  1.0
  O  O69  1  0.83252000  0.23805000  0.91989000  1.0
  O  O70  1  0.34844000  0.22539000  0.53319000  1.0
  O  O71  1  0.65155000  0.77458000  0.46681000  1.0
  O  O72  1  0.48995000  0.66294000  0.95964000  1.0
  O  O73  1  0.51006000  0.33707000  0.04037000  1.0
