# generated using pymatgen
data_CdH24C36(N3Cl)2
_symmetry_space_group_name_H-M   'P 1'
_cell_length_a   12.47040000
_cell_length_b   19.15560000
_cell_length_c   20.78270000
_cell_angle_alpha   75.54400000
_cell_angle_beta   89.99980000
_cell_angle_gamma   89.99990000
_symmetry_Int_Tables_number   1
_chemical_formula_structural   CdH24C36(N3Cl)2
_chemical_formula_sum   'Cd4 H96 C144 N24 Cl8'
_cell_volume   4807.35085848
_cell_formula_units_Z   4
loop_
 _symmetry_equiv_pos_site_id
 _symmetry_equiv_pos_as_xyz
  1  'x, y, z'
loop_
 _atom_site_type_symbol
 _atom_site_label
 _atom_site_symmetry_multiplicity
 _atom_site_fract_x
 _atom_site_fract_y
 _atom_site_fract_z
 _atom_site_occupancy
  Cd  Cd0  1  0.50162000  0.07878000  0.29752000  1.0
  Cd  Cd1  1  0.99838000  0.57878000  0.29752000  1.0
  Cd  Cd2  1  0.00162000  0.42121000  0.70248000  1.0
  Cd  Cd3  1  0.49838000  0.92122000  0.70248000  1.0
  H  H4  1  0.05906000  0.25084000  0.66064000  1.0
  H  H5  1  0.14893000  0.31201000  0.55715000  1.0
  H  H6  1  0.10713000  0.12151000  0.48291000  1.0
  H  H7  1  0.02001000  0.05920000  0.58871000  1.0
  H  H8  1  0.90328000  0.08509000  0.97000000  1.0
  H  H9  1  0.86508000  0.02568000  0.08797000  1.0
  H  H10  1  0.77405000  0.83139000  0.03293000  1.0
  H  H11  1  0.81031000  0.89124000  0.91394000  1.0
  H  H12  1  0.33156000  0.20558000  0.26617000  1.0
  H  H13  1  0.21065000  0.27874000  0.31849000  1.0
  H  H14  1  0.31547000  0.14859000  0.50949000  1.0
  H  H15  1  0.43992000  0.08577000  0.44818000  1.0
  H  H16  1  0.22465000  0.48835000  0.31948000  1.0
  H  H17  1  0.29964000  0.36721000  0.37485000  1.0
  H  H18  1  0.98468000  0.30916000  0.45868000  1.0
  H  H19  1  0.92712000  0.43603000  0.40504000  1.0
  H  H20  1  0.04682000  0.71182000  0.16843000  1.0
  H  H21  1  0.97940000  0.83446000  0.10829000  1.0
  H  H22  1  0.69857000  0.79193000  0.23420000  1.0
  H  H23  1  0.78068000  0.67286000  0.29022000  1.0
  H  H24  1  0.52130000  0.04858000  0.15479000  1.0
  H  H25  1  0.62836000  0.98035000  0.08792000  1.0
  H  H26  1  0.81997000  0.89687000  0.26382000  1.0
  H  H27  1  0.71065000  0.97357000  0.32066000  1.0
  H  H28  1  0.44093000  0.75083000  0.66064000  1.0
  H  H29  1  0.35107000  0.81200000  0.55715000  1.0
  H  H30  1  0.39286000  0.62150000  0.48291000  1.0
  H  H31  1  0.47998000  0.55920000  0.58871000  1.0
  H  H32  1  0.59672000  0.58510000  0.97000000  1.0
  H  H33  1  0.63493000  0.52569000  0.08798000  1.0
  H  H34  1  0.72594000  0.33140000  0.03292000  1.0
  H  H35  1  0.68967000  0.39125000  0.91394000  1.0
  H  H36  1  0.16844000  0.70559000  0.26616000  1.0
  H  H37  1  0.28936000  0.77873000  0.31849000  1.0
  H  H38  1  0.18452000  0.64858000  0.50949000  1.0
  H  H39  1  0.06007000  0.58577000  0.44818000  1.0
  H  H40  1  0.27535000  0.98835000  0.31948000  1.0
  H  H41  1  0.20036000  0.86721000  0.37484000  1.0
  H  H42  1  0.51532000  0.80916000  0.45868000  1.0
  H  H43  1  0.57287000  0.93603000  0.40504000  1.0
  H  H44  1  0.45319000  0.21182000  0.16842000  1.0
  H  H45  1  0.52060000  0.33446000  0.10829000  1.0
  H  H46  1  0.80144000  0.29193000  0.23420000  1.0
  H  H47  1  0.71934000  0.17286000  0.29022000  1.0
  H  H48  1  0.97871000  0.54858000  0.15479000  1.0
  H  H49  1  0.87165000  0.48034000  0.08792000  1.0
  H  H50  1  0.68004000  0.39687000  0.26382000  1.0
  H  H51  1  0.78936000  0.47357000  0.32066000  1.0
  H  H52  1  0.55907000  0.24916000  0.33935000  1.0
  H  H53  1  0.64893000  0.18799000  0.44285000  1.0
  H  H54  1  0.60713000  0.37849000  0.51709000  1.0
  H  H55  1  0.52002000  0.44080000  0.41129000  1.0
  H  H56  1  0.40328000  0.41490000  0.03000000  1.0
  H  H57  1  0.36507000  0.47432000  0.91203000  1.0
  H  H58  1  0.27406000  0.66861000  0.96707000  1.0
  H  H59  1  0.31032000  0.60876000  0.08606000  1.0
  H  H60  1  0.83156000  0.29441000  0.73383000  1.0
  H  H61  1  0.71065000  0.22126000  0.68151000  1.0
  H  H62  1  0.81547000  0.35141000  0.49051000  1.0
  H  H63  1  0.93992000  0.41423000  0.55181000  1.0
  H  H64  1  0.72466000  0.01164000  0.68052000  1.0
  H  H65  1  0.79964000  0.13278000  0.62515000  1.0
  H  H66  1  0.48468000  0.19084000  0.54132000  1.0
  H  H67  1  0.42713000  0.06397000  0.59496000  1.0
  H  H68  1  0.54681000  0.78818000  0.83158000  1.0
  H  H69  1  0.47940000  0.66554000  0.89171000  1.0
  H  H70  1  0.19857000  0.70807000  0.76580000  1.0
  H  H71  1  0.28067000  0.82714000  0.70978000  1.0
  H  H72  1  0.02130000  0.45142000  0.84521000  1.0
  H  H73  1  0.12836000  0.51965000  0.91208000  1.0
  H  H74  1  0.31996000  0.60313000  0.73618000  1.0
  H  H75  1  0.21065000  0.52643000  0.67934000  1.0
  H  H76  1  0.94093000  0.74916000  0.33936000  1.0
  H  H77  1  0.85107000  0.68800000  0.44285000  1.0
  H  H78  1  0.89287000  0.87849000  0.51709000  1.0
  H  H79  1  0.97999000  0.94080000  0.41129000  1.0
  H  H80  1  0.09672000  0.91490000  0.02999000  1.0
  H  H81  1  0.13493000  0.97432000  0.91202000  1.0
  H  H82  1  0.22594000  0.16860000  0.96708000  1.0
  H  H83  1  0.18968000  0.10875000  0.08606000  1.0
  H  H84  1  0.66843000  0.79442000  0.73383000  1.0
  H  H85  1  0.78935000  0.72127000  0.68151000  1.0
  H  H86  1  0.68453000  0.85141000  0.49051000  1.0
  H  H87  1  0.56008000  0.91423000  0.55181000  1.0
  H  H88  1  0.77535000  0.51165000  0.68053000  1.0
  H  H89  1  0.70036000  0.63279000  0.62516000  1.0
  H  H90  1  0.01533000  0.69083000  0.54132000  1.0
  H  H91  1  0.07288000  0.56397000  0.59496000  1.0
  H  H92  1  0.95319000  0.28818000  0.83157000  1.0
  H  H93  1  0.02060000  0.16554000  0.89171000  1.0
  H  H94  1  0.30144000  0.20807000  0.76580000  1.0
  H  H95  1  0.21933000  0.32714000  0.70978000  1.0
  H  H96  1  0.47871000  0.95143000  0.84521000  1.0
  H  H97  1  0.37165000  0.01966000  0.91208000  1.0
  H  H98  1  0.18003000  0.10313000  0.73618000  1.0
  H  H99  1  0.28936000  0.02643000  0.67934000  1.0
  C  C100  1  0.98569000  0.11579000  0.69361000  1.0
  C  C101  1  0.94969000  0.08662000  0.74883000  1.0
  C  C102  1  0.91531000  0.05459000  0.81049000  1.0
  C  C103  1  0.88713000  0.02531000  0.86746000  1.0
  C  C104  1  0.03337000  0.15046000  0.63252000  1.0
  C  C105  1  0.07032000  0.22223000  0.62204000  1.0
  C  C106  1  0.12125000  0.25658000  0.56340000  1.0
  C  C107  1  0.13451000  0.22045000  0.51291000  1.0
  C  C108  1  0.09738000  0.14938000  0.52229000  1.0
  C  C109  1  0.04813000  0.11449000  0.58147000  1.0
  C  C110  1  0.86057000  0.99200000  0.93384000  1.0
  C  C111  1  0.87377000  0.02980000  0.98367000  1.0
  C  C112  1  0.85271000  0.99664000  0.04969000  1.0
  C  C113  1  0.81712000  0.92492000  0.06773000  1.0
  C  C114  1  0.80299000  0.88685000  0.01874000  1.0
  C  C115  1  0.82413000  0.91983000  0.95246000  1.0
  C  C116  1  0.32825000  0.19680000  0.32005000  1.0
  C  C117  1  0.25971000  0.23658000  0.34951000  1.0
  C  C118  1  0.25334000  0.22038000  0.41919000  1.0
  C  C119  1  0.31853000  0.16432000  0.45547000  1.0
  C  C120  1  0.38629000  0.12834000  0.42161000  1.0
  C  C121  1  0.17516000  0.44720000  0.35205000  1.0
  C  C122  1  0.21591000  0.37936000  0.38216000  1.0
  C  C123  1  0.14719000  0.32748000  0.42094000  1.0
  C  C124  1  0.04078000  0.34751000  0.42895000  1.0
  C  C125  1  0.00827000  0.41721000  0.39873000  1.0
  C  C126  1  0.97001000  0.73261000  0.18109000  1.0
  C  C127  1  0.93189000  0.79993000  0.14753000  1.0
  C  C128  1  0.83327000  0.82383000  0.16668000  1.0
  C  C129  1  0.77634000  0.77675000  0.21814000  1.0
  C  C130  1  0.82095000  0.71049000  0.24903000  1.0
  C  C131  1  0.58996000  0.01521000  0.17603000  1.0
  C  C132  1  0.64815000  0.97647000  0.13972000  1.0
  C  C133  1  0.73190000  0.93177000  0.17107000  1.0
  C  C134  1  0.75426000  0.92933000  0.23779000  1.0
  C  C135  1  0.69333000  0.97120000  0.26967000  1.0
  C  C136  1  0.51431000  0.61579000  0.69361000  1.0
  C  C137  1  0.55029000  0.58660000  0.74883000  1.0
  C  C138  1  0.58466000  0.55459000  0.81049000  1.0
  C  C139  1  0.61284000  0.52531000  0.86746000  1.0
  C  C140  1  0.46663000  0.65046000  0.63252000  1.0
  C  C141  1  0.42967000  0.72223000  0.62203000  1.0
  C  C142  1  0.37875000  0.75658000  0.56340000  1.0
  C  C143  1  0.36548000  0.72045000  0.51291000  1.0
  C  C144  1  0.40261000  0.64938000  0.52229000  1.0
  C  C145  1  0.45186000  0.61449000  0.58146000  1.0
  C  C146  1  0.63940000  0.49200000  0.93385000  1.0
  C  C147  1  0.62622000  0.52981000  0.98368000  1.0
  C  C148  1  0.64729000  0.49665000  0.04969000  1.0
  C  C149  1  0.68288000  0.42493000  0.06773000  1.0
  C  C150  1  0.69700000  0.38685000  0.01874000  1.0
  C  C151  1  0.67585000  0.41983000  0.95247000  1.0
  C  C152  1  0.17175000  0.69679000  0.32005000  1.0
  C  C153  1  0.24029000  0.73658000  0.34951000  1.0
  C  C154  1  0.24666000  0.72037000  0.41919000  1.0
  C  C155  1  0.18146000  0.66432000  0.45547000  1.0
  C  C156  1  0.11371000  0.62833000  0.42161000  1.0
  C  C157  1  0.32484000  0.94720000  0.35205000  1.0
  C  C158  1  0.28409000  0.87936000  0.38216000  1.0
  C  C159  1  0.35281000  0.82748000  0.42095000  1.0
  C  C160  1  0.45922000  0.84751000  0.42895000  1.0
  C  C161  1  0.49172000  0.91720000  0.39873000  1.0
  C  C162  1  0.53000000  0.23261000  0.18109000  1.0
  C  C163  1  0.56811000  0.29993000  0.14753000  1.0
  C  C164  1  0.66673000  0.32383000  0.16668000  1.0
  C  C165  1  0.72367000  0.27675000  0.21814000  1.0
  C  C166  1  0.67906000  0.21049000  0.24903000  1.0
  C  C167  1  0.91005000  0.51521000  0.17603000  1.0
  C  C168  1  0.85185000  0.47647000  0.13971000  1.0
  C  C169  1  0.76810000  0.43177000  0.17107000  1.0
  C  C170  1  0.74575000  0.42933000  0.23779000  1.0
  C  C171  1  0.80667000  0.47121000  0.26967000  1.0
  C  C172  1  0.48568000  0.38421000  0.30639000  1.0
  C  C173  1  0.44970000  0.41340000  0.25117000  1.0
  C  C174  1  0.41532000  0.44541000  0.18951000  1.0
  C  C175  1  0.38715000  0.47470000  0.13254000  1.0
  C  C176  1  0.53337000  0.34954000  0.36748000  1.0
  C  C177  1  0.57033000  0.27778000  0.37796000  1.0
  C  C178  1  0.62125000  0.24342000  0.43660000  1.0
  C  C179  1  0.63451000  0.27955000  0.48709000  1.0
  C  C180  1  0.59738000  0.35062000  0.47771000  1.0
  C  C181  1  0.54813000  0.38551000  0.41853000  1.0
  C  C182  1  0.36058000  0.50800000  0.06615000  1.0
  C  C183  1  0.37378000  0.47020000  0.01633000  1.0
  C  C184  1  0.35271000  0.50336000  0.95031000  1.0
  C  C185  1  0.31711000  0.57508000  0.93227000  1.0
  C  C186  1  0.30299000  0.61315000  0.98126000  1.0
  C  C187  1  0.32413000  0.58018000  0.04753000  1.0
  C  C188  1  0.82825000  0.30320000  0.67995000  1.0
  C  C189  1  0.75971000  0.26342000  0.65049000  1.0
  C  C190  1  0.75334000  0.27962000  0.58081000  1.0
  C  C191  1  0.81853000  0.33568000  0.54453000  1.0
  C  C192  1  0.88629000  0.37166000  0.57838000  1.0
  C  C193  1  0.67516000  0.05280000  0.64795000  1.0
  C  C194  1  0.71591000  0.12064000  0.61784000  1.0
  C  C195  1  0.64719000  0.17252000  0.57905000  1.0
  C  C196  1  0.54078000  0.15248000  0.57105000  1.0
  C  C197  1  0.50828000  0.08279000  0.60127000  1.0
  C  C198  1  0.47000000  0.76739000  0.81892000  1.0
  C  C199  1  0.43189000  0.70007000  0.85247000  1.0
  C  C200  1  0.33333333  0.67617000  0.83332000  1.0
  C  C201  1  0.27633000  0.72325000  0.78186000  1.0
  C  C202  1  0.32095000  0.78951000  0.75097000  1.0
  C  C203  1  0.08996000  0.48479000  0.82397000  1.0
  C  C204  1  0.14816000  0.52353000  0.86028000  1.0
  C  C205  1  0.23190000  0.56822000  0.82893000  1.0
  C  C206  1  0.25426000  0.57067000  0.76221000  1.0
  C  C207  1  0.19333000  0.52879000  0.73033000  1.0
  C  C208  1  0.01431000  0.88421000  0.30639000  1.0
  C  C209  1  0.05029000  0.91339000  0.25117000  1.0
  C  C210  1  0.08468000  0.94541000  0.18951000  1.0
  C  C211  1  0.11285000  0.97470000  0.13254000  1.0
  C  C212  1  0.96663000  0.84954000  0.36748000  1.0
  C  C213  1  0.92967000  0.77777000  0.37797000  1.0
  C  C214  1  0.87875000  0.74342000  0.43660000  1.0
  C  C215  1  0.86549000  0.77955000  0.48709000  1.0
  C  C216  1  0.90262000  0.85062000  0.47771000  1.0
  C  C217  1  0.95187000  0.88551000  0.41854000  1.0
  C  C218  1  0.13942000  0.00800000  0.06615000  1.0
  C  C219  1  0.12623000  0.97020000  0.01632000  1.0
  C  C220  1  0.14729000  0.00336000  0.95031000  1.0
  C  C221  1  0.18288000  0.07508000  0.93227000  1.0
  C  C222  1  0.19701000  0.11315000  0.98126000  1.0
  C  C223  1  0.17587000  0.08017000  0.04754000  1.0
  C  C224  1  0.67175000  0.80321000  0.67995000  1.0
  C  C225  1  0.74029000  0.76342000  0.65050000  1.0
  C  C226  1  0.74666000  0.77963000  0.58081000  1.0
  C  C227  1  0.68147000  0.83568000  0.54453000  1.0
  C  C228  1  0.61371000  0.87167000  0.57839000  1.0
  C  C229  1  0.82484000  0.55280000  0.64795000  1.0
  C  C230  1  0.78409000  0.62064000  0.61784000  1.0
  C  C231  1  0.85281000  0.67252000  0.57906000  1.0
  C  C232  1  0.95922000  0.65248000  0.57105000  1.0
  C  C233  1  0.99173000  0.58279000  0.60127000  1.0
  C  C234  1  0.03000000  0.26739000  0.81891000  1.0
  C  C235  1  0.06811000  0.20007000  0.85247000  1.0
  C  C236  1  0.16673000  0.17617000  0.83332000  1.0
  C  C237  1  0.22367000  0.22325000  0.78186000  1.0
  C  C238  1  0.17906000  0.28951000  0.75097000  1.0
  C  C239  1  0.41004000  0.98479000  0.82397000  1.0
  C  C240  1  0.35185000  0.02353000  0.86028000  1.0
  C  C241  1  0.26810000  0.06823000  0.82893000  1.0
  C  C242  1  0.24574000  0.07067000  0.76221000  1.0
  C  C243  1  0.30667000  0.02879000  0.73033000  1.0
  N  N244  1  0.18250000  0.25710000  0.45160000  1.0
  N  N245  1  0.39126000  0.14382000  0.35495000  1.0
  N  N246  1  0.07325000  0.46630000  0.36019000  1.0
  N  N247  1  0.79310000  0.89223000  0.13551000  1.0
  N  N248  1  0.91683000  0.68858000  0.23162000  1.0
  N  N249  1  0.61184000  0.01296000  0.23988000  1.0
  N  N250  1  0.31749000  0.75710000  0.45160000  1.0
  N  N251  1  0.10874000  0.64382000  0.35495000  1.0
  N  N252  1  0.42674000  0.96630000  0.36019000  1.0
  N  N253  1  0.70690000  0.39224000  0.13551000  1.0
  N  N254  1  0.58318000  0.18858000  0.23162000  1.0
  N  N255  1  0.88816000  0.51297000  0.23988000  1.0
  N  N256  1  0.68250000  0.24290000  0.54840000  1.0
  N  N257  1  0.89126000  0.35618000  0.64505000  1.0
  N  N258  1  0.57326000  0.03369000  0.63981000  1.0
  N  N259  1  0.29310000  0.60776000  0.86449000  1.0
  N  N260  1  0.41682000  0.81142000  0.76837000  1.0
  N  N261  1  0.11184000  0.48703000  0.76012000  1.0
  N  N262  1  0.81750000  0.74290000  0.54840000  1.0
  N  N263  1  0.60874000  0.85618000  0.64505000  1.0
  N  N264  1  0.92675000  0.53370000  0.63981000  1.0
  N  N265  1  0.20690000  0.10777000  0.86449000  1.0
  N  N266  1  0.08318000  0.31142000  0.76837000  1.0
  N  N267  1  0.38816000  0.98703000  0.76012000  1.0
  Cl  Cl268  1  0.35049000  0.09257000  0.20684000  1.0
  Cl  Cl269  1  0.64889000  0.06756000  0.39090000  1.0
  Cl  Cl270  1  0.14952000  0.59257000  0.20684000  1.0
  Cl  Cl271  1  0.85112000  0.56756000  0.39090000  1.0
  Cl  Cl272  1  0.85049000  0.40743000  0.79316000  1.0
  Cl  Cl273  1  0.14889000  0.43245000  0.60910000  1.0
  Cl  Cl274  1  0.64952000  0.90743000  0.79316000  1.0
  Cl  Cl275  1  0.35111000  0.93245000  0.60911000  1.0
