# generated using pymatgen
data_LiH5C7N2O7
_symmetry_space_group_name_H-M   'P 1'
_cell_length_a   4.97604000
_cell_length_b   6.03744000
_cell_length_c   15.79080000
_cell_angle_alpha   87.40190000
_cell_angle_beta   89.99970000
_cell_angle_gamma   89.99980000
_symmetry_Int_Tables_number   1
_chemical_formula_structural   LiH5C7N2O7
_chemical_formula_sum   'Li2 H10 C14 N4 O14'
_cell_volume   473.90814303
_cell_formula_units_Z   2
loop_
 _symmetry_equiv_pos_site_id
 _symmetry_equiv_pos_as_xyz
  1  'x, y, z'
loop_
 _atom_site_type_symbol
 _atom_site_label
 _atom_site_symmetry_multiplicity
 _atom_site_fract_x
 _atom_site_fract_y
 _atom_site_fract_z
 _atom_site_occupancy
  Li  Li0  1  0.50331000  0.90246000  0.04004000  1.0
  Li  Li1  1  0.00330000  0.09753000  0.95996000  1.0
  H  H2  1  0.50554000  0.10029000  0.37801000  1.0
  H  H3  1  0.00554000  0.89970000  0.62199000  1.0
  H  H4  1  0.95493000  0.54736000  0.38317000  1.0
  H  H5  1  0.45494000  0.45265000  0.61684000  1.0
  H  H6  1  0.82131000  0.64926000  0.23462000  1.0
  H  H7  1  0.32131000  0.35074000  0.76538000  1.0
  H  H8  1  0.48391000  0.49464000  0.08703000  1.0
  H  H9  1  0.98391000  0.50535000  0.91296000  1.0
  H  H10  1  0.70892000  0.51251000  0.01576000  1.0
  H  H11  1  0.20892000  0.48749000  0.98423000  1.0
  C  C12  1  0.98059000  0.97828000  0.13204000  1.0
  C  C13  1  0.48059000  0.02172000  0.86796000  1.0
  C  C14  1  0.08319000  0.93223000  0.22147000  1.0
  C  C15  1  0.58319000  0.06777000  0.77853000  1.0
  C  C16  1  0.27479000  0.05649000  0.26430000  1.0
  C  C17  1  0.77478000  0.94351000  0.73570000  1.0
  C  C18  1  0.36117000  0.99774000  0.34612000  1.0
  C  C19  1  0.86117000  0.00226000  0.65388000  1.0
  C  C20  1  0.24451000  0.81364000  0.38697000  1.0
  C  C21  1  0.74451000  0.18637000  0.61304000  1.0
  C  C22  1  0.04854000  0.68717000  0.34839000  1.0
  C  C23  1  0.54854000  0.31284000  0.65162000  1.0
  C  C24  1  0.97312000  0.74674000  0.26560000  1.0
  C  C25  1  0.47312000  0.25326000  0.73441000  1.0
  N  N26  1  0.38378000  0.26193000  0.22647000  1.0
  N  N27  1  0.88378000  0.73807000  0.77353000  1.0
  N  N28  1  0.32179000  0.75977000  0.47501000  1.0
  N  N29  1  0.82179000  0.24024000  0.52499000  1.0
  O  O30  1  0.14035000  0.96262000  0.06982000  1.0
  O  O31  1  0.64034000  0.03737000  0.93018000  1.0
  O  O32  1  0.73179000  0.01348000  0.12614000  1.0
  O  O33  1  0.23179000  0.98652000  0.87386000  1.0
  O  O34  1  0.53445000  0.57455000  0.03352000  1.0
  O  O35  1  0.03445000  0.42545000  0.96647000  1.0
  O  O36  1  0.26533000  0.34709000  0.16338000  1.0
  O  O37  1  0.76532000  0.65290000  0.83662000  1.0
  O  O38  1  0.58361000  0.34424000  0.25939000  1.0
  O  O39  1  0.08361000  0.65575000  0.74061000  1.0
  O  O40  1  0.16338000  0.64699000  0.51972000  1.0
  O  O41  1  0.66338000  0.35301000  0.48028000  1.0
  O  O42  1  0.53951000  0.83157000  0.50016000  1.0
  O  O43  1  0.03951000  0.16843000  0.49984000  1.0
