# generated using pymatgen
data_Co3H42C50S3(NO10)2
_symmetry_space_group_name_H-M   'P 1'
_cell_length_a   16.60270000
_cell_length_b   17.23390000
_cell_length_c   20.17090000
_cell_angle_alpha   90.00000000
_cell_angle_beta   90.00010000
_cell_angle_gamma   100.37600000
_symmetry_Int_Tables_number   1
_chemical_formula_structural   Co3H42C50S3(NO10)2
_chemical_formula_sum   'Co12 H168 C200 S12 N8 O80'
_cell_volume   5677.10383133
_cell_formula_units_Z   4
loop_
 _symmetry_equiv_pos_site_id
 _symmetry_equiv_pos_as_xyz
  1  'x, y, z'
loop_
 _atom_site_type_symbol
 _atom_site_label
 _atom_site_symmetry_multiplicity
 _atom_site_fract_x
 _atom_site_fract_y
 _atom_site_fract_z
 _atom_site_occupancy
  Co  Co0  1  0.03274000  0.25777000  0.66983000  1.0
  Co  Co1  1  0.46726000  0.24223000  0.16983000  1.0
  Co  Co2  1  0.96726000  0.74223000  0.33017000  1.0
  Co  Co3  1  0.53274000  0.75777000  0.83017000  1.0
  Co  Co4  1  0.13560000  0.45425000  0.63691000  1.0
  Co  Co5  1  0.36440000  0.04575000  0.13691000  1.0
  Co  Co6  1  0.86440000  0.54575000  0.36309000  1.0
  Co  Co7  1  0.63560000  0.95425000  0.86309000  1.0
  Co  Co8  1  0.90646000  0.06225000  0.64603000  1.0
  Co  Co9  1  0.59355000  0.43775000  0.14603000  1.0
  Co  Co10  1  0.09354000  0.93776000  0.35397000  1.0
  Co  Co11  1  0.40645000  0.56224000  0.85397000  1.0
  H  H12  1  0.35572000  0.43413000  0.71743000  1.0
  H  H13  1  0.14428000  0.06587000  0.21743000  1.0
  H  H14  1  0.64428000  0.56587000  0.28257000  1.0
  H  H15  1  0.85571000  0.93413000  0.78257000  1.0
  H  H16  1  0.49168000  0.40765000  0.75400000  1.0
  H  H17  1  0.00833000  0.09234000  0.25400000  1.0
  H  H18  1  0.50833000  0.59234000  0.24600000  1.0
  H  H19  1  0.99167000  0.90766000  0.74600000  1.0
  H  H20  1  0.39812000  0.15725000  0.74407000  1.0
  H  H21  1  0.10188000  0.34274000  0.24407000  1.0
  H  H22  1  0.60188000  0.84274000  0.25593000  1.0
  H  H23  1  0.89812000  0.65726000  0.75593000  1.0
  H  H24  1  0.26081000  0.18489000  0.71119000  1.0
  H  H25  1  0.23919000  0.31511000  0.21119000  1.0
  H  H26  1  0.73919000  0.81511000  0.28881000  1.0
  H  H27  1  0.76081000  0.68489000  0.78881000  1.0
  H  H28  1  0.54311000  0.33353000  0.90397000  1.0
  H  H29  1  0.95689000  0.16647000  0.40398000  1.0
  H  H30  1  0.45689000  0.66647000  0.09602000  1.0
  H  H31  1  0.04311000  0.83353000  0.59603000  1.0
  H  H32  1  0.49653000  0.27498000  0.01501000  1.0
  H  H33  1  0.00347000  0.22502000  0.51501000  1.0
  H  H34  1  0.50347000  0.72502000  0.98499000  1.0
  H  H35  1  0.99653000  0.77498000  0.48499000  1.0
  H  H36  1  0.45842000  0.04237000  0.92919000  1.0
  H  H37  1  0.04157000  0.45763000  0.42919000  1.0
  H  H38  1  0.54157000  0.95763000  0.07081000  1.0
  H  H39  1  0.95843000  0.54237000  0.57081000  1.0
  H  H40  1  0.50844000  0.09926000  0.81995000  1.0
  H  H41  1  0.99156000  0.40074000  0.31995000  1.0
  H  H42  1  0.49156000  0.90073000  0.18004000  1.0
  H  H43  1  0.00844000  0.59926000  0.68005000  1.0
  H  H44  1  0.20395000  0.20801000  0.59343000  1.0
  H  H45  1  0.29605000  0.29199000  0.09343000  1.0
  H  H46  1  0.79605000  0.79199000  0.40657000  1.0
  H  H47  1  0.70395000  0.70802000  0.90657000  1.0
  H  H48  1  0.34310000  0.18387000  0.55798000  1.0
  H  H49  1  0.15690000  0.31613000  0.05798000  1.0
  H  H50  1  0.65690000  0.81613000  0.44202000  1.0
  H  H51  1  0.84310000  0.68387000  0.94202000  1.0
  H  H52  1  0.23351000  0.94558000  0.50290000  1.0
  H  H53  1  0.26650000  0.55442000  0.00290000  1.0
  H  H54  1  0.76650000  0.05442000  0.49710000  1.0
  H  H55  1  0.73350000  0.44558000  0.99710000  1.0
  H  H56  1  0.09714000  0.96965000  0.54318000  1.0
  H  H57  1  0.40286000  0.53035000  0.04318000  1.0
  H  H58  1  0.90286000  0.03035000  0.45682000  1.0
  H  H59  1  0.59714000  0.46965000  0.95682000  1.0
  H  H60  1  0.47848000  0.12214000  0.62150000  1.0
  H  H61  1  0.02152000  0.37786000  0.12150000  1.0
  H  H62  1  0.52153000  0.87786000  0.37850000  1.0
  H  H63  1  0.97847000  0.62213000  0.87850000  1.0
  H  H64  1  0.53160000  0.06676000  0.72253000  1.0
  H  H65  1  0.96840000  0.43325000  0.22253000  1.0
  H  H66  1  0.46840000  0.93324000  0.27747000  1.0
  H  H67  1  0.03160000  0.56675000  0.77747000  1.0
  H  H68  1  0.43108000  0.83131000  0.65823000  1.0
  H  H69  1  0.06892000  0.66869000  0.15823000  1.0
  H  H70  1  0.56892000  0.16869000  0.34177000  1.0
  H  H71  1  0.93108000  0.33131000  0.84177000  1.0
  H  H72  1  0.38203000  0.88647000  0.55320000  1.0
  H  H73  1  0.11798000  0.61354000  0.05320000  1.0
  H  H74  1  0.61798000  0.11354000  0.44680000  1.0
  H  H75  1  0.88202000  0.38646000  0.94680000  1.0
  H  H76  1  0.70342000  0.13522000  0.57118000  1.0
  H  H77  1  0.79658000  0.36478000  0.07118000  1.0
  H  H78  1  0.29658000  0.86478000  0.42882000  1.0
  H  H79  1  0.20342000  0.63522000  0.92882000  1.0
  H  H80  1  0.57856000  0.19168000  0.55051000  1.0
  H  H81  1  0.92144000  0.30832000  0.05051000  1.0
  H  H82  1  0.42144000  0.80833000  0.44949000  1.0
  H  H83  1  0.07856000  0.69168000  0.94949000  1.0
  H  H84  1  0.70078000  0.41644000  0.62630000  1.0
  H  H85  1  0.79922000  0.08356000  0.12630000  1.0
  H  H86  1  0.29922000  0.58356000  0.37370000  1.0
  H  H87  1  0.20078000  0.91644000  0.87370000  1.0
  H  H88  1  0.82810000  0.35868000  0.64587000  1.0
  H  H89  1  0.67190000  0.14132000  0.14587000  1.0
  H  H90  1  0.17190000  0.64132000  0.35413000  1.0
  H  H91  1  0.32810000  0.85868000  0.85413000  1.0
  H  H92  1  0.48252000  0.24000000  0.46801000  1.0
  H  H93  1  0.01747000  0.26001000  0.96801000  1.0
  H  H94  1  0.51747000  0.76001000  0.53200000  1.0
  H  H95  1  0.98253000  0.73999000  0.03200000  1.0
  H  H96  1  0.48465000  0.25373000  0.34370000  1.0
  H  H97  1  0.01534000  0.24628000  0.84370000  1.0
  H  H98  1  0.51534000  0.74627000  0.65630000  1.0
  H  H99  1  0.98466000  0.75372000  0.15630000  1.0
  H  H100  1  0.61505000  0.49168000  0.36118000  1.0
  H  H101  1  0.88495000  0.00832000  0.86118000  1.0
  H  H102  1  0.38496000  0.50831000  0.63882000  1.0
  H  H103  1  0.11505000  0.99168000  0.13882000  1.0
  H  H104  1  0.61152000  0.48011000  0.48461000  1.0
  H  H105  1  0.88848000  0.01989000  0.98461000  1.0
  H  H106  1  0.38848000  0.51989000  0.51539000  1.0
  H  H107  1  0.11152000  0.98011000  0.01539000  1.0
  H  H108  1  0.21086000  0.68090000  0.52308000  1.0
  H  H109  1  0.28914000  0.81909000  0.02307000  1.0
  H  H110  1  0.78914000  0.31910000  0.47692000  1.0
  H  H111  1  0.71086000  0.18090000  0.97693000  1.0
  H  H112  1  0.13360000  0.59597000  0.53664000  1.0
  H  H113  1  0.36640000  0.90403000  0.03665000  1.0
  H  H114  1  0.86640000  0.40403000  0.46335000  1.0
  H  H115  1  0.63360000  0.09597000  0.96336000  1.0
  H  H116  1  0.23553000  0.58463000  0.52385000  1.0
  H  H117  1  0.26447000  0.91537000  0.02385000  1.0
  H  H118  1  0.76447000  0.41537000  0.47615000  1.0
  H  H119  1  0.73553000  0.08463000  0.97615000  1.0
  H  H120  1  0.27567000  0.81438000  0.65349000  1.0
  H  H121  1  0.22433000  0.68561000  0.15349000  1.0
  H  H122  1  0.72433000  0.18562000  0.34652000  1.0
  H  H123  1  0.77567000  0.31438000  0.84651000  1.0
  H  H124  1  0.20076000  0.77997000  0.59287000  1.0
  H  H125  1  0.29924000  0.72003000  0.09287000  1.0
  H  H126  1  0.79924000  0.22003000  0.40713000  1.0
  H  H127  1  0.70076000  0.27997000  0.90713000  1.0
  H  H128  1  0.30505000  0.76971000  0.57970000  1.0
  H  H129  1  0.19495000  0.73029000  0.07970000  1.0
  H  H130  1  0.69495000  0.23029000  0.42031000  1.0
  H  H131  1  0.80505000  0.26971000  0.92030000  1.0
  H  H132  1  0.28940000  0.74737000  0.73888000  1.0
  H  H133  1  0.21060000  0.75263000  0.23888000  1.0
  H  H134  1  0.71060000  0.25263000  0.26112000  1.0
  H  H135  1  0.78940000  0.24737000  0.76112000  1.0
  H  H136  1  0.29703000  0.64530000  0.73261000  1.0
  H  H137  1  0.20297000  0.85469000  0.23261000  1.0
  H  H138  1  0.70297000  0.35469000  0.26739000  1.0
  H  H139  1  0.79703000  0.14531000  0.76739000  1.0
  H  H140  1  0.20084000  0.67300000  0.75071000  1.0
  H  H141  1  0.29916000  0.82700000  0.25071000  1.0
  H  H142  1  0.79916000  0.32700000  0.24929000  1.0
  H  H143  1  0.70084000  0.17299000  0.74929000  1.0
  H  H144  1  0.65447000  0.94019000  0.67727000  1.0
  H  H145  1  0.84554000  0.55982000  0.17727000  1.0
  H  H146  1  0.34553000  0.05981000  0.32274000  1.0
  H  H147  1  0.15447000  0.44019000  0.82273000  1.0
  H  H148  1  0.71644000  0.02520000  0.64233000  1.0
  H  H149  1  0.78356000  0.47481000  0.14234000  1.0
  H  H150  1  0.28356000  0.97480000  0.35767000  1.0
  H  H151  1  0.21644000  0.52520000  0.85767000  1.0
  H  H152  1  0.74121000  0.99090000  0.72139000  1.0
  H  H153  1  0.75880000  0.50911000  0.22140000  1.0
  H  H154  1  0.25880000  0.00910000  0.27861000  1.0
  H  H155  1  0.24120000  0.49090000  0.77861000  1.0
  H  H156  1  0.66127000  0.74711000  0.61552000  1.0
  H  H157  1  0.83873000  0.75289000  0.11552000  1.0
  H  H158  1  0.33873000  0.25289000  0.38448000  1.0
  H  H159  1  0.16127000  0.24711000  0.88448000  1.0
  H  H160  1  0.62257000  0.83609000  0.60906000  1.0
  H  H161  1  0.87744000  0.66391000  0.10906000  1.0
  H  H162  1  0.37744000  0.16391000  0.39094000  1.0
  H  H163  1  0.12256000  0.33609000  0.89094000  1.0
  H  H164  1  0.64976000  0.80127000  0.68848000  1.0
  H  H165  1  0.85025000  0.69873000  0.18848000  1.0
  H  H166  1  0.35024000  0.19873000  0.31152000  1.0
  H  H167  1  0.14975000  0.30128000  0.81152000  1.0
  H  H168  1  0.78196000  0.74535000  0.58722000  1.0
  H  H169  1  0.71804000  0.75465000  0.08722000  1.0
  H  H170  1  0.21804000  0.25466000  0.41278000  1.0
  H  H171  1  0.28195000  0.24534000  0.91277000  1.0
  H  H172  1  0.86040000  0.80458000  0.63536000  1.0
  H  H173  1  0.63961000  0.69542000  0.13536000  1.0
  H  H174  1  0.13961000  0.19543000  0.36464000  1.0
  H  H175  1  0.36039000  0.30457000  0.86464000  1.0
  H  H176  1  0.83929000  0.83462000  0.55389000  1.0
  H  H177  1  0.66071000  0.66538000  0.05390000  1.0
  H  H178  1  0.16071000  0.16538000  0.44610000  1.0
  H  H179  1  0.33929000  0.33462000  0.94610000  1.0
  C  C180  1  0.21897000  0.32770000  0.68835000  1.0
  C  C181  1  0.28103000  0.17230000  0.18835000  1.0
  C  C182  1  0.78104000  0.67230000  0.31165000  1.0
  C  C183  1  0.71897000  0.82770000  0.81165000  1.0
  C  C184  1  0.30055000  0.31104000  0.71072000  1.0
  C  C185  1  0.19945000  0.18895000  0.21072000  1.0
  C  C186  1  0.69945000  0.68895000  0.28928000  1.0
  C  C187  1  0.80055000  0.81105000  0.78928000  1.0
  C  C188  1  0.36531000  0.37364000  0.72288000  1.0
  C  C189  1  0.13469000  0.12636000  0.22288000  1.0
  C  C190  1  0.63469000  0.62636000  0.27712000  1.0
  C  C191  1  0.86531000  0.87364000  0.77712000  1.0
  C  C192  1  0.44126000  0.35928000  0.74376000  1.0
  C  C193  1  0.05874000  0.14072000  0.24376000  1.0
  C  C194  1  0.55874000  0.64072000  0.25624000  1.0
  C  C195  1  0.94126000  0.85928000  0.75624000  1.0
  C  C196  1  0.45218000  0.28130000  0.75043000  1.0
  C  C197  1  0.04782000  0.21870000  0.25043000  1.0
  C  C198  1  0.54782000  0.71870000  0.24957000  1.0
  C  C199  1  0.95218000  0.78131000  0.74957000  1.0
  C  C200  1  0.38825000  0.21777000  0.73860000  1.0
  C  C201  1  0.11174000  0.28222000  0.23860000  1.0
  C  C202  1  0.61174000  0.78222000  0.26141000  1.0
  C  C203  1  0.88826000  0.71778000  0.76140000  1.0
  C  C204  1  0.31205000  0.23296000  0.71972000  1.0
  C  C205  1  0.18795000  0.26704000  0.21972000  1.0
  C  C206  1  0.68795000  0.76704000  0.28028000  1.0
  C  C207  1  0.81205000  0.73296000  0.78028000  1.0
  C  C208  1  0.52632000  0.21972000  0.85597000  1.0
  C  C209  1  0.97368000  0.28028000  0.35597000  1.0
  C  C210  1  0.47368000  0.78028000  0.14402000  1.0
  C  C211  1  0.02632000  0.71972000  0.64403000  1.0
  C  C212  1  0.52518000  0.26991000  0.91043000  1.0
  C  C213  1  0.97482000  0.23009000  0.41043000  1.0
  C  C214  1  0.47482000  0.73009000  0.08957000  1.0
  C  C215  1  0.02518000  0.76991000  0.58957000  1.0
  C  C216  1  0.49936000  0.23751000  0.97182000  1.0
  C  C217  1  0.00064000  0.26248000  0.47182000  1.0
  C  C218  1  0.50064000  0.76248000  0.02818000  1.0
  C  C219  1  0.99936000  0.73752000  0.52819000  1.0
  C  C220  1  0.47325000  0.15567000  0.97787000  1.0
  C  C221  1  0.02674000  0.34432000  0.47788000  1.0
  C  C222  1  0.52674000  0.84432000  0.02212000  1.0
  C  C223  1  0.97325000  0.65568000  0.52212000  1.0
  C  C224  1  0.47709000  0.10592000  0.92325000  1.0
  C  C225  1  0.02291000  0.39407000  0.42326000  1.0
  C  C226  1  0.52290000  0.89407000  0.07674000  1.0
  C  C227  1  0.97709000  0.60593000  0.57675000  1.0
  C  C228  1  0.50424000  0.13777000  0.86213000  1.0
  C  C229  1  0.99576000  0.36222000  0.36213000  1.0
  C  C230  1  0.49575000  0.86222000  0.13786000  1.0
  C  C231  1  0.00424000  0.63777000  0.63787000  1.0
  C  C232  1  0.43788000  0.12095000  0.04103000  1.0
  C  C233  1  0.06212000  0.37904000  0.54103000  1.0
  C  C234  1  0.56211000  0.87904000  0.95897000  1.0
  C  C235  1  0.93788000  0.62095000  0.45897000  1.0
  C  C236  1  0.06371000  0.10499000  0.59580000  1.0
  C  C237  1  0.43629000  0.39501000  0.09580000  1.0
  C  C238  1  0.93629000  0.89501000  0.40420000  1.0
  C  C239  1  0.56371000  0.60499000  0.90420000  1.0
  C  C240  1  0.14414000  0.08979000  0.57152000  1.0
  C  C241  1  0.35586000  0.41021000  0.07152000  1.0
  C  C242  1  0.85586000  0.91022000  0.42848000  1.0
  C  C243  1  0.64414000  0.58979000  0.92848000  1.0
  C  C244  1  0.21237000  0.15090000  0.57443000  1.0
  C  C245  1  0.28763000  0.34910000  0.07443000  1.0
  C  C246  1  0.78763000  0.84910000  0.42557000  1.0
  C  C247  1  0.71237000  0.65091000  0.92557000  1.0
  C  C248  1  0.28891000  0.13767000  0.55445000  1.0
  C  C249  1  0.21109000  0.36233000  0.05445000  1.0
  C  C250  1  0.71109000  0.86233000  0.44555000  1.0
  C  C251  1  0.78892000  0.63767000  0.94555000  1.0
  C  C252  1  0.29495000  0.06314000  0.52966000  1.0
  C  C253  1  0.20505000  0.43686000  0.02966000  1.0
  C  C254  1  0.70506000  0.93686000  0.47034000  1.0
  C  C255  1  0.79494000  0.56315000  0.97034000  1.0
  C  C256  1  0.22710000  0.00213000  0.52444000  1.0
  C  C257  1  0.27290000  0.49787000  0.02444000  1.0
  C  C258  1  0.77290000  0.99787000  0.47556000  1.0
  C  C259  1  0.72710000  0.50213000  0.97555000  1.0
  C  C260  1  0.15142000  0.01561000  0.54623000  1.0
  C  C261  1  0.34858000  0.48439000  0.04623000  1.0
  C  C262  1  0.84858000  0.98439000  0.45377000  1.0
  C  C263  1  0.65142000  0.51562000  0.95377000  1.0
  C  C264  1  0.42660000  0.00652000  0.58258000  1.0
  C  C265  1  0.07340000  0.49348000  0.08258000  1.0
  C  C266  1  0.57341000  0.99348000  0.41742000  1.0
  C  C267  1  0.92659000  0.50652000  0.91742000  1.0
  C  C268  1  0.46748000  0.05861000  0.62976000  1.0
  C  C269  1  0.03253000  0.44139000  0.12976000  1.0
  C  C270  1  0.53253000  0.94139000  0.37024000  1.0
  C  C271  1  0.96747000  0.55861000  0.87024000  1.0
  C  C272  1  0.49626000  0.02742000  0.68677000  1.0
  C  C273  1  0.00375000  0.47259000  0.18677000  1.0
  C  C274  1  0.50375000  0.97259000  0.31323000  1.0
  C  C275  1  0.99625000  0.52741000  0.81323000  1.0
  C  C276  1  0.48268000  0.94558000  0.69706000  1.0
  C  C277  1  0.01732000  0.55442000  0.19706000  1.0
  C  C278  1  0.51732000  0.05442000  0.30294000  1.0
  C  C279  1  0.98268000  0.44558000  0.80294000  1.0
  C  C280  1  0.44020000  0.89463000  0.64964000  1.0
  C  C281  1  0.05980000  0.60537000  0.14965000  1.0
  C  C282  1  0.55980000  0.10537000  0.35035000  1.0
  C  C283  1  0.94020000  0.39463000  0.85036000  1.0
  C  C284  1  0.41235000  0.92497000  0.59192000  1.0
  C  C285  1  0.08766000  0.57503000  0.09192000  1.0
  C  C286  1  0.58766000  0.07503000  0.40808000  1.0
  C  C287  1  0.91234000  0.42497000  0.90808000  1.0
  C  C288  1  0.51743000  0.91230000  0.75705000  1.0
  C  C289  1  0.98257000  0.58770000  0.25705000  1.0
  C  C290  1  0.48257000  0.08770000  0.24295000  1.0
  C  C291  1  0.01743000  0.41230000  0.74295000  1.0
  C  C292  1  0.84898000  0.20956000  0.62284000  1.0
  C  C293  1  0.65102000  0.29044000  0.12283000  1.0
  C  C294  1  0.15102000  0.79044000  0.37717000  1.0
  C  C295  1  0.34898000  0.70956000  0.87716000  1.0
  C  C296  1  0.77399000  0.24422000  0.60865000  1.0
  C  C297  1  0.72601000  0.25578000  0.10865000  1.0
  C  C298  1  0.22601000  0.75578000  0.39135000  1.0
  C  C299  1  0.27399000  0.74422000  0.89135000  1.0
  C  C300  1  0.70366000  0.19714000  0.58196000  1.0
  C  C301  1  0.79634000  0.30285000  0.08195000  1.0
  C  C302  1  0.29634000  0.80286000  0.41805000  1.0
  C  C303  1  0.20366000  0.69715000  0.91804000  1.0
  C  C304  1  0.63343000  0.22864000  0.57052000  1.0
  C  C305  1  0.86657000  0.27135000  0.07052000  1.0
  C  C306  1  0.36657000  0.77136000  0.42948000  1.0
  C  C307  1  0.13343000  0.72864000  0.92948000  1.0
  C  C308  1  0.63394000  0.30776000  0.58639000  1.0
  C  C309  1  0.86606000  0.19225000  0.08639000  1.0
  C  C310  1  0.36606000  0.69225000  0.41361000  1.0
  C  C311  1  0.13394000  0.80775000  0.91361000  1.0
  C  C312  1  0.70308000  0.35545000  0.61354000  1.0
  C  C313  1  0.79692000  0.14455000  0.11354000  1.0
  C  C314  1  0.29692000  0.64455000  0.38646000  1.0
  C  C315  1  0.20308000  0.85545000  0.88646000  1.0
  C  C316  1  0.77317000  0.32333000  0.62456000  1.0
  C  C317  1  0.72683000  0.17667000  0.12456000  1.0
  C  C318  1  0.22683000  0.67667000  0.37544000  1.0
  C  C319  1  0.27317000  0.82333000  0.87544000  1.0
  C  C320  1  0.54706000  0.35941000  0.48260000  1.0
  C  C321  1  0.95294000  0.14060000  0.98260000  1.0
  C  C322  1  0.45293000  0.64059000  0.51740000  1.0
  C  C323  1  0.04707000  0.85941000  0.01740000  1.0
  C  C324  1  0.51139000  0.29468000  0.44425000  1.0
  C  C325  1  0.98861000  0.20532000  0.94425000  1.0
  C  C326  1  0.48860000  0.70532000  0.55575000  1.0
  C  C327  1  0.01140000  0.79468000  0.05575000  1.0
  C  C328  1  0.51226000  0.30217000  0.37566000  1.0
  C  C329  1  0.98773000  0.19783000  0.87565000  1.0
  C  C330  1  0.48773000  0.69783000  0.62435000  1.0
  C  C331  1  0.01227000  0.80217000  0.12435000  1.0
  C  C332  1  0.54875000  0.37297000  0.34539000  1.0
  C  C333  1  0.95125000  0.12703000  0.84539000  1.0
  C  C334  1  0.45125000  0.62702000  0.65461000  1.0
  C  C335  1  0.04875000  0.87297000  0.15461000  1.0
  C  C336  1  0.58614000  0.43675000  0.38449000  1.0
  C  C337  1  0.91386000  0.06325000  0.88449000  1.0
  C  C338  1  0.41386000  0.56325000  0.61551000  1.0
  C  C339  1  0.08614000  0.93675000  0.11551000  1.0
  C  C340  1  0.58489000  0.43033000  0.45347000  1.0
  C  C341  1  0.91510000  0.06967000  0.95346000  1.0
  C  C342  1  0.41510000  0.56967000  0.54654000  1.0
  C  C343  1  0.08489000  0.93033000  0.04654000  1.0
  C  C344  1  0.54480000  0.37742000  0.27142000  1.0
  C  C345  1  0.95520000  0.12258000  0.77142000  1.0
  C  C346  1  0.45520000  0.62258000  0.72858000  1.0
  C  C347  1  0.04480000  0.87742000  0.22858000  1.0
  C  C348  1  0.19736000  0.62308000  0.54679000  1.0
  C  C349  1  0.30264000  0.87692000  0.04679000  1.0
  C  C350  1  0.80264000  0.37692000  0.45321000  1.0
  C  C351  1  0.69736000  0.12308000  0.95321000  1.0
  C  C352  1  0.21207000  0.62433000  0.62012000  1.0
  C  C353  1  0.28793000  0.87566000  0.12012000  1.0
  C  C354  1  0.78793000  0.37567000  0.37988000  1.0
  C  C355  1  0.71207000  0.12433000  0.87988000  1.0
  C  C356  1  0.25650000  0.76790000  0.61700000  1.0
  C  C357  1  0.24350000  0.73210000  0.11700000  1.0
  C  C358  1  0.74350000  0.23211000  0.38300000  1.0
  C  C359  1  0.75650000  0.26790000  0.88300000  1.0
  C  C360  1  0.25813000  0.68909000  0.72277000  1.0
  C  C361  1  0.24187000  0.81091000  0.22276000  1.0
  C  C362  1  0.74186000  0.31091000  0.27724000  1.0
  C  C363  1  0.75813000  0.18909000  0.77724000  1.0
  C  C364  1  0.71719000  0.97202000  0.67201000  1.0
  C  C365  1  0.78281000  0.52798000  0.17201000  1.0
  C  C366  1  0.28281000  0.02797000  0.32799000  1.0
  C  C367  1  0.21719000  0.47202000  0.82799000  1.0
  C  C368  1  0.77393000  0.92476000  0.64026000  1.0
  C  C369  1  0.72608000  0.57524000  0.14027000  1.0
  C  C370  1  0.22608000  0.07524000  0.35974000  1.0
  C  C371  1  0.27392000  0.42476000  0.85973000  1.0
  C  C372  1  0.66615000  0.80661000  0.63575000  1.0
  C  C373  1  0.83386000  0.69339000  0.13575000  1.0
  C  C374  1  0.33385000  0.19339000  0.36425000  1.0
  C  C375  1  0.16614000  0.30661000  0.86424000  1.0
  C  C376  1  0.81154000  0.80574000  0.59890000  1.0
  C  C377  1  0.68847000  0.69426000  0.09890000  1.0
  C  C378  1  0.18846000  0.19426000  0.40110000  1.0
  C  C379  1  0.31153000  0.30574000  0.90110000  1.0
  S  S380  1  0.54926000  0.26172000  0.77575000  1.0
  S  S381  1  0.95074000  0.23828000  0.27574000  1.0
  S  S382  1  0.45074000  0.73828000  0.22425000  1.0
  S  S383  1  0.04926000  0.76172000  0.72426000  1.0
  S  S384  1  0.39264000  0.04376000  0.50781000  1.0
  S  S385  1  0.10736000  0.45625000  0.00781000  1.0
  S  S386  1  0.60736000  0.95625000  0.49218000  1.0
  S  S387  1  0.89264000  0.54375000  0.99219000  1.0
  S  S388  1  0.54428000  0.34852000  0.57059000  1.0
  S  S389  1  0.95572000  0.15148000  0.07059000  1.0
  S  S390  1  0.45572000  0.65148000  0.42941000  1.0
  S  S391  1  0.04428000  0.84852000  0.92941000  1.0
  N  N392  1  0.24130000  0.69209000  0.65146000  1.0
  N  N393  1  0.25870000  0.80791000  0.15146000  1.0
  N  N394  1  0.75870000  0.30791000  0.34854000  1.0
  N  N395  1  0.74130000  0.19209000  0.84854000  1.0
  N  N396  1  0.75000000  0.84839000  0.62563000  1.0
  N  N397  1  0.75000000  0.65161000  0.12563000  1.0
  N  N398  1  0.25000000  0.15161000  0.37437000  1.0
  N  N399  1  0.25000000  0.34839000  0.87437000  1.0
  O  O400  1  0.51636000  0.83872000  0.75857000  1.0
  O  O401  1  0.98364000  0.66128000  0.25857000  1.0
  O  O402  1  0.48364000  0.16128000  0.24143000  1.0
  O  O403  1  0.01636000  0.33872000  0.74143000  1.0
  O  O404  1  0.90939000  0.25396000  0.64870000  1.0
  O  O405  1  0.59061000  0.24604000  0.14870000  1.0
  O  O406  1  0.09061000  0.74604000  0.35130000  1.0
  O  O407  1  0.40939000  0.75396000  0.85130000  1.0
  O  O408  1  0.05314000  0.17564000  0.60077000  1.0
  O  O409  1  0.44686000  0.32436000  0.10078000  1.0
  O  O410  1  0.94686000  0.82436000  0.39922000  1.0
  O  O411  1  0.55314000  0.67565000  0.89923000  1.0
  O  O412  1  0.49273000  0.32731000  0.24130000  1.0
  O  O413  1  0.00727000  0.17269000  0.74130000  1.0
  O  O414  1  0.50727000  0.67268000  0.75870000  1.0
  O  O415  1  0.99273000  0.82732000  0.25870000  1.0
  O  O416  1  0.44198000  0.15987000  0.09491000  1.0
  O  O417  1  0.05801000  0.34013000  0.59491000  1.0
  O  O418  1  0.55801000  0.84013000  0.90509000  1.0
  O  O419  1  0.94199000  0.65987000  0.40509000  1.0
  O  O420  1  0.15745000  0.27271000  0.69268000  1.0
  O  O421  1  0.34255000  0.22729000  0.19268000  1.0
  O  O422  1  0.84255000  0.72730000  0.30732000  1.0
  O  O423  1  0.65745000  0.77270000  0.80732000  1.0
  O  O424  1  0.39899000  0.04926000  0.04129000  1.0
  O  O425  1  0.10101000  0.45074000  0.54130000  1.0
  O  O426  1  0.60101000  0.95073000  0.95871000  1.0
  O  O427  1  0.89899000  0.54926000  0.45871000  1.0
  O  O428  1  0.54862000  0.96303000  0.80091000  1.0
  O  O429  1  0.95138000  0.53697000  0.30091000  1.0
  O  O430  1  0.45138000  0.03697000  0.19909000  1.0
  O  O431  1  0.04862000  0.46303000  0.69909000  1.0
  O  O432  1  0.21979000  0.39818000  0.66694000  1.0
  O  O433  1  0.28021000  0.10182000  0.16694000  1.0
  O  O434  1  0.78021000  0.60182000  0.33307000  1.0
  O  O435  1  0.71979000  0.89818000  0.83306000  1.0
  O  O436  1  0.19863000  0.56114000  0.65401000  1.0
  O  O437  1  0.30136000  0.93885000  0.15401000  1.0
  O  O438  1  0.80136000  0.43885000  0.34599000  1.0
  O  O439  1  0.69863000  0.06114000  0.84599000  1.0
  O  O440  1  0.59523000  0.43285000  0.24260000  1.0
  O  O441  1  0.90476000  0.06715000  0.74259000  1.0
  O  O442  1  0.40477000  0.56715000  0.75741000  1.0
  O  O443  1  0.09524000  0.93285000  0.25741000  1.0
  O  O444  1  0.00907000  0.04431000  0.60931000  1.0
  O  O445  1  0.49094000  0.45569000  0.10931000  1.0
  O  O446  1  0.99094000  0.95569000  0.39069000  1.0
  O  O447  1  0.50906000  0.54432000  0.89069000  1.0
  O  O448  1  0.84398000  0.13576000  0.60840000  1.0
  O  O449  1  0.65602000  0.36424000  0.10840000  1.0
  O  O450  1  0.15602000  0.86424000  0.39160000  1.0
  O  O451  1  0.34398000  0.63576000  0.89160000  1.0
  O  O452  1  0.84772000  0.95595000  0.62700000  1.0
  O  O453  1  0.65229000  0.54405000  0.12701000  1.0
  O  O454  1  0.15228000  0.04405000  0.37300000  1.0
  O  O455  1  0.34772000  0.45595000  0.87299000  1.0
  O  O456  1  0.60583000  0.33576000  0.78331000  1.0
  O  O457  1  0.89417000  0.16423000  0.28331000  1.0
  O  O458  1  0.39417000  0.66423000  0.21669000  1.0
  O  O459  1  0.10583000  0.83577000  0.71670000  1.0
  O  O460  1  0.57004000  0.20050000  0.73290000  1.0
  O  O461  1  0.92996000  0.29950000  0.23290000  1.0
  O  O462  1  0.42996000  0.79950000  0.26710000  1.0
  O  O463  1  0.07004000  0.70050000  0.76710000  1.0
  O  O464  1  0.44562000  0.11844000  0.49311000  1.0
  O  O465  1  0.05438000  0.38157000  0.99311000  1.0
  O  O466  1  0.55439000  0.88157000  0.50689000  1.0
  O  O467  1  0.94562000  0.61843000  0.00690000  1.0
  O  O468  1  0.38154000  0.98096000  0.45888000  1.0
  O  O469  1  0.11846000  0.51905000  0.95888000  1.0
  O  O470  1  0.61846000  0.01905000  0.54112000  1.0
  O  O471  1  0.88153000  0.48095000  0.04112000  1.0
  O  O472  1  0.47341000  0.28891000  0.58667000  1.0
  O  O473  1  0.02659000  0.21108000  0.08667000  1.0
  O  O474  1  0.52659000  0.71109000  0.41334000  1.0
  O  O475  1  0.97341000  0.78891000  0.91334000  1.0
  O  O476  1  0.55518000  0.42619000  0.60059000  1.0
  O  O477  1  0.94481000  0.07381000  0.10059000  1.0
  O  O478  1  0.44482000  0.57381000  0.39941000  1.0
  O  O479  1  0.05518000  0.92619000  0.89941000  1.0
