# generated using pymatgen
data_FeH2C3O7
_symmetry_space_group_name_H-M   'P 1'
_cell_length_a   4.88311000
_cell_length_b   6.69121000
_cell_length_c   8.74606000
_cell_angle_alpha   90.66860000
_cell_angle_beta   97.91900000
_cell_angle_gamma   94.46600000
_symmetry_Int_Tables_number   1
_chemical_formula_structural   FeH2C3O7
_chemical_formula_sum   'Fe2 H4 C6 O14'
_cell_volume   282.11089133
_cell_formula_units_Z   2
loop_
 _symmetry_equiv_pos_site_id
 _symmetry_equiv_pos_as_xyz
  1  'x, y, z'
loop_
 _atom_site_type_symbol
 _atom_site_label
 _atom_site_symmetry_multiplicity
 _atom_site_fract_x
 _atom_site_fract_y
 _atom_site_fract_z
 _atom_site_occupancy
  Fe  Fe0  1  0.50337000  0.29855000  0.24685000  1.0
  Fe  Fe1  1  0.49535000  0.69981000  0.75472000  1.0
  H  H2  1  0.93206000  0.16807000  0.37503000  1.0
  H  H3  1  0.06968000  0.83568000  0.62306000  1.0
  H  H4  1  0.77601000  0.00179000  0.25253000  1.0
  H  H5  1  0.22676000  0.00000000  0.74596000  1.0
  C  C6  1  0.13626000  0.07035000  0.00999000  1.0
  C  C7  1  0.86474000  0.92787000  0.98941000  1.0
  C  C8  1  0.36935000  0.43987000  0.51450000  1.0
  C  C9  1  0.63111000  0.56020000  0.48633000  1.0
  C  C10  1  0.37838000  0.55281000  0.02099000  1.0
  C  C11  1  0.61823000  0.44521000  0.97996000  1.0
  O  O12  1  0.23027000  0.14343000  0.89558000  1.0
  O  O13  1  0.76933000  0.85682000  0.10373000  1.0
  O  O14  1  0.23703000  0.09899000  0.15315000  1.0
  O  O15  1  0.76227000  0.89939000  0.84581000  1.0
  O  O16  1  0.28027000  0.29932000  0.41604000  1.0
  O  O17  1  0.71498000  0.70500000  0.58179000  1.0
  O  O18  1  0.26039000  0.48688000  0.63173000  1.0
  O  O19  1  0.74457000  0.50832000  0.37194000  1.0
  O  O20  1  0.29388000  0.51002000  0.14848000  1.0
  O  O21  1  0.70107000  0.48757000  0.85181000  1.0
  O  O22  1  0.28132000  0.67775000  0.92359000  1.0
  O  O23  1  0.72065000  0.32432000  0.07873000  1.0
  O  O24  1  0.74609000  0.10189000  0.33632000  1.0
  O  O25  1  0.25658000  0.90008000  0.66195000  1.0
