# generated using pymatgen
data_Al6H80C105O34
_symmetry_space_group_name_H-M   'P 1'
_cell_length_a   13.13350000
_cell_length_b   13.25655366
_cell_length_c   27.50010000
_cell_angle_alpha   90.58119673
_cell_angle_beta   90.38630000
_cell_angle_gamma   119.02662999
_symmetry_Int_Tables_number   1
_chemical_formula_structural   Al6H80C105O34
_chemical_formula_sum   'Al6 H80 C105 O34'
_cell_volume   4185.92751170
_cell_formula_units_Z   1
loop_
 _symmetry_equiv_pos_site_id
 _symmetry_equiv_pos_as_xyz
  1  'x, y, z'
loop_
 _atom_site_type_symbol
 _atom_site_label
 _atom_site_symmetry_multiplicity
 _atom_site_fract_x
 _atom_site_fract_y
 _atom_site_fract_z
 _atom_site_occupancy
  Al  Al0  1  0.41287000  0.56346000  0.49786000  1.0
  Al  Al1  1  0.17910000  0.58331000  0.49737000  1.0
  Al  Al2  1  0.40646000  0.80269000  0.49903000  1.0
  Al  Al3  1  0.91476000  0.08391000  0.98490000  1.0
  Al  Al4  1  0.15359000  0.07184000  0.98175000  1.0
  Al  Al5  1  0.93007000  0.84899000  0.98488000  1.0
  H  H6  1  0.35907000  0.94631000  0.19202000  1.0
  H  H7  1  0.60309000  0.66363000  0.19257000  1.0
  H  H8  1  0.01207000  0.32493000  0.18804000  1.0
  H  H9  1  0.33822000  0.79670000  0.27132000  1.0
  H  H10  1  0.48236000  0.70200000  0.27145000  1.0
  H  H11  1  0.13545000  0.47721000  0.26967000  1.0
  H  H12  1  0.31383000  0.79750000  0.18720000  1.0
  H  H13  1  0.52445000  0.73980000  0.18901000  1.0
  H  H14  1  0.15048000  0.44969000  0.18707000  1.0
  H  H15  1  0.99502000  0.69537000  0.19687000  1.0
  H  H16  1  0.77724000  0.03070000  0.21240000  1.0
  H  H17  1  0.31748000  0.29196000  0.21085000  1.0
  H  H18  1  0.30323000  0.00654000  0.86357000  1.0
  H  H19  1  0.72834000  0.68577000  0.86223000  1.0
  H  H20  1  0.96960000  0.25134000  0.85968000  1.0
  H  H21  1  0.37435000  0.93409000  0.62414000  1.0
  H  H22  1  0.56937000  0.61802000  0.62373000  1.0
  H  H23  1  0.03293000  0.41456000  0.62389000  1.0
  H  H24  1  0.42969000  0.06324000  0.79050000  1.0
  H  H25  1  0.66498000  0.56365000  0.78670000  1.0
  H  H26  1  0.89909000  0.31284000  0.78719000  1.0
  H  H27  1  0.45378000  0.03957000  0.70272000  1.0
  H  H28  1  0.61052000  0.54042000  0.69918000  1.0
  H  H29  1  0.92059000  0.36981000  0.70072000  1.0
  H  H30  1  0.95586000  0.71898000  0.85559000  1.0
  H  H31  1  0.75361000  0.02112000  0.86375000  1.0
  H  H32  1  0.27029000  0.20468000  0.84951000  1.0
  H  H33  1  0.87705000  0.61209000  0.77705000  1.0
  H  H34  1  0.71550000  0.09996000  0.78794000  1.0
  H  H35  1  0.37150000  0.23143000  0.77027000  1.0
  H  H36  1  0.90180000  0.58711000  0.68952000  1.0
  H  H37  1  0.66306000  0.07764000  0.70028000  1.0
  H  H38  1  0.39323000  0.28866000  0.68389000  1.0
  H  H39  1  0.36658000  0.94075000  0.27710000  1.0
  H  H40  1  0.57668000  0.64301000  0.27674000  1.0
  H  H41  1  0.00167000  0.34803000  0.27230000  1.0
  H  H42  1  0.02794000  0.64492000  0.61617000  1.0
  H  H43  1  0.59798000  0.95474000  0.62485000  1.0
  H  H44  1  0.33295000  0.36678000  0.61344000  1.0
  H  H45  1  0.20755000  0.98627000  0.29347000  1.0
  H  H46  1  0.78209000  0.76217000  0.30084000  1.0
  H  H47  1  0.99512000  0.16310000  0.29134000  1.0
  H  H48  1  0.20829000  0.00963000  0.21014000  1.0
  H  H49  1  0.82185000  0.77508000  0.21861000  1.0
  H  H50  1  0.99518000  0.13054000  0.20839000  1.0
  H  H51  1  0.05776000  0.90741000  0.20917000  1.0
  H  H52  1  0.89064000  0.92692000  0.22473000  1.0
  H  H53  1  0.12246000  0.11846000  0.21686000  1.0
  H  H54  1  0.12519000  0.63437000  0.26614000  1.0
  H  H55  1  0.57166000  0.92394000  0.27468000  1.0
  H  H56  1  0.32585000  0.47115000  0.27620000  1.0
  H  H57  1  0.01138000  0.66592000  0.27914000  1.0
  H  H58  1  0.71873000  0.01077000  0.29345000  1.0
  H  H59  1  0.32469000  0.34158000  0.29250000  1.0
  H  H60  1  0.01540000  0.92588000  0.29988000  1.0
  H  H61  1  0.85294000  0.93409000  0.34397000  1.0
  H  H62  1  0.14367000  0.15626000  0.33665000  1.0
  H  H63  1  0.08842000  0.54706000  0.11639000  1.0
  H  H64  1  0.02855000  0.64165000  0.11644000  1.0
  H  H65  1  0.92878000  0.41320000  0.17099000  1.0
  H  H66  1  0.86899000  0.50677000  0.17087000  1.0
  H  H67  1  0.83395000  0.47755000  0.08009000  1.0
  H  H68  1  0.76498000  0.34283000  0.10973000  1.0
  H  H69  1  0.89819000  0.38652000  0.07920000  1.0
  H  H70  1  0.56157000  0.05531000  0.14928000  1.0
  H  H71  1  0.71360000  0.11883000  0.16178000  1.0
  H  H72  1  0.52649000  0.07312000  0.23809000  1.0
  H  H73  1  0.67766000  0.14102000  0.25006000  1.0
  H  H74  1  0.71085000  0.30350000  0.19507000  1.0
  H  H75  1  0.60887000  0.28716000  0.24045000  1.0
  H  H76  1  0.56039000  0.23500000  0.18025000  1.0
  H  H77  1  0.46543000  0.53493000  0.13813000  1.0
  H  H78  1  0.39035000  0.38225000  0.13221000  1.0
  H  H79  1  0.56067000  0.50966000  0.21634000  1.0
  H  H80  1  0.50343000  0.36381000  0.19989000  1.0
  H  H81  1  0.61221000  0.41939000  0.12060000  1.0
  H  H82  1  0.70827000  0.47942000  0.17108000  1.0
  H  H83  1  0.66894000  0.56739000  0.13613000  1.0
  H  H84  1  0.52586000  0.48251000  0.46936000  1.0
  H  H85  1  0.81580000  0.17740000  0.01583000  1.0
  C  C86  1  0.54393000  0.76804000  0.43195000  1.0
  C  C87  1  0.20517000  0.44204000  0.42938000  1.0
  C  C88  1  0.22916000  0.76182000  0.42856000  1.0
  C  C89  1  0.08343000  0.71067000  0.20599000  1.0
  C  C90  1  0.69394000  0.95049000  0.21736000  1.0
  C  C91  1  0.28128000  0.35077000  0.21633000  1.0
  C  C92  1  0.09548000  0.69802000  0.26115000  1.0
  C  C93  1  0.65960000  0.93476000  0.27158000  1.0
  C  C94  1  0.27945000  0.37711000  0.27082000  1.0
  C  C95  1  0.16185000  0.85395000  0.13951000  1.0
  C  C96  1  0.73941000  0.85802000  0.14895000  1.0
  C  C97  1  0.15404000  0.26678000  0.14412000  1.0
  C  C98  1  0.19473000  0.79996000  0.33728000  1.0
  C  C99  1  0.62974000  0.81400000  0.34333000  1.0
  C  C100  1  0.15641000  0.35396000  0.34035000  1.0
  C  C101  1  0.20644000  0.78705000  0.38033000  1.0
  C  C102  1  0.60102000  0.80032000  0.38571000  1.0
  C  C103  1  0.16893000  0.38304000  0.38299000  1.0
  C  C104  1  0.10246000  0.18878000  0.91058000  1.0
  C  C105  1  0.10706000  0.88874000  0.91508000  1.0
  C  C106  1  0.79013000  0.87755000  0.91800000  1.0
  C  C107  1  0.12547000  0.20671000  0.05119000  1.0
  C  C108  1  0.11869000  0.89574000  0.05002000  1.0
  C  C109  1  0.80780000  0.89123000  0.05742000  1.0
  C  C110  1  0.29251000  0.87862000  0.64209000  1.0
  C  C111  1  0.59022000  0.69706000  0.64392000  1.0
  C  C112  1  0.09079000  0.38740000  0.64087000  1.0
  C  C113  1  0.27969000  0.89474000  0.69166000  1.0
  C  C114  1  0.62320000  0.70949000  0.69303000  1.0
  C  C115  1  0.07354000  0.34989000  0.68908000  1.0
  C  C116  1  0.25123000  0.92277000  0.79283000  1.0
  C  C117  1  0.68633000  0.73646000  0.79355000  1.0
  C  C118  1  0.04864000  0.28421000  0.78849000  1.0
  C  C119  1  0.53295000  0.76185000  0.56951000  1.0
  C  C120  1  0.21142000  0.44799000  0.56575000  1.0
  C  C121  1  0.22440000  0.76514000  0.56464000  1.0
  C  C122  1  0.35840000  0.99641000  0.76887000  1.0
  C  C123  1  0.66067000  0.63276000  0.76711000  1.0
  C  C124  1  0.96900000  0.31439000  0.76542000  1.0
  C  C125  1  0.37177000  0.98329000  0.72047000  1.0
  C  C126  1  0.63060000  0.61985000  0.71896000  1.0
  C  C127  1  0.98083000  0.34573000  0.71782000  1.0
  C  C128  1  0.23424000  0.93702000  0.84216000  1.0
  C  C129  1  0.71963000  0.75248000  0.84276000  1.0
  C  C130  1  0.03940000  0.25401000  0.83754000  1.0
  C  C131  1  0.12824000  0.86392000  0.86438000  1.0
  C  C132  1  0.74358000  0.85469000  0.86733000  1.0
  C  C133  1  0.11963000  0.22664000  0.85913000  1.0
  C  C134  1  0.09657000  0.71484000  0.63756000  1.0
  C  C135  1  0.60630000  0.88787000  0.64438000  1.0
  C  C136  1  0.26081000  0.36023000  0.63511000  1.0
  C  C137  1  0.07958000  0.72887000  0.68694000  1.0
  C  C138  1  0.64050000  0.90431000  0.69349000  1.0
  C  C139  1  0.24632000  0.32155000  0.68307000  1.0
  C  C140  1  0.17234000  0.81904000  0.71466000  1.0
  C  C141  1  0.64782000  0.81373000  0.71846000  1.0
  C  C142  1  0.15299000  0.31811000  0.71088000  1.0
  C  C143  1  0.97272000  0.65475000  0.71100000  1.0
  C  C144  1  0.66662000  0.00819000  0.71989000  1.0
  C  C145  1  0.32391000  0.28811000  0.70576000  1.0
  C  C146  1  0.95905000  0.66849000  0.75934000  1.0
  C  C147  1  0.69580000  0.02070000  0.76812000  1.0
  C  C148  1  0.31206000  0.25680000  0.75339000  1.0
  C  C149  1  0.05080000  0.75755000  0.78811000  1.0
  C  C150  1  0.70264000  0.93086000  0.79413000  1.0
  C  C151  1  0.22151000  0.25604000  0.78258000  1.0
  C  C152  1  0.30535000  0.85580000  0.26133000  1.0
  C  C153  1  0.57069000  0.71799000  0.26345000  1.0
  C  C154  1  0.09224000  0.38494000  0.26021000  1.0
  C  C155  1  0.15822000  0.83297000  0.76508000  1.0
  C  C156  1  0.67884000  0.82697000  0.76861000  1.0
  C  C157  1  0.14075000  0.28565000  0.76046000  1.0
  C  C158  1  0.03785000  0.77413000  0.83766000  1.0
  C  C159  1  0.73393000  0.94256000  0.84344000  1.0
  C  C160  1  0.20981000  0.22760000  0.83195000  1.0
  C  C161  1  0.20229000  0.78878000  0.61532000  1.0
  C  C162  1  0.58046000  0.78483000  0.62004000  1.0
  C  C163  1  0.18473000  0.39442000  0.61451000  1.0
  C  C164  1  0.14531000  0.90419000  0.27568000  1.0
  C  C165  1  0.78173000  0.83839000  0.28539000  1.0
  C  C166  1  0.08491000  0.19678000  0.27831000  1.0
  C  C167  1  0.14428000  0.92113000  0.21997000  1.0
  C  C168  1  0.80876000  0.84705000  0.23079000  1.0
  C  C169  1  0.08450000  0.17508000  0.22319000  1.0
  C  C170  1  0.14883000  0.87151000  0.09713000  1.0
  C  C171  1  0.76481000  0.86607000  0.10622000  1.0
  C  C172  1  0.15077000  0.24818000  0.10062000  1.0
  C  C173  1  0.18497000  0.81356000  0.28534000  1.0
  C  C174  1  0.65946000  0.82689000  0.29232000  1.0
  C  C175  1  0.15314000  0.32870000  0.28883000  1.0
  C  C176  1  0.29590000  0.86104000  0.20543000  1.0
  C  C177  1  0.59501000  0.73518000  0.20858000  1.0
  C  C178  1  0.09898000  0.36702000  0.20510000  1.0
  C  C179  1  0.17206000  0.83643000  0.19100000  1.0
  C  C180  1  0.70988000  0.84770000  0.20002000  1.0
  C  C181  1  0.15485000  0.28964000  0.19576000  1.0
  C  C182  1  0.03717000  0.57646000  0.13789000  1.0
  C  C183  1  0.91769000  0.47550000  0.14861000  1.0
  C  C184  1  0.84995000  0.41743000  0.10188000  1.0
  C  C185  1  0.62612000  0.06684000  0.17760000  1.0
  C  C186  1  0.61216000  0.12874000  0.22206000  1.0
  C  C187  1  0.62369000  0.24497000  0.20882000  1.0
  C  C188  1  0.43331000  0.45453000  0.15857000  1.0
  C  C189  1  0.53357000  0.45005000  0.18481000  1.0
  C  C190  1  0.63618000  0.48072000  0.15132000  1.0
  O  O191  1  0.30738000  0.47052000  0.44337000  1.0
  O  O192  1  0.15381000  0.66627000  0.44689000  1.0
  O  O193  1  0.52313000  0.84311000  0.45324000  1.0
  O  O194  1  0.82929000  0.98819000  0.04109000  1.0
  O  O195  1  0.20130000  0.18809000  0.02895000  1.0
  O  O196  1  0.02043000  0.82078000  0.03157000  1.0
  O  O197  1  0.51495000  0.66781000  0.44653000  1.0
  O  O198  1  0.13206000  0.46498000  0.45129000  1.0
  O  O199  1  0.32578000  0.83411000  0.44896000  1.0
  O  O200  1  0.30554000  0.46570000  0.54638000  1.0
  O  O201  1  0.14846000  0.67159000  0.54366000  1.0
  O  O202  1  0.51486000  0.83963000  0.54938000  1.0
  O  O203  1  0.50897000  0.66591000  0.55022000  1.0
  O  O204  1  0.13893000  0.47723000  0.54729000  1.0
  O  O205  1  0.32148000  0.83633000  0.54562000  1.0
  O  O206  1  0.33220000  0.65090000  0.49753000  1.0
  O  O207  1  0.80954000  0.97149000  0.93786000  1.0
  O  O208  1  0.18298000  0.17383000  0.93109000  1.0
  O  O209  1  0.01145000  0.81755000  0.93500000  1.0
  O  O210  1  0.00854000  0.17009000  0.93038000  1.0
  O  O211  1  0.18318000  0.98382000  0.93504000  1.0
  O  O212  1  0.81317000  0.80247000  0.93772000  1.0
  O  O213  1  0.00071000  0.00060000  0.98442000  1.0
  O  O214  1  0.02807000  0.18732000  0.03421000  1.0
  O  O215  1  0.18892000  0.99215000  0.03100000  1.0
  O  O216  1  0.82412000  0.81411000  0.03510000  1.0
  O  O217  1  0.03310000  0.86234000  0.29608000  1.0
  O  O218  1  0.87059000  0.94089000  0.30933000  1.0
  O  O219  1  0.13754000  0.13714000  0.30198000  1.0
  O  O220  1  0.10526000  0.62780000  0.18143000  1.0
  O  O221  1  0.60675000  0.95327000  0.18715000  1.0
  O  O222  1  0.35028000  0.45646000  0.19166000  1.0
  O  O223  1  0.48662000  0.48282000  0.49891000  1.0
  O  O224  1  0.83702000  0.16087000  0.98434000  1.0
