# generated using pymatgen
data_CoH15C20S2N5O6
_symmetry_space_group_name_H-M   'P 1'
_cell_length_a   7.23312000
_cell_length_b   11.16180000
_cell_length_c   14.21880000
_cell_angle_alpha   108.15600000
_cell_angle_beta   102.66100000
_cell_angle_gamma   96.40320000
_symmetry_Int_Tables_number   1
_chemical_formula_structural   CoH15C20S2N5O6
_chemical_formula_sum   'Co2 H30 C40 S4 N10 O12'
_cell_volume   1044.05993358
_cell_formula_units_Z   2
loop_
 _symmetry_equiv_pos_site_id
 _symmetry_equiv_pos_as_xyz
  1  'x, y, z'
loop_
 _atom_site_type_symbol
 _atom_site_label
 _atom_site_symmetry_multiplicity
 _atom_site_fract_x
 _atom_site_fract_y
 _atom_site_fract_z
 _atom_site_occupancy
  Co  Co0  1  0.00000000  0.00000000  0.50000000  1.0
  Co  Co1  1  0.00001000  0.50000000  0.50000000  1.0
  H  H2  1  0.40379000  0.13493000  0.58694000  1.0
  H  H3  1  0.59620000  0.86507000  0.41306000  1.0
  H  H4  1  0.61900000  0.25886000  0.76021000  1.0
  H  H5  1  0.38100000  0.74113000  0.23978000  1.0
  H  H6  1  0.48096000  0.30000000  0.91380000  1.0
  H  H7  1  0.51903000  0.70000000  0.08620000  1.0
  H  H8  1  0.93451000  0.08361000  0.70340000  1.0
  H  H9  1  0.06548000  0.91638000  0.29659000  1.0
  H  H10  1  0.41444000  0.56188000  0.59467000  1.0
  H  H11  1  0.58557000  0.43813000  0.40533000  1.0
  H  H12  1  0.63618000  0.58560000  0.76340000  1.0
  H  H13  1  0.36382000  0.41440000  0.23661000  1.0
  H  H14  1  0.49544000  0.56438000  0.90511000  1.0
  H  H15  1  0.50457000  0.43562000  0.09490000  1.0
  H  H16  1  0.93056000  0.49282000  0.69596000  1.0
  H  H17  1  0.06945000  0.50719000  0.30404000  1.0
  H  H18  1  0.86410000  0.18272000  0.93877000  1.0
  H  H19  1  0.13590000  0.81728000  0.06123000  1.0
  H  H20  1  0.87327000  0.47646000  0.92679000  1.0
  H  H21  1  0.12674000  0.52354000  0.07320000  1.0
  H  H22  1  0.79821000  0.90925000  0.74015000  1.0
  H  H23  1  0.20179000  0.09075000  0.25984000  1.0
  H  H24  1  0.46667000  0.90548000  0.63989000  1.0
  H  H25  1  0.53332000  0.09451000  0.36011000  1.0
  H  H26  1  0.19033000  0.88138000  0.71787000  1.0
  H  H27  1  0.80967000  0.11861000  0.28213000  1.0
  H  H28  1  0.59986000  0.85965000  0.97972000  1.0
  H  H29  1  0.40013000  0.14035000  0.02028000  1.0
  H  H30  1  0.93498000  0.88625000  0.89126000  1.0
  H  H31  1  0.06501000  0.11375000  0.10874000  1.0
  C  C32  1  0.20410000  0.73517000  0.47699000  1.0
  C  C33  1  0.79591000  0.26483000  0.52301000  1.0
  C  C34  1  0.84732000  0.78237000  0.56350000  1.0
  C  C35  1  0.15268000  0.21762000  0.43649000  1.0
  C  C36  1  0.34831000  0.15287000  0.65418000  1.0
  C  C37  1  0.65169000  0.84713000  0.34582000  1.0
  C  C38  1  0.46773000  0.22321000  0.75188000  1.0
  C  C39  1  0.53227000  0.77679000  0.24812000  1.0
  C  C40  1  0.39166000  0.24541000  0.83619000  1.0
  C  C41  1  0.60834000  0.75459000  0.16381000  1.0
  C  C42  1  0.19590000  0.19590000  0.81885000  1.0
  C  C43  1  0.80410000  0.80410000  0.18115000  1.0
  C  C44  1  0.08610000  0.12396000  0.71892000  1.0
  C  C45  1  0.91389000  0.87604000  0.28108000  1.0
  C  C46  1  0.10480000  0.21951000  0.90566000  1.0
  C  C47  1  0.89520000  0.78048000  0.09433000  1.0
  C  C48  1  0.35797000  0.55112000  0.65704000  1.0
  C  C49  1  0.64204000  0.44888000  0.34296000  1.0
  C  C50  1  0.48051000  0.56430000  0.75146000  1.0
  C  C51  1  0.51949000  0.43571000  0.24854000  1.0
  C  C52  1  0.40261000  0.55240000  0.82998000  1.0
  C  C53  1  0.59740000  0.44760000  0.17002000  1.0
  C  C54  1  0.20129000  0.52688000  0.81075000  1.0
  C  C55  1  0.79871000  0.47313000  0.18925000  1.0
  C  C56  1  0.08702000  0.51344000  0.71357000  1.0
  C  C57  1  0.91299000  0.48657000  0.28643000  1.0
  C  C58  1  0.11307000  0.51650000  0.89385000  1.0
  C  C59  1  0.88693000  0.48350000  0.10615000  1.0
  C  C60  1  0.67472000  0.89793000  0.77069000  1.0
  C  C61  1  0.32527000  0.10207000  0.22931000  1.0
  C  C62  1  0.49005000  0.89702000  0.71568000  1.0
  C  C63  1  0.50995000  0.10298000  0.28432000  1.0
  C  C64  1  0.33767000  0.88427000  0.75895000  1.0
  C  C65  1  0.66232000  0.11573000  0.24105000  1.0
  C  C66  1  0.37698000  0.87287000  0.85634000  1.0
  C  C67  1  0.62302000  0.12713000  0.14366000  1.0
  C  C68  1  0.56684000  0.87205000  0.90535000  1.0
  C  C69  1  0.43315000  0.12795000  0.09465000  1.0
  C  C70  1  0.22177000  0.86004000  0.90823000  1.0
  C  C71  1  0.77822000  0.13996000  0.09177000  1.0
  S  S72  1  0.27336000  0.86816000  0.45937000  1.0
  S  S73  1  0.72665000  0.13185000  0.54063000  1.0
  S  S74  1  0.78162000  0.65130000  0.58433000  1.0
  S  S75  1  0.21838000  0.34870000  0.41567000  1.0
  N  N76  1  0.15214000  0.64022000  0.49221000  1.0
  N  N77  1  0.84787000  0.35979000  0.50778000  1.0
  N  N78  1  0.89858000  0.87827000  0.54916000  1.0
  N  N79  1  0.10142000  0.12174000  0.45084000  1.0
  N  N80  1  0.16051000  0.10220000  0.63762000  1.0
  N  N81  1  0.83948000  0.89780000  0.36239000  1.0
  N  N82  1  0.16335000  0.52509000  0.63760000  1.0
  N  N83  1  0.83665000  0.47491000  0.36240000  1.0
  N  N84  1  0.71356000  0.88478000  0.86353000  1.0
  N  N85  1  0.28644000  0.11522000  0.13647000  1.0
  O  O86  1  0.91537000  0.17294000  0.87558000  1.0
  O  O87  1  0.08463000  0.82706000  0.12442000  1.0
  O  O88  1  0.19688000  0.27727000  0.99577000  1.0
  O  O89  1  0.80312000  0.72272000  0.00423000  1.0
  O  O90  1  0.92269000  0.47967000  0.86497000  1.0
  O  O91  1  0.07731000  0.52033000  0.13504000  1.0
  O  O92  1  0.21389000  0.54011000  0.98288000  1.0
  O  O93  1  0.78612000  0.45989000  0.01712000  1.0
  O  O94  1  0.06842000  0.90098000  0.87167000  1.0
  O  O95  1  0.93157000  0.09901000  0.12833000  1.0
  O  O96  1  0.24610000  0.81575000  0.97929000  1.0
  O  O97  1  0.75389000  0.18424000  0.02071000  1.0
