# generated using pymatgen
data_YbH14C18(NO3)2
_symmetry_space_group_name_H-M   'P 1'
_cell_length_a   7.30231000
_cell_length_b   9.97901000
_cell_length_c   12.85310000
_cell_angle_alpha   112.49300000
_cell_angle_beta   91.32670000
_cell_angle_gamma   97.79910000
_symmetry_Int_Tables_number   1
_chemical_formula_structural   YbH14C18(NO3)2
_chemical_formula_sum   'Yb2 H28 C36 N4 O12'
_cell_volume   854.45992762
_cell_formula_units_Z   2
loop_
 _symmetry_equiv_pos_site_id
 _symmetry_equiv_pos_as_xyz
  1  'x, y, z'
loop_
 _atom_site_type_symbol
 _atom_site_label
 _atom_site_symmetry_multiplicity
 _atom_site_fract_x
 _atom_site_fract_y
 _atom_site_fract_z
 _atom_site_occupancy
  Yb  Yb0  1  0.70822000  0.57422000  0.68849000  1.0
  Yb  Yb1  1  0.29178000  0.42578000  0.31151000  1.0
  H  H2  1  0.24688000  0.32035000  0.69050000  1.0
  H  H3  1  0.75311000  0.67965000  0.30950000  1.0
  H  H4  1  0.30152000  0.19457000  0.55912000  1.0
  H  H5  1  0.69848000  0.80543000  0.44088000  1.0
  H  H6  1  0.98350000  0.17785000  0.47209000  1.0
  H  H7  1  0.01649000  0.82215000  0.52791000  1.0
  H  H8  1  0.96329000  0.13462000  0.59303000  1.0
  H  H9  1  0.03671000  0.86538000  0.40697000  1.0
  H  H10  1  0.50110000  0.66777000  0.05407000  1.0
  H  H11  1  0.49890000  0.33223000  0.94593000  1.0
  H  H12  1  0.32470000  0.54202000  0.95854000  1.0
  H  H13  1  0.67530000  0.45798000  0.04145000  1.0
  H  H14  1  0.38541000  0.73379000  0.60735000  1.0
  H  H15  1  0.61459000  0.26621000  0.39265000  1.0
  H  H16  1  0.31875000  0.97509000  0.61413000  1.0
  H  H17  1  0.68125000  0.02492000  0.38587000  1.0
  H  H18  1  0.54839000  0.20439000  0.72399000  1.0
  H  H19  1  0.45162000  0.79561000  0.27601000  1.0
  H  H20  1  0.84348000  0.31548000  0.84366000  1.0
  H  H21  1  0.15652000  0.68452000  0.15634000  1.0
  H  H22  1  0.13108000  0.28446000  0.93512000  1.0
  H  H23  1  0.86891000  0.71554000  0.06488000  1.0
  H  H24  1  0.32648000  0.11966000  0.97498000  1.0
  H  H25  1  0.67352000  0.88034000  0.02502000  1.0
  H  H26  1  0.37793000  0.85986000  0.93683000  1.0
  H  H27  1  0.62208000  0.14014000  0.06317000  1.0
  H  H28  1  0.13571000  0.65231000  0.82033000  1.0
  H  H29  1  0.86429000  0.34769000  0.17967000  1.0
  C  C30  1  0.28647000  0.40556000  0.56174000  1.0
  C  C31  1  0.71353000  0.59444000  0.43826000  1.0
  C  C32  1  0.21671000  0.28143000  0.59881000  1.0
  C  C33  1  0.78329000  0.71857000  0.40119000  1.0
  C  C34  1  0.01128000  0.22330000  0.56445000  1.0
  C  C35  1  0.98872000  0.77670000  0.43555000  1.0
  C  C36  1  0.89275000  0.34289000  0.61277000  1.0
  C  C37  1  0.10725000  0.65711000  0.38723000  1.0
  C  C38  1  0.57376000  0.57105000  0.88389000  1.0
  C  C39  1  0.42624000  0.42895000  0.11611000  1.0
  C  C40  1  0.47471000  0.56053000  0.98287000  1.0
  C  C41  1  0.52529000  0.43947000  0.01713000  1.0
  C  C42  1  0.48211000  0.83398000  0.65381000  1.0
  C  C43  1  0.51789000  0.16603000  0.34620000  1.0
  C  C44  1  0.44510000  0.97096000  0.65867000  1.0
  C  C45  1  0.55490000  0.02904000  0.34133000  1.0
  C  C46  1  0.57017000  0.09597000  0.71838000  1.0
  C  C47  1  0.42983000  0.90403000  0.28162000  1.0
  C  C48  1  0.73404000  0.08291000  0.77240000  1.0
  C  C49  1  0.26596000  0.91709000  0.22760000  1.0
  C  C50  1  0.87041000  0.20741000  0.83614000  1.0
  C  C51  1  0.12958000  0.79259000  0.16386000  1.0
  C  C52  1  0.02807000  0.18969000  0.88559000  1.0
  C  C53  1  0.97194000  0.81031000  0.11441000  1.0
  C  C54  1  0.06316000  0.04709000  0.87382000  1.0
  C  C55  1  0.93683000  0.95291000  0.12618000  1.0
  C  C56  1  0.22588000  0.02478000  0.92247000  1.0
  C  C57  1  0.77412000  0.97522000  0.07753000  1.0
  C  C58  1  0.25277000  0.88362000  0.90435000  1.0
  C  C59  1  0.74723000  0.11638000  0.09565000  1.0
  C  C60  1  0.11651000  0.76536000  0.83897000  1.0
  C  C61  1  0.88349000  0.23464000  0.16103000  1.0
  C  C62  1  0.93105000  0.92125000  0.81058000  1.0
  C  C63  1  0.06895000  0.07875000  0.18942000  1.0
  C  C64  1  0.76240000  0.93978000  0.76062000  1.0
  C  C65  1  0.23760000  0.06023000  0.23938000  1.0
  N  N66  1  0.63640000  0.81803000  0.70230000  1.0
  N  N67  1  0.36360000  0.18197000  0.29770000  1.0
  N  N68  1  0.95881000  0.78245000  0.79426000  1.0
  N  N69  1  0.04120000  0.21755000  0.20574000  1.0
  O  O70  1  0.41968000  0.50310000  0.62111000  1.0
  O  O71  1  0.58032000  0.49690000  0.37889000  1.0
  O  O72  1  0.21150000  0.40392000  0.47110000  1.0
  O  O73  1  0.78850000  0.59608000  0.52890000  1.0
  O  O74  1  0.96958000  0.46913000  0.68459000  1.0
  O  O75  1  0.03042000  0.53087000  0.31541000  1.0
  O  O76  1  0.72075000  0.31955000  0.58178000  1.0
  O  O77  1  0.27925000  0.68044000  0.41822000  1.0
  O  O78  1  0.64757000  0.46325000  0.81930000  1.0
  O  O79  1  0.35244000  0.53675000  0.18071000  1.0
  O  O80  1  0.57982000  0.68754000  0.86413000  1.0
  O  O81  1  0.42018000  0.31246000  0.13587000  1.0
