# generated using pymatgen
data_DyAgH8C14(NO4)2
_symmetry_space_group_name_H-M   'P 1'
_cell_length_a   9.10335000
_cell_length_b   9.69359424
_cell_length_c   22.06770000
_cell_angle_alpha   90.00019474
_cell_angle_beta   90.00010000
_cell_angle_gamma   62.57034913
_symmetry_Int_Tables_number   1
_chemical_formula_structural   DyAgH8C14(NO4)2
_chemical_formula_sum   'Dy4 Ag4 H32 C56 N8 O32'
_cell_volume   1728.41983762
_cell_formula_units_Z   4
loop_
 _symmetry_equiv_pos_site_id
 _symmetry_equiv_pos_as_xyz
  1  'x, y, z'
loop_
 _atom_site_type_symbol
 _atom_site_label
 _atom_site_symmetry_multiplicity
 _atom_site_fract_x
 _atom_site_fract_y
 _atom_site_fract_z
 _atom_site_occupancy
  Dy  Dy0  1  0.73294000  0.64978000  0.99121000  1.0
  Dy  Dy1  1  0.76707000  0.35022000  0.49121000  1.0
  Dy  Dy2  1  0.26706000  0.35022000  0.00879000  1.0
  Dy  Dy3  1  0.23293000  0.64979000  0.50879000  1.0
  Ag  Ag4  1  0.67023000  0.30697000  0.14988000  1.0
  Ag  Ag5  1  0.82977000  0.69303000  0.64988000  1.0
  Ag  Ag6  1  0.32977000  0.69302000  0.85012000  1.0
  Ag  Ag7  1  0.17023000  0.30697000  0.35012000  1.0
  H  H8  1  0.30403000  0.76623000  0.06840000  1.0
  H  H9  1  0.19597000  0.23377000  0.56840000  1.0
  H  H10  1  0.69597000  0.23377000  0.93160000  1.0
  H  H11  1  0.80403000  0.76622000  0.43160000  1.0
  H  H12  1  0.30874000  0.97741000  0.13270000  1.0
  H  H13  1  0.19126000  0.02259000  0.63270000  1.0
  H  H14  1  0.69126000  0.02259000  0.86730000  1.0
  H  H15  1  0.80873000  0.97741000  0.36730000  1.0
  H  H16  1  0.03999000  0.19702000  0.16499000  1.0
  H  H17  1  0.46000000  0.80298000  0.66499000  1.0
  H  H18  1  0.96001000  0.80297000  0.83501000  1.0
  H  H19  1  0.53999000  0.19702000  0.33501000  1.0
  H  H20  1  0.77167000  0.02414000  0.06654000  1.0
  H  H21  1  0.72833000  0.97586000  0.56654000  1.0
  H  H22  1  0.22834000  0.97585000  0.93346000  1.0
  H  H23  1  0.27166000  0.02414000  0.43346000  1.0
  H  H24  1  0.66482000  0.34643000  0.28406000  1.0
  H  H25  1  0.83518000  0.65358000  0.78406000  1.0
  H  H26  1  0.33518000  0.65358000  0.71594000  1.0
  H  H27  1  0.16481000  0.34643000  0.21594000  1.0
  H  H28  1  0.19507000  0.70726000  0.34320000  1.0
  H  H29  1  0.30492000  0.29274000  0.84319000  1.0
  H  H30  1  0.80493000  0.29275000  0.65681000  1.0
  H  H31  1  0.69507000  0.70726000  0.15681000  1.0
  H  H32  1  0.10754000  0.75136000  0.23256000  1.0
  H  H33  1  0.39246000  0.24863000  0.73255000  1.0
  H  H34  1  0.89246000  0.24864000  0.76745000  1.0
  H  H35  1  0.60755000  0.75136000  0.26745000  1.0
  H  H36  1  0.30491000  0.57902000  0.15373000  1.0
  H  H37  1  0.19508000  0.42098000  0.65372000  1.0
  H  H38  1  0.69510000  0.42097000  0.84628000  1.0
  H  H39  1  0.80491000  0.57903000  0.34627000  1.0
  C  C40  1  0.02750000  0.75280000  0.02555000  1.0
  C  C41  1  0.47251000  0.24719000  0.52555000  1.0
  C  C42  1  0.97251000  0.24719000  0.97445000  1.0
  C  C43  1  0.52749000  0.75280000  0.47445000  1.0
  C  C44  1  0.03693000  0.87894000  0.06288000  1.0
  C  C45  1  0.46308000  0.12105000  0.56288000  1.0
  C  C46  1  0.96308000  0.12105000  0.93712000  1.0
  C  C47  1  0.53692000  0.87894000  0.43712000  1.0
  C  C48  1  0.18928000  0.86548000  0.08230000  1.0
  C  C49  1  0.31071000  0.13452000  0.58230000  1.0
  C  C50  1  0.81072000  0.13451000  0.91770000  1.0
  C  C51  1  0.68928000  0.86548000  0.41770000  1.0
  C  C52  1  0.19230000  0.98095000  0.11889000  1.0
  C  C53  1  0.30770000  0.01905000  0.61889000  1.0
  C  C54  1  0.80770000  0.01905000  0.88111000  1.0
  C  C55  1  0.69229000  0.98095000  0.38110000  1.0
  C  C56  1  0.04304000  0.10480000  0.13613000  1.0
  C  C57  1  0.45695000  0.89520000  0.63613000  1.0
  C  C58  1  0.95695000  0.89520000  0.86387000  1.0
  C  C59  1  0.54304000  0.10480000  0.36387000  1.0
  C  C60  1  0.89255000  0.00885000  0.08112000  1.0
  C  C61  1  0.60744000  0.99115000  0.58112000  1.0
  C  C62  1  0.10745000  0.99114000  0.91888000  1.0
  C  C63  1  0.39255000  0.00885000  0.41888000  1.0
  C  C64  1  0.53977000  0.43537000  0.27373000  1.0
  C  C65  1  0.96023000  0.56463000  0.77373000  1.0
  C  C66  1  0.46023000  0.56463000  0.72627000  1.0
  C  C67  1  0.03977000  0.43537000  0.22627000  1.0
  C  C68  1  0.43667000  0.52243000  0.32077000  1.0
  C  C69  1  0.06333000  0.47757000  0.82077000  1.0
  C  C70  1  0.56332000  0.47758000  0.67923000  1.0
  C  C71  1  0.93667000  0.52243000  0.17923000  1.0
  C  C72  1  0.27736000  0.63838000  0.30671000  1.0
  C  C73  1  0.22265000  0.36161000  0.80670000  1.0
  C  C74  1  0.72265000  0.36162000  0.69330000  1.0
  C  C75  1  0.77736000  0.63838000  0.19329000  1.0
  C  C76  1  0.22971000  0.66173000  0.24593000  1.0
  C  C77  1  0.27028000  0.33827000  0.74592000  1.0
  C  C78  1  0.77029000  0.33827000  0.75408000  1.0
  C  C79  1  0.72971000  0.66173000  0.25407000  1.0
  C  C80  1  0.33905000  0.56754000  0.20150000  1.0
  C  C81  1  0.16095000  0.43246000  0.70149000  1.0
  C  C82  1  0.66096000  0.43246000  0.79851000  1.0
  C  C83  1  0.83905000  0.56754000  0.29851000  1.0
  C  C84  1  0.50066000  0.48844000  0.38464000  1.0
  C  C85  1  0.99935000  0.51156000  0.88464000  1.0
  C  C86  1  0.49934000  0.51157000  0.61536000  1.0
  C  C87  1  0.00066000  0.48843000  0.11536000  1.0
  C  C88  1  0.49898000  0.99283000  0.03509000  1.0
  C  C89  1  0.00103000  0.00717000  0.53510000  1.0
  C  C90  1  0.50103000  0.00717000  0.96490000  1.0
  C  C91  1  0.99897000  0.99284000  0.46491000  1.0
  C  C92  1  0.52256000  0.48049000  0.03366000  1.0
  C  C93  1  0.97744000  0.51952000  0.53366000  1.0
  C  C94  1  0.47744000  0.51951000  0.96634000  1.0
  C  C95  1  0.02256000  0.48050000  0.46634000  1.0
  N  N96  1  0.89506000  0.11893000  0.11790000  1.0
  N  N97  1  0.60493000  0.88107000  0.61790000  1.0
  N  N98  1  0.10494000  0.88106000  0.88210000  1.0
  N  N99  1  0.39506000  0.11893000  0.38210000  1.0
  N  N100  1  0.49238000  0.45555000  0.21523000  1.0
  N  N101  1  0.00761000  0.54446000  0.71523000  1.0
  N  N102  1  0.50761000  0.54446000  0.78477000  1.0
  N  N103  1  0.99238000  0.45555000  0.28477000  1.0
  O  O104  1  0.89173000  0.78486000  0.99906000  1.0
  O  O105  1  0.60827000  0.21514000  0.49906000  1.0
  O  O106  1  0.10828000  0.21513000  0.00094000  1.0
  O  O107  1  0.39172000  0.78487000  0.50094000  1.0
  O  O108  1  0.15709000  0.62313000  0.02529000  1.0
  O  O109  1  0.34291000  0.37688000  0.52529000  1.0
  O  O110  1  0.84292000  0.37687000  0.97471000  1.0
  O  O111  1  0.65709000  0.62313000  0.47472000  1.0
  O  O112  1  0.65298000  0.39532000  0.39205000  1.0
  O  O113  1  0.84702000  0.60468000  0.89205000  1.0
  O  O114  1  0.34703000  0.60468000  0.60794000  1.0
  O  O115  1  0.15299000  0.39531000  0.10795000  1.0
  O  O116  1  0.39842000  0.55510000  0.42675000  1.0
  O  O117  1  0.10158000  0.44491000  0.92675000  1.0
  O  O118  1  0.60159000  0.44491000  0.57325000  1.0
  O  O119  1  0.89843000  0.55508000  0.07325000  1.0
  O  O120  1  0.48224000  0.38317000  0.05759000  1.0
  O  O121  1  0.01776000  0.61684000  0.55759000  1.0
  O  O122  1  0.51776000  0.61683000  0.94241000  1.0
  O  O123  1  0.98224000  0.38318000  0.44241000  1.0
  O  O124  1  0.59603000  0.54630000  0.06006000  1.0
  O  O125  1  0.90398000  0.45369000  0.56005000  1.0
  O  O126  1  0.40399000  0.45368000  0.93995000  1.0
  O  O127  1  0.09601000  0.54633000  0.43995000  1.0
  O  O128  1  0.56880000  0.85620000  0.05689000  1.0
  O  O129  1  0.93119000  0.14381000  0.55690000  1.0
  O  O130  1  0.43119000  0.14381000  0.94310000  1.0
  O  O131  1  0.06881000  0.85620000  0.44311000  1.0
  O  O132  1  0.42813000  0.11796000  0.06474000  1.0
  O  O133  1  0.07189000  0.88204000  0.56475000  1.0
  O  O134  1  0.57188000  0.88204000  0.93525000  1.0
  O  O135  1  0.92813000  0.11796000  0.43526000  1.0
