# generated using pymatgen
data_ScH5C8O5
_symmetry_space_group_name_H-M   'P 1'
_cell_length_a   5.83137000
_cell_length_b   7.42773000
_cell_length_c   11.08114702
_cell_angle_alpha   109.57793604
_cell_angle_beta   105.23751873
_cell_angle_gamma   90.04430000
_symmetry_Int_Tables_number   1
_chemical_formula_structural   ScH5C8O5
_chemical_formula_sum   'Sc2 H10 C16 O10'
_cell_volume   434.23195793
_cell_formula_units_Z   2
loop_
 _symmetry_equiv_pos_site_id
 _symmetry_equiv_pos_as_xyz
  1  'x, y, z'
loop_
 _atom_site_type_symbol
 _atom_site_label
 _atom_site_symmetry_multiplicity
 _atom_site_fract_x
 _atom_site_fract_y
 _atom_site_fract_z
 _atom_site_occupancy
  C  C0  1  0.66494500  0.78895500  0.78810000  1.0
  C  C1  1  0.33508500  0.50120000  0.21190000  1.0
  C  C2  1  0.12317500  0.28922000  0.78810000  1.0
  C  C3  1  0.87682500  0.00099500  0.21190000  1.0
  C  C4  1  0.57180500  0.71478500  0.63954000  1.0
  C  C5  1  0.42820000  0.57542500  0.36044000  1.0
  C  C6  1  0.06773500  0.21494000  0.63954000  1.0
  C  C7  1  0.93225000  0.07533500  0.36046000  1.0
  C  C8  1  0.53571500  0.51643000  0.56923000  1.0
  C  C9  1  0.46445000  0.44722000  0.43061000  1.0
  C  C10  1  0.03375000  0.01657000  0.56932000  1.0
  C  C11  1  0.96636000  0.94722000  0.43069000  1.0
  C  C12  1  0.46437000  0.77377000  0.43076000  1.0
  C  C13  1  0.53544000  0.84299500  0.56939000  1.0
  C  C14  1  0.96613000  0.27370000  0.43068000  1.0
  C  C15  1  0.03370000  0.34305000  0.56931000  1.0
  H  H16  1  0.56549500  0.41881500  0.62517000  1.0
  H  H17  1  0.43476500  0.29369500  0.37456000  1.0
  H  H18  1  0.06003000  0.91905000  0.62532000  1.0
  H  H19  1  0.94014500  0.79367000  0.37470000  1.0
  H  H20  1  0.43471500  0.87136500  0.37482000  1.0
  H  H21  1  0.56502500  0.99651500  0.62547000  1.0
  H  H22  1  0.93971500  0.37119000  0.37466000  1.0
  H  H23  1  0.06006000  0.49658500  0.62531000  1.0
  H  H24  1  0.33462500  0.89436500  0.00001000  1.0
  H  H25  1  0.66538000  0.39382500  1.00000000  1.0
  O  O26  1  0.70642000  0.97020000  0.84767000  1.0
  O  O27  1  0.29347000  0.62296500  0.15245000  1.0
  O  O28  1  0.14119000  0.47044500  0.84764000  1.0
  O  O29  1  0.85885000  0.12271000  0.15239000  1.0
  O  O30  1  0.70582000  0.66708500  0.84752000  1.0
  O  O31  1  0.29433000  0.31988500  0.15233000  1.0
  O  O32  1  0.14186000  0.16739500  0.84758000  1.0
  O  O33  1  0.85812000  0.81967500  0.15239000  1.0
  O  O34  1  0.16765000  0.89468000  0.00001000  1.0
  O  O35  1  0.83235000  0.39450500  1.00000000  1.0
  Sc  Sc36  1  0.00063500  0.14478500  0.00000000  1.0
  Sc  Sc37  1  0.99939500  0.64477500  0.00001000  1.0
