# generated using pymatgen
data_CdH11C15N7O3
_symmetry_space_group_name_H-M   'P 1'
_cell_length_a   8.13766000
_cell_length_b   11.08020000
_cell_length_c   17.04070000
_cell_angle_alpha   90.00000000
_cell_angle_beta   94.43420000
_cell_angle_gamma   90.00000000
_symmetry_Int_Tables_number   1
_chemical_formula_structural   CdH11C15N7O3
_chemical_formula_sum   'Cd4 H44 C60 N28 O12'
_cell_volume   1531.90799597
_cell_formula_units_Z   4
loop_
 _symmetry_equiv_pos_site_id
 _symmetry_equiv_pos_as_xyz
  1  'x, y, z'
loop_
 _atom_site_type_symbol
 _atom_site_label
 _atom_site_symmetry_multiplicity
 _atom_site_fract_x
 _atom_site_fract_y
 _atom_site_fract_z
 _atom_site_occupancy
  Cd  Cd0  1  0.76257000  0.64919000  0.18570000  1.0
  Cd  Cd1  1  0.73743000  0.14919000  0.31429000  1.0
  Cd  Cd2  1  0.23743000  0.35081000  0.81429000  1.0
  Cd  Cd3  1  0.26257000  0.85081000  0.68571000  1.0
  H  H4  1  0.38550000  0.90260000  0.96711000  1.0
  H  H5  1  0.11450000  0.40260000  0.53289000  1.0
  H  H6  1  0.61451000  0.09741000  0.03289000  1.0
  H  H7  1  0.88550000  0.59740000  0.46711000  1.0
  H  H8  1  0.15020000  0.85727000  0.18273000  1.0
  H  H9  1  0.34979000  0.35727000  0.31727000  1.0
  H  H10  1  0.84980000  0.14274000  0.81727000  1.0
  H  H11  1  0.65020000  0.64273000  0.68273000  1.0
  H  H12  1  0.14559000  0.93878000  0.04502000  1.0
  H  H13  1  0.35441000  0.43878000  0.45498000  1.0
  H  H14  1  0.85442000  0.06122000  0.95498000  1.0
  H  H15  1  0.64559000  0.56122000  0.54502000  1.0
  H  H16  1  0.06982000  0.71416000  0.91904000  1.0
  H  H17  1  0.43018000  0.21416000  0.58096000  1.0
  H  H18  1  0.93018000  0.28584000  0.08096000  1.0
  H  H19  1  0.56982000  0.78584000  0.41904000  1.0
  H  H20  1  0.22269000  0.59099000  0.97759000  1.0
  H  H21  1  0.27731000  0.09099000  0.52241000  1.0
  H  H22  1  0.77731000  0.40901000  0.02241000  1.0
  H  H23  1  0.72269000  0.90902000  0.47759000  1.0
  H  H24  1  0.58126000  0.86440000  0.90668000  1.0
  H  H25  1  0.91874000  0.36439000  0.59332000  1.0
  H  H26  1  0.41875000  0.13560000  0.09332000  1.0
  H  H27  1  0.08126000  0.63560000  0.40668000  1.0
  H  H28  1  0.84696000  0.83055000  0.84670000  1.0
  H  H29  1  0.65304000  0.33055000  0.65329000  1.0
  H  H30  1  0.15304000  0.16945000  0.15330000  1.0
  H  H31  1  0.34696000  0.66945000  0.34671000  1.0
  H  H32  1  0.37311000  0.44881000  0.20718000  1.0
  H  H33  1  0.12689000  0.94881000  0.29282000  1.0
  H  H34  1  0.62689000  0.55118000  0.79282000  1.0
  H  H35  1  0.87310000  0.05119000  0.70718000  1.0
  H  H36  1  0.10331000  0.52139000  0.25243000  1.0
  H  H37  1  0.39669000  0.02139000  0.24757000  1.0
  H  H38  1  0.89669000  0.47860000  0.74757000  1.0
  H  H39  1  0.60330000  0.97860000  0.75243000  1.0
  H  H40  1  0.40511000  0.74790000  0.23737000  1.0
  H  H41  1  0.09489000  0.24790000  0.26263000  1.0
  H  H42  1  0.59489000  0.25210000  0.76263000  1.0
  H  H43  1  0.90510000  0.75210000  0.73737000  1.0
  H  H44  1  0.43070000  0.48347000  0.06679000  1.0
  H  H45  1  0.06930000  0.98346000  0.43321000  1.0
  H  H46  1  0.56930000  0.51653000  0.93321000  1.0
  H  H47  1  0.93069000  0.01654000  0.56679000  1.0
  C  C48  1  0.38632000  0.86763000  0.02682000  1.0
  C  C49  1  0.11367000  0.36762000  0.47317000  1.0
  C  C50  1  0.61368000  0.13238000  0.97318000  1.0
  C  C51  1  0.88632000  0.63238000  0.52683000  1.0
  C  C52  1  0.25514000  0.84531000  0.14745000  1.0
  C  C53  1  0.24486000  0.34531000  0.35255000  1.0
  C  C54  1  0.74486000  0.15469000  0.85255000  1.0
  C  C55  1  0.75513000  0.65469000  0.64745000  1.0
  C  C56  1  0.25185000  0.88901000  0.07068000  1.0
  C  C57  1  0.24815000  0.38901000  0.42931000  1.0
  C  C58  1  0.74815000  0.11099000  0.92932000  1.0
  C  C59  1  0.75185000  0.61099000  0.57068000  1.0
  C  C60  1  0.52088000  0.80195000  0.06053000  1.0
  C  C61  1  0.97912000  0.30195000  0.43947000  1.0
  C  C62  1  0.47912000  0.19805000  0.93947000  1.0
  C  C63  1  0.02088000  0.69805000  0.56053000  1.0
  C  C64  1  0.05545000  0.61799000  0.06975000  1.0
  C  C65  1  0.44455000  0.11799000  0.43025000  1.0
  C  C66  1  0.94455000  0.38201000  0.93025000  1.0
  C  C67  1  0.55545000  0.88201000  0.56975000  1.0
  C  C68  1  0.95473000  0.73086000  0.94577000  1.0
  C  C69  1  0.54526000  0.23085000  0.55423000  1.0
  C  C70  1  0.04527000  0.26915000  0.05423000  1.0
  C  C71  1  0.45474000  0.76915000  0.44577000  1.0
  C  C72  1  0.92953000  0.68851000  0.02138000  1.0
  C  C73  1  0.57047000  0.18850000  0.47862000  1.0
  C  C74  1  0.07047000  0.31150000  0.97863000  1.0
  C  C75  1  0.42953000  0.81150000  0.52138000  1.0
  C  C76  1  0.66714000  0.77557000  0.01630000  1.0
  C  C77  1  0.83287000  0.27557000  0.48370000  1.0
  C  C78  1  0.33286000  0.22443000  0.98370000  1.0
  C  C79  1  0.16714000  0.72443000  0.51630000  1.0
  C  C80  1  0.20030000  0.57665000  0.03918000  1.0
  C  C81  1  0.29970000  0.07664000  0.46081000  1.0
  C  C82  1  0.79970000  0.42336000  0.96082000  1.0
  C  C83  1  0.70030000  0.92336000  0.53919000  1.0
  C  C84  1  0.68116000  0.81592000  0.93908000  1.0
  C  C85  1  0.81883000  0.31591000  0.56092000  1.0
  C  C86  1  0.31885000  0.18408000  0.06092000  1.0
  C  C87  1  0.18116000  0.68408000  0.43908000  1.0
  C  C88  1  0.82812000  0.79473000  0.90480000  1.0
  C  C89  1  0.67188000  0.29473000  0.59520000  1.0
  C  C90  1  0.17188000  0.20527000  0.09520000  1.0
  C  C91  1  0.32812000  0.70527000  0.40480000  1.0
  C  C92  1  0.28460000  0.49507000  0.16674000  1.0
  C  C93  1  0.21540000  0.99507000  0.33326000  1.0
  C  C94  1  0.71539000  0.50492000  0.83326000  1.0
  C  C95  1  0.78460000  0.00493000  0.66674000  1.0
  C  C96  1  0.13607000  0.53609000  0.19226000  1.0
  C  C97  1  0.36393000  0.03609000  0.30773000  1.0
  C  C98  1  0.86393000  0.46391000  0.80773000  1.0
  C  C99  1  0.63607000  0.96391000  0.69227000  1.0
  C  C100  1  0.39492000  0.78296000  0.17749000  1.0
  C  C101  1  0.10509000  0.28296000  0.32251000  1.0
  C  C102  1  0.60508000  0.21704000  0.82251000  1.0
  C  C103  1  0.89491000  0.71704000  0.67749000  1.0
  C  C104  1  0.31590000  0.51524000  0.08851000  1.0
  C  C105  1  0.18410000  0.01524000  0.41148000  1.0
  C  C106  1  0.68410000  0.48476000  0.91148000  1.0
  C  C107  1  0.81589000  0.98476000  0.58852000  1.0
  N  N108  1  0.69102000  0.54342000  0.34054000  1.0
  N  N109  1  0.80898000  0.04341000  0.15946000  1.0
  N  N110  1  0.30898000  0.45658000  0.65946000  1.0
  N  N111  1  0.19102000  0.95659000  0.84055000  1.0
  N  N112  1  0.84082000  0.86997000  0.30696000  1.0
  N  N113  1  0.65918000  0.36996000  0.19304000  1.0
  N  N114  1  0.15918000  0.13003000  0.69304000  1.0
  N  N115  1  0.34082000  0.63003000  0.80696000  1.0
  N  N116  1  0.79352000  0.93975000  0.35299000  1.0
  N  N117  1  0.70649000  0.43975000  0.14700000  1.0
  N  N118  1  0.20648000  0.06025000  0.64701000  1.0
  N  N119  1  0.29351000  0.56025000  0.85300000  1.0
  N  N120  1  0.78892000  0.71251000  0.05459000  1.0
  N  N121  1  0.71107000  0.21251000  0.44541000  1.0
  N  N122  1  0.21108000  0.28749000  0.94541000  1.0
  N  N123  1  0.28892000  0.78749000  0.55459000  1.0
  N  N124  1  0.52383000  0.76104000  0.13526000  1.0
  N  N125  1  0.97617000  0.26104000  0.36473000  1.0
  N  N126  1  0.47617000  0.23896000  0.86474000  1.0
  N  N127  1  0.02382000  0.73896000  0.63527000  1.0
  N  N128  1  0.02494000  0.59588000  0.14510000  1.0
  N  N129  1  0.47506000  0.09588000  0.35489000  1.0
  N  N130  1  0.97506000  0.40412000  0.85490000  1.0
  N  N131  1  0.52494000  0.90412000  0.64511000  1.0
  N  N132  1  0.89479000  0.80161000  0.26214000  1.0
  N  N133  1  0.60521000  0.30162000  0.23786000  1.0
  N  N134  1  0.10521000  0.19838000  0.73786000  1.0
  N  N135  1  0.39479000  0.69838000  0.76214000  1.0
  O  O136  1  0.59191000  0.59739000  0.28863000  1.0
  O  O137  1  0.90809000  0.09738000  0.21137000  1.0
  O  O138  1  0.40809000  0.40261000  0.71137000  1.0
  O  O139  1  0.09191000  0.90261000  0.78863000  1.0
  O  O140  1  0.63580000  0.50002000  0.40073000  1.0
  O  O141  1  0.86421000  0.00000000  0.09928000  1.0
  O  O142  1  0.36420000  0.49999000  0.59927000  1.0
  O  O143  1  0.13580000  0.99999000  0.90073000  1.0
  O  O144  1  0.84268000  0.53739000  0.32814000  1.0
  O  O145  1  0.65732000  0.03739000  0.17185000  1.0
  O  O146  1  0.15732000  0.46261000  0.67185000  1.0
  O  O147  1  0.34268000  0.96261000  0.82815000  1.0
