# generated using pymatgen
data_CuH15C25N3O4
_symmetry_space_group_name_H-M   'P 1'
_cell_length_a   9.43792000
_cell_length_b   10.04220000
_cell_length_c   12.34800000
_cell_angle_alpha   99.38690000
_cell_angle_beta   105.85000000
_cell_angle_gamma   111.87200000
_symmetry_Int_Tables_number   1
_chemical_formula_structural   CuH15C25N3O4
_chemical_formula_sum   'Cu2 H30 C50 N6 O8'
_cell_volume   997.74339743
_cell_formula_units_Z   2
loop_
 _symmetry_equiv_pos_site_id
 _symmetry_equiv_pos_as_xyz
  1  'x, y, z'
loop_
 _atom_site_type_symbol
 _atom_site_label
 _atom_site_symmetry_multiplicity
 _atom_site_fract_x
 _atom_site_fract_y
 _atom_site_fract_z
 _atom_site_occupancy
  Cu  Cu0  1  0.87453000  0.59104000  0.72525000  1.0
  Cu  Cu1  1  0.12547000  0.40897000  0.27476000  1.0
  H  H2  1  0.59773000  0.49680000  0.47793000  1.0
  H  H3  1  0.40227000  0.50322000  0.52207000  1.0
  H  H4  1  0.89660000  0.29217000  0.58415000  1.0
  H  H5  1  0.10341000  0.70785000  0.41586000  1.0
  H  H6  1  0.47807000  0.06166000  0.25839000  1.0
  H  H7  1  0.52194000  0.93835000  0.74162000  1.0
  H  H8  1  0.95033000  0.88620000  0.28162000  1.0
  H  H9  1  0.04965000  0.11379000  0.71838000  1.0
  H  H10  1  0.86775000  0.70576000  0.39631000  1.0
  H  H11  1  0.13224000  0.29423000  0.60370000  1.0
  H  H12  1  0.70681000  0.73724000  0.51821000  1.0
  H  H13  1  0.29318000  0.26276000  0.48180000  1.0
  H  H14  1  0.62035000  0.94310000  0.52211000  1.0
  H  H15  1  0.37964000  0.05690000  0.47789000  1.0
  H  H16  1  0.52876000  0.42282000  0.74180000  1.0
  H  H17  1  0.47124000  0.57718000  0.25820000  1.0
  H  H18  1  0.41408000  0.21752000  0.83017000  1.0
  H  H19  1  0.58591000  0.78247000  0.16982000  1.0
  H  H20  1  0.59643000  0.11531000  0.93623000  1.0
  H  H21  1  0.40357000  0.88467000  0.06375000  1.0
  H  H22  1  0.87957000  0.11879000  0.99976000  1.0
  H  H23  1  0.12043000  0.88119000  0.00022000  1.0
  H  H24  1  0.16312000  0.22386000  0.00382000  1.0
  H  H25  1  0.83688000  0.77613000  0.99617000  1.0
  H  H26  1  0.38063000  0.40688000  0.94540000  1.0
  H  H27  1  0.61938000  0.59311000  0.05460000  1.0
  H  H28  1  0.45863000  0.61722000  0.85289000  1.0
  H  H29  1  0.54137000  0.38278000  0.14711000  1.0
  H  H30  1  0.24499000  0.69362000  0.75600000  1.0
  H  H31  1  0.75501000  0.30637000  0.24400000  1.0
  C  C32  1  0.36580000  0.27727000  0.27426000  1.0
  C  C33  1  0.63420000  0.72274000  0.72575000  1.0
  C  C34  1  0.51819000  0.27832000  0.35747000  1.0
  C  C35  1  0.48181000  0.72170000  0.64253000  1.0
  C  C36  1  0.62271000  0.40006000  0.45847000  1.0
  C  C37  1  0.37729000  0.59995000  0.54153000  1.0
  C  C38  1  0.78947000  0.28696000  0.51773000  1.0
  C  C39  1  0.21054000  0.71306000  0.48228000  1.0
  C  C40  1  0.69513000  0.16014000  0.41846000  1.0
  C  C41  1  0.30487000  0.83987000  0.58155000  1.0
  C  C42  1  0.55719000  0.15742000  0.33688000  1.0
  C  C43  1  0.44281000  0.84259000  0.66313000  1.0
  C  C44  1  0.74038000  0.03307000  0.40722000  1.0
  C  C45  1  0.25963000  0.96694000  0.59279000  1.0
  C  C46  1  0.83319000  0.01614000  0.33892000  1.0
  C  C47  1  0.16682000  0.98386000  0.66110000  1.0
  C  C48  1  0.88584000  0.12202000  0.26842000  1.0
  C  C49  1  0.11417000  0.87799000  0.73160000  1.0
  C  C50  1  0.87734000  0.89722000  0.33442000  1.0
  C  C51  1  0.12265000  0.10277000  0.66559000  1.0
  C  C52  1  0.83085000  0.79658000  0.39777000  1.0
  C  C53  1  0.16915000  0.20342000  0.60224000  1.0
  C  C54  1  0.73848000  0.81283000  0.46567000  1.0
  C  C55  1  0.26151000  0.18717000  0.53435000  1.0
  C  C56  1  0.69287000  0.92994000  0.46947000  1.0
  C  C57  1  0.30713000  0.07007000  0.53054000  1.0
  C  C58  1  0.60449000  0.37536000  0.78823000  1.0
  C  C59  1  0.39552000  0.62464000  0.21177000  1.0
  C  C60  1  0.54191000  0.26094000  0.83836000  1.0
  C  C61  1  0.45809000  0.73906000  0.16163000  1.0
  C  C62  1  0.64206000  0.20279000  0.89554000  1.0
  C  C63  1  0.35793000  0.79720000  0.10444000  1.0
  C  C64  1  0.80590000  0.25757000  0.90088000  1.0
  C  C65  1  0.19410000  0.74242000  0.09911000  1.0
  C  C66  1  0.85813000  0.37299000  0.84796000  1.0
  C  C67  1  0.14187000  0.62700000  0.15203000  1.0
  C  C68  1  0.91987000  0.20441000  0.95637000  1.0
  C  C69  1  0.08013000  0.79557000  0.04361000  1.0
  C  C70  1  0.07706000  0.26310000  0.95825000  1.0
  C  C71  1  0.92294000  0.73689000  0.04174000  1.0
  C  C72  1  0.13223000  0.37946000  0.90502000  1.0
  C  C73  1  0.86776000  0.62053000  0.09497000  1.0
  C  C74  1  0.02211000  0.43432000  0.85009000  1.0
  C  C75  1  0.97788000  0.56568000  0.14990000  1.0
  C  C76  1  0.29242000  0.44616000  0.90425000  1.0
  C  C77  1  0.70758000  0.55383000  0.09574000  1.0
  C  C78  1  0.33471000  0.55955000  0.85200000  1.0
  C  C79  1  0.66529000  0.44045000  0.14800000  1.0
  C  C80  1  0.21636000  0.60558000  0.79854000  1.0
  C  C81  1  0.78365000  0.39442000  0.20146000  1.0
  N  N82  1  0.75580000  0.40494000  0.53751000  1.0
  N  N83  1  0.24421000  0.59508000  0.46250000  1.0
  N  N84  1  0.75920000  0.43088000  0.79385000  1.0
  N  N85  1  0.24080000  0.56912000  0.20614000  1.0
  N  N86  1  0.06400000  0.54442000  0.79750000  1.0
  N  N87  1  0.93600000  0.45557000  0.20250000  1.0
  O  O88  1  0.31703000  0.36576000  0.32550000  1.0
  O  O89  1  0.68297000  0.63425000  0.67451000  1.0
  O  O90  1  0.30456000  0.19794000  0.16968000  1.0
  O  O91  1  0.69544000  0.80207000  0.83033000  1.0
  O  O92  1  0.00226000  0.25305000  0.33397000  1.0
  O  O93  1  0.99775000  0.74696000  0.66605000  1.0
  O  O94  1  0.81773000  0.07794000  0.15908000  1.0
  O  O95  1  0.18230000  0.92206000  0.84094000  1.0
