# generated using pymatgen
data_CuPH4C5NO3
_symmetry_space_group_name_H-M   'P 1'
_cell_length_a   4.78480000
_cell_length_b   8.93743000
_cell_length_c   15.15700000
_cell_angle_alpha   73.92400000
_cell_angle_beta   89.97340000
_cell_angle_gamma   89.94390000
_symmetry_Int_Tables_number   1
_chemical_formula_structural   CuPH4C5NO3
_chemical_formula_sum   'Cu4 P4 H16 C20 N4 O12'
_cell_volume   622.82425100
_cell_formula_units_Z   4
loop_
 _symmetry_equiv_pos_site_id
 _symmetry_equiv_pos_as_xyz
  1  'x, y, z'
loop_
 _atom_site_type_symbol
 _atom_site_label
 _atom_site_symmetry_multiplicity
 _atom_site_fract_x
 _atom_site_fract_y
 _atom_site_fract_z
 _atom_site_occupancy
  Cu  Cu0  1  0.06206000  0.66717000  0.98998000  1.0
  Cu  Cu1  1  0.56085000  0.83319000  0.51028000  1.0
  Cu  Cu2  1  0.93796000  0.33288000  0.01007000  1.0
  Cu  Cu3  1  0.43918000  0.16675000  0.48974000  1.0
  P  P4  1  0.56231000  0.52316000  0.11259000  1.0
  P  P5  1  0.06194000  0.97795000  0.38746000  1.0
  P  P6  1  0.43762000  0.47684000  0.88742000  1.0
  P  P7  1  0.93811000  0.02199000  0.61254000  1.0
  H  H8  1  0.37396000  0.29013000  0.28710000  1.0
  H  H9  1  0.87326000  0.21034000  0.21286000  1.0
  H  H10  1  0.62575000  0.70999000  0.71293000  1.0
  H  H11  1  0.12714000  0.78981000  0.78717000  1.0
  H  H12  1  0.78412000  0.42821000  0.49045000  1.0
  H  H13  1  0.28365000  0.07142000  0.00965000  1.0
  H  H14  1  0.21601000  0.57177000  0.50955000  1.0
  H  H15  1  0.71607000  0.92852000  0.99033000  1.0
  H  H16  1  0.99946000  0.65897000  0.37715000  1.0
  H  H17  1  0.49984000  0.84108000  0.12303000  1.0
  H  H18  1  0.00058000  0.34101000  0.62284000  1.0
  H  H19  1  0.50023000  0.15896000  0.87695000  1.0
  H  H20  1  0.91099000  0.69351000  0.20840000  1.0
  H  H21  1  0.41068000  0.80665000  0.29175000  1.0
  H  H22  1  0.08913000  0.30643000  0.79159000  1.0
  H  H23  1  0.58920000  0.19329000  0.70822000  1.0
  C  C24  1  0.63264000  0.49698000  0.23393000  1.0
  C  C25  1  0.13203000  0.00335000  0.26612000  1.0
  C  C26  1  0.36735000  0.50301000  0.76605000  1.0
  C  C27  1  0.86794000  0.99660000  0.73387000  1.0
  C  C28  1  0.51666000  0.37435000  0.30238000  1.0
  C  C29  1  0.01596000  0.12597000  0.19761000  1.0
  C  C30  1  0.48321000  0.62573000  0.69764000  1.0
  C  C31  1  0.98422000  0.87411000  0.80241000  1.0
  C  C32  1  0.74462000  0.45338000  0.41721000  1.0
  C  C33  1  0.24424000  0.04653000  0.08289000  1.0
  C  C34  1  0.25536000  0.54662000  0.58280000  1.0
  C  C35  1  0.75576000  0.95350000  0.91710000  1.0
  C  C36  1  0.86580000  0.57908000  0.35364000  1.0
  C  C37  1  0.36582000  0.92097000  0.14650000  1.0
  C  C38  1  0.13419000  0.42090000  0.64635000  1.0
  C  C39  1  0.63428000  0.07908000  0.85347000  1.0
  C  C40  1  0.81318000  0.59952000  0.26069000  1.0
  C  C41  1  0.31285000  0.90067000  0.23944000  1.0
  C  C42  1  0.18687000  0.40045000  0.73930000  1.0
  C  C43  1  0.68710000  0.09929000  0.76054000  1.0
  N  N44  1  0.57534000  0.35219000  0.39189000  1.0
  N  N45  1  0.07460000  0.14788000  0.10810000  1.0
  N  N46  1  0.42452000  0.64786000  0.60813000  1.0
  N  N47  1  0.92556000  0.85219000  0.89192000  1.0
  O  O48  1  0.24346000  0.54771000  0.10320000  1.0
  O  O49  1  0.74303000  0.95468000  0.39756000  1.0
  O  O50  1  0.75641000  0.45226000  0.89684000  1.0
  O  O51  1  0.25706000  0.04525000  0.60247000  1.0
  O  O52  1  0.65490000  0.37155000  0.09228000  1.0
  O  O53  1  0.15498000  0.12969000  0.40744000  1.0
  O  O54  1  0.34493000  0.62844000  0.90770000  1.0
  O  O55  1  0.84507000  0.87025000  0.59256000  1.0
  O  O56  1  0.72368000  0.67085000  0.06135000  1.0
  O  O57  1  0.22324000  0.82995000  0.43867000  1.0
  O  O58  1  0.27603000  0.32918000  0.93860000  1.0
  O  O59  1  0.77695000  0.17001000  0.56129000  1.0
