# generated using pymatgen
data_NdCoH16C12(NO4)3
_symmetry_space_group_name_H-M   'P 1'
_cell_length_a   8.51112000
_cell_length_b   9.70081000
_cell_length_c   12.83708063
_cell_angle_alpha   67.80060550
_cell_angle_beta   81.00047220
_cell_angle_gamma   65.55030000
_symmetry_Int_Tables_number   1
_chemical_formula_structural   NdCoH16C12(NO4)3
_chemical_formula_sum   'Nd2 Co2 H32 C24 N6 O24'
_cell_volume   893.32523150
_cell_formula_units_Z   2
loop_
 _symmetry_equiv_pos_site_id
 _symmetry_equiv_pos_as_xyz
  1  'x, y, z'
loop_
 _atom_site_type_symbol
 _atom_site_label
 _atom_site_symmetry_multiplicity
 _atom_site_fract_x
 _atom_site_fract_y
 _atom_site_fract_z
 _atom_site_occupancy
  Nd  Nd0  1  0.74998000  0.50716000  0.98578000  1.0
  Nd  Nd1  1  0.25002000  0.49285000  0.01422000  1.0
  Co  Co2  1  0.74994000  0.66321000  0.67361000  1.0
  Co  Co3  1  0.25006000  0.33678000  0.32639000  1.0
  H  H4  1  0.92253000  0.80554000  0.50470000  1.0
  H  H5  1  0.57736000  0.68967000  0.50476000  1.0
  H  H6  1  0.07747000  0.19446000  0.49530000  1.0
  H  H7  1  0.42264000  0.31032000  0.49524000  1.0
  H  H8  1  0.35532000  0.08792000  0.74436000  1.0
  H  H9  1  0.14459000  0.16768000  0.74436000  1.0
  H  H10  1  0.64468000  0.91208000  0.25564000  1.0
  H  H11  1  0.85541000  0.83232000  0.25564000  1.0
  H  H12  1  0.04268000  0.89852000  0.63449000  1.0
  H  H13  1  0.45730000  0.46683000  0.63463000  1.0
  H  H14  1  0.95733000  0.10147000  0.36551000  1.0
  H  H15  1  0.54270000  0.53315000  0.36538000  1.0
  H  H16  1  0.12952000  0.69995000  0.62971000  1.0
  H  H17  1  0.37043000  0.67021000  0.62981000  1.0
  H  H18  1  0.87048000  0.30005000  0.37029000  1.0
  H  H19  1  0.62957000  0.32978000  0.37019000  1.0
  H  H20  1  0.70423000  0.03892000  0.46121000  1.0
  H  H21  1  0.79567000  0.49979000  0.46125000  1.0
  H  H22  1  0.29577000  0.96109000  0.53879000  1.0
  H  H23  1  0.20433000  0.50020000  0.53875000  1.0
  H  H24  1  0.79247000  0.07551000  0.56090000  1.0
  H  H25  1  0.70746000  0.36352000  0.56096000  1.0
  H  H26  1  0.20753000  0.92450000  0.43910000  1.0
  H  H27  1  0.29254000  0.63649000  0.43903000  1.0
  H  H28  1  0.31051000  0.28282000  0.81223000  1.0
  H  H29  1  0.18950000  0.90480000  0.81226000  1.0
  H  H30  1  0.68948000  0.71718000  0.18777000  1.0
  H  H31  1  0.81050000  0.09520000  0.18774000  1.0
  H  H32  1  0.35500000  0.11072000  0.93507000  1.0
  H  H33  1  0.14492000  0.95415000  0.93507000  1.0
  H  H34  1  0.64499000  0.88928000  0.06493000  1.0
  H  H35  1  0.85508000  0.04585000  0.06493000  1.0
  C  C36  1  0.98579000  0.71887000  0.77558000  1.0
  C  C37  1  0.51416000  0.50553000  0.77566000  1.0
  C  C38  1  0.01421000  0.28113000  0.22442000  1.0
  C  C39  1  0.48584000  0.49447000  0.22434000  1.0
  C  C40  1  0.57686000  0.00406000  0.61777000  1.0
  C  C41  1  0.92307000  0.37816000  0.61778000  1.0
  C  C42  1  0.42314000  0.99594000  0.38223000  1.0
  C  C43  1  0.07693000  0.62183000  0.38222000  1.0
  C  C44  1  0.01302000  0.79219000  0.64945000  1.0
  C  C45  1  0.48693000  0.55825000  0.64955000  1.0
  C  C46  1  0.98698000  0.20781000  0.35055000  1.0
  C  C47  1  0.51307000  0.44175000  0.35045000  1.0
  C  C48  1  0.74252000  0.99374000  0.54984000  1.0
  C  C49  1  0.75740000  0.45635000  0.54989000  1.0
  C  C50  1  0.25749000  0.00627000  0.45015000  1.0
  C  C51  1  0.24260000  0.54364000  0.45011000  1.0
  C  C52  1  0.08998000  0.27823000  0.91490000  1.0
  C  C53  1  0.40996000  0.80686000  0.91493000  1.0
  C  C54  1  0.91002000  0.72177000  0.08510000  1.0
  C  C55  1  0.59005000  0.19314000  0.08507000  1.0
  C  C56  1  0.26067000  0.19161000  0.86688000  1.0
  C  C57  1  0.23928000  0.94145000  0.86690000  1.0
  C  C58  1  0.73933000  0.80839000  0.13312000  1.0
  C  C59  1  0.76072000  0.05855000  0.13310000  1.0
  N  N60  1  0.87274000  0.82800000  0.57796000  1.0
  N  N61  1  0.62717000  0.59396000  0.57801000  1.0
  N  N62  1  0.12726000  0.17201000  0.42204000  1.0
  N  N63  1  0.37283000  0.40603000  0.42199000  1.0
  N  N64  1  0.24995000  0.09948000  0.80099000  1.0
  N  N65  1  0.75005000  0.90052000  0.19901000  1.0
  O  O66  1  0.86324000  0.66733000  0.80492000  1.0
  O  O67  1  0.63654000  0.52796000  0.80498000  1.0
  O  O68  1  0.13677000  0.33267000  0.19508000  1.0
  O  O69  1  0.36345000  0.47204000  0.19502000  1.0
  O  O70  1  0.08998000  0.70874000  0.84005000  1.0
  O  O71  1  0.41009000  0.45105000  0.84017000  1.0
  O  O72  1  0.91002000  0.29127000  0.15995000  1.0
  O  O73  1  0.58991000  0.54895000  0.15983000  1.0
  O  O74  1  0.54066000  0.87845000  0.65537000  1.0
  O  O75  1  0.95918000  0.46617000  0.65543000  1.0
  O  O76  1  0.45934000  0.12155000  0.34463000  1.0
  O  O77  1  0.04082000  0.53382000  0.34457000  1.0
  O  O78  1  0.48127000  0.13778000  0.62952000  1.0
  O  O79  1  0.01872000  0.23272000  0.62949000  1.0
  O  O80  1  0.51873000  0.86223000  0.37047000  1.0
  O  O81  1  0.98128000  0.76726000  0.37051000  1.0
  O  O82  1  0.09192000  0.38058000  0.95469000  1.0
  O  O83  1  0.40796000  0.66475000  0.95475000  1.0
  O  O84  1  0.90809000  0.61942000  0.04531000  1.0
  O  O85  1  0.59204000  0.33526000  0.04525000  1.0
  O  O86  1  0.95503000  0.25551000  0.91468000  1.0
  O  O87  1  0.54490000  0.82981000  0.91471000  1.0
  O  O88  1  0.04497000  0.74450000  0.08532000  1.0
  O  O89  1  0.45510000  0.17019000  0.08530000  1.0
