# generated using pymatgen
data_CdH12PtC10(N3O)2
_symmetry_space_group_name_H-M   'P 1'
_cell_length_a   8.64355000
_cell_length_b   8.72686000
_cell_length_c   11.38600000
_cell_angle_alpha   73.68420000
_cell_angle_beta   72.45400000
_cell_angle_gamma   68.78500000
_symmetry_Int_Tables_number   1
_chemical_formula_structural   CdH12PtC10(N3O)2
_chemical_formula_sum   'Cd2 H24 Pt2 C20 N12 O4'
_cell_volume   749.00043799
_cell_formula_units_Z   2
loop_
 _symmetry_equiv_pos_site_id
 _symmetry_equiv_pos_as_xyz
  1  'x, y, z'
loop_
 _atom_site_type_symbol
 _atom_site_label
 _atom_site_symmetry_multiplicity
 _atom_site_fract_x
 _atom_site_fract_y
 _atom_site_fract_z
 _atom_site_occupancy
  Cd  Cd0  1  0.33767000  0.14872000  0.26667000  1.0
  Cd  Cd1  1  0.66233000  0.85128000  0.73333000  1.0
  H  H2  1  0.07071000  0.41138000  0.37875000  1.0
  H  H3  1  0.92929000  0.58862000  0.62125000  1.0
  H  H4  1  0.17497000  0.50068000  0.24609000  1.0
  H  H5  1  0.82503000  0.49932000  0.75390000  1.0
  H  H6  1  0.91846000  0.33973000  0.26647000  1.0
  H  H7  1  0.08154000  0.66027000  0.73353000  1.0
  H  H8  1  0.02760000  0.43691000  0.12619000  1.0
  H  H9  1  0.97239000  0.56310000  0.87381000  1.0
  H  H10  1  0.36662000  0.41381000  0.04744000  1.0
  H  H11  1  0.63338000  0.58619000  0.95255000  1.0
  H  H12  1  0.55509000  0.30433000  0.04925000  1.0
  H  H13  1  0.44491000  0.69567000  0.95075000  1.0
  H  H14  1  0.68129000  0.54434000  0.14864000  1.0
  H  H15  1  0.31871000  0.45565000  0.85136000  1.0
  H  H16  1  0.17685000  0.93679000  0.47427000  1.0
  H  H17  1  0.82314000  0.06321000  0.52573000  1.0
  H  H18  1  0.07721000  0.12060000  0.49877000  1.0
  H  H19  1  0.92279000  0.87941000  0.50122000  1.0
  H  H20  1  0.70018000  0.97378000  0.33996000  1.0
  H  H21  1  0.29982000  0.02622000  0.66004000  1.0
  H  H22  1  0.44884000  0.81459000  0.16159000  1.0
  H  H23  1  0.55115000  0.18541000  0.83841000  1.0
  H  H24  1  0.94633000  0.71653000  0.32735000  1.0
  H  H25  1  0.05367000  0.28347000  0.67265000  1.0
  Pt  Pt26  1  0.00000000  0.00000000  0.00000000  1.0
  Pt  Pt27  1  0.50000000  0.50000000  0.50000000  1.0
  C  C28  1  0.11643000  0.03784000  0.10998000  1.0
  C  C29  1  0.88358000  0.96216000  0.89001000  1.0
  C  C30  1  0.49014000  0.34166000  0.41014000  1.0
  C  C31  1  0.50986000  0.65833000  0.58986000  1.0
  C  C32  1  0.26897000  0.64085000  0.47851000  1.0
  C  C33  1  0.73103000  0.35915000  0.52150000  1.0
  C  C34  1  0.97469000  0.44288000  0.22611000  1.0
  C  C35  1  0.02531000  0.55712000  0.77389000  1.0
  C  C36  1  0.69113000  0.63743000  0.19042000  1.0
  C  C37  1  0.30886000  0.36257000  0.80959000  1.0
  C  C38  1  0.70173000  0.87696000  0.29611000  1.0
  C  C39  1  0.29826000  0.12304000  0.70389000  1.0
  C  C40  1  0.56076000  0.78707000  0.19818000  1.0
  C  C41  1  0.43924000  0.21292000  0.80182000  1.0
  C  C42  1  0.83473000  0.60676000  0.23644000  1.0
  C  C43  1  0.16526000  0.39323000  0.76357000  1.0
  C  C44  1  0.83892000  0.73080000  0.28968000  1.0
  C  C45  1  0.16108000  0.26919000  0.71032000  1.0
  C  C46  1  0.85328000  0.23449000  0.98793000  1.0
  C  C47  1  0.14674000  0.76552000  0.01206000  1.0
  N  N48  1  0.11596000  0.40961000  0.28494000  1.0
  N  N49  1  0.88404000  0.59039000  0.71506000  1.0
  N  N50  1  0.56468000  0.90531000  0.25110000  1.0
  N  N51  1  0.43532000  0.09468000  0.74890000  1.0
  N  N52  1  0.48153000  0.25040000  0.35581000  1.0
  N  N53  1  0.51847000  0.74960000  0.64419000  1.0
  N  N54  1  0.13087000  0.72575000  0.46832000  1.0
  N  N55  1  0.86915000  0.27425000  0.53168000  1.0
  N  N56  1  0.18475000  0.06074000  0.17505000  1.0
  N  N57  1  0.81525000  0.93926000  0.82496000  1.0
  N  N58  1  0.76288000  0.37310000  0.98092000  1.0
  N  N59  1  0.23712000  0.62690000  0.01908000  1.0
  O  O60  1  0.44003000  0.29605000  0.06497000  1.0
  O  O61  1  0.55997000  0.70395000  0.93503000  1.0
  O  O62  1  0.19261000  0.04318000  0.47293000  1.0
  O  O63  1  0.80738000  0.95683000  0.52707000  1.0
