# generated using pymatgen
data_ZnH47C39NO7
_symmetry_space_group_name_H-M   'P 1'
_cell_length_a   13.81320000
_cell_length_b   14.98300000
_cell_length_c   15.20080000
_cell_angle_alpha   88.66670000
_cell_angle_beta   88.14920000
_cell_angle_gamma   68.31890000
_symmetry_Int_Tables_number   1
_chemical_formula_structural   ZnH47C39NO7
_chemical_formula_sum   'Zn2 H94 C78 N2 O14'
_cell_volume   2921.69726851
_cell_formula_units_Z   2
loop_
 _symmetry_equiv_pos_site_id
 _symmetry_equiv_pos_as_xyz
  1  'x, y, z'
loop_
 _atom_site_type_symbol
 _atom_site_label
 _atom_site_symmetry_multiplicity
 _atom_site_fract_x
 _atom_site_fract_y
 _atom_site_fract_z
 _atom_site_occupancy
  Zn  Zn0  1  0.40629000  0.49371000  0.48953000  1.0
  Zn  Zn1  1  0.60103000  0.50396000  0.48910000  1.0
  H  H2  1  0.20964000  0.11169000  0.63303000  1.0
  H  H3  1  0.75531000  0.89941000  0.69192000  1.0
  H  H4  1  0.16733000  0.98215000  0.56018000  1.0
  H  H5  1  0.81777000  0.03098000  0.63299000  1.0
  H  H6  1  0.48824000  0.62647000  0.03692000  1.0
  H  H7  1  0.62520000  0.37227000  0.93300000  1.0
  H  H8  1  0.70285000  0.60766000  0.59650000  1.0
  H  H9  1  0.30424000  0.35022000  0.53000000  1.0
  H  H10  1  0.79279000  0.42214000  0.38622000  1.0
  H  H11  1  0.20298000  0.64045000  0.46784000  1.0
  H  H12  1  0.97703000  0.41646000  0.39001000  1.0
  H  H13  1  0.01589000  0.65441000  0.46874000  1.0
  H  H14  1  0.89951000  0.53336000  0.74232000  1.0
  H  H15  1  0.02067000  0.52611000  0.69323000  1.0
  H  H16  1  0.94844000  0.62591000  0.75944000  1.0
  H  H17  1  0.92869000  0.67227000  0.60063000  1.0
  H  H18  1  0.80784000  0.68366000  0.65039000  1.0
  H  H19  1  0.10760000  0.34218000  0.68777000  1.0
  H  H20  1  0.98453000  0.38093000  0.63677000  1.0
  H  H21  1  0.05794000  0.25672000  0.64968000  1.0
  H  H22  1  0.07452000  0.30759000  0.49417000  1.0
  H  H23  1  0.19588000  0.26625000  0.54642000  1.0
  H  H24  1  0.48877000  0.08937000  0.42918000  1.0
  H  H25  1  0.51476000  0.18968000  0.38298000  1.0
  H  H26  1  0.29521000  0.19367000  0.42606000  1.0
  H  H27  1  0.32842000  0.28069000  0.36450000  1.0
  H  H28  1  0.41657000  0.15279000  0.24774000  1.0
  H  H29  1  0.28181000  0.17542000  0.26175000  1.0
  H  H30  1  0.37485000  0.07102000  0.30976000  1.0
  H  H31  1  0.56051000  0.89009000  0.44737000  1.0
  H  H32  1  0.55676000  0.78497000  0.39546000  1.0
  H  H33  1  0.74417000  0.78486000  0.49722000  1.0
  H  H34  1  0.74040000  0.69689000  0.42278000  1.0
  H  H35  1  0.70720000  0.82078000  0.29769000  1.0
  H  H36  1  0.82740000  0.79912000  0.34881000  1.0
  H  H37  1  0.71802000  0.90472000  0.37377000  1.0
  H  H38  1  0.88953000  0.23156000  0.47234000  1.0
  H  H39  1  0.76643000  0.24415000  0.43114000  1.0
  H  H40  1  0.94835000  0.05249000  0.46267000  1.0
  H  H41  1  0.82419000  0.06332000  0.42641000  1.0
  H  H42  1  0.84860000  0.15286000  0.28978000  1.0
  H  H43  1  0.94980000  0.03823000  0.29749000  1.0
  H  H44  1  0.97371000  0.14247000  0.32505000  1.0
  H  H45  1  0.15716000  0.77818000  0.37791000  1.0
  H  H46  1  0.29288000  0.75501000  0.37581000  1.0
  H  H47  1  0.11882000  0.95497000  0.36859000  1.0
  H  H48  1  0.25362000  0.93295000  0.36545000  1.0
  H  H49  1  0.27514000  0.84329000  0.22263000  1.0
  H  H50  1  0.18239000  0.96229000  0.21279000  1.0
  H  H51  1  0.13994000  0.86437000  0.22532000  1.0
  H  H52  1  0.34508000  0.30441000  0.73126000  1.0
  H  H53  1  0.44429000  0.18885000  0.74381000  1.0
  H  H54  1  0.21297000  0.23917000  0.79409000  1.0
  H  H55  1  0.31231000  0.12510000  0.80753000  1.0
  H  H56  1  0.40173000  0.19460000  0.91442000  1.0
  H  H57  1  0.27162000  0.21540000  0.94996000  1.0
  H  H58  1  0.30316000  0.30968000  0.90002000  1.0
  H  H59  1  0.50851000  0.82590000  0.77445000  1.0
  H  H60  1  0.62156000  0.83577000  0.82078000  1.0
  H  H61  1  0.60527000  0.65061000  0.75135000  1.0
  H  H62  1  0.71971000  0.65990000  0.79214000  1.0
  H  H63  1  0.63165000  0.70685000  0.94106000  1.0
  H  H64  1  0.62693000  0.59537000  0.90813000  1.0
  H  H65  1  0.51484000  0.70129000  0.89996000  1.0
  H  H66  1  0.62934000  0.71760000  0.24031000  1.0
  H  H67  1  0.67086000  0.59070000  0.25335000  1.0
  H  H68  1  0.66151000  0.64289000  0.14595000  1.0
  H  H69  1  0.46623000  0.72250000  0.16979000  1.0
  H  H70  1  0.47752000  0.66948000  0.27611000  1.0
  H  H71  1  0.82452000  0.34834000  0.71700000  1.0
  H  H72  1  0.73044000  0.46774000  0.71718000  1.0
  H  H73  1  0.77940000  0.40921000  0.81858000  1.0
  H  H74  1  0.69431000  0.28959000  0.79188000  1.0
  H  H75  1  0.64977000  0.34615000  0.68994000  1.0
  H  H76  1  0.67995000  0.30028000  0.27327000  1.0
  H  H77  1  0.65044000  0.19490000  0.29014000  1.0
  H  H78  1  0.67062000  0.23272000  0.18139000  1.0
  H  H79  1  0.49004000  0.34136000  0.30957000  1.0
  H  H80  1  0.47912000  0.27558000  0.21867000  1.0
  H  H81  1  0.34906000  0.75809000  0.81703000  1.0
  H  H82  1  0.42292000  0.71893000  0.71789000  1.0
  H  H83  1  0.28834000  0.79059000  0.71327000  1.0
  H  H84  1  0.31890000  0.61872000  0.68425000  1.0
  H  H85  1  0.24300000  0.65692000  0.78104000  1.0
  H  H86  1  0.33841000  0.33906000  0.15960000  1.0
  H  H87  1  0.28973000  0.39291000  0.05763000  1.0
  H  H88  1  0.33499000  0.26593000  0.07029000  1.0
  H  H89  1  0.46382000  0.32519000  0.98528000  1.0
  H  H90  1  0.51722000  0.25455000  0.07863000  1.0
  H  H91  1  0.18876000  0.56965000  0.86668000  1.0
  H  H92  1  0.23205000  0.50200000  0.96433000  1.0
  H  H93  1  0.13512000  0.61956000  0.97058000  1.0
  H  H94  1  0.30846000  0.61981000  0.01359000  1.0
  H  H95  1  0.26567000  0.69000000  0.91785000  1.0
  C  C96  1  0.51192000  0.49524000  0.31957000  1.0
  C  C97  1  0.49645000  0.49939000  0.65995000  1.0
  C  C98  1  0.42449000  0.68304000  0.49438000  1.0
  C  C99  1  0.58541000  0.31513000  0.50452000  1.0
  C  C100  1  0.38879000  0.78585000  0.52132000  1.0
  C  C101  1  0.61586000  0.21442000  0.54001000  1.0
  C  C102  1  0.24924000  0.93542000  0.56334000  1.0
  C  C103  1  0.73755000  0.07316000  0.61579000  1.0
  C  C104  1  0.28119000  0.84555000  0.52609000  1.0
  C  C105  1  0.71757000  0.16011000  0.57203000  1.0
  C  C106  1  0.46199000  0.82204000  0.55214000  1.0
  C  C107  1  0.53838000  0.17466000  0.55345000  1.0
  C  C108  1  0.43054000  0.91063000  0.59709000  1.0
  C  C109  1  0.55477000  0.09152000  0.60639000  1.0
  C  C110  1  0.32228000  0.97027000  0.59697000  1.0
  C  C111  1  0.65855000  0.03609000  0.63170000  1.0
  C  C112  1  0.50494000  0.95103000  0.62458000  1.0
  C  C113  1  0.47449000  0.05210000  0.61950000  1.0
  C  C114  1  0.36489000  0.10913000  0.62950000  1.0
  C  C115  1  0.60800000  0.89790000  0.65710000  1.0
  C  C116  1  0.29184000  0.06781000  0.62263000  1.0
  C  C117  1  0.67962000  0.94100000  0.66447000  1.0
  C  C118  1  0.49032000  0.56590000  0.07922000  1.0
  C  C119  1  0.56199000  0.42406000  0.89581000  1.0
  C  C120  1  0.50224000  0.57084000  0.16946000  1.0
  C  C121  1  0.57113000  0.42700000  0.80420000  1.0
  C  C122  1  0.50832000  0.49025000  0.22123000  1.0
  C  C123  1  0.49000000  0.49687000  0.75881000  1.0
  C  C124  1  0.50205000  0.40754000  0.18434000  1.0
  C  C125  1  0.40158000  0.56095000  0.80333000  1.0
  C  C126  1  0.48408000  0.40620000  0.09355000  1.0
  C  C127  1  0.39288000  0.55473000  0.89594000  1.0
  C  C128  1  0.48040000  0.48571000  0.04037000  1.0
  C  C129  1  0.47528000  0.48684000  0.94242000  1.0
  C  C130  1  0.86660000  0.56801000  0.56082000  1.0
  C  C131  1  0.13587000  0.41642000  0.52175000  1.0
  C  C132  1  0.76717000  0.56496000  0.55345000  1.0
  C  C133  1  0.23732000  0.41618000  0.51745000  1.0
  C  C134  1  0.81742000  0.46088000  0.43515000  1.0
  C  C135  1  0.18063000  0.57883000  0.48127000  1.0
  C  C136  1  0.91842000  0.45840000  0.43790000  1.0
  C  C137  1  0.07767000  0.58593000  0.48378000  1.0
  C  C138  1  0.94466000  0.51076000  0.50203000  1.0
  C  C139  1  0.05410000  0.50445000  0.50380000  1.0
  C  C140  1  0.88423000  0.63091000  0.62985000  1.0
  C  C141  1  0.94158000  0.57559000  0.71075000  1.0
  C  C142  1  0.11921000  0.32458000  0.54552000  1.0
  C  C143  1  0.06389000  0.32671000  0.63497000  1.0
  C  C144  1  0.45804000  0.16859000  0.42225000  1.0
  C  C145  1  0.35290000  0.20330000  0.37897000  1.0
  C  C146  1  0.35677000  0.14765000  0.29498000  1.0
  C  C147  1  0.59290000  0.81063000  0.44800000  1.0
  C  C148  1  0.71046000  0.77443000  0.43545000  1.0
  C  C149  1  0.74245000  0.82766000  0.35981000  1.0
  C  C150  1  0.83285000  0.19609000  0.46848000  1.0
  C  C151  1  0.88147000  0.09868000  0.42440000  1.0
  C  C152  1  0.91520000  0.10862000  0.32904000  1.0
  C  C153  1  0.21575000  0.80828000  0.39448000  1.0
  C  C154  1  0.19525000  0.90351000  0.34627000  1.0
  C  C155  1  0.19840000  0.89273000  0.24635000  1.0
  C  C156  1  0.36007000  0.22708000  0.73464000  1.0
  C  C157  1  0.29624000  0.20278000  0.80809000  1.0
  C  C158  1  0.31949000  0.23213000  0.89791000  1.0
  C  C159  1  0.59452000  0.79492000  0.77412000  1.0
  C  C160  1  0.63404000  0.68903000  0.79860000  1.0
  C  C161  1  0.60022000  0.67237000  0.89218000  1.0
  C  C162  1  0.51169000  0.65880000  0.20892000  1.0
  C  C163  1  0.62516000  0.65216000  0.21225000  1.0
  C  C164  1  0.66752000  0.35949000  0.75721000  1.0
  C  C165  1  0.75602000  0.39842000  0.75235000  1.0
  C  C166  1  0.52054000  0.31977000  0.24257000  1.0
  C  C167  1  0.63729000  0.25813000  0.24702000  1.0
  C  C168  1  0.32145000  0.64080000  0.75219000  1.0
  C  C169  1  0.34661000  0.73258000  0.75014000  1.0
  C  C170  1  0.45927000  0.32403000  0.05750000  1.0
  C  C171  1  0.34955000  0.33038000  0.08801000  1.0
  C  C172  1  0.29334000  0.61587000  0.94364000  1.0
  C  C173  1  0.20715000  0.57479000  0.93577000  1.0
  N  N174  1  0.74377000  0.51247000  0.49324000  1.0
  N  N175  1  0.25882000  0.49480000  0.49707000  1.0
  O  O176  1  0.42319000  0.52095000  0.35898000  1.0
  O  O177  1  0.55903000  0.53382000  0.62246000  1.0
  O  O178  1  0.59963000  0.47404000  0.35568000  1.0
  O  O179  1  0.43824000  0.46497000  0.62057000  1.0
  O  O180  1  0.36395000  0.63907000  0.51670000  1.0
  O  O181  1  0.64422000  0.36053000  0.52280000  1.0
  O  O182  1  0.51361000  0.64461000  0.45700000  1.0
  O  O183  1  0.50014000  0.35212000  0.46409000  1.0
  O  O184  1  0.44627000  0.20920000  0.50907000  1.0
  O  O185  1  0.56654000  0.77735000  0.53232000  1.0
  O  O186  1  0.80174000  0.18737000  0.55893000  1.0
  O  O187  1  0.20554000  0.81968000  0.48908000  1.0
  O  O188  1  0.33127000  0.20500000  0.64939000  1.0
  O  O189  1  0.63505000  0.80444000  0.68687000  1.0
