# generated using pymatgen
data_CdH29C32N5O6
_symmetry_space_group_name_H-M   'P 1'
_cell_length_a   9.12985000
_cell_length_b   14.01570000
_cell_length_c   23.92150000
_cell_angle_alpha   90.00000000
_cell_angle_beta   90.00000000
_cell_angle_gamma   90.00000000
_symmetry_Int_Tables_number   1
_chemical_formula_structural   CdH29C32N5O6
_chemical_formula_sum   'Cd4 H116 C128 N20 O24'
_cell_volume   3061.02477025
_cell_formula_units_Z   4
loop_
 _symmetry_equiv_pos_site_id
 _symmetry_equiv_pos_as_xyz
  1  'x, y, z'
loop_
 _atom_site_type_symbol
 _atom_site_label
 _atom_site_symmetry_multiplicity
 _atom_site_fract_x
 _atom_site_fract_y
 _atom_site_fract_z
 _atom_site_occupancy
  Cd  Cd0  1  0.77585000  0.61461000  0.46749000  1.0
  Cd  Cd1  1  0.72415000  0.38539000  0.96749000  1.0
  Cd  Cd2  1  0.27585000  0.88538000  0.53251000  1.0
  Cd  Cd3  1  0.22415000  0.11462000  0.03251000  1.0
  H  H4  1  0.24978000  0.36567000  0.27281000  1.0
  H  H5  1  0.25022000  0.63432000  0.77281000  1.0
  H  H6  1  0.74978000  0.13432000  0.72719000  1.0
  H  H7  1  0.75022000  0.86568000  0.22719000  1.0
  H  H8  1  0.23811000  0.30773000  0.17585000  1.0
  H  H9  1  0.26189000  0.69227000  0.67585000  1.0
  H  H10  1  0.73811000  0.19227000  0.82415000  1.0
  H  H11  1  0.76189000  0.80773000  0.32415000  1.0
  H  H12  1  0.36293000  0.39406000  0.09974000  1.0
  H  H13  1  0.13707000  0.60594000  0.59974000  1.0
  H  H14  1  0.86293000  0.10594000  0.90026000  1.0
  H  H15  1  0.63707000  0.89407000  0.40027000  1.0
  H  H16  1  0.49982000  0.54481000  0.12045000  1.0
  H  H17  1  0.00018000  0.45519000  0.62045000  1.0
  H  H18  1  0.99982000  0.95519000  0.87955000  1.0
  H  H19  1  0.50018000  0.04481000  0.37955000  1.0
  H  H20  1  0.49508000  0.61102000  0.21739000  1.0
  H  H21  1  0.00492000  0.38898000  0.71739000  1.0
  H  H22  1  0.99508000  0.88898000  0.78261000  1.0
  H  H23  1  0.50492000  0.11102000  0.28261000  1.0
  H  H24  1  0.26814000  0.58204000  0.40685000  1.0
  H  H25  1  0.23186000  0.41796000  0.90685000  1.0
  H  H26  1  0.76815000  0.91796000  0.59315000  1.0
  H  H27  1  0.73186000  0.08204000  0.09315000  1.0
  H  H28  1  0.35592000  0.38891000  0.45689000  1.0
  H  H29  1  0.14408000  0.61108000  0.95689000  1.0
  H  H30  1  0.85591000  0.11108000  0.54311000  1.0
  H  H31  1  0.64408000  0.88892000  0.04311000  1.0
  H  H32  1  0.18346000  0.40589000  0.42385000  1.0
  H  H33  1  0.31654000  0.59411000  0.92385000  1.0
  H  H34  1  0.68346000  0.09411000  0.57615000  1.0
  H  H35  1  0.81654000  0.90589000  0.07615000  1.0
  H  H36  1  0.18079000  0.42171000  0.52965000  1.0
  H  H37  1  0.31921000  0.57829000  0.02965000  1.0
  H  H38  1  0.68079000  0.07829000  0.47035000  1.0
  H  H39  1  0.81921000  0.92171000  0.97035000  1.0
  H  H40  1  0.28409000  0.52870000  0.52321000  1.0
  H  H41  1  0.21591000  0.47130000  0.02321000  1.0
  H  H42  1  0.78409000  0.97130000  0.47679000  1.0
  H  H43  1  0.71591000  0.02870000  0.97679000  1.0
  H  H44  1  0.04994000  0.68071000  0.39660000  1.0
  H  H45  1  0.45007000  0.31929000  0.89660000  1.0
  H  H46  1  0.54994000  0.81929000  0.60340000  1.0
  H  H47  1  0.95007000  0.18071000  0.10340000  1.0
  H  H48  1  0.13759000  0.69635000  0.29864000  1.0
  H  H49  1  0.36241000  0.30365000  0.79864000  1.0
  H  H50  1  0.63759000  0.80365000  0.70136000  1.0
  H  H51  1  0.86241000  0.19635000  0.20136000  1.0
  H  H52  1  0.70260000  0.62195000  0.24396000  1.0
  H  H53  1  0.79740000  0.37806000  0.74396000  1.0
  H  H54  1  0.20260000  0.87806000  0.75604000  1.0
  H  H55  1  0.29740000  0.12195000  0.25604000  1.0
  H  H56  1  0.63476000  0.60186000  0.34456000  1.0
  H  H57  1  0.86524000  0.39814000  0.84456000  1.0
  H  H58  1  0.13476000  0.89813000  0.65544000  1.0
  H  H59  1  0.36525000  0.10187000  0.15544000  1.0
  H  H60  1  0.19633000  0.63832000  0.21658000  1.0
  H  H61  1  0.30367000  0.36168000  0.71658000  1.0
  H  H62  1  0.69633000  0.86168000  0.78342000  1.0
  H  H63  1  0.80367000  0.13832000  0.28342000  1.0
  H  H64  1  0.25723000  0.64731000  0.11554000  1.0
  H  H65  1  0.24277000  0.35269000  0.61554000  1.0
  H  H66  1  0.75723000  0.85269000  0.88446000  1.0
  H  H67  1  0.74277000  0.14731000  0.38446000  1.0
  H  H68  1  0.05479000  0.68418000  0.04663000  1.0
  H  H69  1  0.44521000  0.31582000  0.54664000  1.0
  H  H70  1  0.55479000  0.81582000  0.95336000  1.0
  H  H71  1  0.94521000  0.18418000  0.45336000  1.0
  H  H72  1  0.80255000  0.71038000  0.08359000  1.0
  H  H73  1  0.69746000  0.28962000  0.58359000  1.0
  H  H74  1  0.30254000  0.78963000  0.91641000  1.0
  H  H75  1  0.19746000  0.21037000  0.41641000  1.0
  H  H76  1  0.89777000  0.71094000  0.57528000  1.0
  H  H77  1  0.60224000  0.28906000  0.07529000  1.0
  H  H78  1  0.39776000  0.78906000  0.42471000  1.0
  H  H79  1  0.10224000  0.21094000  0.92472000  1.0
  H  H80  1  0.87285000  0.71307000  0.67756000  1.0
  H  H81  1  0.62715000  0.28693000  0.17756000  1.0
  H  H82  1  0.37285000  0.78693000  0.32244000  1.0
  H  H83  1  0.12715000  0.21307000  0.82244000  1.0
  H  H84  1  0.51080000  0.51689000  0.66144000  1.0
  H  H85  1  0.98920000  0.48311000  0.16145000  1.0
  H  H86  1  0.01080000  0.98311000  0.33856000  1.0
  H  H87  1  0.48920000  0.01689000  0.83856000  1.0
  H  H88  1  0.55297000  0.52043000  0.55763000  1.0
  H  H89  1  0.94703000  0.47957000  0.05763000  1.0
  H  H90  1  0.05297000  0.97957000  0.44237000  1.0
  H  H91  1  0.44703000  0.02043000  0.94237000  1.0
  H  H92  1  0.89525000  0.65677000  0.75893000  1.0
  H  H93  1  0.60475000  0.34323000  0.25893000  1.0
  H  H94  1  0.39525000  0.84323000  0.24107000  1.0
  H  H95  1  0.10476000  0.15676000  0.74107000  1.0
  H  H96  1  0.85838000  0.64179000  0.86271000  1.0
  H  H97  1  0.64162000  0.35821000  0.36271000  1.0
  H  H98  1  0.35838000  0.85820000  0.13729000  1.0
  H  H99  1  0.14162000  0.14180000  0.63729000  1.0
  H  H100  1  0.61550000  0.58587000  0.89842000  1.0
  H  H101  1  0.88449000  0.41413000  0.39843000  1.0
  H  H102  1  0.11550000  0.91414000  0.10157000  1.0
  H  H103  1  0.38450000  0.08586000  0.60158000  1.0
  H  H104  1  0.42011000  0.54616000  0.82909000  1.0
  H  H105  1  0.07988000  0.45384000  0.32909000  1.0
  H  H106  1  0.92012000  0.95385000  0.17091000  1.0
  H  H107  1  0.57989000  0.04615000  0.67092000  1.0
  H  H108  1  0.36376000  0.40929000  0.34874000  1.0
  H  H109  1  0.13624000  0.59071000  0.84874000  1.0
  H  H110  1  0.86376000  0.09071000  0.65126000  1.0
  H  H111  1  0.63624000  0.90929000  0.15126000  1.0
  H  H112  1  0.70616000  0.81388000  0.48581000  1.0
  H  H113  1  0.79384000  0.18612000  0.98581000  1.0
  H  H114  1  0.20616000  0.68612000  0.51419000  1.0
  H  H115  1  0.29384000  0.31388000  0.01419000  1.0
  H  H116  1  0.87553000  0.80620000  0.49868000  1.0
  H  H117  1  0.62447000  0.19380000  0.99868000  1.0
  H  H118  1  0.37553000  0.69380000  0.50132000  1.0
  H  H119  1  0.12447000  0.30620000  0.00132000  1.0
  C  C120  1  0.30552000  0.40586000  0.24010000  1.0
  C  C121  1  0.19448000  0.59414000  0.74010000  1.0
  C  C122  1  0.80552000  0.09414000  0.75990000  1.0
  C  C123  1  0.69449000  0.90587000  0.25990000  1.0
  C  C124  1  0.29868000  0.37247000  0.18522000  1.0
  C  C125  1  0.20132000  0.62753000  0.68522000  1.0
  C  C126  1  0.79868000  0.12753000  0.81478000  1.0
  C  C127  1  0.70132000  0.87247000  0.31478000  1.0
  C  C128  1  0.36729000  0.42219000  0.14212000  1.0
  C  C129  1  0.13271000  0.57781000  0.64212000  1.0
  C  C130  1  0.86729000  0.07781000  0.85788000  1.0
  C  C131  1  0.63271000  0.92220000  0.35788000  1.0
  C  C132  1  0.44245000  0.50686000  0.15374000  1.0
  C  C133  1  0.05755000  0.49314000  0.65374000  1.0
  C  C134  1  0.94245000  0.99314000  0.84626000  1.0
  C  C135  1  0.55755000  0.00687000  0.34626000  1.0
  C  C136  1  0.44378000  0.54274000  0.20796000  1.0
  C  C137  1  0.05622000  0.45726000  0.70796000  1.0
  C  C138  1  0.94378000  0.95726000  0.79204000  1.0
  C  C139  1  0.55621000  0.04274000  0.29204000  1.0
  C  C140  1  0.37639000  0.49229000  0.25173000  1.0
  C  C141  1  0.12361000  0.50771000  0.75174000  1.0
  C  C142  1  0.87639000  0.00771000  0.74826000  1.0
  C  C143  1  0.62361000  0.99229000  0.24827000  1.0
  C  C144  1  0.37476000  0.53829000  0.30808000  1.0
  C  C145  1  0.12524000  0.46171000  0.80808000  1.0
  C  C146  1  0.87476000  0.96171000  0.69192000  1.0
  C  C147  1  0.62524000  0.03829000  0.19192000  1.0
  C  C148  1  0.33990000  0.51932000  0.40991000  1.0
  C  C149  1  0.16010000  0.48068000  0.90991000  1.0
  C  C150  1  0.83990000  0.98068000  0.59009000  1.0
  C  C151  1  0.66010000  0.01932000  0.09009000  1.0
  C  C152  1  0.48825000  0.55342000  0.43466000  1.0
  C  C153  1  0.01175000  0.44658000  0.93466000  1.0
  C  C154  1  0.98826000  0.94658000  0.56534000  1.0
  C  C155  1  0.51175000  0.05342000  0.06534000  1.0
  C  C156  1  0.27094000  0.44231000  0.44729000  1.0
  C  C157  1  0.22906000  0.55769000  0.94729000  1.0
  C  C158  1  0.77094000  0.05769000  0.55271000  1.0
  C  C159  1  0.72906000  0.94231000  0.05271000  1.0
  C  C160  1  0.20571000  0.48181000  0.50175000  1.0
  C  C161  1  0.29429000  0.51819000  0.00175000  1.0
  C  C162  1  0.70571000  0.01819000  0.49825000  1.0
  C  C163  1  0.79429000  0.98181000  0.99825000  1.0
  C  C164  1  0.06202000  0.53498000  0.49106000  1.0
  C  C165  1  0.43798000  0.46502000  0.99106000  1.0
  C  C166  1  0.56202000  0.96501000  0.50894000  1.0
  C  C167  1  0.93798000  0.03498000  0.00894000  1.0
  C  C168  1  0.97705000  0.66666667  0.36139000  1.0
  C  C169  1  0.52295000  0.33333333  0.86139000  1.0
  C  C170  1  0.47705000  0.83330000  0.63861000  1.0
  C  C171  1  0.02295000  0.16669000  0.13861000  1.0
  C  C172  1  0.02429000  0.67670000  0.30646000  1.0
  C  C173  1  0.47571000  0.32330000  0.80646000  1.0
  C  C174  1  0.52428000  0.82330000  0.69354000  1.0
  C  C175  1  0.97572000  0.17670000  0.19354000  1.0
  C  C176  1  0.92504000  0.66159000  0.26264000  1.0
  C  C177  1  0.57496000  0.33841000  0.76265000  1.0
  C  C178  1  0.42504000  0.83841000  0.73736000  1.0
  C  C179  1  0.07496000  0.16159000  0.23735000  1.0
  C  C180  1  0.78216000  0.63498000  0.27682000  1.0
  C  C181  1  0.71784000  0.36502000  0.77682000  1.0
  C  C182  1  0.28216000  0.86502000  0.72318000  1.0
  C  C183  1  0.21784000  0.13498000  0.22318000  1.0
  C  C184  1  0.74472000  0.62342000  0.33263000  1.0
  C  C185  1  0.75528000  0.37658000  0.83263000  1.0
  C  C186  1  0.24472000  0.87658000  0.66737000  1.0
  C  C187  1  0.25528000  0.12342000  0.16737000  1.0
  C  C188  1  0.96698000  0.67091000  0.20318000  1.0
  C  C189  1  0.53301000  0.32909000  0.70318000  1.0
  C  C190  1  0.46698000  0.82909000  0.79682000  1.0
  C  C191  1  0.03302000  0.17091000  0.29682000  1.0
  C  C192  1  0.11183000  0.65544000  0.18610000  1.0
  C  C193  1  0.38817000  0.34456000  0.68610000  1.0
  C  C194  1  0.61183000  0.84456000  0.81390000  1.0
  C  C195  1  0.88817000  0.15544000  0.31390000  1.0
  C  C196  1  0.14531000  0.65995000  0.12942000  1.0
  C  C197  1  0.35469000  0.34005000  0.62943000  1.0
  C  C198  1  0.64531000  0.84005000  0.87057000  1.0
  C  C199  1  0.85469000  0.15995000  0.37057000  1.0
  C  C200  1  0.03394000  0.67996000  0.09142000  1.0
  C  C201  1  0.46606000  0.32004000  0.59142000  1.0
  C  C202  1  0.53394000  0.82004000  0.90858000  1.0
  C  C203  1  0.96606000  0.17996000  0.40858000  1.0
  C  C204  1  0.89278000  0.69492000  0.11224000  1.0
  C  C205  1  0.60722000  0.30507000  0.61224000  1.0
  C  C206  1  0.39278000  0.80508000  0.88776000  1.0
  C  C207  1  0.10722000  0.19492000  0.38776000  1.0
  C  C208  1  0.81468000  0.66721000  0.59564000  1.0
  C  C209  1  0.68532000  0.33279000  0.09564000  1.0
  C  C210  1  0.31468000  0.83279000  0.40436000  1.0
  C  C211  1  0.18532000  0.16721000  0.90436000  1.0
  C  C212  1  0.80089000  0.66717000  0.65338000  1.0
  C  C213  1  0.69911000  0.33283000  0.15338000  1.0
  C  C214  1  0.30089000  0.83283000  0.34662000  1.0
  C  C215  1  0.19911000  0.16716000  0.84662000  1.0
  C  C216  1  0.69237000  0.61129000  0.67864000  1.0
  C  C217  1  0.80763000  0.38871000  0.17864000  1.0
  C  C218  1  0.19237000  0.88871000  0.32136000  1.0
  C  C219  1  0.30763000  0.11129000  0.82136000  1.0
  C  C220  1  0.59913000  0.55897000  0.64349000  1.0
  C  C221  1  0.90087000  0.44104000  0.14349000  1.0
  C  C222  1  0.09913000  0.94103000  0.35651000  1.0
  C  C223  1  0.40087000  0.05896000  0.85651000  1.0
  C  C224  1  0.62160000  0.56158000  0.58611000  1.0
  C  C225  1  0.87840000  0.43842000  0.08611000  1.0
  C  C226  1  0.12159000  0.93842000  0.41389000  1.0
  C  C227  1  0.37840000  0.06158000  0.91389000  1.0
  C  C228  1  0.67534000  0.60768000  0.74011000  1.0
  C  C229  1  0.82466000  0.39232000  0.24012000  1.0
  C  C230  1  0.17534000  0.89232000  0.25988000  1.0
  C  C231  1  0.32466000  0.10768000  0.75989000  1.0
  C  C232  1  0.79072000  0.63327000  0.77600000  1.0
  C  C233  1  0.70928000  0.36673000  0.27600000  1.0
  C  C234  1  0.29072000  0.86673000  0.22400000  1.0
  C  C235  1  0.20928000  0.13327000  0.72401000  1.0
  C  C236  1  0.77033000  0.62566000  0.83347000  1.0
  C  C237  1  0.72967000  0.37434000  0.33347000  1.0
  C  C238  1  0.27033000  0.87434000  0.16653000  1.0
  C  C239  1  0.22967000  0.12566000  0.66654000  1.0
  C  C240  1  0.63550000  0.59440000  0.85379000  1.0
  C  C241  1  0.86449000  0.40560000  0.35379000  1.0
  C  C242  1  0.13551000  0.90560000  0.14621000  1.0
  C  C243  1  0.36449000  0.09440000  0.64621000  1.0
  C  C244  1  0.52702000  0.57165000  0.81498000  1.0
  C  C245  1  0.97297000  0.42835000  0.31498000  1.0
  C  C246  1  0.02703000  0.92836000  0.18502000  1.0
  C  C247  1  0.47297000  0.07164000  0.68503000  1.0
  N  N248  1  0.84004000  0.63928000  0.37449000  1.0
  N  N249  1  0.65997000  0.36072000  0.87450000  1.0
  N  N250  1  0.34003000  0.86072000  0.62550000  1.0
  N  N251  1  0.15997000  0.13928000  0.12550000  1.0
  N  N252  1  0.85843000  0.69083000  0.16655000  1.0
  N  N253  1  0.64157000  0.30917000  0.66656000  1.0
  N  N254  1  0.35843000  0.80917000  0.83344000  1.0
  N  N255  1  0.14157000  0.19083000  0.33344000  1.0
  N  N256  1  0.72830000  0.61408000  0.56234000  1.0
  N  N257  1  0.77171000  0.38592000  0.06234000  1.0
  N  N258  1  0.22829000  0.88592000  0.43766000  1.0
  N  N259  1  0.27171000  0.11408000  0.93766000  1.0
  N  N260  1  0.54507000  0.57701000  0.75957000  1.0
  N  N261  1  0.95493000  0.42299000  0.25957000  1.0
  N  N262  1  0.04507000  0.92299000  0.24043000  1.0
  N  N263  1  0.45493000  0.07701000  0.74043000  1.0
  N  N264  1  0.35756000  0.48108000  0.35355000  1.0
  N  N265  1  0.14244000  0.51892000  0.85355000  1.0
  N  N266  1  0.85756000  0.01892000  0.64645000  1.0
  N  N267  1  0.64244000  0.98108000  0.14645000  1.0
  O  O268  1  0.05872000  0.62610000  0.49398000  1.0
  O  O269  1  0.44128000  0.37390000  0.99399000  1.0
  O  O270  1  0.55872000  0.87390000  0.50601000  1.0
  O  O271  1  0.94128000  0.12610000  0.00601000  1.0
  O  O272  1  0.95010000  0.48556000  0.47849000  1.0
  O  O273  1  0.54989000  0.51444000  0.97849000  1.0
  O  O274  1  0.45011000  0.01444000  0.52151000  1.0
  O  O275  1  0.04989000  0.98556000  0.02151000  1.0
  O  O276  1  0.38533000  0.62657000  0.31300000  1.0
  O  O277  1  0.11467000  0.37342000  0.81300000  1.0
  O  O278  1  0.88533000  0.87343000  0.68700000  1.0
  O  O279  1  0.61467000  0.12657000  0.18700000  1.0
  O  O280  1  0.49780000  0.63791000  0.45411000  1.0
  O  O281  1  0.00220000  0.36209000  0.95411000  1.0
  O  O282  1  0.99780000  0.86209000  0.54589000  1.0
  O  O283  1  0.50220000  0.13791000  0.04589000  1.0
  O  O284  1  0.59410000  0.49491000  0.43429000  1.0
  O  O285  1  0.90590000  0.50509000  0.93429000  1.0
  O  O286  1  0.09410000  0.00509000  0.56571000  1.0
  O  O287  1  0.40590000  0.99491000  0.06571000  1.0
  O  O288  1  0.79905000  0.78257000  0.47269000  1.0
  O  O289  1  0.70095000  0.21743000  0.97269000  1.0
  O  O290  1  0.29905000  0.71743000  0.52731000  1.0
  O  O291  1  0.20095000  0.28257000  0.02731000  1.0
