# generated using pymatgen
data_H14PbC9O4
_symmetry_space_group_name_H-M   'P 1'
_cell_length_a   4.78421000
_cell_length_b   7.34167000
_cell_length_c   14.91260000
_cell_angle_alpha   89.99980000
_cell_angle_beta   90.48960000
_cell_angle_gamma   90.00000000
_symmetry_Int_Tables_number   1
_chemical_formula_structural   H14PbC9O4
_chemical_formula_sum   'H28 Pb2 C18 O8'
_cell_volume   523.77239658
_cell_formula_units_Z   2
loop_
 _symmetry_equiv_pos_site_id
 _symmetry_equiv_pos_as_xyz
  1  'x, y, z'
loop_
 _atom_site_type_symbol
 _atom_site_label
 _atom_site_symmetry_multiplicity
 _atom_site_fract_x
 _atom_site_fract_y
 _atom_site_fract_z
 _atom_site_occupancy
  H  H0  1  0.47804000  0.13272000  0.79347000  1.0
  H  H1  1  0.47804000  0.36728000  0.79347000  1.0
  H  H2  1  0.52196000  0.86727000  0.20652000  1.0
  H  H3  1  0.52196000  0.63272000  0.20653000  1.0
  H  H4  1  0.02710000  0.36904000  0.88347000  1.0
  H  H5  1  0.02710000  0.13096000  0.88347000  1.0
  H  H6  1  0.97290000  0.63095000  0.11653000  1.0
  H  H7  1  0.97290000  0.86903000  0.11653000  1.0
  H  H8  1  0.49251000  0.36944000  0.96484000  1.0
  H  H9  1  0.49251000  0.13056000  0.96484000  1.0
  H  H10  1  0.50749000  0.63056000  0.03516000  1.0
  H  H11  1  0.50749000  0.86944000  0.03516000  1.0
  H  H12  1  0.04841000  0.36947000  0.05487000  1.0
  H  H13  1  0.04841000  0.13052000  0.05487000  1.0
  H  H14  1  0.95160000  0.63052000  0.94513000  1.0
  H  H15  1  0.95160000  0.86948000  0.94513000  1.0
  H  H16  1  0.51301000  0.13050000  0.13591000  1.0
  H  H17  1  0.51301000  0.36950000  0.13591000  1.0
  H  H18  1  0.48700000  0.86951000  0.86409000  1.0
  H  H19  1  0.48699000  0.63050000  0.86409000  1.0
  H  H20  1  0.07185000  0.12931000  0.22679000  1.0
  H  H21  1  0.07185000  0.37069000  0.22679000  1.0
  H  H22  1  0.92814000  0.87069000  0.77321000  1.0
  H  H23  1  0.92814000  0.62931000  0.77321000  1.0
  H  H24  1  0.53175000  0.12803000  0.30863000  1.0
  H  H25  1  0.53175000  0.37196000  0.30863000  1.0
  H  H26  1  0.46825000  0.87197000  0.69137000  1.0
  H  H27  1  0.46825000  0.62803000  0.69137000  1.0
  Pb  Pb28  1  0.79092000  0.25000000  0.55537000  1.0
  Pb  Pb29  1  0.20907000  0.75000000  0.44463000  1.0
  C  C30  1  0.16249000  0.25000000  0.71108000  1.0
  C  C31  1  0.83751000  0.75001000  0.28892000  1.0
  C  C32  1  0.33543000  0.25000000  0.79634000  1.0
  C  C33  1  0.66456000  0.75000000  0.20366000  1.0
  C  C34  1  0.16696000  0.25000000  0.88252000  1.0
  C  C35  1  0.83304000  0.75000000  0.11748000  1.0
  C  C36  1  0.35278000  0.25000000  0.96626000  1.0
  C  C37  1  0.64722000  0.75000000  0.03374000  1.0
  C  C38  1  0.18803000  0.25000000  0.05356000  1.0
  C  C39  1  0.81197000  0.75000000  0.94644000  1.0
  C  C40  1  0.37354000  0.25000000  0.13739000  1.0
  C  C41  1  0.62646000  0.75000000  0.86261000  1.0
  C  C42  1  0.20850000  0.25000000  0.22467000  1.0
  C  C43  1  0.79150000  0.75000000  0.77533000  1.0
  C  C44  1  0.39836000  0.25000000  0.30848000  1.0
  C  C45  1  0.60163000  0.75000000  0.69152000  1.0
  C  C46  1  0.22329000  0.25000000  0.39253000  1.0
  C  C47  1  0.77672000  0.75000000  0.60748000  1.0
  O  O48  1  0.28094000  0.25001000  0.63408000  1.0
  O  O49  1  0.71906000  0.75002000  0.36592000  1.0
  O  O50  1  0.89743000  0.25000000  0.71716000  1.0
  O  O51  1  0.10257000  0.75001000  0.28284000  1.0
  O  O52  1  0.14631000  0.09897000  0.42680000  1.0
  O  O53  1  0.14632000  0.40104000  0.42680000  1.0
  O  O54  1  0.85369000  0.90104000  0.57320000  1.0
  O  O55  1  0.85371000  0.59897000  0.57320000  1.0
