# generated using pymatgen
data_CdH6C8(NCl)4
_symmetry_space_group_name_H-M   'P 1'
_cell_length_a   3.77259000
_cell_length_b   10.21930000
_cell_length_c   16.19400000
_cell_angle_alpha   89.99970000
_cell_angle_beta   89.99980000
_cell_angle_gamma   92.91690000
_symmetry_Int_Tables_number   1
_chemical_formula_structural   CdH6C8(NCl)4
_chemical_formula_sum   'Cd2 H12 C16 N8 Cl8'
_cell_volume   623.52210124
_cell_formula_units_Z   2
loop_
 _symmetry_equiv_pos_site_id
 _symmetry_equiv_pos_as_xyz
  1  'x, y, z'
loop_
 _atom_site_type_symbol
 _atom_site_label
 _atom_site_symmetry_multiplicity
 _atom_site_fract_x
 _atom_site_fract_y
 _atom_site_fract_z
 _atom_site_occupancy
  Cd  Cd0  1  0.50001000  0.50000000  0.50000000  1.0
  Cd  Cd1  1  0.50000000  0.00000000  0.00000000  1.0
  H  H2  1  0.25282000  0.18998000  0.48304000  1.0
  H  H3  1  0.74718000  0.31002000  0.98303000  1.0
  H  H4  1  0.74719000  0.81003000  0.51696000  1.0
  H  H5  1  0.25281000  0.68997000  0.01697000  1.0
  H  H6  1  0.70130000  0.44179000  0.30528000  1.0
  H  H7  1  0.29871000  0.05820000  0.80528000  1.0
  H  H8  1  0.29869000  0.55821000  0.69472000  1.0
  H  H9  1  0.70131000  0.94179000  0.19472000  1.0
  H  H10  1  0.74405000  0.24931000  0.20646000  1.0
  H  H11  1  0.25595000  0.25069000  0.70646000  1.0
  H  H12  1  0.25592000  0.75070000  0.79354000  1.0
  H  H13  1  0.74407000  0.74931000  0.29354000  1.0
  C  C14  1  0.38544000  0.09966000  0.36508000  1.0
  C  C15  1  0.61455000  0.40033000  0.86507000  1.0
  C  C16  1  0.61455000  0.90034000  0.63493000  1.0
  C  C17  1  0.38545000  0.59966000  0.13493000  1.0
  C  C18  1  0.36306000  0.20309000  0.42121000  1.0
  C  C19  1  0.63694000  0.29691000  0.92121000  1.0
  C  C20  1  0.63694000  0.79692000  0.57879000  1.0
  C  C21  1  0.36306000  0.70308000  0.07879000  1.0
  C  C22  1  0.61348000  0.34234000  0.32276000  1.0
  C  C23  1  0.38653000  0.15766000  0.82275000  1.0
  C  C24  1  0.38651000  0.65767000  0.67725000  1.0
  C  C25  1  0.61349000  0.84233000  0.17725000  1.0
  C  C26  1  0.63348000  0.23695000  0.26842000  1.0
  C  C27  1  0.36652000  0.26305000  0.76842000  1.0
  C  C28  1  0.36650000  0.76306000  0.73157000  1.0
  C  C29  1  0.63349000  0.73695000  0.23158000  1.0
  N  N30  1  0.52147000  0.11504000  0.28998000  1.0
  N  N31  1  0.47853000  0.38496000  0.78997000  1.0
  N  N32  1  0.47850000  0.88496000  0.71002000  1.0
  N  N33  1  0.52149000  0.61504000  0.21003000  1.0
  N  N34  1  0.48044000  0.32384000  0.39911000  1.0
  N  N35  1  0.51956000  0.17616000  0.89911000  1.0
  N  N36  1  0.51956000  0.67616000  0.60089000  1.0
  N  N37  1  0.48044000  0.82384000  0.10089000  1.0
  Cl  Cl38  1  0.01605000  0.62402000  0.41782000  1.0
  Cl  Cl39  1  0.98396000  0.87598000  0.91782000  1.0
  Cl  Cl40  1  0.98397000  0.37598000  0.58219000  1.0
  Cl  Cl41  1  0.01604000  0.12402000  0.08218000  1.0
  Cl  Cl42  1  0.23450000  0.94335000  0.39345000  1.0
  Cl  Cl43  1  0.76548000  0.55665000  0.89345000  1.0
  Cl  Cl44  1  0.76548000  0.05666000  0.60655000  1.0
  Cl  Cl45  1  0.23452000  0.44334000  0.10655000  1.0
