# generated using pymatgen
data_CdH8C6(IN2)2
_symmetry_space_group_name_H-M   'P 1'
_cell_length_a   4.25399000
_cell_length_b   9.41879000
_cell_length_c   14.64620000
_cell_angle_alpha   95.81180000
_cell_angle_beta   90.14950000
_cell_angle_gamma   102.35600000
_symmetry_Int_Tables_number   1
_chemical_formula_structural   CdH8C6(IN2)2
_chemical_formula_sum   'Cd2 H16 C12 I4 N8'
_cell_volume   570.11825547
_cell_formula_units_Z   2
loop_
 _symmetry_equiv_pos_site_id
 _symmetry_equiv_pos_as_xyz
  1  'x, y, z'
loop_
 _atom_site_type_symbol
 _atom_site_label
 _atom_site_symmetry_multiplicity
 _atom_site_fract_x
 _atom_site_fract_y
 _atom_site_fract_z
 _atom_site_occupancy
  Cd  Cd0  1  0.05911000  0.00178000  0.75064000  1.0
  Cd  Cd1  1  0.94090000  0.99822000  0.24936000  1.0
  H  H2  1  0.65844000  0.62514000  0.00166000  1.0
  H  H3  1  0.02038000  0.36910000  0.49390000  1.0
  H  H4  1  0.34155000  0.37484000  0.99833000  1.0
  H  H5  1  0.97964000  0.63090000  0.50610000  1.0
  H  H6  1  0.96050000  0.45703000  0.87778000  1.0
  H  H7  1  0.48828000  0.53990000  0.61549000  1.0
  H  H8  1  0.03950000  0.54297000  0.12221000  1.0
  H  H9  1  0.51171000  0.46011000  0.38452000  1.0
  H  H10  1  0.15681000  0.64012000  0.74283000  1.0
  H  H11  1  0.50767000  0.36315000  0.75439000  1.0
  H  H12  1  0.84320000  0.35988000  0.25717000  1.0
  H  H13  1  0.49231000  0.63685000  0.24562000  1.0
  H  H14  1  0.69261000  0.86441000  0.93223000  1.0
  H  H15  1  0.82269000  0.13432000  0.56776000  1.0
  H  H16  1  0.30739000  0.13559000  0.06777000  1.0
  H  H17  1  0.17731000  0.86569000  0.43224000  1.0
  C  C18  1  0.77271000  0.64813000  0.93715000  1.0
  C  C19  1  0.11312000  0.34851000  0.55915000  1.0
  C  C20  1  0.22729000  0.35186000  0.06284000  1.0
  C  C21  1  0.88689000  0.65149000  0.44085000  1.0
  C  C22  1  0.92666000  0.56722000  0.87416000  1.0
  C  C23  1  0.34678000  0.43086000  0.62110000  1.0
  C  C24  1  0.07335000  0.43278000  0.12583000  1.0
  C  C25  1  0.65322000  0.56915000  0.37890000  1.0
  C  C26  1  0.02590000  0.65894000  0.80481000  1.0
  C  C27  1  0.35733000  0.34236000  0.69244000  1.0
  C  C28  1  0.97411000  0.34106000  0.19518000  1.0
  C  C29  1  0.64265000  0.65764000  0.30757000  1.0
  I  I30  1  0.49067000  0.87591000  0.61976000  1.0
  I  I31  1  0.61229000  0.12718000  0.88140000  1.0
  I  I32  1  0.50934000  0.12409000  0.38024000  1.0
  I  I33  1  0.38771000  0.87282000  0.11860000  1.0
  N  N34  1  0.93838000  0.78728000  0.82426000  1.0
  N  N35  1  0.14427000  0.21458000  0.67510000  1.0
  N  N36  1  0.06163000  0.21272000  0.17574000  1.0
  N  N37  1  0.85572000  0.78542000  0.32490000  1.0
  N  N38  1  0.78572000  0.77831000  0.90463000  1.0
  N  N39  1  0.99959000  0.22072000  0.59410000  1.0
  N  N40  1  0.21427000  0.22169000  0.09537000  1.0
  N  N41  1  0.00040000  0.77929000  0.40591000  1.0
