# generated using pymatgen
data_ZnH12C32N5O8
_symmetry_space_group_name_H-M   'P 1'
_cell_length_a   17.71630000
_cell_length_b   18.47530000
_cell_length_c   19.65330000
_cell_angle_alpha   92.13350000
_cell_angle_beta   92.07620000
_cell_angle_gamma   90.58060000
_symmetry_Int_Tables_number   1
_chemical_formula_structural   ZnH12C32N5O8
_chemical_formula_sum   'Zn2 H24 C64 N10 O16'
_cell_volume   6423.69552979
_cell_formula_units_Z   2
loop_
 _symmetry_equiv_pos_site_id
 _symmetry_equiv_pos_as_xyz
  1  'x, y, z'
loop_
 _atom_site_type_symbol
 _atom_site_label
 _atom_site_symmetry_multiplicity
 _atom_site_fract_x
 _atom_site_fract_y
 _atom_site_fract_z
 _atom_site_occupancy
  Zn  Zn0  1  0.49252000  0.42397000  0.49827000  1.0
  Zn  Zn1  1  0.49740000  0.57502000  0.49514000  1.0
  H  H2  1  0.11907000  0.38608000  0.53250000  1.0
  H  H3  1  0.87305000  0.61113000  0.50488000  1.0
  H  H4  1  0.87221000  0.38294000  0.54392000  1.0
  H  H5  1  0.12015000  0.61918000  0.52648000  1.0
  H  H6  1  0.25845000  0.38633000  0.51654000  1.0
  H  H7  1  0.73264000  0.60686000  0.48920000  1.0
  H  H8  1  0.73163000  0.38001000  0.52905000  1.0
  H  H9  1  0.25985000  0.61840000  0.51285000  1.0
  H  H10  1  0.60056000  0.40944000  0.04851000  1.0
  H  H11  1  0.40198000  0.56152000  0.94193000  1.0
  H  H12  1  0.59147000  0.41797000  0.92359000  1.0
  H  H13  1  0.41177000  0.55403000  0.06683000  1.0
  H  H14  1  0.39417000  0.16336000  0.43559000  1.0
  H  H15  1  0.60267000  0.83427000  0.55434000  1.0
  H  H16  1  0.58877000  0.17341000  0.57478000  1.0
  H  H17  1  0.39857000  0.82691000  0.42672000  1.0
  H  H18  1  0.61779000  0.07042000  0.50130000  1.0
  H  H19  1  0.37696000  0.92920000  0.49218000  1.0
  H  H20  1  0.37400000  0.06231000  0.49834000  1.0
  H  H21  1  0.62088000  0.93711000  0.49457000  1.0
  H  H22  1  0.49269000  0.71716000  0.29381000  1.0
  H  H23  1  0.28162000  0.42189000  0.66114000  1.0
  H  H24  1  0.68761000  0.64174000  0.69660000  1.0
  H  H25  1  0.42224000  0.27868000  0.29650000  1.0
  C  C26  1  0.49773000  0.51745000  0.63010000  1.0
  C  C27  1  0.49691000  0.49134000  0.36215000  1.0
  C  C28  1  0.51401000  0.48244000  0.14165000  1.0
  C  C29  1  0.49544000  0.50029000  0.84961000  1.0
  C  C30  1  0.50941000  0.48728000  0.28658000  1.0
  C  C31  1  0.49555000  0.51638000  0.70680000  1.0
  C  C32  1  0.55697000  0.44279000  0.02541000  1.0
  C  C33  1  0.44558000  0.52819000  0.96504000  1.0
  C  C34  1  0.55196000  0.44780000  0.95495000  1.0
  C  C35  1  0.45137000  0.52425000  0.03547000  1.0
  C  C36  1  0.49698000  0.49125000  0.92410000  1.0
  C  C37  1  0.50771000  0.48235000  0.06646000  1.0
  C  C38  1  0.43570000  0.26813000  0.47072000  1.0
  C  C39  1  0.55586000  0.73014000  0.52358000  1.0
  C  C40  1  0.53973000  0.27365000  0.54461000  1.0
  C  C41  1  0.44632000  0.72615000  0.45663000  1.0
  C  C42  1  0.43687000  0.19241000  0.46744000  1.0
  C  C43  1  0.55761000  0.80593000  0.52477000  1.0
  C  C44  1  0.54506000  0.19794000  0.54315000  1.0
  C  C45  1  0.44429000  0.80187000  0.45557000  1.0
  C  C46  1  0.49307000  0.15558000  0.50351000  1.0
  C  C47  1  0.50057000  0.84367000  0.49060000  1.0
  C  C48  1  0.56494000  0.03955000  0.50027000  1.0
  C  C49  1  0.42992000  0.95986000  0.49287000  1.0
  C  C50  1  0.42823000  0.03503000  0.49641000  1.0
  C  C51  1  0.56661000  0.96430000  0.49652000  1.0
  C  C52  1  0.49916000  0.92338000  0.49292000  1.0
  C  C53  1  0.49568000  0.07591000  0.50023000  1.0
  C  C54  1  0.63997000  0.49204000  0.49971000  1.0
  C  C55  1  0.35028000  0.50118000  0.50434000  1.0
  C  C56  1  0.15023000  0.43684000  0.52859000  1.0
  C  C57  1  0.84181000  0.56064000  0.50998000  1.0
  C  C58  1  0.84133000  0.43185000  0.53188000  1.0
  C  C59  1  0.15081000  0.56835000  0.52492000  1.0
  C  C60  1  0.22762000  0.43696000  0.52006000  1.0
  C  C61  1  0.76383000  0.55831000  0.50120000  1.0
  C  C62  1  0.76323000  0.43009000  0.52320000  1.0
  C  C63  1  0.22836000  0.56798000  0.51711000  1.0
  C  C64  1  0.26733000  0.50240000  0.51386000  1.0
  C  C65  1  0.72379000  0.49318000  0.50768000  1.0
  C  C66  1  0.11025000  0.50266000  0.53006000  1.0
  C  C67  1  0.88198000  0.49723000  0.52514000  1.0
  C  C68  1  0.03069000  0.50183000  0.53324000  1.0
  C  C69  1  0.96172000  0.49932000  0.53137000  1.0
  C  C70  1  0.51995000  0.55112000  0.25142000  1.0
  C  C71  1  0.42962000  0.49381000  0.73739000  1.0
  C  C72  1  0.56034000  0.53394000  0.74683000  1.0
  C  C73  1  0.50701000  0.42075000  0.24987000  1.0
  C  C74  1  0.52168000  0.54870000  0.17972000  1.0
  C  C75  1  0.42957000  0.48540000  0.80842000  1.0
  C  C76  1  0.56036000  0.52602000  0.81788000  1.0
  C  C77  1  0.50970000  0.41831000  0.17812000  1.0
  C  C78  1  0.53465000  0.62389000  0.28700000  1.0
  C  C79  1  0.35818000  0.48675000  0.69399000  1.0
  C  C80  1  0.62908000  0.55823000  0.71072000  1.0
  C  C81  1  0.49881000  0.34889000  0.28313000  1.0
  C  C82  1  0.53304000  0.61449000  0.14511000  1.0
  C  C83  1  0.36210000  0.46120000  0.83870000  1.0
  C  C84  1  0.62693000  0.54491000  0.85814000  1.0
  C  C85  1  0.50415000  0.34964000  0.14218000  1.0
  C  C86  1  0.37503000  0.30018000  0.43240000  1.0
  C  C87  1  0.61591000  0.69720000  0.56207000  1.0
  C  C88  1  0.59188000  0.31247000  0.59050000  1.0
  C  C89  1  0.38589000  0.68785000  0.41984000  1.0
  N  N90  1  0.48692000  0.30928000  0.50774000  1.0
  N  N91  1  0.50117000  0.68978000  0.49021000  1.0
  N  N92  1  0.54326000  0.66910000  0.11862000  1.0
  N  N93  1  0.30615000  0.44178000  0.86228000  1.0
  N  N94  1  0.68204000  0.56058000  0.88992000  1.0
  N  N95  1  0.50040000  0.29264000  0.11445000  1.0
  N  N96  1  0.32169000  0.31436000  0.39913000  1.0
  N  N97  1  0.66825000  0.68291000  0.59643000  1.0
  N  N98  1  0.63599000  0.33351000  0.63236000  1.0
  N  N99  1  0.33308000  0.66625000  0.38785000  1.0
  O  O100  1  0.48854000  0.45530000  0.60117000  1.0
  O  O101  1  0.48987000  0.55438000  0.38897000  1.0
  O  O102  1  0.49341000  0.43168000  0.39194000  1.0
  O  O103  1  0.50805000  0.57746000  0.60272000  1.0
  O  O104  1  0.60564000  0.43100000  0.50143000  1.0
  O  O105  1  0.38573000  0.56165000  0.50392000  1.0
  O  O106  1  0.38052000  0.43900000  0.49762000  1.0
  O  O107  1  0.60743000  0.55266000  0.49125000  1.0
  O  O108  1  0.59563000  0.64280000  0.31253000  1.0
  O  O109  1  0.47498000  0.66859000  0.27858000  1.0
  O  O110  1  0.33109000  0.53862000  0.66578000  1.0
  O  O111  1  0.32788000  0.41933000  0.69014000  1.0
  O  O112  1  0.65944000  0.52002000  0.66819000  1.0
  O  O113  1  0.65002000  0.62665000  0.72925000  1.0
  O  O114  1  0.55093000  0.31258000  0.30418000  1.0
  O  O115  1  0.42557000  0.32729000  0.27847000  1.0
