# generated using pymatgen
data_NiH12C16(SN3)2
_symmetry_space_group_name_H-M   'P 1'
_cell_length_a   7.50789000
_cell_length_b   10.96300000
_cell_length_c   11.58892015
_cell_angle_alpha   111.97737587
_cell_angle_beta   108.89096302
_cell_angle_gamma   90.00140000
_symmetry_Int_Tables_number   1
_chemical_formula_structural   NiH12C16(SN3)2
_chemical_formula_sum   'Ni2 H24 C32 S4 N12'
_cell_volume   828.88840354
_cell_formula_units_Z   2
loop_
 _symmetry_equiv_pos_site_id
 _symmetry_equiv_pos_as_xyz
  1  'x, y, z'
loop_
 _atom_site_type_symbol
 _atom_site_label
 _atom_site_symmetry_multiplicity
 _atom_site_fract_x
 _atom_site_fract_y
 _atom_site_fract_z
 _atom_site_occupancy
  Ni  Ni0  1  0.00000000  0.00000000  0.00000000  1.0
  Ni  Ni1  1  0.00000000  0.50000000  0.00000000  1.0
  H  H2  1  0.27473000  0.50217000  0.45884000  1.0
  H  H3  1  0.18400000  0.00234000  0.45902000  1.0
  H  H4  1  0.72526000  0.49783000  0.54115000  1.0
  H  H5  1  0.81600000  0.99766000  0.54098000  1.0
  H  H6  1  0.39697000  0.41702000  0.63696000  1.0
  H  H7  1  0.23994000  0.91734000  0.63722000  1.0
  H  H8  1  0.60303000  0.58298000  0.36304000  1.0
  H  H9  1  0.76006000  0.08266000  0.36278000  1.0
  H  H10  1  0.45768000  0.18274000  0.57853000  1.0
  H  H11  1  0.12130000  0.68295000  0.57880000  1.0
  H  H12  1  0.54232000  0.81726000  0.42147000  1.0
  H  H13  1  0.87870000  0.31705000  0.42120000  1.0
  H  H14  1  0.40669000  0.03526000  0.34278000  1.0
  H  H15  1  0.93678000  0.53531000  0.34309000  1.0
  H  H16  1  0.59331000  0.96474000  0.65722000  1.0
  H  H17  1  0.06322000  0.46469000  0.65691000  1.0
  H  H18  1  0.33121000  0.14858000  0.08795000  1.0
  H  H19  1  0.75703000  0.64861000  0.08827000  1.0
  H  H20  1  0.66879000  0.85142000  0.91205000  1.0
  H  H21  1  0.24296000  0.35139000  0.91173000  1.0
  H  H22  1  0.35610000  0.01832000  0.13152000  1.0
  H  H23  1  0.77588000  0.51837000  0.13187000  1.0
  H  H24  1  0.64390000  0.98167000  0.86848000  1.0
  H  H25  1  0.22411000  0.48162000  0.86813000  1.0
  C  C26  1  0.22543000  0.77738000  0.86650000  1.0
  C  C27  1  0.64081000  0.27742000  0.86657000  1.0
  C  C28  1  0.77459000  0.22263000  0.13350000  1.0
  C  C29  1  0.35919000  0.72258000  0.13344000  1.0
  C  C30  1  0.31102000  0.18394000  0.26795000  1.0
  C  C31  1  0.95726000  0.68404000  0.26818000  1.0
  C  C32  1  0.68898000  0.81606000  0.73205000  1.0
  C  C33  1  0.04274000  0.31596000  0.73183000  1.0
  C  C34  1  0.27051000  0.31646000  0.30147000  1.0
  C  C35  1  0.03124000  0.81654000  0.30164000  1.0
  C  C36  1  0.72951000  0.68354000  0.69854000  1.0
  C  C37  1  0.96876000  0.18346000  0.69836000  1.0
  C  C38  1  0.30251000  0.39983000  0.43482000  1.0
  C  C39  1  0.13236000  0.89999000  0.43501000  1.0
  C  C40  1  0.69749000  0.60017000  0.56518000  1.0
  C  C41  1  0.86764000  0.10001000  0.56499000  1.0
  C  C42  1  0.37129000  0.35203000  0.53395000  1.0
  C  C43  1  0.16276000  0.85227000  0.53420000  1.0
  C  C44  1  0.62870000  0.64797000  0.46605000  1.0
  C  C45  1  0.83724000  0.14773000  0.46580000  1.0
  C  C46  1  0.40539000  0.22023000  0.50044000  1.0
  C  C47  1  0.09543000  0.72040000  0.50067000  1.0
  C  C48  1  0.59461000  0.77977000  0.49956000  1.0
  C  C49  1  0.90457000  0.27960000  0.49933000  1.0
  C  C50  1  0.37449000  0.13709000  0.36901000  1.0
  C  C51  1  0.99490000  0.63721000  0.36926000  1.0
  C  C52  1  0.62551000  0.86291000  0.63099000  1.0
  C  C53  1  0.00510000  0.36279000  0.63074000  1.0
  C  C54  1  0.19611000  0.36652000  0.20180000  1.0
  C  C55  1  0.00593000  0.86664000  0.20198000  1.0
  C  C56  1  0.80389000  0.63347000  0.79820000  1.0
  C  C57  1  0.99406000  0.13336000  0.79801000  1.0
  S  S58  1  0.35244000  0.66438000  0.81200000  1.0
  S  S59  1  0.45924000  0.16452000  0.81215000  1.0
  S  S60  1  0.64756000  0.33563000  0.18800000  1.0
  S  S61  1  0.54077000  0.83548000  0.18786000  1.0
  N  N62  1  0.13084000  0.85830000  0.90511000  1.0
  N  N63  1  0.77406000  0.35831000  0.90519000  1.0
  N  N64  1  0.86916000  0.14170000  0.09489000  1.0
  N  N65  1  0.22594000  0.64169000  0.09481000  1.0
  N  N66  1  0.28620000  0.09993000  0.13604000  1.0
  N  N67  1  0.85022000  0.59998000  0.13629000  1.0
  N  N68  1  0.71381000  0.90006000  0.86397000  1.0
  N  N69  1  0.14978000  0.40002000  0.86371000  1.0
  N  N70  1  0.13061000  0.40898000  0.12120000  1.0
  N  N71  1  0.99085000  0.90908000  0.12138000  1.0
  N  N72  1  0.86940000  0.59102000  0.87880000  1.0
  N  N73  1  0.00915000  0.09093000  0.87862000  1.0
