# generated using pymatgen
data_CdH4C6S2(N2O)2
_symmetry_space_group_name_H-M   'P 1'
_cell_length_a   6.77621000
_cell_length_b   10.56340000
_cell_length_c   14.30750000
_cell_angle_alpha   90.00030000
_cell_angle_beta   90.00010000
_cell_angle_gamma   81.03720000
_symmetry_Int_Tables_number   1
_chemical_formula_structural   CdH4C6S2(N2O)2
_chemical_formula_sum   'Cd4 H16 C24 S8 N16 O8'
_cell_volume   1011.62331415
_cell_formula_units_Z   4
loop_
 _symmetry_equiv_pos_site_id
 _symmetry_equiv_pos_as_xyz
  1  'x, y, z'
loop_
 _atom_site_type_symbol
 _atom_site_label
 _atom_site_symmetry_multiplicity
 _atom_site_fract_x
 _atom_site_fract_y
 _atom_site_fract_z
 _atom_site_occupancy
  Cd  Cd0  1  0.06715000  0.24523000  0.94095000  1.0
  Cd  Cd1  1  0.43284000  0.25477000  0.44095000  1.0
  Cd  Cd2  1  0.93286000  0.75477000  0.05905000  1.0
  Cd  Cd3  1  0.56715000  0.74523000  0.55905000  1.0
  H  H4  1  0.04971000  0.09097000  0.73421000  1.0
  H  H5  1  0.45030000  0.40903000  0.23421000  1.0
  H  H6  1  0.95030000  0.90903000  0.26579000  1.0
  H  H7  1  0.54969000  0.59097000  0.76579000  1.0
  H  H8  1  0.03984000  0.86678000  0.66564000  1.0
  H  H9  1  0.46017000  0.63321000  0.16564000  1.0
  H  H10  1  0.96016000  0.13322000  0.33436000  1.0
  H  H11  1  0.53983000  0.36679000  0.83436000  1.0
  H  H12  1  0.50631000  0.85160000  0.80690000  1.0
  H  H13  1  0.99370000  0.64840000  0.30690000  1.0
  H  H14  1  0.49370000  0.14841000  0.19310000  1.0
  H  H15  1  0.00630000  0.35160000  0.69309000  1.0
  H  H16  1  0.52033000  0.07115000  0.87858000  1.0
  H  H17  1  0.97968000  0.42885000  0.37859000  1.0
  H  H18  1  0.47968000  0.92885000  0.12142000  1.0
  H  H19  1  0.02032000  0.57115000  0.62141000  1.0
  C  C20  1  0.93071000  0.03544000  0.74858000  1.0
  C  C21  1  0.56929000  0.46455000  0.24858000  1.0
  C  C22  1  0.06930000  0.96455000  0.25142000  1.0
  C  C23  1  0.43070000  0.53545000  0.75142000  1.0
  C  C24  1  0.92463000  0.91617000  0.71143000  1.0
  C  C25  1  0.57538000  0.58383000  0.21143000  1.0
  C  C26  1  0.07538000  0.08383000  0.28857000  1.0
  C  C27  1  0.42461000  0.41617000  0.78857000  1.0
  C  C28  1  0.62549000  0.90658000  0.79240000  1.0
  C  C29  1  0.87452000  0.59343000  0.29241000  1.0
  C  C30  1  0.37451000  0.09343000  0.20760000  1.0
  C  C31  1  0.12547000  0.40658000  0.70759000  1.0
  C  C32  1  0.63354000  0.02440000  0.83107000  1.0
  C  C33  1  0.86646000  0.47560000  0.33107000  1.0
  C  C34  1  0.36646000  0.97560000  0.16893000  1.0
  C  C35  1  0.13353000  0.52440000  0.66893000  1.0
  C  C36  1  0.17639000  0.92476000  0.92516000  1.0
  C  C37  1  0.32360000  0.57524000  0.42517000  1.0
  C  C38  1  0.82363000  0.07524000  0.07485000  1.0
  C  C39  1  0.67637000  0.42476000  0.57484000  1.0
  C  C40  1  0.80219000  0.53415000  0.92919000  1.0
  C  C41  1  0.69779000  0.96587000  0.42917000  1.0
  C  C42  1  0.19781000  0.46586000  0.07081000  1.0
  C  C43  1  0.30220000  0.03413000  0.57082000  1.0
  S  S44  1  0.64637000  0.65584000  0.96863000  1.0
  S  S45  1  0.85363000  0.84415000  0.46862000  1.0
  S  S46  1  0.35364000  0.34416000  0.03136000  1.0
  S  S47  1  0.14636000  0.15584000  0.53138000  1.0
  S  S48  1  0.14784000  0.77700000  0.90470000  1.0
  S  S49  1  0.35215000  0.72301000  0.40470000  1.0
  S  S50  1  0.85218000  0.22301000  0.09531000  1.0
  S  S51  1  0.64783000  0.27699000  0.59530000  1.0
  N  N52  1  0.78626000  0.08932000  0.80939000  1.0
  N  N53  1  0.71375000  0.41068000  0.30939000  1.0
  N  N54  1  0.21375000  0.91068000  0.19061000  1.0
  N  N55  1  0.28625000  0.58932000  0.69061000  1.0
  N  N56  1  0.77176000  0.85145000  0.73341000  1.0
  N  N57  1  0.72824000  0.64855000  0.23341000  1.0
  N  N58  1  0.22824000  0.14856000  0.26659000  1.0
  N  N59  1  0.27176000  0.35145000  0.76659000  1.0
  N  N60  1  0.20191000  0.03184000  0.93852000  1.0
  N  N61  1  0.29808000  0.46816000  0.43853000  1.0
  N  N62  1  0.79811000  0.96817000  0.06148000  1.0
  N  N63  1  0.70189000  0.53183000  0.56148000  1.0
  N  N64  1  0.91208000  0.44602000  0.89800000  1.0
  N  N65  1  0.58793000  0.05397000  0.39800000  1.0
  N  N66  1  0.08794000  0.55396000  0.10199000  1.0
  N  N67  1  0.41207000  0.94603000  0.60200000  1.0
  O  O68  1  0.79250000  0.20153000  0.84635000  1.0
  O  O69  1  0.70750000  0.29847000  0.34636000  1.0
  O  O70  1  0.20751000  0.79847000  0.15365000  1.0
  O  O71  1  0.29249000  0.70153000  0.65365000  1.0
  O  O72  1  0.76498000  0.73787000  0.69827000  1.0
  O  O73  1  0.73503000  0.76213000  0.19828000  1.0
  O  O74  1  0.23502000  0.26213000  0.30172000  1.0
  O  O75  1  0.26497000  0.23787000  0.80172000  1.0
