# generated using pymatgen
data_LiH4C2NO2
_symmetry_space_group_name_H-M   'P 1'
_cell_length_a   5.00917000
_cell_length_b   7.79026000
_cell_length_c   9.15144000
_cell_angle_alpha   90.00020000
_cell_angle_beta   90.00010000
_cell_angle_gamma   89.99790000
_symmetry_Int_Tables_number   1
_chemical_formula_structural   LiH4C2NO2
_chemical_formula_sum   'Li4 H16 C8 N4 O8'
_cell_volume   357.11423316
_cell_formula_units_Z   4
loop_
 _symmetry_equiv_pos_site_id
 _symmetry_equiv_pos_as_xyz
  1  'x, y, z'
loop_
 _atom_site_type_symbol
 _atom_site_label
 _atom_site_symmetry_multiplicity
 _atom_site_fract_x
 _atom_site_fract_y
 _atom_site_fract_z
 _atom_site_occupancy
  Li  Li0  1  0.24254000  0.17082000  0.92575000  1.0
  Li  Li1  1  0.74255000  0.32918000  0.07425000  1.0
  Li  Li2  1  0.75744000  0.67082000  0.57425000  1.0
  Li  Li3  1  0.25747000  0.82919000  0.42575000  1.0
  H  H4  1  0.99688000  0.25958000  0.69098000  1.0
  H  H5  1  0.49693000  0.24041000  0.30902000  1.0
  H  H6  1  0.00307000  0.75958000  0.80900000  1.0
  H  H7  1  0.50310000  0.74043000  0.19098000  1.0
  H  H8  1  0.22050000  0.12269000  0.63310000  1.0
  H  H9  1  0.72053000  0.37731000  0.36687000  1.0
  H  H10  1  0.77949000  0.62269000  0.86688000  1.0
  H  H11  1  0.27949000  0.87731000  0.13311000  1.0
  H  H12  1  0.54969000  0.31536000  0.61944000  1.0
  H  H13  1  0.04973000  0.18468000  0.38057000  1.0
  H  H14  1  0.45029000  0.81533000  0.88056000  1.0
  H  H15  1  0.95029000  0.68465000  0.11943000  1.0
  H  H16  1  0.42215000  0.43531000  0.76683000  1.0
  H  H17  1  0.92224000  0.06471000  0.23320000  1.0
  H  H18  1  0.57781000  0.93528000  0.73320000  1.0
  H  H19  1  0.07783000  0.56469000  0.26683000  1.0
  C  C20  1  0.36374000  0.36384000  0.66772000  1.0
  C  C21  1  0.86380000  0.13619000  0.33228000  1.0
  C  C22  1  0.63623000  0.86379000  0.83227000  1.0
  C  C23  1  0.13623000  0.63616000  0.16772000  1.0
  C  C24  1  0.24071000  0.49588000  0.56435000  1.0
  C  C25  1  0.74081000  0.00417000  0.43562000  1.0
  C  C26  1  0.75921000  0.99581000  0.93561000  1.0
  C  C27  1  0.25925000  0.50412000  0.06435000  1.0
  N  N28  1  0.18970000  0.21956000  0.70677000  1.0
  N  N29  1  0.68976000  0.28040000  0.29325000  1.0
  N  N30  1  0.81022000  0.71961000  0.79325000  1.0
  N  N31  1  0.31029000  0.78044000  0.20677000  1.0
  O  O32  1  0.99700000  0.48038000  0.52972000  1.0
  O  O33  1  0.49707000  0.01959000  0.47028000  1.0
  O  O34  1  0.00290000  0.98043000  0.97028000  1.0
  O  O35  1  0.50299000  0.51962000  0.02974000  1.0
  O  O36  1  0.39039000  0.62017000  0.52373000  1.0
  O  O37  1  0.89037000  0.87987000  0.47629000  1.0
  O  O38  1  0.60968000  0.12012000  0.97629000  1.0
  O  O39  1  0.10961000  0.37984000  0.02373000  1.0
