# generated using pymatgen
data_CsH52C49N8ClO3
_symmetry_space_group_name_H-M   'P 1'
_cell_length_a   13.54410000
_cell_length_b   13.92520000
_cell_length_c   14.42240000
_cell_angle_alpha   84.66350000
_cell_angle_beta   82.93340000
_cell_angle_gamma   71.50220000
_symmetry_Int_Tables_number   1
_chemical_formula_structural   CsH52C49N8ClO3
_chemical_formula_sum   'Cs2 H104 C98 N16 Cl2 O6'
_cell_volume   2555.78519367
_cell_formula_units_Z   2
loop_
 _symmetry_equiv_pos_site_id
 _symmetry_equiv_pos_as_xyz
  1  'x, y, z'
loop_
 _atom_site_type_symbol
 _atom_site_label
 _atom_site_symmetry_multiplicity
 _atom_site_fract_x
 _atom_site_fract_y
 _atom_site_fract_z
 _atom_site_occupancy
  Cs  Cs0  1  0.67654000  0.49157000  0.95315000  1.0
  Cs  Cs1  1  0.32346000  0.50843000  0.04685000  1.0
  H  H2  1  0.82659000  0.71179000  0.78367000  1.0
  H  H3  1  0.17341000  0.28821000  0.21633000  1.0
  H  H4  1  0.98282000  0.92984000  0.78974000  1.0
  H  H5  1  0.01718000  0.07016000  0.21026000  1.0
  H  H6  1  0.65089000  0.73917000  0.74643000  1.0
  H  H7  1  0.34911000  0.26083000  0.25357000  1.0
  H  H8  1  0.79262000  0.99540000  0.88877000  1.0
  H  H9  1  0.20737000  0.00460000  0.11124000  1.0
  H  H10  1  0.70252000  0.65885000  0.59551000  1.0
  H  H11  1  0.29747000  0.34115000  0.40449000  1.0
  H  H12  1  0.88212000  0.65274000  0.63249000  1.0
  H  H13  1  0.11787000  0.34726000  0.36751000  1.0
  H  H14  1  0.94307000  0.48457000  0.86970000  1.0
  H  H15  1  0.05693000  0.51543000  0.13030000  1.0
  H  H16  1  0.47290000  0.01970000  0.85631000  1.0
  H  H17  1  0.52710000  0.98029000  0.14369000  1.0
  H  H18  1  0.38130000  0.98992000  0.70888000  1.0
  H  H19  1  0.61870000  0.01008000  0.29113000  1.0
  H  H20  1  0.39689000  0.51740000  0.70027000  1.0
  H  H21  1  0.60311000  0.48260000  0.29973000  1.0
  H  H22  1  0.51481000  0.90819000  0.44004000  1.0
  H  H23  1  0.48519000  0.09181000  0.55996000  1.0
  H  H24  1  0.70685000  0.83845000  0.34413000  1.0
  H  H25  1  0.29314000  0.16155000  0.65587000  1.0
  H  H26  1  0.01548000  0.75913000  0.38002000  1.0
  H  H27  1  0.98452000  0.24087000  0.61998000  1.0
  H  H28  1  0.10883000  0.79493000  0.52319000  1.0
  H  H29  1  0.89117000  0.20507000  0.47681000  1.0
  H  H30  1  0.98236000  0.58409000  0.74022000  1.0
  H  H31  1  0.01764000  0.41591000  0.25978000  1.0
  H  H32  1  0.11720000  0.56587000  0.71733000  1.0
  H  H33  1  0.88280000  0.43413000  0.28267000  1.0
  H  H34  1  0.11115000  0.63360000  0.88035000  1.0
  H  H35  1  0.88885000  0.36640000  0.11965000  1.0
  H  H36  1  0.97763000  0.63999000  0.89794000  1.0
  H  H37  1  0.02237000  0.36001000  0.10206000  1.0
  H  H38  1  0.19434000  0.28146000  0.87696000  1.0
  H  H39  1  0.80567000  0.71854000  0.12304000  1.0
  H  H40  1  0.19651000  0.09983000  0.90999000  1.0
  H  H41  1  0.80349000  0.90017000  0.09002000  1.0
  H  H42  1  0.02797000  0.06307000  0.95519000  1.0
  H  H43  1  0.97203000  0.93693000  0.04482000  1.0
  H  H44  1  0.88185000  0.11472000  0.09459000  1.0
  H  H45  1  0.11816000  0.88528000  0.90541000  1.0
  H  H46  1  0.70886000  0.08417000  0.14016000  1.0
  H  H47  1  0.29115000  0.91582000  0.85984000  1.0
  H  H48  1  0.56587000  0.15431000  0.03974000  1.0
  H  H49  1  0.43413000  0.84569000  0.96026000  1.0
  H  H50  1  0.57779000  0.11112000  0.83956000  1.0
  H  H51  1  0.42221000  0.88888000  0.16044000  1.0
  H  H52  1  0.44310000  0.17553000  0.72491000  1.0
  H  H53  1  0.55691000  0.82447000  0.27509000  1.0
  H  H54  1  0.37064000  0.36128000  0.69032000  1.0
  H  H55  1  0.62936000  0.63872000  0.30968000  1.0
  H  H56  1  0.40416000  0.74116000  0.78986000  1.0
  H  H57  1  0.59584000  0.25884000  0.21014000  1.0
  H  H58  1  0.33571000  0.69501000  0.71641000  1.0
  H  H59  1  0.66429000  0.30499000  0.28359000  1.0
  H  H60  1  0.57425000  0.63988000  0.68785000  1.0
  H  H61  1  0.42575000  0.36012000  0.31214000  1.0
  H  H62  1  0.48997000  0.63745000  0.60466000  1.0
  H  H63  1  0.51003000  0.36256000  0.39534000  1.0
  H  H64  1  0.38393000  0.92124000  0.55859000  1.0
  H  H65  1  0.61607000  0.07876000  0.44141000  1.0
  H  H66  1  0.32438000  0.85291000  0.64515000  1.0
  H  H67  1  0.67562000  0.14709000  0.35485000  1.0
  H  H68  1  0.37318000  0.80270000  0.53311000  1.0
  H  H69  1  0.62682000  0.19731000  0.46690000  1.0
  H  H70  1  0.83107000  0.63520000  0.29970000  1.0
  H  H71  1  0.16893000  0.36480000  0.70030000  1.0
  H  H72  1  0.96386000  0.61226000  0.32120000  1.0
  H  H73  1  0.03614000  0.38774000  0.67880000  1.0
  H  H74  1  0.87852000  0.73859000  0.30941000  1.0
  H  H75  1  0.12148000  0.26141000  0.69058000  1.0
  H  H76  1  0.84335000  0.53489000  0.55101000  1.0
  H  H77  1  0.15665000  0.46511000  0.44899000  1.0
  H  H78  1  0.93720000  0.49491000  0.45427000  1.0
  H  H79  1  0.06280000  0.50509000  0.54573000  1.0
  H  H80  1  0.80188000  0.52241000  0.44193000  1.0
  H  H81  1  0.19812000  0.47760000  0.55807000  1.0
  H  H82  1  0.18837000  0.70263000  0.67029000  1.0
  H  H83  1  0.81163000  0.29738000  0.32971000  1.0
  H  H84  1  0.14462000  0.75211000  0.78349000  1.0
  H  H85  1  0.85537000  0.24790000  0.21651000  1.0
  H  H86  1  0.11304000  0.83185000  0.68089000  1.0
  H  H87  1  0.88696000  0.16816000  0.31911000  1.0
  H  H88  1  0.68206000  0.89807000  0.02783000  1.0
  H  H89  1  0.31794000  0.10193000  0.97217000  1.0
  H  H90  1  0.55165000  0.91720000  0.00377000  1.0
  H  H91  1  0.44835000  0.08279000  0.99623000  1.0
  H  H92  1  0.62233000  0.99832000  0.94848000  1.0
  H  H93  1  0.37767000  0.00168000  0.05152000  1.0
  H  H94  1  0.70628000  0.68287000  0.88480000  1.0
  H  H95  1  0.29372000  0.31713000  0.11520000  1.0
  H  H96  1  0.60373000  0.73570000  0.97299000  1.0
  H  H97  1  0.39627000  0.26429000  0.02701000  1.0
  H  H98  1  0.73681000  0.71738000  0.99045000  1.0
  H  H99  1  0.26319000  0.28261000  0.00956000  1.0
  H  H100  1  0.91157000  0.22159000  0.77524000  1.0
  H  H101  1  0.08843000  0.77841000  0.22476000  1.0
  H  H102  1  0.83306000  0.32079000  0.70266000  1.0
  H  H103  1  0.16694000  0.67921000  0.29734000  1.0
  H  H104  1  0.80544000  0.20193000  0.72435000  1.0
  H  H105  1  0.19456000  0.79807000  0.27565000  1.0
  C  C106  1  0.93462000  0.79685000  0.76843000  1.0
  C  C107  1  0.06538000  0.20315000  0.23157000  1.0
  C  C108  1  0.92458000  0.89033000  0.80159000  1.0
  C  C109  1  0.07542000  0.10967000  0.19842000  1.0
  C  C110  1  0.82412000  0.92527000  0.85286000  1.0
  C  C111  1  0.17587000  0.07473000  0.14714000  1.0
  C  C112  1  0.77470000  0.85224000  0.85052000  1.0
  C  C113  1  0.22530000  0.14776000  0.14948000  1.0
  C  C114  1  0.66893000  0.84648000  0.89436000  1.0
  C  C115  1  0.33107000  0.15352000  0.10564000  1.0
  C  C116  1  0.58947000  0.87258000  0.82317000  1.0
  C  C117  1  0.41053000  0.12742000  0.17683000  1.0
  C  C118  1  0.50106000  0.95556000  0.81252000  1.0
  C  C119  1  0.49894000  0.04444000  0.18748000  1.0
  C  C120  1  0.45197000  0.93940000  0.73598000  1.0
  C  C121  1  0.54803000  0.06060000  0.26402000  1.0
  C  C122  1  0.51109000  0.84661000  0.70144000  1.0
  C  C123  1  0.48891000  0.15339000  0.29856000  1.0
  C  C124  1  0.49462000  0.78906000  0.62364000  1.0
  C  C125  1  0.50538000  0.21094000  0.37636000  1.0
  C  C126  1  0.57923000  0.78298000  0.54308000  1.0
  C  C127  1  0.42077000  0.21702000  0.45692000  1.0
  C  C128  1  0.57959000  0.84421000  0.46145000  1.0
  C  C129  1  0.42041000  0.15579000  0.53855000  1.0
  C  C130  1  0.68023000  0.80774000  0.41100000  1.0
  C  C131  1  0.31977000  0.19226000  0.58900000  1.0
  C  C132  1  0.73968000  0.72489000  0.46232000  1.0
  C  C133  1  0.26032000  0.27511000  0.53768000  1.0
  C  C134  1  0.85132000  0.65690000  0.44269000  1.0
  C  C135  1  0.14868000  0.34311000  0.55731000  1.0
  C  C136  1  0.92525000  0.69349000  0.49078000  1.0
  C  C137  1  0.07475000  0.30651000  0.50922000  1.0
  C  C138  1  0.99898000  0.74018000  0.45356000  1.0
  C  C139  1  0.00102000  0.25982000  0.54644000  1.0
  C  C140  1  0.04755000  0.75935000  0.52890000  1.0
  C  C141  1  0.95245000  0.24065000  0.47110000  1.0
  C  C142  1  0.00209000  0.72464000  0.61123000  1.0
  C  C143  1  0.99791000  0.27536000  0.38877000  1.0
  C  C144  1  0.02425000  0.72395000  0.71189000  1.0
  C  C145  1  0.97575000  0.27605000  0.28811000  1.0
  C  C146  1  0.04496000  0.61338000  0.75479000  1.0
  C  C147  1  0.95504000  0.38663000  0.24521000  1.0
  C  C148  1  0.05370000  0.60081000  0.86057000  1.0
  C  C149  1  0.94630000  0.39919000  0.13943000  1.0
  C  C150  1  0.08865000  0.48967000  0.89198000  1.0
  C  C151  1  0.91137000  0.51032000  0.10802000  1.0
  C  C152  1  0.02571000  0.33793000  0.90482000  1.0
  C  C153  1  0.97430000  0.66207000  0.09518000  1.0
  C  C154  1  0.12297000  0.26173000  0.89729000  1.0
  C  C155  1  0.87704000  0.73827000  0.10271000  1.0
  C  C156  1  0.12332000  0.16187000  0.91563000  1.0
  C  C157  1  0.87668000  0.83813000  0.08437000  1.0
  C  C158  1  0.02942000  0.14072000  0.94046000  1.0
  C  C159  1  0.97058000  0.85928000  0.05955000  1.0
  C  C160  1  0.93617000  0.22144000  0.94386000  1.0
  C  C161  1  0.06383000  0.77856000  0.05614000  1.0
  C  C162  1  0.83424000  0.20200000  0.96770000  1.0
  C  C163  1  0.16576000  0.79800000  0.03230000  1.0
  C  C164  1  0.81836000  0.14371000  0.04957000  1.0
  C  C165  1  0.18164000  0.85629000  0.95043000  1.0
  C  C166  1  0.72232000  0.12684000  0.07513000  1.0
  C  C167  1  0.27768000  0.87316000  0.92487000  1.0
  C  C168  1  0.64095000  0.16710000  0.01828000  1.0
  C  C169  1  0.35905000  0.83290000  0.98172000  1.0
  C  C170  1  0.65449000  0.22444000  0.93545000  1.0
  C  C171  1  0.34551000  0.77557000  0.06455000  1.0
  C  C172  1  0.75146000  0.24196000  0.91061000  1.0
  C  C173  1  0.24854000  0.75804000  0.08939000  1.0
  C  C174  1  0.57154000  0.26212000  0.87012000  1.0
  C  C175  1  0.42846000  0.73788000  0.12988000  1.0
  C  C176  1  0.54122000  0.19214000  0.82628000  1.0
  C  C177  1  0.45878000  0.80786000  0.17372000  1.0
  C  C178  1  0.46742000  0.22788000  0.76153000  1.0
  C  C179  1  0.53259000  0.77211000  0.23847000  1.0
  C  C180  1  0.42733000  0.33159000  0.74179000  1.0
  C  C181  1  0.57267000  0.66841000  0.25821000  1.0
  C  C182  1  0.46386000  0.39615000  0.78832000  1.0
  C  C183  1  0.53614000  0.60384000  0.21168000  1.0
  C  C184  1  0.43730000  0.58265000  0.80385000  1.0
  C  C185  1  0.56270000  0.41735000  0.19615000  1.0
  C  C186  1  0.41177000  0.68046000  0.74359000  1.0
  C  C187  1  0.58823000  0.31954000  0.25641000  1.0
  C  C188  1  0.49744000  0.68006000  0.66266000  1.0
  C  C189  1  0.50256000  0.31994000  0.33734000  1.0
  C  C190  1  0.38752000  0.84481000  0.58805000  1.0
  C  C191  1  0.61248000  0.15519000  0.41195000  1.0
  C  C192  1  0.88313000  0.66125000  0.33678000  1.0
  C  C193  1  0.11687000  0.33875000  0.66322000  1.0
  C  C194  1  0.85892000  0.54597000  0.47485000  1.0
  C  C195  1  0.14108000  0.45403000  0.52515000  1.0
  C  C196  1  0.12350000  0.75474000  0.71202000  1.0
  C  C197  1  0.87649000  0.24527000  0.28798000  1.0
  C  C198  1  0.62879000  0.91992000  0.97290000  1.0
  C  C199  1  0.37121000  0.08008000  0.02710000  1.0
  C  C200  1  0.67978000  0.73887000  0.93851000  1.0
  C  C201  1  0.32021000  0.26112000  0.06149000  1.0
  C  C202  1  0.83224000  0.25816000  0.75425000  1.0
  C  C203  1  0.16776000  0.74184000  0.24575000  1.0
  N  N204  1  0.84284000  0.77541000  0.79882000  1.0
  N  N205  1  0.15715000  0.22459000  0.20118000  1.0
  N  N206  1  0.59407000  0.80765000  0.75501000  1.0
  N  N207  1  0.40592000  0.19235000  0.24499000  1.0
  N  N208  1  0.67709000  0.71131000  0.54225000  1.0
  N  N209  1  0.32291000  0.28869000  0.45774000  1.0
  N  N210  1  0.92794000  0.68521000  0.58656000  1.0
  N  N211  1  0.07206000  0.31480000  0.41344000  1.0
  N  N212  1  0.01532000  0.44131000  0.88716000  1.0
  N  N213  1  0.98469000  0.55869000  0.11284000  1.0
  N  N214  1  0.93433000  0.31880000  0.92648000  1.0
  N  N215  1  0.06567000  0.68120000  0.07352000  1.0
  N  N216  1  0.53306000  0.36330000  0.85184000  1.0
  N  N217  1  0.46694000  0.63670000  0.14816000  1.0
  N  N218  1  0.42925000  0.50075000  0.76199000  1.0
  N  N219  1  0.57076000  0.49924000  0.23800000  1.0
  Cl  Cl220  1  0.78243000  0.57956000  0.73889000  1.0
  Cl  Cl221  1  0.21757000  0.42044000  0.26111000  1.0
  O  O222  1  0.17676000  0.44543000  0.91765000  1.0
  O  O223  1  0.82324000  0.55457000  0.08234000  1.0
  O  O224  1  0.75987000  0.30308000  0.83138000  1.0
  O  O225  1  0.24013000  0.69692000  0.16862000  1.0
  O  O226  1  0.46411000  0.57737000  0.88370000  1.0
  O  O227  1  0.53589000  0.42262000  0.11630000  1.0
