# generated using pymatgen
data_ZnH12C16(NO)4
_symmetry_space_group_name_H-M   'P 1'
_cell_length_a   11.38160000
_cell_length_b   17.25200000
_cell_length_c   22.78370000
_cell_angle_alpha   90.00000000
_cell_angle_beta   90.00030000
_cell_angle_gamma   89.99800000
_symmetry_Int_Tables_number   1
_chemical_formula_structural   ZnH12C16(NO)4
_chemical_formula_sum   'Zn8 H96 C128 N32 O32'
_cell_volume   4473.70168575
_cell_formula_units_Z   8
loop_
 _symmetry_equiv_pos_site_id
 _symmetry_equiv_pos_as_xyz
  1  'x, y, z'
loop_
 _atom_site_type_symbol
 _atom_site_label
 _atom_site_symmetry_multiplicity
 _atom_site_fract_x
 _atom_site_fract_y
 _atom_site_fract_z
 _atom_site_occupancy
  Zn  Zn0  1  0.72961000  0.32886000  0.63053000  1.0
  Zn  Zn1  1  0.27039000  0.82885000  0.36948000  1.0
  Zn  Zn2  1  0.77039000  0.82885000  0.63052000  1.0
  Zn  Zn3  1  0.22961000  0.32886000  0.36947000  1.0
  Zn  Zn4  1  0.81282000  0.50340000  0.13456000  1.0
  Zn  Zn5  1  0.18719000  0.00340000  0.86544000  1.0
  Zn  Zn6  1  0.68719000  0.00340000  0.13456000  1.0
  Zn  Zn7  1  0.31282000  0.50339000  0.86544000  1.0
  H  H8  1  0.34602000  0.21790000  0.70297000  1.0
  H  H9  1  0.65397000  0.71786000  0.29703000  1.0
  H  H10  1  0.15395000  0.71786000  0.70297000  1.0
  H  H11  1  0.84601000  0.21790000  0.29703000  1.0
  H  H12  1  0.72062000  0.47351000  0.79203000  1.0
  H  H13  1  0.27939000  0.97351000  0.20797000  1.0
  H  H14  1  0.77939000  0.97351000  0.79203000  1.0
  H  H15  1  0.22062000  0.47351000  0.20796000  1.0
  H  H16  1  0.12931000  0.24471000  0.55609000  1.0
  H  H17  1  0.87068000  0.74471000  0.44390000  1.0
  H  H18  1  0.37067000  0.74472000  0.55611000  1.0
  H  H19  1  0.62932000  0.24473000  0.44390000  1.0
  H  H20  1  0.82084000  0.20012000  0.70412000  1.0
  H  H21  1  0.17916000  0.70011000  0.29589000  1.0
  H  H22  1  0.67917000  0.70010000  0.70411000  1.0
  H  H23  1  0.32085000  0.20010000  0.29588000  1.0
  H  H24  1  0.80906000  0.51098000  0.36501000  1.0
  H  H25  1  0.19096000  0.01099000  0.63500000  1.0
  H  H26  1  0.69095000  0.01098000  0.36500000  1.0
  H  H27  1  0.30907000  0.51100000  0.63499000  1.0
  H  H28  1  0.69683000  0.62817000  0.21015000  1.0
  H  H29  1  0.30317000  0.12816000  0.78985000  1.0
  H  H30  1  0.80318000  0.12816000  0.21015000  1.0
  H  H31  1  0.19683000  0.62817000  0.78986000  1.0
  H  H32  1  0.45038000  0.13294000  0.53285000  1.0
  H  H33  1  0.54966000  0.63294000  0.46717000  1.0
  H  H34  1  0.04966000  0.63295000  0.53283000  1.0
  H  H35  1  0.95039000  0.13292000  0.46715000  1.0
  H  H36  1  0.74822000  0.32614000  0.86714000  1.0
  H  H37  1  0.25178000  0.82614000  0.13287000  1.0
  H  H38  1  0.75177000  0.82614000  0.86713000  1.0
  H  H39  1  0.24820000  0.32614000  0.13286000  1.0
  H  H40  1  0.01912000  0.55311000  0.21117000  1.0
  H  H41  1  0.98087000  0.05311000  0.78882000  1.0
  H  H42  1  0.48088000  0.05310000  0.21117000  1.0
  H  H43  1  0.51911000  0.55312000  0.78883000  1.0
  H  H44  1  0.73830000  0.50096000  0.90199000  1.0
  H  H45  1  0.26171000  0.00096000  0.09801000  1.0
  H  H46  1  0.76169000  0.00096000  0.90199000  1.0
  H  H47  1  0.23830000  0.50096000  0.09801000  1.0
  H  H48  1  0.58231000  0.49063000  0.07271000  1.0
  H  H49  1  0.41769000  0.99063000  0.92729000  1.0
  H  H50  1  0.91770000  0.99062000  0.07271000  1.0
  H  H51  1  0.08230000  0.49063000  0.92729000  1.0
  H  H52  1  0.01298000  0.12349000  0.71172000  1.0
  H  H53  1  0.98705000  0.62345000  0.28830000  1.0
  H  H54  1  0.48706000  0.62346000  0.71171000  1.0
  H  H55  1  0.51298000  0.12348000  0.28829000  1.0
  H  H56  1  0.80777000  0.35739000  0.29609000  1.0
  H  H57  1  0.19220000  0.85739000  0.70391000  1.0
  H  H58  1  0.69221000  0.85739000  0.29609000  1.0
  H  H59  1  0.30777000  0.35740000  0.70389000  1.0
  H  H60  1  0.39697000  0.56749000  0.06054000  1.0
  H  H61  1  0.60302000  0.06748000  0.93946000  1.0
  H  H62  1  0.10304000  0.06748000  0.06054000  1.0
  H  H63  1  0.89696000  0.56748000  0.93945000  1.0
  H  H64  1  0.92777000  0.58896000  0.03783000  1.0
  H  H65  1  0.07223000  0.08896000  0.96216000  1.0
  H  H66  1  0.57223000  0.08896000  0.03784000  1.0
  H  H67  1  0.42776000  0.58896000  0.96217000  1.0
  H  H68  1  0.11334000  0.66421000  0.01826000  1.0
  H  H69  1  0.88665000  0.16421000  0.98174000  1.0
  H  H70  1  0.38664000  0.16420000  0.01826000  1.0
  H  H71  1  0.61334000  0.66422000  0.98174000  1.0
  H  H72  1  0.93321000  0.31022000  0.55275000  1.0
  H  H73  1  0.06676000  0.81024000  0.44723000  1.0
  H  H74  1  0.56676000  0.81025000  0.55277000  1.0
  H  H75  1  0.43322000  0.31025000  0.44724000  1.0
  H  H76  1  0.20757000  0.62844000  0.19999000  1.0
  H  H77  1  0.79241000  0.12844000  0.80001000  1.0
  H  H78  1  0.29243000  0.12843000  0.19999000  1.0
  H  H79  1  0.70756000  0.62845000  0.80001000  1.0
  H  H80  1  0.51939000  0.71597000  0.20077000  1.0
  H  H81  1  0.48060000  0.21597000  0.79923000  1.0
  H  H82  1  0.98060000  0.21597000  0.20076000  1.0
  H  H83  1  0.01940000  0.71598000  0.79924000  1.0
  H  H84  1  0.76801000  0.48872000  0.47483000  1.0
  H  H85  1  0.23200000  0.98872000  0.52517000  1.0
  H  H86  1  0.73200000  0.98872000  0.47483000  1.0
  H  H87  1  0.26804000  0.48873000  0.52516000  1.0
  H  H88  1  0.54134000  0.28720000  0.70919000  1.0
  H  H89  1  0.45864000  0.78715000  0.29081000  1.0
  H  H90  1  0.95862000  0.78714000  0.70919000  1.0
  H  H91  1  0.04134000  0.28718000  0.29081000  1.0
  H  H92  1  0.64152000  0.20705000  0.54576000  1.0
  H  H93  1  0.35850000  0.70704000  0.45426000  1.0
  H  H94  1  0.85849000  0.70704000  0.54574000  1.0
  H  H95  1  0.14153000  0.20703000  0.45424000  1.0
  H  H96  1  0.77585000  0.35183000  0.97399000  1.0
  H  H97  1  0.22414000  0.85183000  0.02601000  1.0
  H  H98  1  0.72416000  0.85182000  0.97399000  1.0
  H  H99  1  0.27583000  0.35182000  0.02601000  1.0
  H  H100  1  0.78289000  0.33753000  0.40315000  1.0
  H  H101  1  0.21709000  0.83753000  0.59686000  1.0
  H  H102  1  0.71709000  0.83753000  0.40314000  1.0
  H  H103  1  0.28292000  0.33755000  0.59685000  1.0
  C  C104  1  0.41181000  0.21265000  0.66853000  1.0
  C  C105  1  0.58818000  0.71261000  0.33147000  1.0
  C  C106  1  0.08817000  0.71261000  0.66853000  1.0
  C  C107  1  0.91181000  0.21264000  0.33147000  1.0
  C  C108  1  0.17638000  0.65049000  0.10740000  1.0
  C  C109  1  0.82361000  0.15049000  0.89260000  1.0
  C  C110  1  0.32362000  0.15049000  0.10740000  1.0
  C  C111  1  0.67637000  0.65050000  0.89260000  1.0
  C  C112  1  0.72672000  0.41208000  0.80301000  1.0
  C  C113  1  0.27327000  0.91208000  0.19700000  1.0
  C  C114  1  0.77327000  0.91208000  0.80300000  1.0
  C  C115  1  0.22672000  0.41208000  0.19699000  1.0
  C  C116  1  0.44550000  0.64854000  0.12969000  1.0
  C  C117  1  0.55449000  0.14853000  0.87031000  1.0
  C  C118  1  0.05449000  0.14853000  0.12968000  1.0
  C  C119  1  0.94550000  0.64854000  0.87031000  1.0
  C  C120  1  0.08279000  0.17873000  0.63437000  1.0
  C  C121  1  0.91722000  0.67870000  0.36564000  1.0
  C  C122  1  0.41722000  0.67872000  0.63437000  1.0
  C  C123  1  0.58279000  0.17873000  0.36563000  1.0
  C  C124  1  0.06026000  0.22968000  0.58749000  1.0
  C  C125  1  0.93973000  0.72968000  0.41251000  1.0
  C  C126  1  0.43972000  0.72969000  0.58749000  1.0
  C  C127  1  0.56027000  0.22970000  0.41251000  1.0
  C  C128  1  0.72135000  0.35692000  0.75298000  1.0
  C  C129  1  0.27865000  0.85694000  0.24703000  1.0
  C  C130  1  0.77865000  0.85694000  0.75297000  1.0
  C  C131  1  0.22135000  0.35693000  0.24702000  1.0
  C  C132  1  0.89057000  0.20450000  0.67144000  1.0
  C  C133  1  0.10942000  0.70448000  0.32856000  1.0
  C  C134  1  0.60943000  0.70448000  0.67144000  1.0
  C  C135  1  0.39058000  0.20449000  0.32856000  1.0
  C  C136  1  0.80416000  0.44831000  0.35897000  1.0
  C  C137  1  0.19584000  0.94832000  0.64103000  1.0
  C  C138  1  0.69584000  0.94832000  0.35896000  1.0
  C  C139  1  0.30419000  0.44833000  0.64103000  1.0
  C  C140  1  0.62870000  0.61833000  0.17730000  1.0
  C  C141  1  0.37130000  0.11833000  0.82270000  1.0
  C  C142  1  0.87131000  0.11832000  0.17730000  1.0
  C  C143  1  0.12869000  0.61833000  0.82270000  1.0
  C  C144  1  0.46944000  0.16476000  0.57303000  1.0
  C  C145  1  0.53058000  0.66475000  0.42699000  1.0
  C  C146  1  0.03057000  0.66476000  0.57301000  1.0
  C  C147  1  0.96945000  0.16475000  0.42697000  1.0
  C  C148  1  0.74069000  0.38812000  0.85901000  1.0
  C  C149  1  0.25930000  0.88813000  0.14100000  1.0
  C  C150  1  0.75931000  0.88812000  0.85900000  1.0
  C  C151  1  0.24069000  0.38812000  0.14099000  1.0
  C  C152  1  0.04458000  0.57822000  0.16918000  1.0
  C  C153  1  0.95541000  0.07822000  0.83081000  1.0
  C  C154  1  0.45543000  0.07822000  0.16918000  1.0
  C  C155  1  0.54457000  0.57823000  0.83082000  1.0
  C  C156  1  0.74717000  0.37217000  0.51410000  1.0
  C  C157  1  0.25283000  0.87217000  0.48590000  1.0
  C  C158  1  0.75282000  0.87217000  0.51410000  1.0
  C  C159  1  0.24718000  0.37217000  0.48590000  1.0
  C  C160  1  0.74808000  0.43870000  0.90901000  1.0
  C  C161  1  0.25191000  0.93870000  0.09099000  1.0
  C  C162  1  0.75193000  0.93870000  0.90901000  1.0
  C  C163  1  0.24808000  0.43869000  0.09099000  1.0
  C  C164  1  0.56460000  0.54039000  0.10077000  1.0
  C  C165  1  0.43540000  0.04040000  0.89923000  1.0
  C  C166  1  0.93541000  0.04039000  0.10077000  1.0
  C  C167  1  0.06459000  0.54039000  0.89923000  1.0
  C  C168  1  0.99488000  0.16365000  0.67602000  1.0
  C  C169  1  0.00514000  0.66363000  0.32399000  1.0
  C  C170  1  0.50514000  0.66364000  0.67602000  1.0
  C  C171  1  0.49488000  0.16365000  0.32398000  1.0
  C  C172  1  0.38487000  0.17140000  0.61717000  1.0
  C  C173  1  0.61513000  0.67138000  0.38284000  1.0
  C  C174  1  0.11513000  0.67138000  0.61716000  1.0
  C  C175  1  0.88488000  0.17139000  0.38283000  1.0
  C  C176  1  0.81379000  0.41965000  0.30400000  1.0
  C  C177  1  0.18622000  0.91966000  0.69599000  1.0
  C  C178  1  0.68621000  0.91965000  0.30400000  1.0
  C  C179  1  0.31378000  0.41966000  0.69599000  1.0
  C  C180  1  0.46113000  0.58261000  0.09443000  1.0
  C  C181  1  0.53886000  0.08261000  0.90558000  1.0
  C  C182  1  0.03888000  0.08261000  0.09442000  1.0
  C  C183  1  0.96113000  0.58261000  0.90557000  1.0
  C  C184  1  0.99405000  0.59809000  0.07171000  1.0
  C  C185  1  0.00594000  0.09809000  0.92829000  1.0
  C  C186  1  0.50594000  0.09809000  0.07171000  1.0
  C  C187  1  0.49405000  0.59809000  0.92830000  1.0
  C  C188  1  0.09589000  0.63957000  0.06133000  1.0
  C  C189  1  0.90410000  0.13957000  0.93867000  1.0
  C  C190  1  0.40410000  0.13956000  0.06133000  1.0
  C  C191  1  0.59588000  0.63957000  0.93867000  1.0
  C  C192  1  0.95372000  0.26810000  0.58680000  1.0
  C  C193  1  0.04627000  0.76811000  0.41320000  1.0
  C  C194  1  0.54626000  0.76810000  0.58681000  1.0
  C  C195  1  0.45372000  0.26811000  0.41320000  1.0
  C  C196  1  0.82665000  0.46942000  0.25134000  1.0
  C  C197  1  0.17337000  0.96943000  0.74866000  1.0
  C  C198  1  0.67336000  0.96941000  0.25133000  1.0
  C  C199  1  0.32664000  0.46942000  0.74867000  1.0
  C  C200  1  0.14965000  0.61891000  0.16261000  1.0
  C  C201  1  0.85034000  0.11891000  0.83739000  1.0
  C  C202  1  0.35034000  0.11891000  0.16261000  1.0
  C  C203  1  0.64964000  0.61892000  0.83739000  1.0
  C  C204  1  0.53021000  0.66523000  0.17293000  1.0
  C  C205  1  0.46978000  0.16523000  0.82708000  1.0
  C  C206  1  0.96978000  0.16523000  0.17292000  1.0
  C  C207  1  0.03022000  0.66523000  0.82708000  1.0
  C  C208  1  0.77899000  0.46799000  0.01458000  1.0
  C  C209  1  0.22101000  0.96798000  0.98542000  1.0
  C  C210  1  0.72103000  0.96798000  0.01458000  1.0
  C  C211  1  0.27900000  0.46798000  0.98542000  1.0
  C  C212  1  0.76688000  0.42683000  0.46473000  1.0
  C  C213  1  0.23312000  0.92683000  0.53527000  1.0
  C  C214  1  0.73312000  0.92683000  0.46472000  1.0
  C  C215  1  0.26690000  0.42684000  0.53527000  1.0
  C  C216  1  0.51730000  0.25161000  0.67159000  1.0
  C  C217  1  0.48267000  0.75157000  0.32841000  1.0
  C  C218  1  0.98266000  0.75157000  0.67159000  1.0
  C  C219  1  0.01731000  0.25160000  0.32841000  1.0
  C  C220  1  0.57425000  0.20538000  0.57976000  1.0
  C  C221  1  0.42576000  0.70536000  0.42026000  1.0
  C  C222  1  0.92575000  0.70536000  0.57974000  1.0
  C  C223  1  0.07426000  0.20536000  0.42024000  1.0
  C  C224  1  0.76710000  0.41359000  0.96447000  1.0
  C  C225  1  0.23289000  0.91359000  0.03553000  1.0
  C  C226  1  0.73292000  0.91358000  0.96447000  1.0
  C  C227  1  0.26710000  0.41358000  0.03553000  1.0
  C  C228  1  0.78468000  0.40035000  0.40961000  1.0
  C  C229  1  0.21531000  0.90036000  0.59039000  1.0
  C  C230  1  0.71531000  0.90036000  0.40960000  1.0
  C  C231  1  0.28471000  0.40037000  0.59039000  1.0
  N  N232  1  0.64879000  0.55846000  0.14015000  1.0
  N  N233  1  0.35121000  0.05847000  0.85986000  1.0
  N  N234  1  0.85122000  0.05846000  0.14014000  1.0
  N  N235  1  0.14878000  0.55846000  0.85986000  1.0
  N  N236  1  0.87180000  0.25746000  0.62864000  1.0
  N  N237  1  0.12819000  0.75746000  0.37135000  1.0
  N  N238  1  0.62819000  0.75745000  0.62865000  1.0
  N  N239  1  0.37180000  0.25746000  0.37135000  1.0
  N  N240  1  0.96716000  0.56804000  0.12502000  1.0
  N  N241  1  0.03284000  0.06804000  0.87498000  1.0
  N  N242  1  0.53285000  0.06804000  0.12502000  1.0
  N  N243  1  0.46716000  0.56804000  0.87499000  1.0
  N  N244  1  0.59536000  0.25017000  0.62704000  1.0
  N  N245  1  0.40463000  0.75014000  0.37297000  1.0
  N  N246  1  0.90463000  0.75014000  0.62703000  1.0
  N  N247  1  0.09537000  0.25015000  0.37295000  1.0
  N  N248  1  0.36832000  0.70895000  0.11331000  1.0
  N  N249  1  0.63166000  0.20894000  0.88670000  1.0
  N  N250  1  0.13166000  0.20895000  0.11330000  1.0
  N  N251  1  0.86833000  0.70895000  0.88669000  1.0
  N  N252  1  0.26389000  0.70711000  0.09822000  1.0
  N  N253  1  0.73608000  0.20711000  0.90178000  1.0
  N  N254  1  0.23611000  0.20711000  0.09822000  1.0
  N  N255  1  0.76389000  0.70711000  0.90178000  1.0
  N  N256  1  0.26732000  0.15063000  0.60349000  1.0
  N  N257  1  0.73269000  0.65061000  0.39652000  1.0
  N  N258  1  0.23269000  0.65062000  0.60348000  1.0
  N  N259  1  0.76734000  0.15063000  0.39652000  1.0
  N  N260  1  0.19956000  0.16132000  0.64655000  1.0
  N  N261  1  0.80044000  0.66130000  0.35346000  1.0
  N  N262  1  0.30044000  0.66130000  0.64655000  1.0
  N  N263  1  0.69956000  0.16131000  0.35346000  1.0
  O  O264  1  0.83493000  0.54211000  0.25528000  1.0
  O  O265  1  0.16509000  0.04212000  0.74472000  1.0
  O  O266  1  0.66509000  0.04210000  0.25527000  1.0
  O  O267  1  0.33492000  0.54211000  0.74473000  1.0
  O  O268  1  0.82678000  0.43188000  0.20182000  1.0
  O  O269  1  0.17324000  0.93189000  0.79818000  1.0
  O  O270  1  0.67322000  0.93188000  0.20182000  1.0
  O  O271  1  0.32677000  0.43187000  0.79818000  1.0
  O  O272  1  0.74171000  0.40397000  0.56586000  1.0
  O  O273  1  0.25829000  0.90395000  0.43414000  1.0
  O  O274  1  0.75827000  0.90396000  0.56586000  1.0
  O  O275  1  0.24173000  0.40395000  0.43413000  1.0
  O  O276  1  0.73975000  0.30035000  0.50499000  1.0
  O  O277  1  0.26022000  0.80035000  0.49502000  1.0
  O  O278  1  0.76021000  0.80034000  0.50498000  1.0
  O  O279  1  0.23977000  0.30035000  0.49502000  1.0
  O  O280  1  0.79329000  0.43513000  0.06543000  1.0
  O  O281  1  0.20670000  0.93513000  0.93457000  1.0
  O  O282  1  0.70671000  0.93512000  0.06543000  1.0
  O  O283  1  0.29331000  0.43512000  0.93457000  1.0
  O  O284  1  0.71569000  0.39108000  0.70183000  1.0
  O  O285  1  0.28432000  0.89109000  0.29818000  1.0
  O  O286  1  0.78432000  0.89109000  0.70182000  1.0
  O  O287  1  0.21567000  0.39109000  0.29817000  1.0
  O  O288  1  0.72130000  0.28481000  0.76075000  1.0
  O  O289  1  0.27870000  0.78483000  0.23927000  1.0
  O  O290  1  0.77871000  0.78483000  0.76073000  1.0
  O  O291  1  0.22129000  0.28482000  0.23926000  1.0
  O  O292  1  0.77578000  0.54044000  0.00670000  1.0
  O  O293  1  0.22424000  0.04043000  0.99331000  1.0
  O  O294  1  0.72425000  0.04043000  0.00670000  1.0
  O  O295  1  0.27578000  0.54043000  0.99330000  1.0
