# generated using pymatgen
data_Zn4H12C44Br8O21
_symmetry_space_group_name_H-M   'P 1'
_cell_length_a   23.73188925
_cell_length_b   23.73240000
_cell_length_c   23.73080000
_cell_angle_alpha   65.76820000
_cell_angle_beta   72.85497906
_cell_angle_gamma   107.14512271
_symmetry_Int_Tables_number   1
_chemical_formula_structural   Zn4H12C44Br8O21
_chemical_formula_sum   'Zn8 H24 C88 Br16 O42'
_cell_volume   10234.96804051
_cell_formula_units_Z   2
loop_
 _symmetry_equiv_pos_site_id
 _symmetry_equiv_pos_as_xyz
  1  'x, y, z'
loop_
 _atom_site_type_symbol
 _atom_site_label
 _atom_site_symmetry_multiplicity
 _atom_site_fract_x
 _atom_site_fract_y
 _atom_site_fract_z
 _atom_site_occupancy
  Zn  Zn0  1  0.05918000  0.10036000  0.45619000  1.0
  Zn  Zn1  1  0.05918000  0.95881000  0.48464000  1.0
  Zn  Zn2  1  0.94082000  0.95617000  0.60038000  1.0
  Zn  Zn3  1  0.94082000  0.98464000  0.45881000  1.0
  Zn  Zn4  1  0.94345000  0.39963000  0.04119000  1.0
  Zn  Zn5  1  0.05655000  0.54119000  0.89962000  1.0
  Zn  Zn6  1  0.94345000  0.54381000  0.01536000  1.0
  Zn  Zn7  1  0.05654000  0.51536000  0.04383000  1.0
  H  H8  1  0.92047000  0.27084000  0.96339000  1.0
  H  H9  1  0.07947000  0.46341000  0.77081000  1.0
  H  H10  1  0.93178000  0.03191000  0.72973000  1.0
  H  H11  1  0.06816000  0.22970000  0.53192000  1.0
  H  H12  1  0.07954000  0.61617000  0.14960000  1.0
  H  H13  1  0.92052000  0.64971000  0.11606000  1.0
  H  H14  1  0.06812000  0.83841000  0.39995000  1.0
  H  H15  1  0.93180000  0.89989000  0.33847000  1.0
  H  H16  1  0.73836000  0.27027000  0.16157000  1.0
  H  H17  1  0.73836000  0.46807000  0.10006000  1.0
  H  H18  1  0.26577000  0.03658000  0.38392000  1.0
  H  H19  1  0.26577000  0.22914000  0.35039000  1.0
  H  H20  1  0.26163000  0.66162000  0.77027000  1.0
  H  H21  1  0.26163000  0.60011000  0.96808000  1.0
  H  H22  1  0.73423000  0.88392000  0.53659000  1.0
  H  H23  1  0.73422000  0.85034000  0.72917000  1.0
  H  H24  1  0.83724000  0.10255000  0.35309000  1.0
  H  H25  1  0.04440000  0.39746000  0.26530000  1.0
  H  H26  1  0.95561000  0.19032000  0.14692000  1.0
  H  H27  1  0.16278000  0.30970000  0.23466000  1.0
  H  H28  1  0.83724000  0.73470000  0.80970000  1.0
  H  H29  1  0.04439000  0.64693000  0.69031000  1.0
  H  H30  1  0.95564000  0.76533000  0.89745000  1.0
  H  H31  1  0.16277000  0.85307000  0.60255000  1.0
  C  C32  1  0.18360000  0.09178000  0.40822000  1.0
  C  C33  1  1.00000000  0.86260000  0.63741000  1.0
  C  C34  1  0.99997000  0.08978000  0.58982000  1.0
  C  C35  1  0.81640000  0.90821000  0.59179000  1.0
  C  C36  1  0.00001000  0.13740000  0.36260000  1.0
  C  C37  1  0.99998000  0.91018000  0.41021000  1.0
  C  C38  1  0.99998000  0.40821000  0.90819000  1.0
  C  C39  1  0.00002000  0.63741000  0.86259000  1.0
  C  C40  1  0.82040000  0.41019000  0.08979000  1.0
  C  C41  1  0.00001000  0.59182000  0.09178000  1.0
  C  C42  1  0.00000000  0.36260000  0.13740000  1.0
  C  C43  1  0.17960000  0.58982000  0.91019000  1.0
  C  C44  1  0.00002000  0.19559000  0.30441000  1.0
  C  C45  1  0.00001000  0.30442000  0.19558000  1.0
  C  C46  1  0.95734000  0.17951000  0.27669000  1.0
  C  C47  1  0.04382000  0.32049000  0.22217000  1.0
  C  C48  1  0.95620000  0.23402000  0.22332000  1.0
  C  C49  1  0.04268000  0.26598000  0.27782000  1.0
  C  C50  1  0.00000000  0.80442000  0.69560000  1.0
  C  C51  1  0.00001000  0.69559000  0.80442000  1.0
  C  C52  1  0.95735000  0.77783000  0.76599000  1.0
  C  C53  1  0.04382000  0.72333000  0.73401000  1.0
  C  C54  1  0.95620000  0.72217000  0.82050000  1.0
  C  C55  1  0.04267000  0.77669000  0.67951000  1.0
  C  C56  1  0.99997000  0.37080000  0.87077000  1.0
  C  C57  1  0.95517000  0.29895000  0.90764000  1.0
  C  C58  1  0.95564000  0.26436000  0.87262000  1.0
  C  C59  1  0.99999000  0.29965000  0.79964000  1.0
  C  C60  1  0.04433000  0.37264000  0.76434000  1.0
  C  C61  1  0.04477000  0.40766000  0.79893000  1.0
  C  C62  1  0.00000000  0.26432000  0.76430000  1.0
  C  C63  1  0.99999000  0.23363000  0.73364000  1.0
  C  C64  1  0.99999000  0.19830000  0.69829000  1.0
  C  C65  1  0.96123000  0.12401000  0.73493000  1.0
  C  C66  1  0.96130000  0.08884000  0.70049000  1.0
  C  C67  1  0.99997000  0.12721000  0.62723000  1.0
  C  C68  1  0.03863000  0.20046000  0.58886000  1.0
  C  C69  1  0.03872000  0.23492000  0.62402000  1.0
  C  C70  1  0.00003000  0.62927000  0.12917000  1.0
  C  C71  1  0.04483000  0.63721000  0.15620000  1.0
  C  C72  1  0.04437000  0.67176000  0.19126000  1.0
  C  C73  1  0.00001000  0.70038000  0.20033000  1.0
  C  C74  1  0.95567000  0.69133000  0.17169000  1.0
  C  C75  1  0.95522000  0.65629000  0.13711000  1.0
  C  C76  1  0.99998000  0.73569000  0.23569000  1.0
  C  C77  1  0.99998000  0.76636000  0.26638000  1.0
  C  C78  1  0.99998000  0.80169000  0.30173000  1.0
  C  C79  1  0.03870000  0.80378000  0.33727000  1.0
  C  C80  1  0.03862000  0.83815000  0.37252000  1.0
  C  C81  1  0.99997000  0.87275000  0.37280000  1.0
  C  C82  1  0.96131000  0.87247000  0.33820000  1.0
  C  C83  1  0.96123000  0.83722000  0.30383000  1.0
  C  C84  1  0.74555000  0.37277000  0.12722000  1.0
  C  C85  1  0.71067000  0.29951000  0.16184000  1.0
  C  C86  1  0.64106000  0.26507000  0.19621000  1.0
  C  C87  1  0.60341000  0.30169000  0.19831000  1.0
  C  C88  1  0.64105000  0.37597000  0.16275000  1.0
  C  C89  1  0.71066000  0.41113000  0.12750000  1.0
  C  C90  1  0.53273000  0.26635000  0.23365000  1.0
  C  C91  1  0.47138000  0.23567000  0.26433000  1.0
  C  C92  1  0.40071000  0.20034000  0.29967000  1.0
  C  C93  1  0.36302000  0.12736000  0.32830000  1.0
  C  C94  1  0.29340000  0.09232000  0.36288000  1.0
  C  C95  1  0.25843000  0.12919000  0.37083000  1.0
  C  C96  1  0.29340000  0.20102000  0.34380000  1.0
  C  C97  1  0.36302000  0.23562000  0.30874000  1.0
  C  C98  1  0.25444000  0.62726000  0.87277000  1.0
  C  C99  1  0.28932000  0.66188000  0.79951000  1.0
  C  C100  1  0.35894000  0.69626000  0.76505000  1.0
  C  C101  1  0.39658000  0.69834000  0.80168000  1.0
  C  C102  1  0.35894000  0.66279000  0.87597000  1.0
  C  C103  1  0.28933000  0.62754000  0.91114000  1.0
  C  C104  1  0.46726000  0.73367000  0.76635000  1.0
  C  C105  1  0.52862000  0.76434000  0.73568000  1.0
  C  C106  1  0.59929000  0.79967000  0.70035000  1.0
  C  C107  1  0.63698000  0.82830000  0.62736000  1.0
  C  C108  1  0.70659000  0.86287000  0.59234000  1.0
  C  C109  1  0.74156000  0.87080000  0.62921000  1.0
  C  C110  1  0.70659000  0.84376000  0.70105000  1.0
  C  C111  1  0.63698000  0.80871000  0.73564000  1.0
  C  C112  1  0.91705000  0.10480000  0.29787000  1.0
  C  C113  1  0.09736000  0.39521000  0.18774000  1.0
  C  C114  1  0.90266000  0.21491000  0.20214000  1.0
  C  C115  1  0.08299000  0.28509000  0.31224000  1.0
  C  C116  1  0.91705000  0.81225000  0.78512000  1.0
  C  C117  1  0.09735000  0.70215000  0.71489000  1.0
  C  C118  1  0.90267000  0.68774000  0.89524000  1.0
  C  C119  1  0.08297000  0.79789000  0.60477000  1.0
  Br  Br120  1  0.10520000  0.42454000  0.66713000  1.0
  Br  Br121  1  0.89478000  0.16715000  0.92455000  1.0
  Br  Br122  1  0.09230000  0.33382000  0.57028000  1.0
  Br  Br123  1  0.90767000  0.07031000  0.83384000  1.0
  Br  Br124  1  0.89479000  0.72765000  0.18065000  1.0
  Br  Br125  1  0.10526000  0.68074000  0.22758000  1.0
  Br  Br126  1  0.90767000  0.83738000  0.25848000  1.0
  Br  Br127  1  0.09225000  0.75842000  0.33745000  1.0
  Br  Br128  1  0.59587000  0.42970000  0.16257000  1.0
  Br  Br129  1  0.59587000  0.16615000  0.24159000  1.0
  Br  Br130  1  0.40831000  0.33284000  0.27242000  1.0
  Br  Br131  1  0.40831000  0.07545000  0.31932000  1.0
  Br  Br132  1  0.40413000  0.66261000  0.92969000  1.0
  Br  Br133  1  0.40412000  0.74165000  0.66613000  1.0
  Br  Br134  1  0.59168000  0.77236000  0.83286000  1.0
  Br  Br135  1  0.59169000  0.81936000  0.57544000  1.0
  O  O136  1  0.00000000  0.99999000  0.50000000  1.0
  O  O137  1  0.15456000  0.12664000  0.41906000  1.0
  O  O138  1  0.05152000  0.89796000  0.57736000  1.0
  O  O139  1  0.96573000  0.02273000  0.62796000  1.0
  O  O140  1  0.15456000  0.02787000  0.42643000  1.0
  O  O141  1  0.03422000  0.12791000  0.52277000  1.0
  O  O142  1  0.94848000  0.87112000  0.65359000  1.0
  O  O143  1  0.84543000  0.91901000  0.62667000  1.0
  O  O144  1  0.94849000  0.07736000  0.39796000  1.0
  O  O145  1  0.84543000  0.92644000  0.52788000  1.0
  O  O146  1  0.05154000  0.15357000  0.37111000  1.0
  O  O147  1  0.03422000  0.90629000  0.44302000  1.0
  O  O148  1  0.96575000  0.94301000  0.40630000  1.0
  O  O149  1  1.00000000  0.50000000  0.00000000  1.0
  O  O150  1  0.95429000  0.37332000  0.97211000  1.0
  O  O151  1  0.02470000  0.60206000  0.84642000  1.0
  O  O152  1  0.84931000  0.47724000  0.05699000  1.0
  O  O153  1  0.04566000  0.47211000  0.87332000  1.0
  O  O154  1  0.84931000  0.37206000  0.09370000  1.0
  O  O155  1  0.97533000  0.62888000  0.92265000  1.0
  O  O156  1  0.95430000  0.58098000  0.07359000  1.0
  O  O157  1  0.02468000  0.42264000  0.12888000  1.0
  O  O158  1  0.04569000  0.57360000  0.08097000  1.0
  O  O159  1  0.97532000  0.34644000  0.10204000  1.0
  O  O160  1  0.15068000  0.59370000  0.87207000  1.0
  O  O161  1  0.15069000  0.55700000  0.97725000  1.0
  O  O162  1  0.84991000  0.07264000  0.33941000  1.0
  O  O163  1  0.94321000  0.07729000  0.27373000  1.0
  O  O164  1  0.08798000  0.42736000  0.22272000  1.0
  O  O165  1  0.14900000  0.42272000  0.13406000  1.0
  O  O166  1  0.91202000  0.18931000  0.16061000  1.0
  O  O167  1  0.85100000  0.21693000  0.22629000  1.0
  O  O168  1  0.15012000  0.31070000  0.27725000  1.0
  O  O169  1  0.05683000  0.28306000  0.36592000  1.0
  O  O170  1  0.84992000  0.77728000  0.81071000  1.0
  O  O171  1  0.94322000  0.86592000  0.78310000  1.0
  O  O172  1  0.08798000  0.66062000  0.68929000  1.0
  O  O173  1  0.14901000  0.72630000  0.71691000  1.0
  O  O174  1  0.91206000  0.72273000  0.92738000  1.0
  O  O175  1  0.85102000  0.63406000  0.92276000  1.0
  O  O176  1  0.15011000  0.83942000  0.57262000  1.0
  O  O177  1  0.05680000  0.77376000  0.57726000  1.0
