# generated using pymatgen
data_MnH13C18S(NO2)3
_symmetry_space_group_name_H-M   'P 1'
_cell_length_a   7.70079000
_cell_length_b   8.79146000
_cell_length_c   13.24340000
_cell_angle_alpha   77.36330000
_cell_angle_beta   78.62910000
_cell_angle_gamma   77.81350000
_symmetry_Int_Tables_number   1
_chemical_formula_structural   MnH13C18S(NO2)3
_chemical_formula_sum   'Mn2 H26 C36 S2 N6 O12'
_cell_volume   844.37901387
_cell_formula_units_Z   2
loop_
 _symmetry_equiv_pos_site_id
 _symmetry_equiv_pos_as_xyz
  1  'x, y, z'
loop_
 _atom_site_type_symbol
 _atom_site_label
 _atom_site_symmetry_multiplicity
 _atom_site_fract_x
 _atom_site_fract_y
 _atom_site_fract_z
 _atom_site_occupancy
  Mn  Mn0  1  0.32647000  0.21356000  0.78233000  1.0
  Mn  Mn1  1  0.67488000  0.78488000  0.21853000  1.0
  H  H2  1  0.42841000  0.14115000  0.96272000  1.0
  H  H3  1  0.57348000  0.85935000  0.03797000  1.0
  H  H4  1  0.26959000  0.03990000  0.98004000  1.0
  H  H5  1  0.73309000  0.95974000  0.02054000  1.0
  H  H6  1  0.59876000  0.89554000  0.82609000  1.0
  H  H7  1  0.40692000  0.10404000  0.17275000  1.0
  H  H8  1  0.84057000  0.74351000  0.71222000  1.0
  H  H9  1  0.16596000  0.25908000  0.28510000  1.0
  H  H10  1  0.90742000  0.85056000  0.51904000  1.0
  H  H11  1  0.09579000  0.15418000  0.47845000  1.0
  H  H12  1  0.81553000  0.06498000  0.36439000  1.0
  H  H13  1  0.18358000  0.93986000  0.63424000  1.0
  H  H14  1  0.60966000  0.30820000  0.29951000  1.0
  H  H15  1  0.38570000  0.69512000  0.70055000  1.0
  H  H16  1  0.34031000  0.52771000  0.33964000  1.0
  H  H17  1  0.65216000  0.47195000  0.66182000  1.0
  H  H18  1  0.09978000  0.63326000  0.47486000  1.0
  H  H19  1  0.89047000  0.36175000  0.52757000  1.0
  H  H20  1  0.08557000  0.50183000  0.66210000  1.0
  H  H21  1  0.90792000  0.49206000  0.33982000  1.0
  H  H22  1  0.22528000  0.52537000  0.85748000  1.0
  H  H23  1  0.77626000  0.47520000  0.14104000  1.0
  H  H24  1  0.93747000  0.70926000  0.90121000  1.0
  H  H25  1  0.06421000  0.29262000  0.09541000  1.0
  H  H26  1  0.64345000  0.61799000  0.91674000  1.0
  H  H27  1  0.35814000  0.38392000  0.08082000  1.0
  C  C28  1  0.62866000  0.93798000  0.74212000  1.0
  C  C29  1  0.37518000  0.06231000  0.25671000  1.0
  C  C30  1  0.76402000  0.85446000  0.67710000  1.0
  C  C31  1  0.24020000  0.14745000  0.32092000  1.0
  C  C32  1  0.80104000  0.91280000  0.57054000  1.0
  C  C33  1  0.20141000  0.09029000  0.42753000  1.0
  C  C34  1  0.69545000  0.05479000  0.52820000  1.0
  C  C35  1  0.30477000  0.94757000  0.47076000  1.0
  C  C36  1  0.71213000  0.12394000  0.41890000  1.0
  C  C37  1  0.28641000  0.87937000  0.58024000  1.0
  C  C38  1  0.59746000  0.25787000  0.38297000  1.0
  C  C39  1  0.39900000  0.74448000  0.61693000  1.0
  C  C40  1  0.45597000  0.33365000  0.45296000  1.0
  C  C41  1  0.53979000  0.66666667  0.54761000  1.0
  C  C42  1  0.33019000  0.46895000  0.42155000  1.0
  C  C43  1  0.66344000  0.53004000  0.57976000  1.0
  C  C44  1  0.19763000  0.52839000  0.49741000  1.0
  C  C45  1  0.79501000  0.46816000  0.50442000  1.0
  C  C46  1  0.19032000  0.45595000  0.60281000  1.0
  C  C47  1  0.80419000  0.53995000  0.39885000  1.0
  C  C48  1  0.44107000  0.26796000  0.56117000  1.0
  C  C49  1  0.55651000  0.73154000  0.43929000  1.0
  C  C50  1  0.56008000  0.13075000  0.59875000  1.0
  C  C51  1  0.43978000  0.86979000  0.40097000  1.0
  C  C52  1  0.59930000  0.33041000  0.88494000  1.0
  C  C53  1  0.40226000  0.66916000  0.11539000  1.0
  C  C54  1  0.77299000  0.39399000  0.87118000  1.0
  C  C55  1  0.22842000  0.60609000  0.12870000  1.0
  C  C56  1  0.93996000  0.30199000  0.84332000  1.0
  C  C57  1  0.06151000  0.69717000  0.15779000  1.0
  C  C58  1  0.09515000  0.49270000  0.86118000  1.0
  C  C59  1  0.90640000  0.50760000  0.13785000  1.0
  C  C60  1  0.93439000  0.59281000  0.88612000  1.0
  C  C61  1  0.06721000  0.40841000  0.11160000  1.0
  C  C62  1  0.77069000  0.54331000  0.89297000  1.0
  C  C63  1  0.23081000  0.45783000  0.10527000  1.0
  S  S64  1  0.95965000  0.12141000  0.79689000  1.0
  S  S65  1  0.04206000  0.87680000  0.20515000  1.0
  N  N66  1  0.52947000  0.07641000  0.70492000  1.0
  N  N67  1  0.47219000  0.92318000  0.29475000  1.0
  N  N68  1  0.31036000  0.32821000  0.63636000  1.0
  N  N69  1  0.68709000  0.66957000  0.36467000  1.0
  N  N70  1  0.10096000  0.34691000  0.83937000  1.0
  N  N71  1  0.90056000  0.65228000  0.16144000  1.0
  O  O72  1  0.52391000  0.35097000  0.80367000  1.0
  O  O73  1  0.47760000  0.64755000  0.19679000  1.0
  O  O74  1  0.54555000  0.26325000  0.97653000  1.0
  O  O75  1  0.45629000  0.73693000  0.02402000  1.0
  O  O76  1  0.15946000  0.06107000  0.78687000  1.0
  O  O77  1  0.84210000  0.93662000  0.21612000  1.0
  O  O78  1  0.86131000  0.01370000  0.87612000  1.0
  O  O79  1  0.13960000  0.98509000  0.12592000  1.0
  O  O80  1  0.90044000  0.16705000  0.69535000  1.0
  O  O81  1  0.10253000  0.83069000  0.30635000  1.0
  O  O82  1  0.37019000  0.07624000  0.92903000  1.0
  O  O83  1  0.63304000  0.92297000  0.07191000  1.0
