# generated using pymatgen
data_YH12(CO)9
_symmetry_space_group_name_H-M   'P 1'
_cell_length_a   8.97516000
_cell_length_b   9.44095000
_cell_length_c   9.53402000
_cell_angle_alpha   74.95460000
_cell_angle_beta   89.58310000
_cell_angle_gamma   64.87430000
_symmetry_Int_Tables_number   1
_chemical_formula_structural   YH12(CO)9
_chemical_formula_sum   'Y2 H24 C18 O18'
_cell_volume   701.42983712
_cell_formula_units_Z   2
loop_
 _symmetry_equiv_pos_site_id
 _symmetry_equiv_pos_as_xyz
  1  'x, y, z'
loop_
 _atom_site_type_symbol
 _atom_site_label
 _atom_site_symmetry_multiplicity
 _atom_site_fract_x
 _atom_site_fract_y
 _atom_site_fract_z
 _atom_site_occupancy
  Y  Y0  1  0.44152000  0.86344000  0.38281000  1.0
  Y  Y1  1  0.55848000  0.13656000  0.61719000  1.0
  H  H2  1  0.63114000  0.38522000  0.81960000  1.0
  H  H3  1  0.36886000  0.61478000  0.18040000  1.0
  H  H4  1  0.39905000  0.68498000  0.91736000  1.0
  H  H5  1  0.60096000  0.31502000  0.08265000  1.0
  H  H6  1  0.06092000  0.65095000  0.62944000  1.0
  H  H7  1  0.93908000  0.34906000  0.37056000  1.0
  H  H8  1  0.81349000  0.60788000  0.44066000  1.0
  H  H9  1  0.18651000  0.39213000  0.55935000  1.0
  H  H10  1  0.79050000  0.48002000  0.13628000  1.0
  H  H11  1  0.20950000  0.51997000  0.86373000  1.0
  H  H12  1  0.97599000  0.67758000  0.98596000  1.0
  H  H13  1  0.02400000  0.32241000  0.01402000  1.0
  H  H14  1  0.59027000  0.99482000  0.16408000  1.0
  H  H15  1  0.40973000  0.00518000  0.83592000  1.0
  H  H16  1  0.54261000  0.11804000  0.26456000  1.0
  H  H17  1  0.45740000  0.88196000  0.73544000  1.0
  H  H18  1  0.27536000  0.01619000  0.06321000  1.0
  H  H19  1  0.72464000  0.98381000  0.93679000  1.0
  H  H20  1  0.17811000  0.93613000  0.17111000  1.0
  H  H21  1  0.82189000  0.06387000  0.82889000  1.0
  H  H22  1  0.30880000  0.60966000  0.41958000  1.0
  H  H23  1  0.69120000  0.39034000  0.58042000  1.0
  H  H24  1  0.16954000  0.76530000  0.45905000  1.0
  H  H25  1  0.83046000  0.23470000  0.54095000  1.0
  C  C26  1  0.51145000  0.63014000  0.66499000  1.0
  C  C27  1  0.48856000  0.36986000  0.33501000  1.0
  C  C28  1  0.54850000  0.51248000  0.81035000  1.0
  C  C29  1  0.45150000  0.48752000  0.18964000  1.0
  C  C30  1  0.48256000  0.55713000  0.92882000  1.0
  C  C31  1  0.51744000  0.44287000  0.07118000  1.0
  C  C32  1  0.80530000  0.83564000  0.56772000  1.0
  C  C33  1  0.19469000  0.16438000  0.43228000  1.0
  C  C34  1  0.94479000  0.68013000  0.56749000  1.0
  C  C35  1  0.05520000  0.31987000  0.43251000  1.0
  C  C36  1  0.93200000  0.57608000  0.49947000  1.0
  C  C37  1  0.06800000  0.42393000  0.50053000  1.0
  C  C38  1  0.71907000  0.72759000  0.15033000  1.0
  C  C39  1  0.28094000  0.27241000  0.84968000  1.0
  C  C40  1  0.82041000  0.58340000  0.09991000  1.0
  C  C41  1  0.17959000  0.41660000  0.90009000  1.0
  C  C42  1  0.94822000  0.57234000  0.02043000  1.0
  C  C43  1  0.05177000  0.42765000  0.97957000  1.0
  O  O44  1  0.40495000  0.77967000  0.64176000  1.0
  O  O45  1  0.59506000  0.22033000  0.35824000  1.0
  O  O46  1  0.58594000  0.58338000  0.55820000  1.0
  O  O47  1  0.41407000  0.41662000  0.44180000  1.0
  O  O48  1  0.65767000  0.87564000  0.51281000  1.0
  O  O49  1  0.34232000  0.12436000  0.48719000  1.0
  O  O50  1  0.83318000  0.93049000  0.62637000  1.0
  O  O51  1  0.16681000  0.06952000  0.37362000  1.0
  O  O52  1  0.62951000  0.70600000  0.25195000  1.0
  O  O53  1  0.37049000  0.29400000  0.74806000  1.0
  O  O54  1  0.72785000  0.86202000  0.09747000  1.0
  O  O55  1  0.27215000  0.13798000  0.90253000  1.0
  O  O56  1  0.49876000  0.05901000  0.21700000  1.0
  O  O57  1  0.50124000  0.94099000  0.78300000  1.0
  O  O58  1  0.28850000  0.92095000  0.14741000  1.0
  O  O59  1  0.71150000  0.07905000  0.85260000  1.0
  O  O60  1  0.25624000  0.73284000  0.39611000  1.0
  O  O61  1  0.74376000  0.26716000  0.60389000  1.0
