# generated using pymatgen
data_Co3H24C40S2(NO2)6
_symmetry_space_group_name_H-M   'P 1'
_cell_length_a   9.05371000
_cell_length_b   11.43860000
_cell_length_c   11.74910000
_cell_angle_alpha   115.23500000
_cell_angle_beta   105.24700000
_cell_angle_gamma   99.17530000
_symmetry_Int_Tables_number   1
_chemical_formula_structural   Co3H24C40S2(NO2)6
_chemical_formula_sum   'Co3 H24 C40 S2 N6 O12'
_cell_volume   1009.17606409
_cell_formula_units_Z   1
loop_
 _symmetry_equiv_pos_site_id
 _symmetry_equiv_pos_as_xyz
  1  'x, y, z'
loop_
 _atom_site_type_symbol
 _atom_site_label
 _atom_site_symmetry_multiplicity
 _atom_site_fract_x
 _atom_site_fract_y
 _atom_site_fract_z
 _atom_site_occupancy
  Co  Co0  1  0.50001000  0.50000000  0.00000000  1.0
  Co  Co1  1  0.12134000  0.38796000  0.00044000  1.0
  Co  Co2  1  0.87866000  0.61203000  0.99956000  1.0
  H  H3  1  0.99703000  0.99754000  0.70504000  1.0
  H  H4  1  0.00297000  0.00246000  0.29496000  1.0
  H  H5  1  0.97691000  0.76000000  0.54117000  1.0
  H  H6  1  0.02308000  0.24000000  0.45883000  1.0
  H  H7  1  0.35454000  0.92264000  0.44017000  1.0
  H  H8  1  0.64545000  0.07735000  0.55982000  1.0
  H  H9  1  0.38001000  0.16047000  0.61145000  1.0
  H  H10  1  0.61999000  0.83952000  0.38855000  1.0
  H  H11  1  0.30994000  0.54377000  0.74591000  1.0
  H  H12  1  0.69007000  0.45623000  0.25409000  1.0
  H  H13  1  0.11867000  0.56521000  0.56702000  1.0
  H  H14  1  0.88134000  0.43479000  0.43299000  1.0
  H  H15  1  0.51151000  0.70884000  0.46795000  1.0
  H  H16  1  0.48849000  0.29116000  0.53205000  1.0
  H  H17  1  0.70521000  0.68979000  0.65183000  1.0
  H  H18  1  0.29479000  0.31022000  0.34816000  1.0
  H  H19  1  0.60287000  0.84413000  0.07961000  1.0
  H  H20  1  0.39714000  0.15588000  0.92039000  1.0
  H  H21  1  0.55966000  0.06870000  0.14125000  1.0
  H  H22  1  0.44034000  0.93131000  0.85876000  1.0
  H  H23  1  0.29280000  0.09774000  0.13071000  1.0
  H  H24  1  0.70720000  0.90226000  0.86929000  1.0
  H  H25  1  0.05875000  0.90358000  0.06897000  1.0
  H  H26  1  0.94124000  0.09642000  0.93103000  1.0
  C  C27  1  0.21566000  0.23144000  0.77859000  1.0
  C  C28  1  0.78435000  0.76856000  0.22141000  1.0
  C  C29  1  0.19071000  0.09163000  0.66796000  1.0
  C  C30  1  0.80929000  0.90837000  0.33204000  1.0
  C  C31  1  0.07546000  0.97966000  0.64743000  1.0
  C  C32  1  0.92453000  0.02035000  0.35256000  1.0
  C  C33  1  0.06435000  0.84818000  0.55689000  1.0
  C  C34  1  0.93564000  0.15182000  0.44310000  1.0
  C  C35  1  0.16796000  0.83023000  0.48565000  1.0
  C  C36  1  0.83203000  0.16977000  0.51435000  1.0
  C  C37  1  0.27887000  0.94086000  0.50033000  1.0
  C  C38  1  0.72113000  0.05913000  0.49966000  1.0
  C  C39  1  0.29069000  0.07177000  0.59282000  1.0
  C  C40  1  0.70931000  0.92822000  0.40717000  1.0
  C  C41  1  0.63363000  0.61199000  0.82314000  1.0
  C  C42  1  0.36637000  0.38800000  0.17686000  1.0
  C  C43  1  0.51941000  0.61891000  0.71129000  1.0
  C  C44  1  0.48059000  0.38108000  0.28870000  1.0
  C  C45  1  0.35399000  0.58175000  0.68644000  1.0
  C  C46  1  0.64601000  0.41825000  0.31356000  1.0
  C  C47  1  0.24664000  0.59277000  0.58518000  1.0
  C  C48  1  0.75336000  0.40724000  0.41483000  1.0
  C  C49  1  0.30571000  0.64004000  0.50890000  1.0
  C  C50  1  0.69429000  0.35996000  0.49111000  1.0
  C  C51  1  0.46986000  0.67526000  0.53114000  1.0
  C  C52  1  0.53014000  0.32475000  0.46886000  1.0
  C  C53  1  0.57673000  0.66426000  0.63261000  1.0
  C  C54  1  0.42327000  0.33574000  0.36739000  1.0
  C  C55  1  0.35694000  0.74872000  0.04995000  1.0
  C  C56  1  0.64307000  0.25129000  0.95005000  1.0
  C  C57  1  0.48694000  0.85712000  0.08095000  1.0
  C  C58  1  0.51306000  0.14288000  0.91905000  1.0
  C  C59  1  0.46075000  0.98152000  0.11333000  1.0
  C  C60  1  0.53926000  0.01848000  0.88667000  1.0
  C  C61  1  0.30769000  0.99856000  0.10801000  1.0
  C  C62  1  0.69231000  0.00145000  0.89199000  1.0
  C  C63  1  0.17715000  0.89215000  0.07397000  1.0
  C  C64  1  0.82285000  0.10785000  0.92603000  1.0
  C  C65  1  0.20522000  0.76752000  0.04763000  1.0
  C  C66  1  0.79479000  0.23247000  0.95236000  1.0
  S  S67  1  0.17058000  0.66296000  0.38467000  1.0
  S  S68  1  0.82942000  0.33704000  0.61533000  1.0
  N  N69  1  0.34270000  0.61756000  0.02248000  1.0
  N  N70  1  0.65731000  0.38244000  0.97752000  1.0
  N  N71  1  0.19261000  0.56159000  0.00641000  1.0
  N  N72  1  0.80740000  0.43841000  0.99359000  1.0
  N  N73  1  0.10629000  0.64753000  0.01919000  1.0
  N  N74  1  0.89372000  0.35247000  0.98081000  1.0
  O  O75  1  0.33140000  0.32902000  0.80640000  1.0
  O  O76  1  0.66861000  0.67098000  0.19360000  1.0
  O  O77  1  0.11639000  0.23649000  0.84061000  1.0
  O  O78  1  0.88362000  0.76351000  0.15940000  1.0
  O  O79  1  0.78437000  0.63983000  0.84303000  1.0
  O  O80  1  0.21564000  0.36016000  0.15697000  1.0
  O  O81  1  0.58138000  0.58218000  0.90075000  1.0
  O  O82  1  0.41862000  0.41782000  0.09925000  1.0
  O  O83  1  0.24789000  0.66691000  0.29229000  1.0
  O  O84  1  0.75207000  0.33307000  0.70770000  1.0
  O  O85  1  0.01193000  0.56823000  0.33549000  1.0
  O  O86  1  0.98805000  0.43176000  0.66453000  1.0
