# generated using pymatgen
data_HoPH17C9N3O11
_symmetry_space_group_name_H-M   'P 1'
_cell_length_a   6.81050000
_cell_length_b   8.58716000
_cell_length_c   14.20450000
_cell_angle_alpha   89.99960000
_cell_angle_beta   92.79390000
_cell_angle_gamma   89.99990000
_symmetry_Int_Tables_number   1
_chemical_formula_structural   HoPH17C9N3O11
_chemical_formula_sum   'Ho2 P2 H34 C18 N6 O22'
_cell_volume   829.73223846
_cell_formula_units_Z   2
loop_
 _symmetry_equiv_pos_site_id
 _symmetry_equiv_pos_as_xyz
  1  'x, y, z'
loop_
 _atom_site_type_symbol
 _atom_site_label
 _atom_site_symmetry_multiplicity
 _atom_site_fract_x
 _atom_site_fract_y
 _atom_site_fract_z
 _atom_site_occupancy
  Ho  Ho0  1  0.24616000  0.76568000  0.02932000  1.0
  Ho  Ho1  1  0.75384000  0.26568000  0.97068000  1.0
  P  P2  1  0.73691000  0.83991000  0.94201000  1.0
  P  P3  1  0.26308000  0.33990000  0.05799000  1.0
  H  H4  1  0.34337000  0.08328000  0.96764000  1.0
  H  H5  1  0.65662000  0.58328000  0.03237000  1.0
  H  H6  1  0.15329000  0.04076000  0.90595000  1.0
  H  H7  1  0.84671000  0.54075000  0.09405000  1.0
  H  H8  1  0.12896000  0.60728000  0.85399000  1.0
  H  H9  1  0.87103000  0.10729000  0.14600000  1.0
  H  H10  1  0.35853000  0.59329000  0.86313000  1.0
  H  H11  1  0.64146000  0.09328000  0.13687000  1.0
  H  H12  1  0.52341000  0.01647000  0.78526000  1.0
  H  H13  1  0.47659000  0.51647000  0.21473000  1.0
  H  H14  1  0.39720000  0.86732000  0.82524000  1.0
  H  H15  1  0.60280000  0.36731000  0.17476000  1.0
  H  H16  1  0.81576000  0.87529000  0.77804000  1.0
  H  H17  1  0.18424000  0.37528000  0.22196000  1.0
  H  H18  1  0.68672000  0.69624000  0.79521000  1.0
  H  H19  1  0.31328000  0.19623000  0.20479000  1.0
  H  H20  1  0.42473000  0.72455000  0.68232000  1.0
  H  H21  1  0.57528000  0.22455000  0.31769000  1.0
  H  H22  1  0.23874000  0.05197000  0.66990000  1.0
  H  H23  1  0.76126000  0.55197000  0.33010000  1.0
  H  H24  1  0.13094000  0.88068000  0.71542000  1.0
  H  H25  1  0.86906000  0.38069000  0.28458000  1.0
  H  H26  1  0.17354000  0.89444000  0.59336000  1.0
  H  H27  1  0.82645000  0.39445000  0.40664000  1.0
  H  H28  1  0.58573000  0.14575000  0.65061000  1.0
  H  H29  1  0.41427000  0.64575000  0.34939000  1.0
  H  H30  1  0.81895000  0.22289000  0.53314000  1.0
  H  H31  1  0.18106000  0.72289000  0.46686000  1.0
  H  H32  1  0.94285000  0.02710000  0.41973000  1.0
  H  H33  1  0.05715000  0.52710000  0.58027000  1.0
  H  H34  1  0.83574000  0.75155000  0.43021000  1.0
  H  H35  1  0.16426000  0.25155000  0.56979000  1.0
  H  H36  1  0.61143000  0.66979000  0.55426000  1.0
  H  H37  1  0.38857000  0.16979000  0.44574000  1.0
  C  C38  1  0.69511000  0.81999000  0.81394000  1.0
  C  C39  1  0.30489000  0.31999000  0.18606000  1.0
  C  C40  1  0.43579000  0.85226000  0.68126000  1.0
  C  C41  1  0.56421000  0.35227000  0.31874000  1.0
  C  C42  1  0.23285000  0.92457000  0.66403000  1.0
  C  C43  1  0.76715000  0.42457000  0.33597000  1.0
  C  C44  1  0.58305000  0.90137000  0.61088000  1.0
  C  C45  1  0.41695000  0.40137000  0.38912000  1.0
  C  C46  1  0.64192000  0.05718000  0.60402000  1.0
  C  C47  1  0.35808000  0.55718000  0.39598000  1.0
  C  C48  1  0.77350000  0.10147000  0.53675000  1.0
  C  C49  1  0.22650000  0.60147000  0.46325000  1.0
  C  C50  1  0.84356000  0.99197000  0.47390000  1.0
  C  C51  1  0.15644000  0.49197000  0.52610000  1.0
  C  C52  1  0.78411000  0.83678000  0.48006000  1.0
  C  C53  1  0.21588000  0.33678000  0.51994000  1.0
  C  C54  1  0.65711000  0.79116000  0.54921000  1.0
  C  C55  1  0.34289000  0.29116000  0.45079000  1.0
  N  N56  1  0.50758000  0.89639000  0.78037000  1.0
  N  N57  1  0.49242000  0.39639000  0.21963000  1.0
  N  N58  1  0.96798000  0.79901000  0.18414000  1.0
  N  N59  1  0.03202000  0.29901000  0.81586000  1.0
  N  N60  1  0.44492000  0.87398000  0.20812000  1.0
  N  N61  1  0.55509000  0.37398000  0.79188000  1.0
  O  O62  1  0.57234000  0.74791000  0.98839000  1.0
  O  O63  1  0.42766000  0.24791000  0.01161000  1.0
  O  O64  1  0.93928000  0.76947000  0.96299000  1.0
  O  O65  1  0.06071000  0.26946000  0.03702000  1.0
  O  O66  1  0.72189000  0.01331000  0.96193000  1.0
  O  O67  1  0.27810000  0.51330000  0.03806000  1.0
  O  O68  1  0.04566000  0.91784000  0.14489000  1.0
  O  O69  1  0.95433000  0.41784000  0.85510000  1.0
  O  O70  1  0.01952000  0.66543000  0.15269000  1.0
  O  O71  1  0.98048000  0.16543000  0.84731000  1.0
  O  O72  1  0.85311000  0.81304000  0.24811000  1.0
  O  O73  1  0.14689000  0.31305000  0.75189000  1.0
  O  O74  1  0.44390000  0.96524000  0.13618000  1.0
  O  O75  1  0.55611000  0.46524000  0.86382000  1.0
  O  O76  1  0.40573000  0.73044000  0.18851000  1.0
  O  O77  1  0.59430000  0.23045000  0.81149000  1.0
  O  O78  1  0.47519000  0.92094000  0.28937000  1.0
  O  O79  1  0.52482000  0.42095000  0.71063000  1.0
  O  O80  1  0.26939000  0.99203000  0.93832000  1.0
  O  O81  1  0.73060000  0.49203000  0.06168000  1.0
  O  O82  1  0.24924000  0.66997000  0.86412000  1.0
  O  O83  1  0.75075000  0.16996000  0.13587000  1.0
