# generated using pymatgen
data_ZnH6C10N5Cl
_symmetry_space_group_name_H-M   'P 1'
_cell_length_a   7.76837000
_cell_length_b   8.75693000
_cell_length_c   15.78920000
_cell_angle_alpha   90.00000000
_cell_angle_beta   100.18100000
_cell_angle_gamma   89.99990000
_symmetry_Int_Tables_number   1
_chemical_formula_structural   ZnH6C10N5Cl
_chemical_formula_sum   'Zn4 H24 C40 N20 Cl4'
_cell_volume   1057.18067879
_cell_formula_units_Z   4
loop_
 _symmetry_equiv_pos_site_id
 _symmetry_equiv_pos_as_xyz
  1  'x, y, z'
loop_
 _atom_site_type_symbol
 _atom_site_label
 _atom_site_symmetry_multiplicity
 _atom_site_fract_x
 _atom_site_fract_y
 _atom_site_fract_z
 _atom_site_occupancy
  Zn  Zn0  1  0.27061000  0.82596000  0.17870000  1.0
  Zn  Zn1  1  0.72939000  0.32596000  0.32130000  1.0
  Zn  Zn2  1  0.72939000  0.17404000  0.82130000  1.0
  Zn  Zn3  1  0.27061000  0.67404000  0.67870000  1.0
  H  H4  1  0.21177000  0.26446000  0.90549000  1.0
  H  H5  1  0.78823000  0.76446000  0.59451000  1.0
  H  H6  1  0.78823000  0.73554000  0.09451000  1.0
  H  H7  1  0.21177000  0.23554000  0.40549000  1.0
  H  H8  1  0.36324000  0.90114000  0.01572000  1.0
  H  H9  1  0.63675000  0.40114000  0.48428000  1.0
  H  H10  1  0.63675000  0.09886000  0.98428000  1.0
  H  H11  1  0.36325000  0.59886000  0.51572000  1.0
  H  H12  1  0.08102000  0.25396000  0.15963000  1.0
  H  H13  1  0.91897000  0.75397000  0.34037000  1.0
  H  H14  1  0.91897000  0.74603000  0.84037000  1.0
  H  H15  1  0.08103000  0.24603000  0.65963000  1.0
  H  H16  1  0.15308000  0.52630000  0.17992000  1.0
  H  H17  1  0.84692000  0.02630000  0.32008000  1.0
  H  H18  1  0.84692000  0.47370000  0.82008000  1.0
  H  H19  1  0.15308000  0.97370000  0.67992000  1.0
  H  H20  1  0.32294000  0.50400000  0.85155000  1.0
  H  H21  1  0.67707000  0.00400000  0.64845000  1.0
  H  H22  1  0.67707000  0.49601000  0.14845000  1.0
  H  H23  1  0.32293000  0.99600000  0.35155000  1.0
  H  H24  1  0.10813000  0.12242000  0.02258000  1.0
  H  H25  1  0.89188000  0.62242000  0.47742000  1.0
  H  H26  1  0.89187000  0.87758000  0.97742000  1.0
  H  H27  1  0.10813000  0.37758000  0.52258000  1.0
  C  C28  1  0.20349000  0.32075000  0.96619000  1.0
  C  C29  1  0.79652000  0.82074000  0.53381000  1.0
  C  C30  1  0.79651000  0.67925000  0.03381000  1.0
  C  C31  1  0.20349000  0.17925000  0.46619000  1.0
  C  C32  1  0.32702000  0.78168000  0.00366000  1.0
  C  C33  1  0.67297000  0.28169000  0.49634000  1.0
  C  C34  1  0.67297000  0.21832000  0.99634000  1.0
  C  C35  1  0.32703000  0.71832000  0.50366000  1.0
  C  C36  1  0.12886000  0.31678000  0.10882000  1.0
  C  C37  1  0.87114000  0.81678000  0.39117000  1.0
  C  C38  1  0.87114000  0.68322000  0.89118000  1.0
  C  C39  1  0.12886000  0.18322000  0.60882000  1.0
  C  C40  1  0.34344000  0.71558000  0.92350000  1.0
  C  C41  1  0.65656000  0.21558000  0.57650000  1.0
  C  C42  1  0.65656000  0.28442000  0.07650000  1.0
  C  C43  1  0.34344000  0.78442000  0.42350000  1.0
  C  C44  1  0.24796000  0.47744000  0.97645000  1.0
  C  C45  1  0.75204000  0.97744000  0.52355000  1.0
  C  C46  1  0.75204000  0.52256000  0.02355000  1.0
  C  C47  1  0.24796000  0.02256000  0.47645000  1.0
  C  C48  1  0.17110000  0.46951000  0.12071000  1.0
  C  C49  1  0.82890000  0.96952000  0.37929000  1.0
  C  C50  1  0.82891000  0.53049000  0.87929000  1.0
  C  C51  1  0.17110000  0.03050000  0.62071000  1.0
  C  C52  1  0.23218000  0.55252000  0.05551000  1.0
  C  C53  1  0.76783000  0.05252000  0.44449000  1.0
  C  C54  1  0.76783000  0.44748000  0.94449000  1.0
  C  C55  1  0.23217000  0.94748000  0.55551000  1.0
  C  C56  1  0.30546000  0.56214000  0.91055000  1.0
  C  C57  1  0.69455000  0.06215000  0.58945000  1.0
  C  C58  1  0.69455000  0.43786000  0.08945000  1.0
  C  C59  1  0.30545000  0.93785000  0.41055000  1.0
  C  C60  1  0.14475000  0.24229000  0.03121000  1.0
  C  C61  1  0.85524000  0.74229000  0.46879000  1.0
  C  C62  1  0.85524000  0.75771000  0.96879000  1.0
  C  C63  1  0.14476000  0.25771000  0.53121000  1.0
  C  C64  1  0.41399000  0.81402000  0.86346000  1.0
  C  C65  1  0.58602000  0.31402000  0.63654000  1.0
  C  C66  1  0.58602000  0.18598000  0.13654000  1.0
  C  C67  1  0.41398000  0.68598000  0.36346000  1.0
  N  N68  1  0.27585000  0.70478000  0.06728000  1.0
  N  N69  1  0.72415000  0.20479000  0.43272000  1.0
  N  N70  1  0.72415000  0.29521000  0.93272000  1.0
  N  N71  1  0.27585000  0.79522000  0.56728000  1.0
  N  N72  1  0.51028000  0.93704000  0.89120000  1.0
  N  N73  1  0.48973000  0.43704000  0.60880000  1.0
  N  N74  1  0.48973000  0.06296000  0.10880000  1.0
  N  N75  1  0.51027000  0.56296000  0.39120000  1.0
  N  N76  1  0.40587000  0.79822000  0.77730000  1.0
  N  N77  1  0.59413000  0.29822000  0.72270000  1.0
  N  N78  1  0.59413000  0.20178000  0.22270000  1.0
  N  N79  1  0.40587000  0.70178000  0.27730000  1.0
  N  N80  1  0.50103000  0.91205000  0.75215000  1.0
  N  N81  1  0.49897000  0.41206000  0.74785000  1.0
  N  N82  1  0.49897000  0.08794000  0.24784000  1.0
  N  N83  1  0.50103000  0.58795000  0.25215000  1.0
  N  N84  1  0.56106000  0.99340000  0.82111000  1.0
  N  N85  1  0.43894000  0.49341000  0.67889000  1.0
  N  N86  1  0.43894000  0.00659000  0.17889000  1.0
  N  N87  1  0.56106000  0.50659000  0.32111000  1.0
  Cl  Cl88  1  0.01531000  0.92598000  0.19186000  1.0
  Cl  Cl89  1  0.98469000  0.42597000  0.30814000  1.0
  Cl  Cl90  1  0.98469000  0.07402000  0.80814000  1.0
  Cl  Cl91  1  0.01531000  0.57402000  0.69186000  1.0
