# generated using pymatgen
data_ZnH7C9(NO3)2
_symmetry_space_group_name_H-M   'P 1'
_cell_length_a   7.85423000
_cell_length_b   8.87309000
_cell_length_c   15.93430000
_cell_angle_alpha   86.07790000
_cell_angle_beta   84.10240000
_cell_angle_gamma   82.91530000
_symmetry_Int_Tables_number   1
_chemical_formula_structural   ZnH7C9(NO3)2
_chemical_formula_sum   'Zn2 H14 C18 N4 O12'
_cell_volume   1094.42229958
_cell_formula_units_Z   2
loop_
 _symmetry_equiv_pos_site_id
 _symmetry_equiv_pos_as_xyz
  1  'x, y, z'
loop_
 _atom_site_type_symbol
 _atom_site_label
 _atom_site_symmetry_multiplicity
 _atom_site_fract_x
 _atom_site_fract_y
 _atom_site_fract_z
 _atom_site_occupancy
  Zn  Zn0  1  0.65000000  0.50228000  0.48658000  1.0
  Zn  Zn1  1  0.30017000  0.50056000  0.51942000  1.0
  H  H2  1  0.76495000  0.62048000  0.92960000  1.0
  H  H3  1  0.73741000  0.60454000  0.07792000  1.0
  H  H4  1  0.26090000  0.65160000  0.06094000  1.0
  H  H5  1  0.44833000  0.74499000  0.05159000  1.0
  H  H6  1  0.45632000  0.72524000  0.90503000  1.0
  H  H7  1  0.29585000  0.59935000  0.91814000  1.0
  H  H8  1  0.51737000  0.25884000  0.09276000  1.0
  H  H9  1  0.59296000  0.24243000  0.94786000  1.0
  H  H10  1  0.76705000  0.40487000  0.08124000  1.0
  H  H11  1  0.82883000  0.42250000  0.93430000  1.0
  H  H12  1  0.37761000  0.31637000  0.93116000  1.0
  H  H13  1  0.24742000  0.00868000  0.54328000  1.0
  H  H14  1  0.63560000  0.99132000  0.48238000  1.0
  H  H15  1  0.94458000  0.47968000  0.57777000  1.0
  C  C16  1  0.40312000  0.78898000  0.52085000  1.0
  C  C17  1  0.48592000  0.52779000  0.33871000  1.0
  C  C18  1  0.47904000  0.21107000  0.50371000  1.0
  C  C19  1  0.57031000  0.47272000  0.66088000  1.0
  C  C20  1  0.69423000  0.50539000  0.05239000  1.0
  C  C21  1  0.39720000  0.64145000  0.03622000  1.0
  C  C22  1  0.41781000  0.62190000  0.94002000  1.0
  C  C23  1  0.58278000  0.47051000  0.75058000  1.0
  C  C24  1  0.49895000  0.50553000  0.08237000  1.0
  C  C25  1  0.72507000  0.51057000  0.95496000  1.0
  C  C26  1  0.55675000  0.48663000  0.91784000  1.0
  C  C27  1  0.49273000  0.33837000  0.95974000  1.0
  C  C28  1  0.45028000  0.35162000  0.05546000  1.0
  C  C29  1  0.57849000  0.47617000  0.82679000  1.0
  C  C30  1  0.47552000  0.51593000  0.17341000  1.0
  C  C31  1  0.47227000  0.52626000  0.24916000  1.0
  C  C32  1  0.37755000  0.95693000  0.52410000  1.0
  C  C33  1  0.50571000  0.04286000  0.50221000  1.0
  N  N34  1  0.02028000  0.49938000  0.52001000  1.0
  N  N35  1  0.92228000  0.51331000  0.46486000  1.0
  N  N36  1  0.00964000  0.54996000  0.36545000  1.0
  N  N37  1  0.26024000  0.33791000  0.08229000  1.0
  O  O38  1  0.55546000  0.72325000  0.50528000  1.0
  O  O39  1  0.26581000  0.72274000  0.53348000  1.0
  O  O40  1  0.63684000  0.53320000  0.36030000  1.0
  O  O41  1  0.34965000  0.52124000  0.38892000  1.0
  O  O42  1  0.61354000  0.27898000  0.48678000  1.0
  O  O43  1  0.32576000  0.27537000  0.52149000  1.0
  O  O44  1  0.71033000  0.47357000  0.61116000  1.0
  O  O45  1  0.42082000  0.47560000  0.63718000  1.0
  O  O46  1  0.03685000  0.43839000  0.32529000  1.0
  O  O47  1  0.01343000  0.68411000  0.34885000  1.0
  O  O48  1  0.22647000  0.26917000  0.15073000  1.0
  O  O49  1  0.15197000  0.39856000  0.03499000  1.0
