# generated using pymatgen
data_KH23C19O11
_symmetry_space_group_name_H-M   'P 1'
_cell_length_a   9.80997000
_cell_length_b   10.66160000
_cell_length_c   11.40900000
_cell_angle_alpha   96.65880000
_cell_angle_beta   92.28470000
_cell_angle_gamma   115.60500000
_symmetry_Int_Tables_number   1
_chemical_formula_structural   KH23C19O11
_chemical_formula_sum   'K2 H46 C38 O22'
_cell_volume   1063.41673146
_cell_formula_units_Z   2
loop_
 _symmetry_equiv_pos_site_id
 _symmetry_equiv_pos_as_xyz
  1  'x, y, z'
loop_
 _atom_site_type_symbol
 _atom_site_label
 _atom_site_symmetry_multiplicity
 _atom_site_fract_x
 _atom_site_fract_y
 _atom_site_fract_z
 _atom_site_occupancy
  K  K0  1  0.95200000  0.69675000  0.75384000  1.0
  K  K1  1  0.04800000  0.30327000  0.24617000  1.0
  H  H2  1  0.22092000  0.56553000  0.02507000  1.0
  H  H3  1  0.77908000  0.43447000  0.97493000  1.0
  H  H4  1  0.38348000  0.71670000  0.10257000  1.0
  H  H5  1  0.61652000  0.28330000  0.89742000  1.0
  H  H6  1  0.28447000  0.73137000  0.97206000  1.0
  H  H7  1  0.71553000  0.26864000  0.02793000  1.0
  H  H8  1  0.13858000  0.59292000  0.53094000  1.0
  H  H9  1  0.86142000  0.40708000  0.46905000  1.0
  H  H10  1  0.29781000  0.76310000  0.56506000  1.0
  H  H11  1  0.70219000  0.23690000  0.43494000  1.0
  H  H12  1  0.29015000  0.64261000  0.43705000  1.0
  H  H13  1  0.70985000  0.35739000  0.56295000  1.0
  H  H14  1  0.69055000  0.81593000  0.64213000  1.0
  H  H15  1  0.30944000  0.18407000  0.35787000  1.0
  H  H16  1  0.75082000  0.00148000  0.63886000  1.0
  H  H17  1  0.24918000  0.99852000  0.36114000  1.0
  H  H18  1  0.88539000  0.93986000  0.68258000  1.0
  H  H19  1  0.11461000  0.06014000  0.31742000  1.0
  H  H20  1  0.54743000  0.99835000  0.40409000  1.0
  H  H21  1  0.45256000  0.00165000  0.59591000  1.0
  H  H22  1  0.38714000  0.85896000  0.31245000  1.0
  H  H23  1  0.61285000  0.14104000  0.68755000  1.0
  H  H24  1  0.51824000  0.00806000  0.25032000  1.0
  H  H25  1  0.48176000  0.99194000  0.74967000  1.0
  H  H26  1  0.79691000  0.02788000  0.90711000  1.0
  H  H27  1  0.20309000  0.97213000  0.09289000  1.0
  H  H28  1  0.61108000  0.98891000  0.95356000  1.0
  H  H29  1  0.38892000  0.01110000  0.04643000  1.0
  H  H30  1  0.64033000  0.86254000  0.85200000  1.0
  H  H31  1  0.35967000  0.13746000  0.14800000  1.0
  H  H32  1  0.48254000  0.38665000  0.62672000  1.0
  H  H33  1  0.51746000  0.61334000  0.37328000  1.0
  H  H34  1  0.60940000  0.54828000  0.57865000  1.0
  H  H35  1  0.39061000  0.45172000  0.42137000  1.0
  H  H36  1  0.31341000  0.49576000  0.62945000  1.0
  H  H37  1  0.68659000  0.50422000  0.37056000  1.0
  H  H38  1  0.46507000  0.66755000  0.65901000  1.0
  H  H39  1  0.53493000  0.33244000  0.34099000  1.0
  H  H40  1  0.43810000  0.66116000  0.86097000  1.0
  H  H41  1  0.56191000  0.33883000  0.13903000  1.0
  H  H42  1  0.30846000  0.48060000  0.83483000  1.0
  H  H43  1  0.69154000  0.51939000  0.16518000  1.0
  H  H44  1  0.61927000  0.58434000  0.93198000  1.0
  H  H45  1  0.38073000  0.41566000  0.06803000  1.0
  H  H46  1  0.49859000  0.40771000  0.86376000  1.0
  H  H47  1  0.50141000  0.59229000  0.13625000  1.0
  C  C48  1  0.95933000  0.74222000  0.16191000  1.0
  C  C49  1  0.04067000  0.25778000  0.83808000  1.0
  C  C50  1  0.96360000  0.73109000  0.28353000  1.0
  C  C51  1  0.03640000  0.26891000  0.71647000  1.0
  C  C52  1  0.87815000  0.79663000  0.33834000  1.0
  C  C53  1  0.12186000  0.20338000  0.66166000  1.0
  C  C54  1  0.82195000  0.84976000  0.24923000  1.0
  C  C55  1  0.17805000  0.15024000  0.75077000  1.0
  C  C56  1  0.86912000  0.81515000  0.13951000  1.0
  C  C57  1  0.13088000  0.18485000  0.86048000  1.0
  C  C58  1  0.04267000  0.69594000  0.07744000  1.0
  C  C59  1  0.95734000  0.30407000  0.92256000  1.0
  C  C60  1  0.27308000  0.67980000  0.05147000  1.0
  C  C61  1  0.72692000  0.32020000  0.94852000  1.0
  C  C62  1  0.03906000  0.65847000  0.34276000  1.0
  C  C63  1  0.96094000  0.34153000  0.65724000  1.0
  C  C64  1  0.22402000  0.68071000  0.49375000  1.0
  C  C65  1  0.77598000  0.31929000  0.50624000  1.0
  C  C66  1  0.85308000  0.80205000  0.46318000  1.0
  C  C67  1  0.14692000  0.19796000  0.53682000  1.0
  C  C68  1  0.78233000  0.91473000  0.62454000  1.0
  C  C69  1  0.21767000  0.08527000  0.37546000  1.0
  C  C70  1  0.73844000  0.93629000  0.27040000  1.0
  C  C71  1  0.26156000  0.06371000  0.72960000  1.0
  C  C72  1  0.50555000  0.93652000  0.31534000  1.0
  C  C73  1  0.49444000  0.06349000  0.68466000  1.0
  C  C74  1  0.83526000  0.85202000  0.02657000  1.0
  C  C75  1  0.16474000  0.14798000  0.97342000  1.0
  C  C76  1  0.69064000  0.94562000  0.92897000  1.0
  C  C77  1  0.30936000  0.05439000  0.07103000  1.0
  C  C78  1  0.53979000  0.50248000  0.64931000  1.0
  C  C79  1  0.46022000  0.49751000  0.35070000  1.0
  C  C80  1  0.42475000  0.55980000  0.67946000  1.0
  C  C81  1  0.57525000  0.44018000  0.32055000  1.0
  C  C82  1  0.41887000  0.55814000  0.81456000  1.0
  C  C83  1  0.58113000  0.44186000  0.18544000  1.0
  C  C84  1  0.54659000  0.51932000  0.85162000  1.0
  C  C85  1  0.45342000  0.48067000  0.14839000  1.0
  O  O86  1  0.00193000  0.64663000  0.97229000  1.0
  O  O87  1  0.99807000  0.35338000  0.02771000  1.0
  O  O88  1  0.18071000  0.71835000  0.12948000  1.0
  O  O89  1  0.81929000  0.28166000  0.87052000  1.0
  O  O90  1  0.00507000  0.53237000  0.31940000  1.0
  O  O91  1  0.99493000  0.46763000  0.68060000  1.0
  O  O92  1  0.15204000  0.74658000  0.42618000  1.0
  O  O93  1  0.84796000  0.25342000  0.57382000  1.0
  O  O94  1  0.86691000  0.72318000  0.52925000  1.0
  O  O95  1  0.13310000  0.27683000  0.47075000  1.0
  O  O96  1  0.81067000  0.90426000  0.50163000  1.0
  O  O97  1  0.18932000  0.09574000  0.49836000  1.0
  O  O98  1  0.79363000  0.06433000  0.27397000  1.0
  O  O99  1  0.20637000  0.93567000  0.72603000  1.0
  O  O100  1  0.59127000  0.85765000  0.28726000  1.0
  O  O101  1  0.40873000  0.14236000  0.71273000  1.0
  O  O102  1  0.89823000  0.85185000  0.93547000  1.0
  O  O103  1  0.10176000  0.14816000  0.06453000  1.0
  O  O104  1  0.71760000  0.88908000  0.03103000  1.0
  O  O105  1  0.28240000  0.11093000  0.96897000  1.0
  O  O106  1  0.64172000  0.54152000  0.75566000  1.0
  O  O107  1  0.35829000  0.45847000  0.24435000  1.0
