# generated using pymatgen
data_MnH4(CN)8
_symmetry_space_group_name_H-M   'P 1'
_cell_length_a   7.30900000
_cell_length_b   8.80818000
_cell_length_c   16.62390000
_cell_angle_alpha   90.00140000
_cell_angle_beta   89.99970000
_cell_angle_gamma   89.84890000
_symmetry_Int_Tables_number   1
_chemical_formula_structural   MnH4(CN)8
_chemical_formula_sum   'Mn4 H16 C32 N32'
_cell_volume   1070.22613035
_cell_formula_units_Z   4
loop_
 _symmetry_equiv_pos_site_id
 _symmetry_equiv_pos_as_xyz
  1  'x, y, z'
loop_
 _atom_site_type_symbol
 _atom_site_label
 _atom_site_symmetry_multiplicity
 _atom_site_fract_x
 _atom_site_fract_y
 _atom_site_fract_z
 _atom_site_occupancy
  Mn  Mn0  1  0.73712000  0.87497000  0.86598000  1.0
  Mn  Mn1  1  0.23714000  0.37476000  0.63405000  1.0
  Mn  Mn2  1  0.26286000  0.12503000  0.13402000  1.0
  Mn  Mn3  1  0.76286000  0.62505000  0.36600000  1.0
  H  H4  1  0.06415000  0.68327000  0.94047000  1.0
  H  H5  1  0.56415000  0.18344000  0.55940000  1.0
  H  H6  1  0.93589000  0.31661000  0.05944000  1.0
  H  H7  1  0.43583000  0.81675000  0.44052000  1.0
  H  H8  1  0.40889000  0.67940000  0.93934000  1.0
  H  H9  1  0.90886000  0.17965000  0.56049000  1.0
  H  H10  1  0.59116000  0.32043000  0.06053000  1.0
  H  H11  1  0.09109000  0.82059000  0.43939000  1.0
  H  H12  1  0.41183000  0.04657000  0.78238000  1.0
  H  H13  1  0.91181000  0.54658000  0.71761000  1.0
  H  H14  1  0.58821000  0.95347000  0.21763000  1.0
  H  H15  1  0.08816000  0.45342000  0.28239000  1.0
  H  H16  1  0.06589000  0.04707000  0.78087000  1.0
  H  H17  1  0.56591000  0.54709000  0.71912000  1.0
  H  H18  1  0.93415000  0.95293000  0.21913000  1.0
  H  H19  1  0.43411000  0.45295000  0.28088000  1.0
  C  C20  1  0.77868000  0.24329000  0.88964000  1.0
  C  C21  1  0.27859000  0.74318000  0.61045000  1.0
  C  C22  1  0.22135000  0.75670000  0.11041000  1.0
  C  C23  1  0.72132000  0.25673000  0.38964000  1.0
  C  C24  1  0.77675000  0.50475000  0.88129000  1.0
  C  C25  1  0.27666000  0.00474000  0.61871000  1.0
  C  C26  1  0.22327000  0.49521000  0.11869000  1.0
  C  C27  1  0.72327000  0.99526000  0.38130000  1.0
  C  C28  1  0.71037000  0.75433000  0.04601000  1.0
  C  C29  1  0.20974000  0.25425000  0.45396000  1.0
  C  C30  1  0.29027000  0.24579000  0.95397000  1.0
  C  C31  1  0.78962000  0.74564000  0.54601000  1.0
  C  C32  1  0.72420000  0.63010000  0.16862000  1.0
  C  C33  1  0.22397000  0.12981000  0.33155000  1.0
  C  C34  1  0.27600000  0.37016000  0.83156000  1.0
  C  C35  1  0.77580000  0.86994000  0.66861000  1.0
  C  C36  1  0.14157000  0.76419000  0.90462000  1.0
  C  C37  1  0.64157000  0.26430000  0.59531000  1.0
  C  C38  1  0.85847000  0.23573000  0.09531000  1.0
  C  C39  1  0.35841000  0.73582000  0.40466000  1.0
  C  C40  1  0.33201000  0.76313000  0.90478000  1.0
  C  C41  1  0.83200000  0.26331000  0.59511000  1.0
  C  C42  1  0.66804000  0.23675000  0.09512000  1.0
  C  C43  1  0.16798000  0.73687000  0.40483000  1.0
  C  C44  1  0.33327000  0.96559000  0.81782000  1.0
  C  C45  1  0.83326000  0.46558000  0.68216000  1.0
  C  C46  1  0.66678000  0.03441000  0.18216000  1.0
  C  C47  1  0.16672000  0.53440000  0.31784000  1.0
  C  C48  1  0.14273000  0.96588000  0.81711000  1.0
  C  C49  1  0.64272000  0.46587000  0.68287000  1.0
  C  C50  1  0.85732000  0.03410000  0.18287000  1.0
  C  C51  1  0.35725000  0.53412000  0.31713000  1.0
  N  N52  1  0.74012000  0.11589000  0.87645000  1.0
  N  N53  1  0.24020000  0.61578000  0.62375000  1.0
  N  N54  1  0.25979000  0.88411000  0.12367000  1.0
  N  N55  1  0.75988000  0.38412000  0.37642000  1.0
  N  N56  1  0.83248000  0.37711000  0.91037000  1.0
  N  N57  1  0.33227000  0.87703000  0.58970000  1.0
  N  N58  1  0.16765000  0.62289000  0.08964000  1.0
  N  N59  1  0.66754000  0.12291000  0.41037000  1.0
  N  N60  1  0.73789000  0.62799000  0.85892000  1.0
  N  N61  1  0.23793000  0.12805000  0.64100000  1.0
  N  N62  1  0.26206000  0.37193000  0.14102000  1.0
  N  N63  1  0.76212000  0.87201000  0.35894000  1.0
  N  N64  1  0.73815000  0.84398000  0.99449000  1.0
  N  N65  1  0.23759000  0.34421000  0.50529000  1.0
  N  N66  1  0.26245000  0.15580000  0.00530000  1.0
  N  N67  1  0.76180000  0.65599000  0.49450000  1.0
  N  N68  1  0.66666667  0.64837000  0.09597000  1.0
  N  N69  1  0.16585000  0.14799000  0.40415000  1.0
  N  N70  1  0.33415000  0.35202000  0.90416000  1.0
  N  N71  1  0.83341000  0.85160000  0.59597000  1.0
  N  N72  1  0.76691000  0.60132000  0.23545000  1.0
  N  N73  1  0.26721000  0.10117000  0.26477000  1.0
  N  N74  1  0.23279000  0.39877000  0.76478000  1.0
  N  N75  1  0.73306000  0.89876000  0.73543000  1.0
  N  N76  1  0.04718000  0.86540000  0.86079000  1.0
  N  N77  1  0.54714000  0.36553000  0.63911000  1.0
  N  N78  1  0.95286000  0.13454000  0.13916000  1.0
  N  N79  1  0.45278000  0.63461000  0.36081000  1.0
  N  N80  1  0.42745000  0.86417000  0.86164000  1.0
  N  N81  1  0.92747000  0.36434000  0.63824000  1.0
  N  N82  1  0.57260000  0.13577000  0.13830000  1.0
  N  N83  1  0.07256000  0.63583000  0.36168000  1.0
