# generated using pymatgen
data_ZnH14C12(SN2)2
_symmetry_space_group_name_H-M   'P 1'
_cell_length_a   8.10339000
_cell_length_b   13.13800000
_cell_length_c   13.37260000
_cell_angle_alpha   90.00030000
_cell_angle_beta   90.00030000
_cell_angle_gamma   89.99960000
_symmetry_Int_Tables_number   1
_chemical_formula_structural   ZnH14C12(SN2)2
_chemical_formula_sum   'Zn4 H56 C48 S8 N16'
_cell_volume   1423.67825866
_cell_formula_units_Z   4
loop_
 _symmetry_equiv_pos_site_id
 _symmetry_equiv_pos_as_xyz
  1  'x, y, z'
loop_
 _atom_site_type_symbol
 _atom_site_label
 _atom_site_symmetry_multiplicity
 _atom_site_fract_x
 _atom_site_fract_y
 _atom_site_fract_z
 _atom_site_occupancy
  Zn  Zn0  1  0.95930000  0.87497000  0.06675000  1.0
  Zn  Zn1  1  0.54070000  0.12503000  0.56675000  1.0
  Zn  Zn2  1  0.45930000  0.62502000  0.93325000  1.0
  Zn  Zn3  1  0.04070000  0.37498000  0.43325000  1.0
  H  H4  1  0.14068000  0.84839000  0.68450000  1.0
  H  H5  1  0.35934000  0.15162000  0.18451000  1.0
  H  H6  1  0.64066000  0.65162000  0.31550000  1.0
  H  H7  1  0.85935000  0.34838000  0.81550000  1.0
  H  H8  1  0.44055000  0.18566000  0.00206000  1.0
  H  H9  1  0.05945000  0.81435000  0.50206000  1.0
  H  H10  1  0.94057000  0.31433000  0.99793000  1.0
  H  H11  1  0.55942000  0.68567000  0.49796000  1.0
  H  H12  1  0.88840000  0.99387000  0.87557000  1.0
  H  H13  1  0.61161000  0.00614000  0.37557000  1.0
  H  H14  1  0.38839000  0.50614000  0.12443000  1.0
  H  H15  1  0.11161000  0.49386000  0.62443000  1.0
  H  H16  1  0.96525000  0.00046000  0.74948000  1.0
  H  H17  1  0.53474000  0.99955000  0.24948000  1.0
  H  H18  1  0.46526000  0.49955000  0.25052000  1.0
  H  H19  1  0.03475000  0.50045000  0.75051000  1.0
  H  H20  1  0.81363000  0.90904000  0.78341000  1.0
  H  H21  1  0.68637000  0.09096000  0.28341000  1.0
  H  H22  1  0.31362000  0.59095000  0.21660000  1.0
  H  H23  1  0.18638000  0.40904000  0.71659000  1.0
  H  H24  1  0.54129000  0.90741000  0.94989000  1.0
  H  H25  1  0.95871000  0.09260000  0.44989000  1.0
  H  H26  1  0.04131000  0.59258000  0.05011000  1.0
  H  H27  1  0.45869000  0.40742000  0.55012000  1.0
  H  H28  1  0.36597000  0.97743000  0.99413000  1.0
  H  H29  1  0.13402000  0.02257000  0.49413000  1.0
  H  H30  1  0.86598000  0.52256000  0.00586000  1.0
  H  H31  1  0.63401000  0.47744000  0.50587000  1.0
  H  H32  1  0.46330000  0.01255000  0.88055000  1.0
  H  H33  1  0.03669000  0.98745000  0.38055000  1.0
  H  H34  1  0.96332000  0.48744000  0.11944000  1.0
  H  H35  1  0.53668000  0.51256000  0.61945000  1.0
  H  H36  1  0.39611000  0.62121000  0.73943000  1.0
  H  H37  1  0.10390000  0.37880000  0.23943000  1.0
  H  H38  1  0.89609000  0.87880000  0.26057000  1.0
  H  H39  1  0.60390000  0.12120000  0.76057000  1.0
  H  H40  1  0.30088000  0.69678000  0.64392000  1.0
  H  H41  1  0.19911000  0.30322000  0.14392000  1.0
  H  H42  1  0.80088000  0.80322000  0.35608000  1.0
  H  H43  1  0.69913000  0.19678000  0.85608000  1.0
  H  H44  1  0.48292000  0.74027000  0.70210000  1.0
  H  H45  1  0.01708000  0.25973000  0.20210000  1.0
  H  H46  1  0.98292000  0.75973000  0.29790000  1.0
  H  H47  1  0.51708000  0.24027000  0.79790000  1.0
  H  H48  1  0.72408000  0.35709000  0.15576000  1.0
  H  H49  1  0.77592000  0.64292000  0.65577000  1.0
  H  H50  1  0.22409000  0.14290000  0.84423000  1.0
  H  H51  1  0.27590000  0.85709000  0.34424000  1.0
  H  H52  1  0.62345000  0.36950000  0.03696000  1.0
  H  H53  1  0.87655000  0.63050000  0.53697000  1.0
  H  H54  1  0.12345000  0.13048000  0.96304000  1.0
  H  H55  1  0.37654000  0.86951000  0.46304000  1.0
  H  H56  1  0.50824000  0.33304000  0.14329000  1.0
  H  H57  1  0.99177000  0.66696000  0.64330000  1.0
  H  H58  1  0.00825000  0.16695000  0.85670000  1.0
  H  H59  1  0.49175000  0.83305000  0.35670000  1.0
  C  C60  1  0.05504000  0.87440000  0.83532000  1.0
  C  C61  1  0.44496000  0.12560000  0.33532000  1.0
  C  C62  1  0.55504000  0.62560000  0.16469000  1.0
  C  C63  1  0.94496000  0.37440000  0.66468000  1.0
  C  C64  1  0.19284000  0.77919000  0.95922000  1.0
  C  C65  1  0.30715000  0.22081000  0.45922000  1.0
  C  C66  1  0.69284000  0.72081000  0.04078000  1.0
  C  C67  1  0.80715000  0.27919000  0.54078000  1.0
  C  C68  1  0.66523000  0.21554000  0.08513000  1.0
  C  C69  1  0.83477000  0.78446000  0.58513000  1.0
  C  C70  1  0.16524000  0.28445000  0.91487000  1.0
  C  C71  1  0.33476000  0.71555000  0.41487000  1.0
  C  C72  1  0.59812000  0.05306000  0.01317000  1.0
  C  C73  1  0.90188000  0.94695000  0.51317000  1.0
  C  C74  1  0.09813000  0.44694000  0.98682000  1.0
  C  C75  1  0.40186000  0.55307000  0.48683000  1.0
  C  C76  1  0.84331000  0.07986000  0.09845000  1.0
  C  C77  1  0.65670000  0.92014000  0.59845000  1.0
  C  C78  1  0.34331000  0.42013000  0.90154000  1.0
  C  C79  1  0.15669000  0.57986000  0.40154000  1.0
  C  C80  1  0.15322000  0.82798000  0.76289000  1.0
  C  C81  1  0.34679000  0.17203000  0.26290000  1.0
  C  C82  1  0.65321000  0.67202000  0.23711000  1.0
  C  C83  1  0.84678000  0.32798000  0.73711000  1.0
  C  C84  1  0.55522000  0.15458000  0.03142000  1.0
  C  C85  1  0.94478000  0.84543000  0.53142000  1.0
  C  C86  1  0.05524000  0.34542000  0.96858000  1.0
  C  C87  1  0.44476000  0.65458000  0.46859000  1.0
  C  C88  1  0.26508000  0.75299000  0.79168000  1.0
  C  C89  1  0.23492000  0.24702000  0.29167000  1.0
  C  C90  1  0.76508000  0.74701000  0.20833000  1.0
  C  C91  1  0.73492000  0.25299000  0.70833000  1.0
  C  C92  1  0.92412000  0.94969000  0.80967000  1.0
  C  C93  1  0.57588000  0.05031000  0.30967000  1.0
  C  C94  1  0.42412000  0.55031000  0.19034000  1.0
  C  C95  1  0.07588000  0.44969000  0.69033000  1.0
  C  C96  1  0.48632000  0.98329000  0.95641000  1.0
  C  C97  1  0.01368000  0.01671000  0.45641000  1.0
  C  C98  1  0.98633000  0.51670000  0.04358000  1.0
  C  C99  1  0.51366000  0.48330000  0.54359000  1.0
  C  C100  1  0.36600000  0.69903000  0.71570000  1.0
  C  C101  1  0.13400000  0.30098000  0.21569000  1.0
  C  C102  1  0.86600000  0.80098000  0.28431000  1.0
  C  C103  1  0.63401000  0.19902000  0.78431000  1.0
  C  C104  1  0.62897000  0.32503000  0.10679000  1.0
  C  C105  1  0.87104000  0.67497000  0.60680000  1.0
  C  C106  1  0.12898000  0.17496000  0.89321000  1.0
  C  C107  1  0.37103000  0.82503000  0.39321000  1.0
  S  S108  1  0.21161000  0.76105000  0.08480000  1.0
  S  S109  1  0.28838000  0.23894000  0.58479000  1.0
  S  S110  1  0.71161000  0.73894000  0.91521000  1.0
  S  S111  1  0.78838000  0.26106000  0.41520000  1.0
  S  S112  1  0.02821000  0.02797000  0.14035000  1.0
  S  S113  1  0.47181000  0.97203000  0.64036000  1.0
  S  S114  1  0.52821000  0.47202000  0.85963000  1.0
  S  S115  1  0.97179000  0.52797000  0.35963000  1.0
  N  N116  1  0.07510000  0.84846000  0.93157000  1.0
  N  N117  1  0.42489000  0.15154000  0.43157000  1.0
  N  N118  1  0.57510000  0.65154000  0.06843000  1.0
  N  N119  1  0.92490000  0.34846000  0.56843000  1.0
  N  N120  1  0.74320000  0.01589000  0.04619000  1.0
  N  N121  1  0.75681000  0.98412000  0.54619000  1.0
  N  N122  1  0.24321000  0.48411000  0.95380000  1.0
  N  N123  1  0.25680000  0.51589000  0.45380000  1.0
  N  N124  1  0.80928000  0.17799000  0.11919000  1.0
  N  N125  1  0.69072000  0.82201000  0.61919000  1.0
  N  N126  1  0.30929000  0.32200000  0.88081000  1.0
  N  N127  1  0.19072000  0.67800000  0.38081000  1.0
  N  N128  1  0.28527000  0.72884000  0.88970000  1.0
  N  N129  1  0.21472000  0.27116000  0.38969000  1.0
  N  N130  1  0.78527000  0.77116000  0.11031000  1.0
  N  N131  1  0.71472000  0.22884000  0.61031000  1.0
