# generated using pymatgen
data_CuH14C8N2O3
_symmetry_space_group_name_H-M   'P 1'
_cell_length_a   9.40154000
_cell_length_b   10.03930000
_cell_length_c   10.71760000
_cell_angle_alpha   89.98870000
_cell_angle_beta   89.99820000
_cell_angle_gamma   89.99900000
_symmetry_Int_Tables_number   1
_chemical_formula_structural   CuH14C8N2O3
_chemical_formula_sum   'Cu4 H56 C32 N8 O12'
_cell_volume   1011.57937516
_cell_formula_units_Z   4
loop_
 _symmetry_equiv_pos_site_id
 _symmetry_equiv_pos_as_xyz
  1  'x, y, z'
loop_
 _atom_site_type_symbol
 _atom_site_label
 _atom_site_symmetry_multiplicity
 _atom_site_fract_x
 _atom_site_fract_y
 _atom_site_fract_z
 _atom_site_occupancy
  Cu  Cu0  1  0.74196000  0.14660000  0.53342000  1.0
  Cu  Cu1  1  0.75803000  0.85324000  0.03365000  1.0
  Cu  Cu2  1  0.25803000  0.64671000  0.96640000  1.0
  Cu  Cu3  1  0.24197000  0.35345000  0.46660000  1.0
  H  H4  1  0.49049000  0.13569000  0.61330000  1.0
  H  H5  1  0.00947000  0.86422000  0.11331000  1.0
  H  H6  1  0.50948000  0.63575000  0.88671000  1.0
  H  H7  1  0.99050000  0.36435000  0.38672000  1.0
  H  H8  1  0.53397000  0.99784000  0.53685000  1.0
  H  H9  1  0.96572000  0.00204000  0.03694000  1.0
  H  H10  1  0.46574000  0.49792000  0.96307000  1.0
  H  H11  1  0.03401000  0.50219000  0.46314000  1.0
  H  H12  1  0.52033000  0.01540000  0.79651000  1.0
  H  H13  1  0.97962000  0.98427000  0.29668000  1.0
  H  H14  1  0.47963000  0.51575000  0.70334000  1.0
  H  H15  1  0.02035000  0.48456000  0.20347000  1.0
  H  H16  1  0.99883000  0.15482000  0.78526000  1.0
  H  H17  1  0.50120000  0.84525000  0.28534000  1.0
  H  H18  1  0.00118000  0.65477000  0.71466000  1.0
  H  H19  1  0.49883000  0.34520000  0.21474000  1.0
  H  H20  1  0.48803000  0.80545000  0.67924000  1.0
  H  H21  1  0.01206000  0.19435000  0.17936000  1.0
  H  H22  1  0.51215000  0.30568000  0.82064000  1.0
  H  H23  1  0.98795000  0.69450000  0.32073000  1.0
  H  H24  1  0.63834000  0.78573000  0.78029000  1.0
  H  H25  1  0.86192000  0.21412000  0.28050000  1.0
  H  H26  1  0.36202000  0.28586000  0.71949000  1.0
  H  H27  1  0.13825000  0.71428000  0.21967000  1.0
  H  H28  1  0.66481000  0.81702000  0.61885000  1.0
  H  H29  1  0.83526000  0.18293000  0.11910000  1.0
  H  H30  1  0.33533000  0.31702000  0.88089000  1.0
  H  H31  1  0.16475000  0.68301000  0.38111000  1.0
  H  H32  1  0.99874000  0.90414000  0.76859000  1.0
  H  H33  1  0.50123000  0.09601000  0.26859000  1.0
  H  H34  1  0.00127000  0.40403000  0.73142000  1.0
  H  H35  1  0.49871000  0.59586000  0.23143000  1.0
  H  H36  1  0.96946000  0.88420000  0.53722000  1.0
  H  H37  1  0.53056000  0.11582000  0.03717000  1.0
  H  H38  1  0.03059000  0.38420000  0.96283000  1.0
  H  H39  1  0.46944000  0.61577000  0.46281000  1.0
  H  H40  1  0.12447000  0.79794000  0.58909000  1.0
  H  H41  1  0.37566000  0.20224000  0.08899000  1.0
  H  H42  1  0.87568000  0.29778000  0.91099000  1.0
  H  H43  1  0.62444000  0.70206000  0.41090000  1.0
  H  H44  1  0.14104000  0.95513000  0.51492000  1.0
  H  H45  1  0.35890000  0.04501000  0.01499000  1.0
  H  H46  1  0.85892000  0.45500000  0.98503000  1.0
  H  H47  1  0.64105000  0.54485000  0.48508000  1.0
  H  H48  1  0.20037000  0.03330000  0.85873000  1.0
  H  H49  1  0.29954000  0.96697000  0.35882000  1.0
  H  H50  1  0.79960000  0.53304000  0.64115000  1.0
  H  H51  1  0.70033000  0.46673000  0.14124000  1.0
  H  H52  1  0.28033000  0.04396000  0.70905000  1.0
  H  H53  1  0.21960000  0.95631000  0.20912000  1.0
  H  H54  1  0.71959000  0.54368000  0.79082000  1.0
  H  H55  1  0.78033000  0.45604000  0.29091000  1.0
  H  H56  1  0.26024000  0.88595000  0.78363000  1.0
  H  H57  1  0.23982000  0.11435000  0.28360000  1.0
  H  H58  1  0.73989000  0.38567000  0.71635000  1.0
  H  H59  1  0.76019000  0.61407000  0.21636000  1.0
  C  C60  1  0.59807000  0.98992000  0.72375000  1.0
  C  C61  1  0.90193000  0.00991000  0.22390000  1.0
  C  C62  1  0.40193000  0.49007000  0.77610000  1.0
  C  C63  1  0.09807000  0.51005000  0.27624000  1.0
  C  C64  1  0.74685000  0.03078000  0.76986000  1.0
  C  C65  1  0.75312000  0.96910000  0.26996000  1.0
  C  C66  1  0.25312000  0.53085000  0.73005000  1.0
  C  C67  1  0.24685000  0.46925000  0.23014000  1.0
  C  C68  1  0.98031000  0.09914000  0.69780000  1.0
  C  C69  1  0.51962000  0.90092000  0.19786000  1.0
  C  C70  1  0.01965000  0.59910000  0.80215000  1.0
  C  C71  1  0.48032000  0.40085000  0.30220000  1.0
  C  C72  1  0.02986000  0.18729000  0.58961000  1.0
  C  C73  1  0.47016000  0.81269000  0.08974000  1.0
  C  C74  1  0.97013000  0.68728000  0.91029000  1.0
  C  C75  1  0.52987000  0.31272000  0.41041000  1.0
  C  C76  1  0.59669000  0.83974000  0.69950000  1.0
  C  C77  1  0.90342000  0.16009000  0.19968000  1.0
  C  C78  1  0.40349000  0.33990000  0.80030000  1.0
  C  C79  1  0.09664000  0.66026000  0.30047000  1.0
  C  C80  1  0.06465000  0.96588000  0.70645000  1.0
  C  C81  1  0.43539000  0.03423000  0.20647000  1.0
  C  C82  1  0.93540000  0.46578000  0.79353000  1.0
  C  C83  1  0.56462000  0.53411000  0.29355000  1.0
  C  C84  1  0.07509000  0.89664000  0.57967000  1.0
  C  C85  1  0.42494000  0.10345000  0.07971000  1.0
  C  C86  1  0.92496000  0.39657000  0.92029000  1.0
  C  C87  1  0.57508000  0.60334000  0.42033000  1.0
  C  C88  1  0.20990000  0.98340000  0.76778000  1.0
  C  C89  1  0.29010000  0.01684000  0.26782000  1.0
  C  C90  1  0.79012000  0.48317000  0.73215000  1.0
  C  C91  1  0.70986000  0.51661000  0.23220000  1.0
  N  N92  1  0.56449000  0.06125000  0.60657000  1.0
  N  N93  1  0.93540000  0.93861000  0.10671000  1.0
  N  N94  1  0.43540000  0.56136000  0.89331000  1.0
  N  N95  1  0.06450000  0.43878000  0.39342000  1.0
  N  N96  1  0.83052000  0.07364000  0.67844000  1.0
  N  N97  1  0.66943000  0.92642000  0.17851000  1.0
  N  N98  1  0.16945000  0.57364000  0.82150000  1.0
  N  N99  1  0.33051000  0.42634000  0.32154000  1.0
  O  O100  1  0.93936000  0.21765000  0.50478000  1.0
  O  O101  1  0.56075000  0.78202000  0.00511000  1.0
  O  O102  1  0.06070000  0.71784000  0.99499000  1.0
  O  O103  1  0.43938000  0.28248000  0.49529000  1.0
  O  O104  1  0.15842000  0.22609000  0.58863000  1.0
  O  O105  1  0.34155000  0.77412000  0.08860000  1.0
  O  O106  1  0.84154000  0.72588000  0.91141000  1.0
  O  O107  1  0.65838000  0.27388000  0.41136000  1.0
  O  O108  1  0.78304000  0.01694000  0.88268000  1.0
  O  O109  1  0.71684000  0.98276000  0.38277000  1.0
  O  O110  1  0.21681000  0.51713000  0.61729000  1.0
  O  O111  1  0.28310000  0.48314000  0.11734000  1.0
