# generated using pymatgen
data_Mn3H16C28(NO5)2
_symmetry_space_group_name_H-M   'P 1'
_cell_length_a   11.72520000
_cell_length_b   12.30150000
_cell_length_c   12.69820000
_cell_angle_alpha   89.99970000
_cell_angle_beta   98.88950000
_cell_angle_gamma   89.99960000
_symmetry_Int_Tables_number   1
_chemical_formula_structural   Mn3H16C28(NO5)2
_chemical_formula_sum   'Mn6 H32 C56 N4 O20'
_cell_volume   1809.55693272
_cell_formula_units_Z   2
loop_
 _symmetry_equiv_pos_site_id
 _symmetry_equiv_pos_as_xyz
  1  'x, y, z'
loop_
 _atom_site_type_symbol
 _atom_site_label
 _atom_site_symmetry_multiplicity
 _atom_site_fract_x
 _atom_site_fract_y
 _atom_site_fract_z
 _atom_site_occupancy
  Mn  Mn0  1  0.64227000  0.87943000  0.66403000  1.0
  Mn  Mn1  1  0.35773000  0.37942000  0.83599000  1.0
  Mn  Mn2  1  0.35774000  0.12058000  0.33597000  1.0
  Mn  Mn3  1  0.64227000  0.62058000  0.16402000  1.0
  Mn  Mn4  1  0.50000000  0.50000000  0.50000000  1.0
  Mn  Mn5  1  0.50001000  0.00001000  1.00000000  1.0
  H  H6  1  0.59965000  0.65191000  0.72701000  1.0
  H  H7  1  0.58179000  0.79139000  0.86806000  1.0
  H  H8  1  0.43068000  0.01490000  0.62591000  1.0
  H  H9  1  0.44722000  0.87628000  0.48583000  1.0
  H  H10  1  0.71044000  0.65831000  0.54414000  1.0
  H  H11  1  0.92089000  0.66836000  0.54839000  1.0
  H  H12  1  0.90904000  0.33010000  0.45149000  1.0
  H  H13  1  0.69923000  0.33618000  0.45173000  1.0
  H  H14  1  0.40036000  0.15191000  0.77299000  1.0
  H  H15  1  0.41822000  0.29139000  0.63194000  1.0
  H  H16  1  0.56932000  0.51490000  0.87410000  1.0
  H  H17  1  0.55279000  0.37628000  0.01417000  1.0
  H  H18  1  0.28956000  0.15831000  0.95586000  1.0
  H  H19  1  0.07911000  0.16836000  0.95161000  1.0
  H  H20  1  0.09096000  0.83010000  0.04851000  1.0
  H  H21  1  0.30077000  0.83618000  0.04827000  1.0
  H  H22  1  0.40035000  0.34809000  0.27299000  1.0
  H  H23  1  0.41821000  0.20861000  0.13194000  1.0
  H  H24  1  0.56932000  0.98510000  0.37409000  1.0
  H  H25  1  0.55278000  0.12371000  0.51417000  1.0
  H  H26  1  0.28956000  0.34169000  0.45586000  1.0
  H  H27  1  0.07911000  0.33164000  0.45161000  1.0
  H  H28  1  0.09096000  0.66990000  0.54851000  1.0
  H  H29  1  0.30077000  0.66381000  0.54827000  1.0
  H  H30  1  0.59964000  0.84809000  0.22701000  1.0
  H  H31  1  0.58179000  0.70861000  0.36806000  1.0
  H  H32  1  0.43068000  0.48510000  0.12591000  1.0
  H  H33  1  0.44722000  0.62372000  0.98583000  1.0
  H  H34  1  0.71044000  0.84169000  0.04414000  1.0
  H  H35  1  0.92089000  0.83164000  0.04839000  1.0
  H  H36  1  0.90904000  0.16990000  0.95148000  1.0
  H  H37  1  0.69923000  0.16382000  0.95173000  1.0
  C  C38  1  0.50757000  0.74466000  0.59559000  1.0
  C  C39  1  0.55816000  0.72979000  0.70540000  1.0
  C  C40  1  0.54810000  0.80886000  0.78509000  1.0
  C  C41  1  0.48428000  0.90853000  0.76199000  1.0
  C  C42  1  0.46228000  0.93371000  0.64869000  1.0
  C  C43  1  0.47155000  0.85569000  0.56980000  1.0
  C  C44  1  0.70120000  0.87670000  0.54364000  1.0
  C  C45  1  0.77469000  0.82835000  0.73497000  1.0
  C  C46  1  0.68522000  0.01660000  0.69248000  1.0
  C  C47  1  0.75830000  0.58739000  0.52394000  1.0
  C  C48  1  0.87700000  0.59189000  0.52645000  1.0
  C  C49  1  0.93683000  0.49940000  0.49986000  1.0
  C  C50  1  0.87032000  0.40572000  0.47286000  1.0
  C  C51  1  0.75176000  0.40826000  0.47243000  1.0
  C  C52  1  0.49243000  0.24466000  0.90441000  1.0
  C  C53  1  0.44185000  0.22979000  0.79460000  1.0
  C  C54  1  0.45190000  0.30886000  0.71491000  1.0
  C  C55  1  0.51572000  0.40854000  0.73801000  1.0
  C  C56  1  0.53772000  0.43371000  0.85132000  1.0
  C  C57  1  0.52846000  0.35569000  0.93020000  1.0
  C  C58  1  0.29879000  0.37670000  0.95637000  1.0
  C  C59  1  0.22531000  0.32835000  0.76504000  1.0
  C  C60  1  0.31478000  0.51660000  0.80752000  1.0
  C  C61  1  0.24170000  0.08739000  0.97606000  1.0
  C  C62  1  0.12299000  0.09189000  0.97355000  1.0
  C  C63  1  0.06316000  0.99940000  0.00014000  1.0
  C  C64  1  0.12969000  0.90572000  0.02714000  1.0
  C  C65  1  0.24824000  0.90826000  0.02757000  1.0
  C  C66  1  0.49243000  0.25534000  0.40441000  1.0
  C  C67  1  0.44184000  0.27022000  0.29460000  1.0
  C  C68  1  0.45190000  0.19114000  0.21491000  1.0
  C  C69  1  0.51572000  0.09147000  0.23801000  1.0
  C  C70  1  0.53772000  0.06629000  0.35131000  1.0
  C  C71  1  0.52845000  0.14431000  0.43020000  1.0
  C  C72  1  0.29879000  0.12330000  0.45636000  1.0
  C  C73  1  0.22531000  0.17165000  0.26503000  1.0
  C  C74  1  0.31479000  0.98341000  0.30752000  1.0
  C  C75  1  0.24170000  0.41261000  0.47606000  1.0
  C  C76  1  0.12300000  0.40811000  0.47355000  1.0
  C  C77  1  0.06317000  0.50060000  0.50014000  1.0
  C  C78  1  0.12969000  0.59428000  0.52714000  1.0
  C  C79  1  0.24824000  0.59174000  0.52757000  1.0
  C  C80  1  0.50757000  0.75534000  0.09559000  1.0
  C  C81  1  0.55815000  0.77021000  0.20540000  1.0
  C  C82  1  0.54810000  0.69114000  0.28509000  1.0
  C  C83  1  0.48428000  0.59146000  0.26199000  1.0
  C  C84  1  0.46228000  0.56629000  0.14869000  1.0
  C  C85  1  0.47155000  0.64431000  0.06980000  1.0
  C  C86  1  0.70121000  0.62330000  0.04363000  1.0
  C  C87  1  0.77469000  0.67165000  0.23497000  1.0
  C  C88  1  0.68522000  0.48340000  0.19248000  1.0
  C  C89  1  0.75830000  0.91261000  0.02394000  1.0
  C  C90  1  0.87700000  0.90811000  0.02645000  1.0
  C  C91  1  0.93683000  0.00060000  0.99986000  1.0
  C  C92  1  0.87031000  0.09428000  0.97286000  1.0
  C  C93  1  0.75176000  0.09174000  0.97243000  1.0
  N  N94  1  0.69517000  0.49759000  0.49671000  1.0
  N  N95  1  0.30483000  0.99759000  0.00329000  1.0
  N  N96  1  0.30483000  0.50241000  0.50329000  1.0
  N  N97  1  0.69517000  0.00241000  0.99671000  1.0
  O  O98  1  0.50451000  0.67250000  0.52233000  1.0
  O  O99  1  0.45953000  0.97640000  0.83071000  1.0
  O  O100  1  0.74027000  0.87329000  0.46405000  1.0
  O  O101  1  0.86101000  0.79360000  0.78064000  1.0
  O  O102  1  0.71282000  0.10701000  0.70957000  1.0
  O  O103  1  0.49549000  0.17251000  0.97767000  1.0
  O  O104  1  0.54048000  0.47640000  0.66929000  1.0
  O  O105  1  0.25971000  0.37328000  0.03595000  1.0
  O  O106  1  0.13899000  0.29360000  0.71937000  1.0
  O  O107  1  0.28717000  0.60700000  0.79043000  1.0
  O  O108  1  0.49548000  0.32749000  0.47767000  1.0
  O  O109  1  0.54047000  0.02360000  0.16929000  1.0
  O  O110  1  0.25973000  0.12671000  0.53595000  1.0
  O  O111  1  0.13899000  0.20640000  0.21935000  1.0
  O  O112  1  0.28718000  0.89300000  0.29043000  1.0
  O  O113  1  0.50451000  0.82749000  0.02233000  1.0
  O  O114  1  0.45953000  0.52360000  0.33071000  1.0
  O  O115  1  0.74028000  0.62672000  0.96405000  1.0
  O  O116  1  0.86101000  0.70640000  0.28064000  1.0
  O  O117  1  0.71282000  0.39300000  0.20957000  1.0
