# generated using pymatgen
data_CdH14C18S2(N4O)2
_symmetry_space_group_name_H-M   'P 1'
_cell_length_a   7.65408000
_cell_length_b   9.90950000
_cell_length_c   13.87310712
_cell_angle_alpha   89.99998595
_cell_angle_beta   105.94402467
_cell_angle_gamma   89.99930000
_symmetry_Int_Tables_number   1
_chemical_formula_structural   CdH14C18S2(N4O)2
_chemical_formula_sum   'Cd2 H28 C36 S4 N16 O4'
_cell_volume   1011.76943052
_cell_formula_units_Z   2
loop_
 _symmetry_equiv_pos_site_id
 _symmetry_equiv_pos_as_xyz
  1  'x, y, z'
loop_
 _atom_site_type_symbol
 _atom_site_label
 _atom_site_symmetry_multiplicity
 _atom_site_fract_x
 _atom_site_fract_y
 _atom_site_fract_z
 _atom_site_occupancy
  Cd  Cd0  1  1.00000000  0.50001000  0.00000000  1.0
  Cd  Cd1  1  0.50000000  0.00000000  0.00000000  1.0
  H  H2  1  0.43125000  0.41563000  0.66929000  1.0
  H  H3  1  0.06875000  0.91563000  0.33072000  1.0
  H  H4  1  0.56875000  0.58437000  0.33072000  1.0
  H  H5  1  0.93126000  0.08438000  0.66928000  1.0
  H  H6  1  0.65565000  0.36541000  0.83456000  1.0
  H  H7  1  0.84435000  0.86541000  0.16545000  1.0
  H  H8  1  0.34434000  0.63458000  0.16544000  1.0
  H  H9  1  0.15566000  0.13459000  0.83455000  1.0
  H  H10  1  0.87018000  0.75119000  0.85670000  1.0
  H  H11  1  0.62982000  0.25120000  0.14330000  1.0
  H  H12  1  0.12982000  0.24880000  0.14330000  1.0
  H  H13  1  0.37016000  0.74879000  0.85670000  1.0
  H  H14  1  0.65678000  0.81914000  0.69197000  1.0
  H  H15  1  0.84321000  0.31915000  0.30802000  1.0
  H  H16  1  0.34322000  0.18085000  0.30803000  1.0
  H  H17  1  0.15677000  0.68085000  0.69197000  1.0
  H  H18  1  0.93995000  0.54524000  0.38447000  1.0
  H  H19  1  0.56005000  0.04524000  0.61553000  1.0
  H  H20  1  0.06005000  0.45477000  0.61553000  1.0
  H  H21  1  0.43995000  0.95477000  0.38447000  1.0
  H  H22  1  0.10333000  0.46618000  0.33375000  1.0
  H  H23  1  0.39668000  0.96618000  0.66625000  1.0
  H  H24  1  0.89667000  0.53383000  0.66625000  1.0
  H  H25  1  0.60333000  0.03382000  0.33375000  1.0
  H  H26  1  0.01189000  0.62749000  0.28776000  1.0
  H  H27  1  0.48811000  0.12749000  0.71224000  1.0
  H  H28  1  0.98811000  0.37251000  0.71224000  1.0
  H  H29  1  0.51189000  0.87251000  0.28776000  1.0
  C  C30  1  0.52716000  0.49268000  0.70790000  1.0
  C  C31  1  0.97284000  0.99268000  0.29210000  1.0
  C  C32  1  0.47284000  0.50732000  0.29210000  1.0
  C  C33  1  0.02717000  0.00732000  0.70790000  1.0
  C  C34  1  0.65153000  0.46448000  0.79971000  1.0
  C  C35  1  0.84846000  0.96448000  0.20029000  1.0
  C  C36  1  0.34846000  0.53552000  0.20029000  1.0
  C  C37  1  0.15154000  0.03552000  0.79971000  1.0
  C  C38  1  0.77194000  0.68016000  0.81176000  1.0
  C  C39  1  0.72805000  0.18016000  0.18823000  1.0
  C  C40  1  0.22806000  0.31984000  0.18824000  1.0
  C  C41  1  0.27194000  0.81984000  0.81177000  1.0
  C  C42  1  0.65336000  0.71738000  0.72076000  1.0
  C  C43  1  0.84664000  0.21739000  0.27924000  1.0
  C  C44  1  0.34663000  0.28261000  0.27924000  1.0
  C  C45  1  0.15335000  0.78261000  0.72076000  1.0
  C  C46  1  0.52981000  0.62145000  0.66638000  1.0
  C  C47  1  0.97018000  0.12146000  0.33362000  1.0
  C  C48  1  0.47018000  0.37854000  0.33362000  1.0
  C  C49  1  0.02982000  0.87854000  0.66638000  1.0
  C  C50  1  0.40921000  0.65688000  0.56933000  1.0
  C  C51  1  0.09079000  0.15689000  0.43067000  1.0
  C  C52  1  0.59080000  0.34311000  0.43067000  1.0
  C  C53  1  0.90920000  0.84311000  0.56932000  1.0
  C  C54  1  0.20131000  0.63119000  0.43056000  1.0
  C  C55  1  0.29869000  0.13119000  0.56944000  1.0
  C  C56  1  0.79869000  0.36882000  0.56944000  1.0
  C  C57  1  0.70132000  0.86881000  0.43056000  1.0
  C  C58  1  0.05614000  0.56363000  0.35430000  1.0
  C  C59  1  0.44386000  0.06363000  0.64570000  1.0
  C  C60  1  0.94386000  0.43637000  0.64570000  1.0
  C  C61  1  0.55613000  0.93637000  0.35429000  1.0
  C  C62  1  0.84891000  0.17329000  0.94561000  1.0
  C  C63  1  0.65109000  0.67328000  0.05439000  1.0
  C  C64  1  0.15109000  0.82674000  0.05439000  1.0
  C  C65  1  0.34891000  0.32673000  0.94561000  1.0
  S  S66  1  0.75494000  0.03380000  0.89419000  1.0
  S  S67  1  0.74506000  0.53378000  0.10581000  1.0
  S  S68  1  0.24505000  0.96622000  0.10580000  1.0
  S  S69  1  0.25494000  0.46622000  0.89419000  1.0
  N  N70  1  0.77334000  0.55507000  0.85002000  1.0
  N  N71  1  0.72666000  0.05508000  0.14998000  1.0
  N  N72  1  0.22666000  0.44492000  0.14998000  1.0
  N  N73  1  0.27334000  0.94492000  0.85002000  1.0
  N  N74  1  0.39876000  0.77077000  0.52043000  1.0
  N  N75  1  0.10123000  0.27078000  0.47957000  1.0
  N  N76  1  0.60124000  0.22923000  0.47957000  1.0
  N  N77  1  0.89877000  0.72922000  0.52043000  1.0
  N  N78  1  0.26461000  0.75384000  0.43045000  1.0
  N  N79  1  0.23538000  0.25384000  0.56955000  1.0
  N  N80  1  0.73540000  0.24617000  0.56956000  1.0
  N  N81  1  0.76461000  0.74616000  0.43044000  1.0
  N  N82  1  0.91915000  0.27415000  0.98284000  1.0
  N  N83  1  0.58086000  0.77415000  0.01716000  1.0
  N  N84  1  0.08085000  0.72586000  0.01716000  1.0
  N  N85  1  0.41914000  0.22585000  0.98284000  1.0
  O  O86  1  0.28784000  0.56329000  0.51664000  1.0
  O  O87  1  0.21217000  0.06329000  0.48336000  1.0
  O  O88  1  0.71217000  0.43671000  0.48336000  1.0
  O  O89  1  0.78784000  0.93671000  0.51664000  1.0
