# generated using pymatgen
data_Pr2Cu5H32C42I4N7O16
_symmetry_space_group_name_H-M   'P 1'
_cell_length_a   9.26553000
_cell_length_b   20.92910000
_cell_length_c   30.41790000
_cell_angle_alpha   90.00010000
_cell_angle_beta   89.99990000
_cell_angle_gamma   89.99960000
_symmetry_Int_Tables_number   1
_chemical_formula_structural   Pr2Cu5H32C42I4N7O16
_chemical_formula_sum   'Pr8 Cu20 H128 C168 I16 N28 O64'
_cell_volume   5898.61495285
_cell_formula_units_Z   4
loop_
 _symmetry_equiv_pos_site_id
 _symmetry_equiv_pos_as_xyz
  1  'x, y, z'
loop_
 _atom_site_type_symbol
 _atom_site_label
 _atom_site_symmetry_multiplicity
 _atom_site_fract_x
 _atom_site_fract_y
 _atom_site_fract_z
 _atom_site_occupancy
  Pr  Pr0  1  0.99974000  0.08801000  0.99339000  1.0
  Pr  Pr1  1  0.50028000  0.91198000  0.49338000  1.0
  Pr  Pr2  1  0.00027000  0.58801000  0.50661000  1.0
  Pr  Pr3  1  0.49972000  0.41198000  0.00661000  1.0
  Pr  Pr4  1  0.47287000  0.10595000  0.99558000  1.0
  Pr  Pr5  1  0.02713000  0.89405000  0.49558000  1.0
  Pr  Pr6  1  0.52711000  0.60595000  0.50442000  1.0
  Pr  Pr7  1  0.97288000  0.39404000  0.00442000  1.0
  Cu  Cu8  1  0.52824000  0.36859000  0.73492000  1.0
  Cu  Cu9  1  0.97176000  0.63142000  0.23492000  1.0
  Cu  Cu10  1  0.47177000  0.86858000  0.76508000  1.0
  Cu  Cu11  1  0.02825000  0.13142000  0.26508000  1.0
  Cu  Cu12  1  0.29480000  0.29385000  0.74293000  1.0
  Cu  Cu13  1  0.20520000  0.70615000  0.24292000  1.0
  Cu  Cu14  1  0.70521000  0.79384000  0.75707000  1.0
  Cu  Cu15  1  0.79480000  0.20615000  0.25707000  1.0
  Cu  Cu16  1  0.26855000  0.25168000  0.66453000  1.0
  Cu  Cu17  1  0.23144000  0.74832000  0.16453000  1.0
  Cu  Cu18  1  0.73145000  0.75168000  0.83547000  1.0
  Cu  Cu19  1  0.76855000  0.24832000  0.33547000  1.0
  Cu  Cu20  1  0.22777000  0.17528000  0.72482000  1.0
  Cu  Cu21  1  0.27225000  0.82472000  0.22482000  1.0
  Cu  Cu22  1  0.77223000  0.67528000  0.77518000  1.0
  Cu  Cu23  1  0.72776000  0.32472000  0.27518000  1.0
  Cu  Cu24  1  0.02299000  0.09034000  0.73172000  1.0
  Cu  Cu25  1  0.47702000  0.90966000  0.23173000  1.0
  Cu  Cu26  1  0.97701000  0.59034000  0.76827000  1.0
  Cu  Cu27  1  0.52299000  0.40966000  0.26827000  1.0
  H  H28  1  0.98962000  0.15822000  0.89036000  1.0
  H  H29  1  0.51040000  0.84178000  0.39036000  1.0
  H  H30  1  0.01039000  0.65822000  0.60964000  1.0
  H  H31  1  0.48961000  0.34178000  0.10964000  1.0
  H  H32  1  0.10335000  0.14557000  0.81567000  1.0
  H  H33  1  0.39666000  0.85442000  0.31567000  1.0
  H  H34  1  0.89665000  0.64557000  0.68433000  1.0
  H  H35  1  0.60335000  0.35443000  0.18433000  1.0
  H  H36  1  0.72298000  0.07274000  0.76384000  1.0
  H  H37  1  0.77702000  0.92726000  0.26384000  1.0
  H  H38  1  0.27702000  0.57274000  0.73616000  1.0
  H  H39  1  0.22299000  0.42726000  0.23616000  1.0
  H  H40  1  0.59587000  0.08340000  0.83558000  1.0
  H  H41  1  0.90413000  0.91660000  0.33558000  1.0
  H  H42  1  0.40413000  0.58340000  0.66442000  1.0
  H  H43  1  0.09587000  0.41660000  0.16442000  1.0
  H  H44  1  0.92845000  0.94887000  0.91267000  1.0
  H  H45  1  0.57156000  0.05114000  0.41267000  1.0
  H  H46  1  0.07153000  0.44885000  0.58733000  1.0
  H  H47  1  0.42843000  0.55114000  0.08733000  1.0
  H  H48  1  0.92533000  0.85906000  0.85659000  1.0
  H  H49  1  0.57467000  0.14094000  0.35660000  1.0
  H  H50  1  0.07466000  0.35905000  0.64340000  1.0
  H  H51  1  0.42531000  0.64094000  0.14340000  1.0
  H  H52  1  0.52120000  0.79965000  0.89778000  1.0
  H  H53  1  0.97881000  0.20035000  0.39778000  1.0
  H  H54  1  0.47882000  0.29965000  0.60223000  1.0
  H  H55  1  0.02118000  0.70035000  0.10222000  1.0
  H  H56  1  0.50402000  0.88938000  0.95286000  1.0
  H  H57  1  0.99599000  0.11063000  0.45286000  1.0
  H  H58  1  0.49598000  0.38938000  0.54714000  1.0
  H  H59  1  0.00399000  0.61063000  0.04714000  1.0
  H  H60  1  0.85584000  0.95400000  0.11670000  1.0
  H  H61  1  0.64415000  0.04599000  0.61670000  1.0
  H  H62  1  0.14415000  0.45400000  0.38330000  1.0
  H  H63  1  0.35585000  0.54600000  0.88330000  1.0
  H  H64  1  0.73508000  0.89358000  0.17748000  1.0
  H  H65  1  0.76490000  0.10641000  0.67749000  1.0
  H  H66  1  0.26491000  0.39359000  0.32251000  1.0
  H  H67  1  0.23509000  0.60641000  0.82251000  1.0
  H  H68  1  0.38666000  0.01816000  0.17749000  1.0
  H  H69  1  0.11334000  0.98185000  0.67749000  1.0
  H  H70  1  0.61333000  0.51816000  0.32251000  1.0
  H  H71  1  0.88667000  0.48185000  0.82251000  1.0
  H  H72  1  0.49243000  0.08195000  0.11525000  1.0
  H  H73  1  0.00757000  0.91805000  0.61525000  1.0
  H  H74  1  0.50756000  0.58195000  0.38475000  1.0
  H  H75  1  0.99243000  0.41805000  0.88475000  1.0
  H  H76  1  0.43533000  0.16595000  0.87935000  1.0
  H  H77  1  0.06467000  0.83405000  0.37935000  1.0
  H  H78  1  0.56466000  0.66595000  0.62064000  1.0
  H  H79  1  0.93533000  0.33405000  0.12065000  1.0
  H  H80  1  0.45687000  0.20548000  0.80137000  1.0
  H  H81  1  0.04314000  0.79451000  0.30137000  1.0
  H  H82  1  0.54312000  0.70549000  0.69863000  1.0
  H  H83  1  0.95687000  0.29452000  0.19863000  1.0
  H  H84  1  0.10608000  0.32606000  0.81621000  1.0
  H  H85  1  0.39394000  0.67394000  0.31621000  1.0
  H  H86  1  0.89393000  0.82605000  0.68379000  1.0
  H  H87  1  0.60607000  0.17394000  0.18379000  1.0
  H  H88  1  0.06104000  0.28774000  0.89359000  1.0
  H  H89  1  0.43897000  0.71226000  0.39359000  1.0
  H  H90  1  0.93896000  0.78774000  0.60641000  1.0
  H  H91  1  0.56103000  0.21226000  0.10641000  1.0
  H  H92  1  0.83810000  0.27334000  0.85747000  1.0
  H  H93  1  0.66193000  0.72667000  0.35747000  1.0
  H  H94  1  0.16193000  0.77334000  0.64253000  1.0
  H  H95  1  0.33807000  0.22667000  0.14253000  1.0
  H  H96  1  0.73896000  0.28198000  0.78147000  1.0
  H  H97  1  0.76105000  0.71803000  0.28147000  1.0
  H  H98  1  0.26106000  0.78197000  0.71853000  1.0
  H  H99  1  0.23894000  0.21803000  0.21853000  1.0
  H  H100  1  0.47764000  0.43474000  0.81626000  1.0
  H  H101  1  0.02234000  0.56526000  0.31625000  1.0
  H  H102  1  0.52237000  0.93474000  0.68375000  1.0
  H  H103  1  0.97765000  0.06526000  0.18375000  1.0
  H  H104  1  0.56077000  0.43055000  0.89408000  1.0
  H  H105  1  0.93923000  0.56945000  0.39408000  1.0
  H  H106  1  0.43924000  0.93055000  0.60592000  1.0
  H  H107  1  0.06076000  0.06945000  0.10592000  1.0
  H  H108  1  0.93694000  0.46960000  0.64818000  1.0
  H  H109  1  0.56305000  0.53040000  0.14818000  1.0
  H  H110  1  0.06307000  0.96960000  0.85182000  1.0
  H  H111  1  0.43695000  0.03040000  0.35182000  1.0
  H  H112  1  0.82492000  0.40071000  0.70579000  1.0
  H  H113  1  0.67507000  0.59929000  0.20579000  1.0
  H  H114  1  0.17509000  0.90071000  0.79421000  1.0
  H  H115  1  0.32493000  0.09930000  0.29421000  1.0
  H  H116  1  0.41216000  0.44679000  0.66383000  1.0
  H  H117  1  0.08784000  0.55321000  0.16383000  1.0
  H  H118  1  0.58785000  0.94678000  0.83617000  1.0
  H  H119  1  0.91217000  0.05321000  0.33617000  1.0
  H  H120  1  0.50941000  0.51501000  0.60250000  1.0
  H  H121  1  0.99059000  0.48499000  0.10250000  1.0
  H  H122  1  0.49060000  0.01500000  0.89750000  1.0
  H  H123  1  0.00942000  0.98499000  0.39750000  1.0
  H  H124  1  0.47895000  0.07914000  0.56543000  1.0
  H  H125  1  0.02105000  0.92086000  0.06544000  1.0
  H  H126  1  0.52104000  0.57915000  0.93457000  1.0
  H  H127  1  0.97895000  0.42086000  0.43456000  1.0
  H  H128  1  0.48129000  0.16992000  0.62080000  1.0
  H  H129  1  0.01871000  0.83008000  0.12080000  1.0
  H  H130  1  0.51870000  0.66993000  0.87920000  1.0
  H  H131  1  0.98129000  0.33008000  0.37920000  1.0
  H  H132  1  0.03540000  0.17126000  0.62764000  1.0
  H  H133  1  0.46461000  0.82874000  0.12765000  1.0
  H  H134  1  0.96460000  0.67126000  0.87236000  1.0
  H  H135  1  0.53539000  0.32874000  0.37236000  1.0
  H  H136  1  0.01644000  0.07783000  0.57538000  1.0
  H  H137  1  0.48358000  0.92217000  0.07538000  1.0
  H  H138  1  0.98355000  0.57783000  0.92462000  1.0
  H  H139  1  0.51642000  0.42217000  0.42462000  1.0
  H  H140  1  0.90222000  0.22601000  0.03792000  1.0
  H  H141  1  0.59778000  0.77399000  0.53792000  1.0
  H  H142  1  0.09777000  0.72601000  0.46208000  1.0
  H  H143  1  0.40222000  0.27399000  0.96208000  1.0
  H  H144  1  0.80157000  0.16452000  0.04474000  1.0
  H  H145  1  0.69843000  0.83547000  0.54473000  1.0
  H  H146  1  0.19843000  0.66452000  0.45527000  1.0
  H  H147  1  0.30157000  0.33548000  0.95527000  1.0
  H  H148  1  0.70970000  0.20543000  0.97942000  1.0
  H  H149  1  0.79031000  0.79457000  0.47942000  1.0
  H  H150  1  0.29028000  0.70544000  0.52058000  1.0
  H  H151  1  0.20970000  0.29457000  0.02058000  1.0
  H  H152  1  0.60569000  0.25106000  0.00798000  1.0
  H  H153  1  0.89433000  0.74894000  0.50799000  1.0
  H  H154  1  0.39431000  0.75106000  0.49202000  1.0
  H  H155  1  0.10568000  0.24894000  0.99202000  1.0
  C  C156  1  0.72130000  0.12394000  0.91448000  1.0
  C  C157  1  0.77873000  0.87606000  0.41448000  1.0
  C  C158  1  0.27872000  0.62394000  0.58552000  1.0
  C  C159  1  0.22128000  0.37606000  0.08552000  1.0
  C  C160  1  0.78518000  0.12082000  0.86900000  1.0
  C  C161  1  0.71483000  0.87918000  0.36899000  1.0
  C  C162  1  0.21483000  0.62083000  0.63101000  1.0
  C  C163  1  0.28517000  0.37918000  0.13100000  1.0
  C  C164  1  0.92847000  0.13951000  0.86271000  1.0
  C  C165  1  0.57155000  0.86049000  0.36272000  1.0
  C  C166  1  0.07154000  0.63951000  0.63729000  1.0
  C  C167  1  0.42847000  0.36049000  0.13728000  1.0
  C  C168  1  0.99104000  0.13264000  0.82162000  1.0
  C  C169  1  0.50897000  0.86735000  0.32162000  1.0
  C  C170  1  0.00895000  0.63264000  0.67838000  1.0
  C  C171  1  0.49105000  0.36736000  0.17838000  1.0
  C  C172  1  0.77893000  0.09200000  0.79246000  1.0
  C  C173  1  0.72107000  0.90800000  0.29245000  1.0
  C  C174  1  0.22108000  0.59200000  0.70755000  1.0
  C  C175  1  0.27893000  0.40800000  0.20755000  1.0
  C  C176  1  0.70838000  0.09790000  0.83266000  1.0
  C  C177  1  0.79163000  0.90210000  0.33266000  1.0
  C  C178  1  0.29164000  0.59790000  0.66734000  1.0
  C  C179  1  0.20837000  0.40210000  0.16734000  1.0
  C  C180  1  0.71127000  0.98189000  0.96676000  1.0
  C  C181  1  0.78876000  0.01811000  0.46676000  1.0
  C  C182  1  0.28873000  0.48189000  0.53324000  1.0
  C  C183  1  0.21125000  0.51811000  0.03324000  1.0
  C  C184  1  0.71644000  0.92497000  0.93673000  1.0
  C  C185  1  0.78355000  0.07503000  0.43673000  1.0
  C  C186  1  0.28354000  0.42497000  0.56327000  1.0
  C  C187  1  0.21642000  0.57503000  0.06327000  1.0
  C  C188  1  0.83726000  0.91616000  0.90986000  1.0
  C  C189  1  0.66275000  0.08385000  0.40986000  1.0
  C  C190  1  0.16273000  0.41615000  0.59014000  1.0
  C  C191  1  0.33723000  0.58385000  0.09014000  1.0
  C  C192  1  0.83597000  0.86691000  0.87932000  1.0
  C  C193  1  0.66403000  0.13309000  0.37932000  1.0
  C  C194  1  0.16402000  0.36690000  0.62068000  1.0
  C  C195  1  0.33595000  0.63309000  0.12068000  1.0
  C  C196  1  0.60927000  0.83362000  0.90234000  1.0
  C  C197  1  0.89073000  0.16639000  0.40234000  1.0
  C  C198  1  0.39073000  0.33361000  0.59767000  1.0
  C  C199  1  0.10925000  0.66639000  0.09766000  1.0
  C  C200  1  0.60037000  0.88277000  0.93285000  1.0
  C  C201  1  0.89964000  0.11723000  0.43285000  1.0
  C  C202  1  0.39963000  0.38277000  0.56715000  1.0
  C  C203  1  0.10035000  0.61723000  0.06715000  1.0
  C  C204  1  0.74907000  0.05785000  0.07288000  1.0
  C  C205  1  0.75094000  0.94214000  0.57288000  1.0
  C  C206  1  0.25093000  0.55786000  0.42712000  1.0
  C  C207  1  0.24906000  0.44215000  0.92712000  1.0
  C  C208  1  0.68211000  0.02239000  0.11082000  1.0
  C  C209  1  0.81788000  0.97761000  0.61082000  1.0
  C  C210  1  0.31788000  0.52239000  0.38918000  1.0
  C  C211  1  0.18211000  0.47761000  0.88918000  1.0
  C  C212  1  0.75110000  0.96913000  0.12911000  1.0
  C  C213  1  0.74889000  0.03086000  0.62911000  1.0
  C  C214  1  0.24889000  0.46913000  0.37088000  1.0
  C  C215  1  0.25111000  0.53087000  0.87089000  1.0
  C  C216  1  0.68487000  0.93585000  0.16306000  1.0
  C  C217  1  0.81512000  0.06414000  0.66306000  1.0
  C  C218  1  0.31512000  0.43585000  0.33694000  1.0
  C  C219  1  0.18488000  0.56415000  0.83694000  1.0
  C  C220  1  0.49062000  0.00567000  0.16301000  1.0
  C  C221  1  0.00937000  0.99433000  0.66301000  1.0
  C  C222  1  0.50937000  0.50567000  0.33699000  1.0
  C  C223  1  0.99063000  0.49433000  0.83700000  1.0
  C  C224  1  0.54933000  0.04082000  0.12862000  1.0
  C  C225  1  0.95067000  0.95919000  0.62861000  1.0
  C  C226  1  0.45066000  0.54081000  0.37139000  1.0
  C  C227  1  0.04933000  0.45919000  0.87139000  1.0
  C  C228  1  0.22507000  0.19823000  0.93751000  1.0
  C  C229  1  0.27493000  0.80177000  0.43751000  1.0
  C  C230  1  0.77494000  0.69823000  0.56249000  1.0
  C  C231  1  0.72507000  0.30177000  0.06249000  1.0
  C  C232  1  0.24369000  0.22265000  0.89157000  1.0
  C  C233  1  0.25632000  0.77735000  0.39157000  1.0
  C  C234  1  0.75632000  0.72265000  0.60843000  1.0
  C  C235  1  0.74368000  0.27735000  0.10843000  1.0
  C  C236  1  0.35875000  0.20046000  0.86601000  1.0
  C  C237  1  0.14125000  0.79953000  0.36601000  1.0
  C  C238  1  0.64125000  0.70047000  0.63399000  1.0
  C  C239  1  0.85874000  0.29953000  0.13399000  1.0
  C  C240  1  0.37188000  0.22270000  0.82322000  1.0
  C  C241  1  0.12813000  0.77730000  0.32322000  1.0
  C  C242  1  0.62811000  0.72270000  0.67678000  1.0
  C  C243  1  0.87187000  0.27729000  0.17678000  1.0
  C  C244  1  0.17375000  0.28951000  0.83138000  1.0
  C  C245  1  0.32625000  0.71048000  0.33138000  1.0
  C  C246  1  0.82625000  0.78952000  0.66862000  1.0
  C  C247  1  0.67375000  0.21048000  0.16862000  1.0
  C  C248  1  0.14972000  0.26834000  0.87405000  1.0
  C  C249  1  0.35028000  0.73165000  0.37405000  1.0
  C  C250  1  0.85027000  0.76835000  0.62595000  1.0
  C  C251  1  0.64971000  0.23166000  0.12595000  1.0
  C  C252  1  0.76889000  0.35132000  0.92815000  1.0
  C  C253  1  0.73111000  0.64869000  0.42815000  1.0
  C  C254  1  0.23111000  0.85132000  0.57185000  1.0
  C  C255  1  0.26888000  0.14869000  0.07185000  1.0
  C  C256  1  0.70829000  0.35179000  0.88231000  1.0
  C  C257  1  0.79172000  0.64822000  0.38231000  1.0
  C  C258  1  0.29173000  0.85178000  0.61769000  1.0
  C  C259  1  0.20827000  0.14823000  0.11769000  1.0
  C  C260  1  0.75812000  0.30979000  0.84979000  1.0
  C  C261  1  0.74188000  0.69022000  0.34979000  1.0
  C  C262  1  0.24189000  0.80979000  0.65021000  1.0
  C  C263  1  0.25811000  0.19022000  0.15021000  1.0
  C  C264  1  0.70362000  0.31460000  0.80733000  1.0
  C  C265  1  0.79639000  0.68541000  0.30733000  1.0
  C  C266  1  0.29640000  0.81459000  0.69267000  1.0
  C  C267  1  0.20361000  0.18541000  0.19267000  1.0
  C  C268  1  0.55779000  0.39980000  0.82686000  1.0
  C  C269  1  0.94221000  0.60021000  0.32686000  1.0
  C  C270  1  0.44223000  0.89979000  0.67314000  1.0
  C  C271  1  0.05779000  0.10021000  0.17314000  1.0
  C  C272  1  0.60525000  0.39735000  0.87013000  1.0
  C  C273  1  0.89475000  0.60265000  0.37012000  1.0
  C  C274  1  0.39476000  0.89735000  0.62987000  1.0
  C  C275  1  0.10525000  0.10266000  0.12987000  1.0
  C  C276  1  0.79182000  0.53596000  0.58291000  1.0
  C  C277  1  0.70817000  0.46404000  0.08292000  1.0
  C  C278  1  0.20820000  0.03595000  0.91709000  1.0
  C  C279  1  0.29183000  0.96404000  0.41708000  1.0
  C  C280  1  0.73096000  0.49667000  0.61995000  1.0
  C  C281  1  0.76904000  0.50332000  0.11995000  1.0
  C  C282  1  0.26906000  0.99667000  0.88005000  1.0
  C  C283  1  0.23098000  0.00333000  0.38005000  1.0
  C  C284  1  0.82012000  0.46456000  0.64987000  1.0
  C  C285  1  0.67987000  0.53543000  0.14987000  1.0
  C  C286  1  0.17989000  0.96456000  0.85013000  1.0
  C  C287  1  0.32014000  0.03544000  0.35013000  1.0
  C  C288  1  0.75799000  0.42664000  0.68228000  1.0
  C  C289  1  0.74200000  0.57335000  0.18228000  1.0
  C  C290  1  0.24202000  0.92664000  0.81772000  1.0
  C  C291  1  0.25800000  0.07336000  0.31772000  1.0
  C  C292  1  0.52791000  0.45233000  0.65853000  1.0
  C  C293  1  0.97209000  0.54766000  0.15853000  1.0
  C  C294  1  0.47210000  0.95233000  0.84147000  1.0
  C  C295  1  0.02792000  0.04767000  0.34147000  1.0
  C  C296  1  0.58184000  0.49036000  0.62496000  1.0
  C  C297  1  0.91815000  0.50963000  0.12497000  1.0
  C  C298  1  0.41817000  0.99036000  0.87503000  1.0
  C  C299  1  0.08186000  0.00964000  0.37504000  1.0
  C  C300  1  0.24333000  0.01427000  0.53780000  1.0
  C  C301  1  0.25665000  0.98573000  0.03780000  1.0
  C  C302  1  0.75664000  0.51427000  0.96220000  1.0
  C  C303  1  0.74333000  0.48573000  0.46220000  1.0
  C  C304  1  0.24733000  0.07187000  0.56714000  1.0
  C  C305  1  0.25268000  0.92813000  0.06715000  1.0
  C  C306  1  0.75266000  0.57187000  0.93286000  1.0
  C  C307  1  0.74732000  0.42813000  0.43285000  1.0
  C  C308  1  0.37965000  0.09870000  0.57914000  1.0
  C  C309  1  0.12035000  0.90129000  0.07915000  1.0
  C  C310  1  0.62034000  0.59871000  0.92086000  1.0
  C  C311  1  0.87964000  0.40129000  0.42086000  1.0
  C  C312  1  0.38081000  0.14882000  0.60894000  1.0
  C  C313  1  0.11920000  0.85117000  0.10895000  1.0
  C  C314  1  0.61919000  0.64883000  0.89106000  1.0
  C  C315  1  0.88080000  0.35117000  0.39106000  1.0
  C  C316  1  0.13085000  0.14933000  0.61303000  1.0
  C  C317  1  0.36917000  0.85067000  0.11303000  1.0
  C  C318  1  0.86916000  0.64933000  0.88698000  1.0
  C  C319  1  0.63083000  0.35067000  0.38697000  1.0
  C  C320  1  0.12068000  0.09812000  0.58425000  1.0
  C  C321  1  0.37933000  0.90188000  0.08426000  1.0
  C  C322  1  0.87932000  0.59812000  0.91575000  1.0
  C  C323  1  0.62066000  0.40188000  0.41574000  1.0
  I  I324  1  0.52402000  0.24262000  0.70536000  1.0
  I  I325  1  0.97597000  0.75738000  0.20536000  1.0
  I  I326  1  0.47599000  0.74261000  0.79464000  1.0
  I  I327  1  0.02401000  0.25738000  0.29464000  1.0
  I  I328  1  0.25191000  0.41641000  0.74179000  1.0
  I  I329  1  0.24810000  0.58359000  0.24178000  1.0
  I  I330  1  0.74810000  0.91641000  0.75821000  1.0
  I  I331  1  0.75191000  0.08359000  0.25822000  1.0
  I  I332  1  0.01565000  0.24795000  0.71093000  1.0
  I  I333  1  0.48434000  0.75203000  0.21093000  1.0
  I  I334  1  0.98435000  0.74795000  0.78907000  1.0
  I  I335  1  0.51566000  0.25204000  0.28907000  1.0
  I  I336  1  0.30343000  0.06575000  0.74346000  1.0
  I  I337  1  0.19658000  0.93425000  0.24346000  1.0
  I  I338  1  0.69658000  0.56574000  0.75654000  1.0
  I  I339  1  0.80342000  0.43425000  0.25654000  1.0
  N  N340  1  0.91913000  0.10816000  0.78682000  1.0
  N  N341  1  0.58087000  0.89183000  0.28682000  1.0
  N  N342  1  0.08087000  0.60817000  0.71318000  1.0
  N  N343  1  0.41914000  0.39183000  0.21317000  1.0
  N  N344  1  0.72426000  0.82593000  0.87560000  1.0
  N  N345  1  0.77573000  0.17408000  0.37560000  1.0
  N  N346  1  0.27573000  0.32592000  0.62440000  1.0
  N  N347  1  0.22425000  0.67408000  0.12440000  1.0
  N  N348  1  0.55555000  0.95329000  0.18006000  1.0
  N  N349  1  0.94444000  0.04670000  0.68006000  1.0
  N  N350  1  0.44443000  0.45330000  0.31993000  1.0
  N  N351  1  0.05557000  0.54671000  0.81994000  1.0
  N  N352  1  0.28092000  0.26632000  0.80594000  1.0
  N  N353  1  0.21909000  0.73368000  0.30593000  1.0
  N  N354  1  0.71908000  0.76632000  0.69406000  1.0
  N  N355  1  0.78091000  0.23368000  0.19406000  1.0
  N  N356  1  0.60502000  0.35914000  0.79543000  1.0
  N  N357  1  0.89498000  0.64087000  0.29543000  1.0
  N  N358  1  0.39499000  0.85913000  0.70457000  1.0
  N  N359  1  0.10501000  0.14087000  0.20457000  1.0
  N  N360  1  0.61338000  0.41999000  0.68681000  1.0
  N  N361  1  0.88661000  0.58000000  0.18681000  1.0
  N  N362  1  0.38664000  0.91999000  0.81319000  1.0
  N  N363  1  0.11339000  0.08001000  0.31319000  1.0
  N  N364  1  0.25865000  0.17387000  0.62587000  1.0
  N  N365  1  0.24135000  0.82613000  0.12587000  1.0
  N  N366  1  0.74135000  0.67387000  0.87413000  1.0
  N  N367  1  0.75864000  0.32613000  0.37413000  1.0
  O  O368  1  0.80650000  0.13593000  0.94648000  1.0
  O  O369  1  0.69353000  0.86407000  0.44648000  1.0
  O  O370  1  0.19351000  0.63592000  0.55352000  1.0
  O  O371  1  0.30648000  0.36407000  0.05352000  1.0
  O  O372  1  0.58710000  0.11434000  0.91897000  1.0
  O  O373  1  0.91292000  0.88566000  0.41897000  1.0
  O  O374  1  0.41291000  0.61434000  0.58103000  1.0
  O  O375  1  0.08709000  0.38567000  0.08103000  1.0
  O  O376  1  0.83164000  0.00472000  0.97834000  1.0
  O  O377  1  0.66833000  0.99527000  0.47834000  1.0
  O  O378  1  0.16832000  0.50472000  0.52166000  1.0
  O  O379  1  0.33163000  0.49527000  0.02166000  1.0
  O  O380  1  0.58789000  0.00342000  0.97689000  1.0
  O  O381  1  0.91209000  0.99659000  0.47688000  1.0
  O  O382  1  0.41207000  0.50341000  0.52312000  1.0
  O  O383  1  0.08787000  0.49659000  0.02312000  1.0
  O  O384  1  0.88015000  0.04688000  0.06423000  1.0
  O  O385  1  0.61984000  0.95312000  0.56422000  1.0
  O  O386  1  0.11983000  0.54688000  0.43577000  1.0
  O  O387  1  0.38016000  0.45312000  0.93577000  1.0
  O  O388  1  0.67027000  0.09780000  0.05173000  1.0
  O  O389  1  0.82973000  0.90220000  0.55173000  1.0
  O  O390  1  0.32971000  0.59780000  0.44827000  1.0
  O  O391  1  0.17028000  0.40221000  0.94828000  1.0
  O  O392  1  0.90053000  0.17874000  0.03762000  1.0
  O  O393  1  0.59947000  0.82126000  0.53762000  1.0
  O  O394  1  0.09946000  0.67874000  0.46238000  1.0
  O  O395  1  0.40053000  0.32126000  0.96238000  1.0
  O  O396  1  0.09865000  0.18500000  0.95094000  1.0
  O  O397  1  0.40137000  0.81499000  0.45094000  1.0
  O  O398  1  0.90137000  0.68501000  0.54906000  1.0
  O  O399  1  0.59865000  0.31499000  0.04906000  1.0
  O  O400  1  0.33864000  0.19494000  0.96085000  1.0
  O  O401  1  0.16137000  0.80506000  0.46085000  1.0
  O  O402  1  0.66138000  0.69494000  0.53915000  1.0
  O  O403  1  0.83864000  0.30506000  0.03915000  1.0
  O  O404  1  0.61318000  0.21026000  0.99211000  1.0
  O  O405  1  0.88683000  0.78974000  0.49211000  1.0
  O  O406  1  0.38681000  0.71026000  0.50789000  1.0
  O  O407  1  0.11318000  0.28974000  0.00789000  1.0
  O  O408  1  0.69312000  0.37338000  0.95964000  1.0
  O  O409  1  0.80687000  0.62662000  0.45964000  1.0
  O  O410  1  0.30688000  0.87338000  0.54036000  1.0
  O  O411  1  0.19314000  0.12662000  0.04036000  1.0
  O  O412  1  0.89805000  0.33260000  0.93375000  1.0
  O  O413  1  0.60195000  0.66741000  0.43375000  1.0
  O  O414  1  0.10195000  0.83260000  0.56625000  1.0
  O  O415  1  0.39804000  0.16741000  0.06625000  1.0
  O  O416  1  0.92814000  0.53954000  0.57931000  1.0
  O  O417  1  0.57185000  0.46046000  0.07931000  1.0
  O  O418  1  0.07189000  0.03954000  0.92069000  1.0
  O  O419  1  0.42816000  0.96047000  0.42069000  1.0
  O  O420  1  0.70482000  0.56347000  0.55654000  1.0
  O  O421  1  0.79516000  0.43652000  0.05654000  1.0
  O  O422  1  0.29520000  0.06347000  0.94346000  1.0
  O  O423  1  0.20485000  0.93652000  0.44346000  1.0
  O  O424  1  0.35640000  0.00293000  0.51564000  1.0
  O  O425  1  0.14361000  0.99706000  0.01565000  1.0
  O  O426  1  0.64358000  0.50294000  0.98436000  1.0
  O  O427  1  0.85639000  0.49707000  0.48436000  1.0
  O  O428  1  0.12812000  0.98161000  0.53856000  1.0
  O  O429  1  0.37188000  0.01840000  0.03857000  1.0
  O  O430  1  0.87187000  0.48161000  0.96144000  1.0
  O  O431  1  0.62811000  0.51839000  0.46144000  1.0
