# generated using pymatgen
data_TmAg3H6C14N2O11
_symmetry_space_group_name_H-M   'P 1'
_cell_length_a   8.14488000
_cell_length_b   13.77090000
_cell_length_c   14.56640000
_cell_angle_alpha   89.99990000
_cell_angle_beta   90.00010000
_cell_angle_gamma   90.00000000
_symmetry_Int_Tables_number   1
_chemical_formula_structural   TmAg3H6C14N2O11
_chemical_formula_sum   'Tm4 Ag12 H24 C56 N8 O44'
_cell_volume   1633.80133446
_cell_formula_units_Z   4
loop_
 _symmetry_equiv_pos_site_id
 _symmetry_equiv_pos_as_xyz
  1  'x, y, z'
loop_
 _atom_site_type_symbol
 _atom_site_label
 _atom_site_symmetry_multiplicity
 _atom_site_fract_x
 _atom_site_fract_y
 _atom_site_fract_z
 _atom_site_occupancy
  Tm  Tm0  1  0.97365000  0.25000000  0.75000000  1.0
  Tm  Tm1  1  0.52635000  0.25000000  0.25000000  1.0
  Tm  Tm2  1  0.02635000  0.75000000  0.25000000  1.0
  Tm  Tm3  1  0.47365000  0.75000000  0.75000000  1.0
  Ag  Ag4  1  0.25000000  0.05691000  0.50000000  1.0
  Ag  Ag5  1  0.25000000  0.44308000  0.00000000  1.0
  Ag  Ag6  1  0.75000000  0.94309000  0.50000000  1.0
  Ag  Ag7  1  0.75000000  0.55691000  0.00000000  1.0
  Ag  Ag8  1  0.55082000  0.17433000  0.51494000  1.0
  Ag  Ag9  1  0.94918000  0.17432000  0.48506000  1.0
  Ag  Ag10  1  0.94918000  0.32567000  0.01494000  1.0
  Ag  Ag11  1  0.55082000  0.32567000  0.98506000  1.0
  Ag  Ag12  1  0.44918000  0.82567000  0.48506000  1.0
  Ag  Ag13  1  0.05082000  0.82567000  0.51494000  1.0
  Ag  Ag14  1  0.05081000  0.67433000  0.98506000  1.0
  Ag  Ag15  1  0.44918000  0.67433000  0.01494000  1.0
  H  H16  1  0.27534000  0.22964000  0.05553000  1.0
  H  H17  1  0.22466000  0.22964000  0.94447000  1.0
  H  H18  1  0.22466000  0.27035000  0.55553000  1.0
  H  H19  1  0.27534000  0.27035000  0.44447000  1.0
  H  H20  1  0.72466000  0.77036000  0.94447000  1.0
  H  H21  1  0.77534000  0.77036000  0.05553000  1.0
  H  H22  1  0.77534000  0.72965000  0.44447000  1.0
  H  H23  1  0.72466000  0.72965000  0.55553000  1.0
  H  H24  1  0.89703000  0.64619000  0.79216000  1.0
  H  H25  1  0.60297000  0.64619000  0.20784000  1.0
  H  H26  1  0.60297000  0.85381000  0.29216000  1.0
  H  H27  1  0.89703000  0.85381000  0.70784000  1.0
  H  H28  1  0.10297000  0.35381000  0.20784000  1.0
  H  H29  1  0.39702000  0.35381000  0.79216000  1.0
  H  H30  1  0.39702000  0.14619000  0.70784000  1.0
  H  H31  1  0.10297000  0.14619000  0.29216000  1.0
  H  H32  1  0.61327000  0.52372000  0.56874000  1.0
  H  H33  1  0.88673000  0.52372000  0.43126000  1.0
  H  H34  1  0.88673000  0.97628000  0.06874000  1.0
  H  H35  1  0.61327000  0.97629000  0.93126000  1.0
  H  H36  1  0.38673000  0.47628000  0.43126000  1.0
  H  H37  1  0.11327000  0.47628000  0.56874000  1.0
  H  H38  1  0.11327000  0.02371000  0.93126000  1.0
  H  H39  1  0.38673000  0.02372000  0.06874000  1.0
  C  C40  1  0.02011000  0.46513000  0.84812000  1.0
  C  C41  1  0.47989000  0.46513000  0.15188000  1.0
  C  C42  1  0.47989000  0.03487000  0.34812000  1.0
  C  C43  1  0.02011000  0.03487000  0.65188000  1.0
  C  C44  1  0.97989000  0.53487000  0.15188000  1.0
  C  C45  1  0.52011000  0.53487000  0.84812000  1.0
  C  C46  1  0.52011000  0.96513000  0.65188000  1.0
  C  C47  1  0.97989000  0.96513000  0.34812000  1.0
  C  C48  1  0.91023000  0.49134000  0.77004000  1.0
  C  C49  1  0.58977000  0.49134000  0.22996000  1.0
  C  C50  1  0.58977000  0.00866000  0.27004000  1.0
  C  C51  1  0.91023000  0.00866000  0.72996000  1.0
  C  C52  1  0.08977000  0.50866000  0.22996000  1.0
  C  C53  1  0.41023000  0.50866000  0.77004000  1.0
  C  C54  1  0.41023000  0.99134000  0.72996000  1.0
  C  C55  1  0.08977000  0.99134000  0.27004000  1.0
  C  C56  1  0.85821000  0.58492000  0.75018000  1.0
  C  C57  1  0.64179000  0.58492000  0.24982000  1.0
  C  C58  1  0.64179000  0.91508000  0.25018000  1.0
  C  C59  1  0.85821000  0.91509000  0.74982000  1.0
  C  C60  1  0.14179000  0.41508000  0.24982000  1.0
  C  C61  1  0.35821000  0.41508000  0.75018000  1.0
  C  C62  1  0.35821000  0.08492000  0.74982000  1.0
  C  C63  1  0.14179000  0.08492000  0.25018000  1.0
  C  C64  1  0.74556000  0.60001000  0.67692000  1.0
  C  C65  1  0.75444000  0.60001000  0.32308000  1.0
  C  C66  1  0.75444000  0.89999000  0.17692000  1.0
  C  C67  1  0.74556000  0.89999000  0.82308000  1.0
  C  C68  1  0.25444000  0.39999000  0.32308000  1.0
  C  C69  1  0.24556000  0.39999000  0.67692000  1.0
  C  C70  1  0.24556000  0.10001000  0.82308000  1.0
  C  C71  1  0.25444000  0.10001000  0.17692000  1.0
  C  C72  1  0.70048000  0.51713000  0.62512000  1.0
  C  C73  1  0.79952000  0.51713000  0.37488000  1.0
  C  C74  1  0.79952000  0.98287000  0.12512000  1.0
  C  C75  1  0.70048000  0.98287000  0.87488000  1.0
  C  C76  1  0.29952000  0.48287000  0.37488000  1.0
  C  C77  1  0.20048000  0.48287000  0.62512000  1.0
  C  C78  1  0.20048000  0.01713000  0.87488000  1.0
  C  C79  1  0.29952000  0.01713000  0.12512000  1.0
  C  C80  1  0.75808000  0.42642000  0.65144000  1.0
  C  C81  1  0.74192000  0.42642000  0.34856000  1.0
  C  C82  1  0.74192000  0.07358000  0.15144000  1.0
  C  C83  1  0.75808000  0.07358000  0.84856000  1.0
  C  C84  1  0.24192000  0.57358000  0.34855000  1.0
  C  C85  1  0.25808000  0.57358000  0.65144000  1.0
  C  C86  1  0.25808000  0.92642000  0.84856000  1.0
  C  C87  1  0.24192000  0.92642000  0.15144000  1.0
  C  C88  1  0.70139000  0.33357000  0.60848000  1.0
  C  C89  1  0.79861000  0.33357000  0.39152000  1.0
  C  C90  1  0.79861000  0.16643000  0.10848000  1.0
  C  C91  1  0.70139000  0.16643000  0.89152000  1.0
  C  C92  1  0.29861000  0.66643000  0.39152000  1.0
  C  C93  1  0.20139000  0.66643000  0.60848000  1.0
  C  C94  1  0.20139000  0.83357000  0.89152000  1.0
  C  C95  1  0.29862000  0.83357000  0.10848000  1.0
  N  N96  1  0.86140000  0.41267000  0.72209000  1.0
  N  N97  1  0.63860000  0.41267000  0.27791000  1.0
  N  N98  1  0.63860000  0.08733000  0.22209000  1.0
  N  N99  1  0.86140000  0.08733000  0.77791000  1.0
  N  N100  1  0.13860000  0.58733000  0.27791000  1.0
  N  N101  1  0.36140000  0.58733000  0.72209000  1.0
  N  N102  1  0.36140000  0.91267000  0.77791000  1.0
  N  N103  1  0.13860000  0.91267000  0.22209000  1.0
  O  O104  1  0.04952000  0.37447000  0.85899000  1.0
  O  O105  1  0.45048000  0.37447000  0.14102000  1.0
  O  O106  1  0.45049000  0.12553000  0.35899000  1.0
  O  O107  1  0.04952000  0.12553000  0.64101000  1.0
  O  O108  1  0.95048000  0.62553000  0.14101000  1.0
  O  O109  1  0.54951000  0.62553000  0.85899000  1.0
  O  O110  1  0.54952000  0.87447000  0.64101000  1.0
  O  O111  1  0.95048000  0.87447000  0.35899000  1.0
  O  O112  1  0.08074000  0.52978000  0.90073000  1.0
  O  O113  1  0.41926000  0.52978000  0.09927000  1.0
  O  O114  1  0.41926000  0.97022000  0.40073000  1.0
  O  O115  1  0.08073000  0.97022000  0.59927000  1.0
  O  O116  1  0.91926000  0.47022000  0.09927000  1.0
  O  O117  1  0.58074000  0.47022000  0.90073000  1.0
  O  O118  1  0.58074000  0.02978000  0.59927000  1.0
  O  O119  1  0.91926000  0.02978000  0.40073000  1.0
  O  O120  1  0.67918000  0.68549000  0.66133000  1.0
  O  O121  1  0.82082000  0.68549000  0.33867000  1.0
  O  O122  1  0.82082000  0.81451000  0.16133000  1.0
  O  O123  1  0.67918000  0.81451000  0.83867000  1.0
  O  O124  1  0.32082000  0.31451000  0.33867000  1.0
  O  O125  1  0.17918000  0.31451000  0.66133000  1.0
  O  O126  1  0.17918000  0.18549000  0.83867000  1.0
  O  O127  1  0.32082000  0.18549000  0.16133000  1.0
  O  O128  1  0.58506000  0.33553000  0.55179000  1.0
  O  O129  1  0.91494000  0.33552000  0.44821000  1.0
  O  O130  1  0.91494000  0.16448000  0.05179000  1.0
  O  O131  1  0.58506000  0.16447000  0.94821000  1.0
  O  O132  1  0.41494000  0.66448000  0.44821000  1.0
  O  O133  1  0.08506000  0.66448000  0.55179000  1.0
  O  O134  1  0.08506000  0.83553000  0.94821000  1.0
  O  O135  1  0.41494000  0.83552000  0.05179000  1.0
  O  O136  1  0.77506000  0.25547000  0.63535000  1.0
  O  O137  1  0.72494000  0.25547000  0.36465000  1.0
  O  O138  1  0.72494000  0.24453000  0.13535000  1.0
  O  O139  1  0.77505000  0.24453000  0.86466000  1.0
  O  O140  1  0.22494000  0.74453000  0.36465000  1.0
  O  O141  1  0.27506000  0.74453000  0.63535000  1.0
  O  O142  1  0.27506000  0.75547000  0.86466000  1.0
  O  O143  1  0.22495000  0.75547000  0.13535000  1.0
  O  O144  1  0.25000000  0.26987000  0.00000000  1.0
  O  O145  1  0.25000000  0.23013000  0.50000000  1.0
  O  O146  1  0.75000000  0.73013000  0.00000000  1.0
  O  O147  1  0.75000000  0.76987000  0.50000000  1.0
