# generated using pymatgen
data_CoH16C12N2(ClO2)2
_symmetry_space_group_name_H-M   'P 1'
_cell_length_a   4.94386000
_cell_length_b   10.39320000
_cell_length_c   14.84440000
_cell_angle_alpha   106.22700000
_cell_angle_beta   89.99930000
_cell_angle_gamma   89.99920000
_symmetry_Int_Tables_number   1
_chemical_formula_structural   CoH16C12N2(ClO2)2
_chemical_formula_sum   'Co2 H32 C24 N4 Cl4 O8'
_cell_volume   732.35670088
_cell_formula_units_Z   2
loop_
 _symmetry_equiv_pos_site_id
 _symmetry_equiv_pos_as_xyz
  1  'x, y, z'
loop_
 _atom_site_type_symbol
 _atom_site_label
 _atom_site_symmetry_multiplicity
 _atom_site_fract_x
 _atom_site_fract_y
 _atom_site_fract_z
 _atom_site_occupancy
  Co  Co0  1  0.50000000  0.50000000  0.00000000  1.0
  Co  Co1  1  0.00000000  0.00000000  0.50000000  1.0
  H  H2  1  0.91703000  0.34030000  0.98808000  1.0
  H  H3  1  0.41702000  0.15971000  0.51192000  1.0
  H  H4  1  0.08297000  0.65970000  0.01192000  1.0
  H  H5  1  0.58299000  0.84029000  0.48808000  1.0
  H  H6  1  0.95110000  0.40690000  0.90835000  1.0
  H  H7  1  0.45107000  0.09312000  0.59166000  1.0
  H  H8  1  0.04890000  0.59310000  0.09165000  1.0
  H  H9  1  0.54893000  0.90688000  0.40834000  1.0
  H  H10  1  0.63044000  0.30516000  0.77697000  1.0
  H  H11  1  0.13044000  0.19484000  0.72302000  1.0
  H  H12  1  0.36956000  0.69484000  0.22303000  1.0
  H  H13  1  0.86957000  0.80516000  0.27698000  1.0
  H  H14  1  0.79179000  0.33569000  0.62212000  1.0
  H  H15  1  0.29177000  0.16430000  0.87787000  1.0
  H  H16  1  0.20822000  0.66431000  0.37788000  1.0
  H  H17  1  0.70823000  0.83569000  0.12213000  1.0
  H  H18  1  0.22091000  0.66165000  0.66270000  1.0
  H  H19  1  0.72091000  0.83836000  0.83730000  1.0
  H  H20  1  0.77909000  0.33836000  0.33730000  1.0
  H  H21  1  0.27908000  0.16164000  0.16269000  1.0
  H  H22  1  0.07735000  0.61267000  0.81463000  1.0
  H  H23  1  0.57733000  0.88733000  0.68537000  1.0
  H  H24  1  0.92265000  0.38733000  0.18537000  1.0
  H  H25  1  0.42267000  0.11266000  0.31463000  1.0
  H  H26  1  0.79716000  0.46952000  0.51550000  1.0
  H  H27  1  0.29716000  0.03048000  0.98449000  1.0
  H  H28  1  0.20284000  0.53048000  0.48450000  1.0
  H  H29  1  0.70284000  0.96952000  0.01551000  1.0
  H  H30  1  0.64625000  0.63178000  0.54738000  1.0
  H  H31  1  0.14624000  0.86822000  0.95261000  1.0
  H  H32  1  0.35375000  0.36822000  0.45262000  1.0
  H  H33  1  0.85375000  0.13178000  0.04739000  1.0
  C  C34  1  0.55107000  0.38083000  0.74630000  1.0
  C  C35  1  0.05103000  0.11918000  0.75371000  1.0
  C  C36  1  0.44894000  0.61917000  0.25370000  1.0
  C  C37  1  0.94896000  0.88082000  0.24629000  1.0
  C  C38  1  0.63798000  0.40197000  0.66310000  1.0
  C  C39  1  0.13797000  0.09803000  0.83690000  1.0
  C  C40  1  0.36203000  0.59803000  0.33690000  1.0
  C  C41  1  0.86203000  0.90197000  0.16310000  1.0
  C  C42  1  0.52198000  0.50332000  0.63021000  1.0
  C  C43  1  0.02199000  0.99667000  0.86978000  1.0
  C  C44  1  0.47802000  0.49668000  0.36979000  1.0
  C  C45  1  0.97801000  0.00333000  0.13022000  1.0
  C  C46  1  0.31720000  0.58105000  0.68506000  1.0
  C  C47  1  0.81720000  0.91895000  0.81494000  1.0
  C  C48  1  0.68280000  0.41895000  0.31494000  1.0
  C  C49  1  0.18280000  0.08105000  0.18506000  1.0
  C  C50  1  0.23474000  0.55750000  0.76808000  1.0
  C  C51  1  0.73471000  0.94252000  0.73193000  1.0
  C  C52  1  0.76526000  0.44250000  0.23192000  1.0
  C  C53  1  0.26529000  0.05748000  0.26807000  1.0
  C  C54  1  0.60861000  0.52460000  0.53849000  1.0
  C  C55  1  0.10861000  0.97540000  0.96151000  1.0
  C  C56  1  0.39139000  0.47540000  0.46151000  1.0
  C  C57  1  0.89138000  0.02460000  0.03849000  1.0
  N  N58  1  0.35139000  0.45750000  0.79685000  1.0
  N  N59  1  0.85136000  0.04252000  0.70315000  1.0
  N  N60  1  0.64861000  0.54250000  0.20315000  1.0
  N  N61  1  0.14864000  0.95748000  0.29685000  1.0
  Cl  Cl62  1  0.29351000  0.32611000  0.06083000  1.0
  Cl  Cl63  1  0.79352000  0.17388000  0.43917000  1.0
  Cl  Cl64  1  0.70649000  0.67389000  0.93917000  1.0
  Cl  Cl65  1  0.20648000  0.82612000  0.56083000  1.0
  O  O66  1  0.80819000  0.36840000  0.94067000  1.0
  O  O67  1  0.30817000  0.13160000  0.55933000  1.0
  O  O68  1  0.19181000  0.63160000  0.05933000  1.0
  O  O69  1  0.69183000  0.86840000  0.44067000  1.0
  O  O70  1  0.27171000  0.43457000  0.87713000  1.0
  O  O71  1  0.77173000  0.06544000  0.62286000  1.0
  O  O72  1  0.72829000  0.56543000  0.12287000  1.0
  O  O73  1  0.22828000  0.93456000  0.37714000  1.0
