# generated using pymatgen
data_CuH3C5N2
_symmetry_space_group_name_H-M   'P 1'
_cell_length_a   16.24410000
_cell_length_b   21.82220000
_cell_length_c   22.81930000
_cell_angle_alpha   89.93020000
_cell_angle_beta   89.27300000
_cell_angle_gamma   89.96560000
_symmetry_Int_Tables_number   1
_chemical_formula_structural   CuH3C5N2
_chemical_formula_sum   'Cu12 H36 C60 N24'
_cell_volume   8088.37253949
_cell_formula_units_Z   12
loop_
 _symmetry_equiv_pos_site_id
 _symmetry_equiv_pos_as_xyz
  1  'x, y, z'
loop_
 _atom_site_type_symbol
 _atom_site_label
 _atom_site_symmetry_multiplicity
 _atom_site_fract_x
 _atom_site_fract_y
 _atom_site_fract_z
 _atom_site_occupancy
  Cu  Cu0  1  0.76608000  0.10980000  0.20390000  1.0
  Cu  Cu1  1  0.79245000  0.13540000  0.07110000  1.0
  Cu  Cu2  1  0.86107000  0.22828000  0.16875000  1.0
  Cu  Cu3  1  0.23576000  0.38728000  0.70085000  1.0
  Cu  Cu4  1  0.21135000  0.36298000  0.56796000  1.0
  Cu  Cu5  1  0.13655000  0.27173000  0.66701000  1.0
  Cu  Cu6  1  0.26568000  0.88825000  0.29842000  1.0
  Cu  Cu7  1  0.29058000  0.86610000  0.43238000  1.0
  Cu  Cu8  1  0.36412000  0.77346000  0.33481000  1.0
  Cu  Cu9  1  0.73128000  0.60860000  0.79712000  1.0
  Cu  Cu10  1  0.71032000  0.63751000  0.92859000  1.0
  Cu  Cu11  1  0.63825000  0.72917000  0.82970000  1.0
  H  H12  1  0.33307000  0.59948000  0.51911000  1.0
  H  H13  1  0.50565000  0.73042000  0.58672000  1.0
  H  H14  1  0.48342000  0.55231000  0.66659000  1.0
  H  H15  1  0.66705000  0.90262000  0.01697000  1.0
  H  H16  1  0.49103000  0.77090000  0.08201000  1.0
  H  H17  1  0.51972000  0.94340000  0.17041000  1.0
  H  H18  1  0.83235000  0.40204000  0.98227000  1.0
  H  H19  1  0.00880000  0.27096000  0.91654000  1.0
  H  H20  1  0.98330000  0.44588000  0.83141000  1.0
  H  H21  1  0.01765000  0.05528000  0.33097000  1.0
  H  H22  1  0.98907000  0.23009000  0.41595000  1.0
  H  H23  1  0.16480000  0.09969000  0.48081000  1.0
  H  H24  1  0.63117000  0.00504000  0.20082000  1.0
  H  H25  1  0.70062000  0.01696000  0.01722000  1.0
  H  H26  1  0.97363000  0.24816000  0.28143000  1.0
  H  H27  1  0.85113000  0.07715000  0.32298000  1.0
  H  H28  1  0.86267000  0.20126000  0.95720000  1.0
  H  H29  1  0.90177000  0.34287000  0.08650000  1.0
  H  H30  1  0.36943000  0.49146000  0.69795000  1.0
  H  H31  1  0.30693000  0.48145000  0.51421000  1.0
  H  H32  1  0.02330000  0.25297000  0.78173000  1.0
  H  H33  1  0.15107000  0.42165000  0.82130000  1.0
  H  H34  1  0.14031000  0.29870000  0.45504000  1.0
  H  H35  1  0.09032000  0.15900000  0.58543000  1.0
  H  H36  1  0.12990000  0.99169000  0.30065000  1.0
  H  H37  1  0.19772000  0.98624000  0.48359000  1.0
  H  H38  1  0.48025000  0.75347000  0.22138000  1.0
  H  H39  1  0.34888000  0.91932000  0.17656000  1.0
  H  H40  1  0.35710000  0.80014000  0.54697000  1.0
  H  H41  1  0.40580000  0.66042000  0.41664000  1.0
  H  H42  1  0.86461000  0.50273000  0.79941000  1.0
  H  H43  1  0.80704000  0.52124000  0.98446000  1.0
  H  H44  1  0.52876000  0.74925000  0.71521000  1.0
  H  H45  1  0.64218000  0.57315000  0.68078000  1.0
  H  H46  1  0.63982000  0.70314000  0.04136000  1.0
  H  H47  1  0.59463000  0.84356000  0.91159000  1.0
  C  C48  1  0.40406000  0.56807000  0.59292000  1.0
  C  C49  1  0.38212000  0.61049000  0.54956000  1.0
  C  C50  1  0.41805000  0.66895000  0.54715000  1.0
  C  C51  1  0.47690000  0.68527000  0.58891000  1.0
  C  C52  1  0.50137000  0.64301000  0.63169000  1.0
  C  C53  1  0.46519000  0.58470000  0.63268000  1.0
  C  C54  1  0.59796000  0.93090000  0.09405000  1.0
  C  C55  1  0.61796000  0.89073000  0.04801000  1.0
  C  C56  1  0.58019000  0.83315000  0.04351000  1.0
  C  C57  1  0.52108000  0.81542000  0.08574000  1.0
  C  C58  1  0.49853000  0.85547000  0.13120000  1.0
  C  C59  1  0.53671000  0.91295000  0.13437000  1.0
  C  C60  1  0.90352000  0.43174000  0.90666000  1.0
  C  C61  1  0.88213000  0.39060000  0.95166000  1.0
  C  C62  1  0.91939000  0.33271000  0.95542000  1.0
  C  C63  1  0.97911000  0.31571000  0.91340000  1.0
  C  C64  1  0.00294000  0.35670000  0.86896000  1.0
  C  C65  1  0.96545000  0.41452000  0.86660000  1.0
  C  C66  1  0.09572000  0.06957000  0.40570000  1.0
  C  C67  1  0.03458000  0.08661000  0.36603000  1.0
  C  C68  1  0.99649000  0.14426000  0.36858000  1.0
  C  C69  1  0.01914000  0.18546000  0.41269000  1.0
  C  C70  1  0.07820000  0.16868000  0.45423000  1.0
  C  C71  1  0.11580000  0.11091000  0.45036000  1.0
  C  C72  1  0.65511000  0.01700000  0.15769000  1.0
  C  C73  1  0.64399000  0.98754000  0.10366000  1.0
  C  C74  1  0.69159000  0.02245000  0.06411000  1.0
  C  C75  1  0.93397000  0.20823000  0.28415000  1.0
  C  C76  1  0.93584000  0.15877000  0.32342000  1.0
  C  C77  1  0.87233000  0.12032000  0.30456000  1.0
  C  C78  1  0.86900000  0.22882000  0.99645000  1.0
  C  C79  1  0.89398000  0.29002000  0.00205000  1.0
  C  C80  1  0.88715000  0.30154000  0.06236000  1.0
  C  C81  1  0.34740000  0.47979000  0.65468000  1.0
  C  C82  1  0.35962000  0.51029000  0.60106000  1.0
  C  C83  1  0.31424000  0.47541000  0.56107000  1.0
  C  C84  1  0.06427000  0.29214000  0.78379000  1.0
  C  C85  1  0.06376000  0.34153000  0.82306000  1.0
  C  C86  1  0.12860000  0.37888000  0.80326000  1.0
  C  C87  1  0.13146000  0.27158000  0.49451000  1.0
  C  C88  1  0.10312000  0.21121000  0.50060000  1.0
  C  C89  1  0.10772000  0.19978000  0.56096000  1.0
  C  C90  1  0.15343000  0.98127000  0.34384000  1.0
  C  C91  1  0.14173000  0.01257000  0.39704000  1.0
  C  C92  1  0.18914000  0.97908000  0.43702000  1.0
  C  C93  1  0.43838000  0.79206000  0.21803000  1.0
  C  C94  1  0.43784000  0.84022000  0.17728000  1.0
  C  C95  1  0.37212000  0.87736000  0.19590000  1.0
  C  C96  1  0.36591000  0.77305000  0.50752000  1.0
  C  C97  1  0.39290000  0.71230000  0.50145000  1.0
  C  C98  1  0.38892000  0.70130000  0.44103000  1.0
  C  C99  1  0.84360000  0.51641000  0.84280000  1.0
  C  C100  1  0.85771000  0.48860000  0.89730000  1.0
  C  C101  1  0.81296000  0.52508000  0.93717000  1.0
  C  C102  1  0.56616000  0.70804000  0.71423000  1.0
  C  C103  1  0.56187000  0.65719000  0.67686000  1.0
  C  C104  1  0.62315000  0.61761000  0.69743000  1.0
  C  C105  1  0.63212000  0.73040000  0.00199000  1.0
  C  C106  1  0.60522000  0.79113000  0.99630000  1.0
  C  C107  1  0.61083000  0.80258000  0.93588000  1.0
  N  N108  1  0.72821000  0.06903000  0.09262000  1.0
  N  N109  1  0.70578000  0.06539000  0.15081000  1.0
  N  N110  1  0.83550000  0.14501000  0.25742000  1.0
  N  N111  1  0.87416000  0.19941000  0.24431000  1.0
  N  N112  1  0.86048000  0.25074000  0.09065000  1.0
  N  N113  1  0.84844000  0.20571000  0.04956000  1.0
  N  N114  1  0.27763000  0.42794000  0.58905000  1.0
  N  N115  1  0.29804000  0.43091000  0.64725000  1.0
  N  N116  1  0.16492000  0.35360000  0.75560000  1.0
  N  N117  1  0.12458000  0.29997000  0.74306000  1.0
  N  N118  1  0.13638000  0.24986000  0.58881000  1.0
  N  N119  1  0.15189000  0.29432000  0.54740000  1.0
  N  N120  1  0.22621000  0.93159000  0.40952000  1.0
  N  N121  1  0.20426000  0.93319000  0.35155000  1.0
  N  N122  1  0.33622000  0.85315000  0.24426000  1.0
  N  N123  1  0.37772000  0.80041000  0.25842000  1.0
  N  N124  1  0.36198000  0.75192000  0.41309000  1.0
  N  N125  1  0.34692000  0.79639000  0.45449000  1.0
  N  N126  1  0.77507000  0.57099000  0.90835000  1.0
  N  N127  1  0.79386000  0.56533000  0.84971000  1.0
  N  N128  1  0.66092000  0.64297000  0.74374000  1.0
  N  N129  1  0.62512000  0.69894000  0.75467000  1.0
  N  N130  1  0.63873000  0.75211000  0.90765000  1.0
  N  N131  1  0.65269000  0.70744000  0.94888000  1.0
