# generated using pymatgen
data_ZnH15C21NO6
_symmetry_space_group_name_H-M   'P 1'
_cell_length_a   13.26020000
_cell_length_b   16.39320000
_cell_length_c   17.82570000
_cell_angle_alpha   94.84410000
_cell_angle_beta   90.18890000
_cell_angle_gamma   92.13270000
_symmetry_Int_Tables_number   1
_chemical_formula_structural   ZnH15C21NO6
_chemical_formula_sum   'Zn2 H30 C42 N2 O12'
_cell_volume   3858.30346249
_cell_formula_units_Z   2
loop_
 _symmetry_equiv_pos_site_id
 _symmetry_equiv_pos_as_xyz
  1  'x, y, z'
loop_
 _atom_site_type_symbol
 _atom_site_label
 _atom_site_symmetry_multiplicity
 _atom_site_fract_x
 _atom_site_fract_y
 _atom_site_fract_z
 _atom_site_occupancy
  Zn  Zn0  1  0.50627000  0.41553000  0.49801000  1.0
  Zn  Zn1  1  0.49373000  0.58447000  0.50195000  1.0
  H  H2  1  0.39020000  0.71574000  0.42331000  1.0
  H  H3  1  0.39823000  0.86705000  0.42593000  1.0
  H  H4  1  0.63296000  0.86390000  0.59717000  1.0
  H  H5  1  0.61219000  0.71547000  0.58623000  1.0
  H  H6  1  0.36706000  0.13609000  0.40282000  1.0
  H  H7  1  0.60173000  0.13295000  0.57410000  1.0
  H  H8  1  0.60977000  0.28427000  0.57671000  1.0
  H  H9  1  0.38783000  0.28451000  0.41374000  1.0
  H  H10  1  0.50103000  0.61571000  0.26251000  1.0
  H  H11  1  0.50204000  0.60997000  0.12419000  1.0
  H  H12  1  0.49607000  0.34429000  0.11813000  1.0
  H  H13  1  0.49594000  0.35378000  0.25367000  1.0
  H  H14  1  0.50394000  0.65572000  0.88182000  1.0
  H  H15  1  0.49808000  0.39004000  0.87577000  1.0
  H  H16  1  0.49906000  0.38429000  0.73746000  1.0
  H  H17  1  0.50401000  0.64622000  0.74628000  1.0
  H  H18  1  0.83099000  0.39191000  0.49622000  1.0
  H  H19  1  0.80914000  0.65122000  0.50493000  1.0
  H  H20  1  0.16901000  0.60809000  0.50354000  1.0
  H  H21  1  0.19086000  0.34880000  0.49513000  1.0
  H  H22  1  0.62756000  0.96396000  0.59601000  1.0
  H  H23  1  0.37241000  0.03604000  0.40401000  1.0
  H  H24  1  0.49293000  0.35269000  0.02988000  1.0
  H  H25  1  0.50713000  0.64732000  0.97008000  1.0
  H  H26  1  0.01972000  0.26691000  0.44206000  1.0
  H  H27  1  0.91270000  0.29871000  0.49399000  1.0
  H  H28  1  0.02232000  0.27180000  0.54160000  1.0
  H  H29  1  0.97885000  0.72778000  0.45762000  1.0
  H  H30  1  0.08732000  0.70133000  0.50689000  1.0
  H  H31  1  0.97912000  0.73344000  0.55718000  1.0
  C  C32  1  0.49779000  0.48973000  0.35178000  1.0
  C  C33  1  0.30169000  0.48997000  0.49906000  1.0
  C  C34  1  0.50221000  0.51026000  0.64818000  1.0
  C  C35  1  0.69831000  0.51004000  0.50088000  1.0
  C  C36  1  0.44229000  0.75234000  0.46115000  1.0
  C  C37  1  0.44727000  0.83719000  0.46286000  1.0
  C  C38  1  0.51560000  0.88336000  0.51226000  1.0
  C  C39  1  0.57606000  0.83692000  0.55705000  1.0
  C  C40  1  0.56619000  0.75214000  0.55212000  1.0
  C  C41  1  0.52658000  0.97306000  0.51963000  1.0
  C  C42  1  0.47341000  0.02694000  0.48039000  1.0
  C  C43  1  0.42394000  0.16307000  0.44294000  1.0
  C  C44  1  0.48439000  0.11664000  0.48775000  1.0
  C  C45  1  0.55271000  0.16282000  0.53715000  1.0
  C  C46  1  0.55769000  0.24767000  0.53886000  1.0
  C  C47  1  0.43381000  0.24786000  0.44787000  1.0
  C  C48  1  0.49766000  0.48534000  0.26761000  1.0
  C  C49  1  0.49956000  0.55665000  0.22943000  1.0
  C  C50  1  0.50017000  0.55328000  0.15132000  1.0
  C  C51  1  0.49854000  0.47743000  0.10670000  1.0
  C  C52  1  0.49672000  0.40613000  0.14665000  1.0
  C  C53  1  0.49650000  0.40976000  0.22476000  1.0
  C  C54  1  0.49864000  0.46902000  0.02402000  1.0
  C  C55  1  0.50142000  0.53100000  0.97594000  1.0
  C  C56  1  0.50331000  0.59388000  0.85330000  1.0
  C  C57  1  0.50153000  0.52258000  0.89326000  1.0
  C  C58  1  0.49992000  0.44673000  0.84865000  1.0
  C  C59  1  0.50051000  0.44336000  0.77053000  1.0
  C  C60  1  0.50236000  0.51466000  0.73235000  1.0
  C  C61  1  0.50349000  0.59024000  0.77519000  1.0
  C  C62  1  0.86982000  0.45167000  0.49843000  1.0
  C  C63  1  0.85777000  0.59888000  0.50349000  1.0
  C  C64  1  0.96147000  0.61068000  0.50378000  1.0
  C  C65  1  0.02358000  0.54065000  0.50132000  1.0
  C  C66  1  0.13017000  0.54833000  0.50140000  1.0
  C  C67  1  0.14223000  0.40112000  0.49648000  1.0
  C  C68  1  0.03853000  0.38932000  0.49613000  1.0
  C  C69  1  0.97642000  0.45936000  0.49853000  1.0
  C  C70  1  0.81115000  0.51980000  0.50094000  1.0
  C  C71  1  0.18884000  0.48021000  0.49897000  1.0
  C  C72  1  0.99518000  0.30262000  0.49334000  1.0
  C  C73  1  0.00482000  0.69738000  0.50648000  1.0
  N  N74  1  0.50002000  0.71005000  0.50507000  1.0
  N  N75  1  0.49998000  0.28995000  0.49492000  1.0
  O  O76  1  0.50204000  0.42234000  0.38238000  1.0
  O  O77  1  0.49388000  0.56078000  0.38657000  1.0
  O  O78  1  0.34031000  0.56260000  0.50145000  1.0
  O  O79  1  0.35086000  0.42447000  0.49678000  1.0
  O  O80  1  0.49783000  0.57766000  0.61758000  1.0
  O  O81  1  0.50624000  0.43925000  0.61339000  1.0
  O  O82  1  0.65968000  0.43743000  0.49837000  1.0
  O  O83  1  0.64915000  0.57558000  0.50330000  1.0
  O  O84  1  0.59680000  0.00730000  0.57091000  1.0
  O  O85  1  0.40320000  0.99271000  0.42910000  1.0
  O  O86  1  0.49572000  0.39002000  0.99030000  1.0
  O  O87  1  0.50434000  0.61000000  0.00967000  1.0
