# generated using pymatgen
data_AlH24C21(N5O2)3
_symmetry_space_group_name_H-M   'P 1'
_cell_length_a   3.85200000
_cell_length_b   28.16590000
_cell_length_c   28.16590000
_cell_angle_alpha   60.00000000
_cell_angle_beta   89.99940000
_cell_angle_gamma   89.99970000
_symmetry_Int_Tables_number   1
_chemical_formula_structural   AlH24C21(N5O2)3
_chemical_formula_sum   'Al2 H48 C42 N30 O12'
_cell_volume   2646.45294336
_cell_formula_units_Z   2
loop_
 _symmetry_equiv_pos_site_id
 _symmetry_equiv_pos_as_xyz
  1  'x, y, z'
loop_
 _atom_site_type_symbol
 _atom_site_label
 _atom_site_symmetry_multiplicity
 _atom_site_fract_x
 _atom_site_fract_y
 _atom_site_fract_z
 _atom_site_occupancy
  Al  Al0  1  0.96027000  1.00000000  0.50000000  1.0
  Al  Al1  1  0.96026000  0.66666000  0.16667000  1.0
  H  H2  1  0.74828000  0.56399000  0.13340000  1.0
  H  H3  1  0.71777000  0.50529000  0.12934000  1.0
  H  H4  1  0.80646000  0.37111000  0.22861000  1.0
  H  H5  1  0.00855000  0.42921000  0.18382000  1.0
  H  H6  1  0.18237000  0.55235000  0.29541000  1.0
  H  H7  1  0.26386000  0.49229000  0.35550000  1.0
  H  H8  1  0.29731000  0.36063000  0.38509000  1.0
  H  H9  1  0.02925000  0.41413000  0.37424000  1.0
  H  H10  1  0.80646000  0.29556000  0.43806000  1.0
  H  H11  1  0.00855000  0.23747000  0.48284000  1.0
  H  H12  1  0.74830000  0.10268000  0.53327000  1.0
  H  H13  1  0.71776000  0.16137000  0.53733000  1.0
  H  H14  1  0.29733000  0.30604000  0.28158000  1.0
  H  H15  1  0.02929000  0.25255000  0.29242000  1.0
  H  H16  1  0.18242000  0.11432000  0.37126000  1.0
  H  H17  1  0.26392000  0.17437000  0.31117000  1.0
  H  H18  1  0.74826000  0.63340000  0.30261000  1.0
  H  H19  1  0.71772000  0.62933000  0.36537000  1.0
  H  H20  1  0.80645000  0.72861000  0.40028000  1.0
  H  H21  1  0.00852000  0.68382000  0.38698000  1.0
  H  H22  1  0.18239000  0.79541000  0.15224000  1.0
  H  H23  1  0.26391000  0.85550000  0.15221000  1.0
  H  H24  1  0.29734000  0.88509000  0.25428000  1.0
  H  H25  1  0.02929000  0.87425000  0.21163000  1.0
  H  H26  1  0.80647000  0.93806000  0.26638000  1.0
  H  H27  1  0.00855000  0.98285000  0.27968000  1.0
  H  H28  1  0.74829000  0.03328000  0.36405000  1.0
  H  H29  1  0.71774000  0.03733000  0.30130000  1.0
  H  H30  1  0.29734000  0.78158000  0.41238000  1.0
  H  H31  1  0.02930000  0.79243000  0.45503000  1.0
  H  H32  1  0.18241000  0.87126000  0.51442000  1.0
  H  H33  1  0.26394000  0.81116000  0.51446000  1.0
  H  H34  1  0.74828000  0.80261000  0.06399000  1.0
  H  H35  1  0.71773000  0.86537000  0.00530000  1.0
  H  H36  1  0.80644000  0.90028000  0.87111000  1.0
  H  H37  1  0.00853000  0.88698000  0.92920000  1.0
  H  H38  1  0.18239000  0.65224000  0.05235000  1.0
  H  H39  1  0.26391000  0.65221000  0.99229000  1.0
  H  H40  1  0.29734000  0.75428000  0.86063000  1.0
  H  H41  1  0.02929000  0.71164000  0.91412000  1.0
  H  H42  1  0.80645000  0.76638000  0.79556000  1.0
  H  H43  1  0.00853000  0.77969000  0.73747000  1.0
  H  H44  1  0.74828000  0.86405000  0.60268000  1.0
  H  H45  1  0.71774000  0.80130000  0.66137000  1.0
  H  H46  1  0.29733000  0.91238000  0.80604000  1.0
  H  H47  1  0.02928000  0.95503000  0.75255000  1.0
  H  H48  1  0.18241000  0.01443000  0.61432000  1.0
  H  H49  1  0.26392000  0.01446000  0.67438000  1.0
  C  C50  1  0.46374000  0.95168000  0.58600000  1.0
  C  C51  1  0.46373000  0.08600000  0.46232000  1.0
  C  C52  1  0.46373000  0.96232000  0.45168000  1.0
  C  C53  1  0.46372000  0.58067000  0.20435000  1.0
  C  C54  1  0.46372000  0.70435000  0.21498000  1.0
  C  C55  1  0.46372000  0.71498000  0.08067000  1.0
  C  C56  1  0.48082000  0.52082000  0.23215000  1.0
  C  C57  1  0.34958000  0.48876000  0.28639000  1.0
  C  C58  1  0.38340000  0.43113000  0.31437000  1.0
  C  C59  1  0.52685000  0.40518000  0.28664000  1.0
  C  C60  1  0.64894000  0.43731000  0.23190000  1.0
  C  C61  1  0.63537000  0.49455000  0.20516000  1.0
  C  C62  1  0.64894000  0.22936000  0.43477000  1.0
  C  C63  1  0.52684000  0.26149000  0.38003000  1.0
  C  C64  1  0.38341000  0.23554000  0.35230000  1.0
  C  C65  1  0.34958000  0.17791000  0.38028000  1.0
  C  C66  1  0.48083000  0.14585000  0.43452000  1.0
  C  C67  1  0.63535000  0.17212000  0.46151000  1.0
  C  C68  1  0.48082000  0.73215000  0.24703000  1.0
  C  C69  1  0.34957000  0.78639000  0.22485000  1.0
  C  C70  1  0.38340000  0.81437000  0.25450000  1.0
  C  C71  1  0.52684000  0.78664000  0.30818000  1.0
  C  C72  1  0.64892000  0.73190000  0.33080000  1.0
  C  C73  1  0.63534000  0.70516000  0.30029000  1.0
  C  C74  1  0.64896000  0.93478000  0.33586000  1.0
  C  C75  1  0.52685000  0.88003000  0.35848000  1.0
  C  C76  1  0.38341000  0.85230000  0.41216000  1.0
  C  C77  1  0.34959000  0.88028000  0.44181000  1.0
  C  C78  1  0.48084000  0.93452000  0.41963000  1.0
  C  C79  1  0.63536000  0.96151000  0.36637000  1.0
  C  C80  1  0.48083000  0.74703000  0.02082000  1.0
  C  C81  1  0.34958000  0.72485000  0.98876000  1.0
  C  C82  1  0.38341000  0.75450000  0.93113000  1.0
  C  C83  1  0.52685000  0.80818000  0.90518000  1.0
  C  C84  1  0.64894000  0.83080000  0.93730000  1.0
  C  C85  1  0.63536000  0.80030000  0.99455000  1.0
  C  C86  1  0.64893000  0.83587000  0.72936000  1.0
  C  C87  1  0.52684000  0.85849000  0.76149000  1.0
  C  C88  1  0.38340000  0.91216000  0.73554000  1.0
  C  C89  1  0.34958000  0.94181000  0.67791000  1.0
  C  C90  1  0.48082000  0.91964000  0.64585000  1.0
  C  C91  1  0.63536000  0.86637000  0.67212000  1.0
  N  N92  1  0.54150000  0.34916000  0.30704000  1.0
  N  N93  1  0.54150000  0.31752000  0.35962000  1.0
  N  N94  1  0.54150000  0.80705000  0.34380000  1.0
  N  N95  1  0.54151000  0.85963000  0.32286000  1.0
  N  N96  1  0.54151000  0.84381000  0.84915000  1.0
  N  N97  1  0.54150000  0.82287000  0.81751000  1.0
  N  N98  1  0.77582000  0.52261000  0.15257000  1.0
  N  N99  1  0.77951000  0.41226000  0.20321000  1.0
  N  N100  1  0.19097000  0.51071000  0.31544000  1.0
  N  N101  1  0.26847000  0.40203000  0.36857000  1.0
  N  N102  1  0.77950000  0.25441000  0.46346000  1.0
  N  N103  1  0.77582000  0.14406000  0.51410000  1.0
  N  N104  1  0.26849000  0.26463000  0.29810000  1.0
  N  N105  1  0.19100000  0.15596000  0.35122000  1.0
  N  N106  1  0.77578000  0.65257000  0.32482000  1.0
  N  N107  1  0.77948000  0.70321000  0.38453000  1.0
  N  N108  1  0.19099000  0.81544000  0.17385000  1.0
  N  N109  1  0.26849000  0.86858000  0.22939000  1.0
  N  N110  1  0.77951000  0.96346000  0.28213000  1.0
  N  N111  1  0.77583000  0.01410000  0.34184000  1.0
  N  N112  1  0.26850000  0.79810000  0.43727000  1.0
  N  N113  1  0.19100000  0.85123000  0.49281000  1.0
  N  N114  1  0.77581000  0.82482000  0.02261000  1.0
  N  N115  1  0.77949000  0.88453000  0.91226000  1.0
  N  N116  1  0.19099000  0.67385000  0.01070000  1.0
  N  N117  1  0.26849000  0.72940000  0.90203000  1.0
  N  N118  1  0.77950000  0.78213000  0.75441000  1.0
  N  N119  1  0.77580000  0.84184000  0.64406000  1.0
  N  N120  1  0.26849000  0.93728000  0.76463000  1.0
  N  N121  1  0.19100000  0.99282000  0.65596000  1.0
  O  O122  1  0.69011000  0.99959000  0.44301000  1.0
  O  O123  1  0.69010000  0.94301000  0.55740000  1.0
  O  O124  1  0.69010000  0.05740000  0.49959000  1.0
  O  O125  1  0.22435000  0.94899000  0.48819000  1.0
  O  O126  1  0.22435000  0.06281000  0.44900000  1.0
  O  O127  1  0.22434000  0.98819000  0.56281000  1.0
  O  O128  1  0.69008000  0.72366000  0.10927000  1.0
  O  O129  1  0.69008000  0.60927000  0.16707000  1.0
  O  O130  1  0.69007000  0.66707000  0.22366000  1.0
  O  O131  1  0.22434000  0.67848000  0.10385000  1.0
  O  O132  1  0.22433000  0.71767000  0.17848000  1.0
  O  O133  1  0.22433000  0.60385000  0.21767000  1.0
