# generated using pymatgen
data_Zn4H32C33N2O15
_symmetry_space_group_name_H-M   'P 1'
_cell_length_a   16.19340000
_cell_length_b   17.16220000
_cell_length_c   18.02060000
_cell_angle_alpha   90.00000000
_cell_angle_beta   90.00000000
_cell_angle_gamma   90.00000000
_symmetry_Int_Tables_number   1
_chemical_formula_structural   Zn4H32C33N2O15
_chemical_formula_sum   'Zn16 H128 C132 N8 O60'
_cell_volume   5008.18368665
_cell_formula_units_Z   4
loop_
 _symmetry_equiv_pos_site_id
 _symmetry_equiv_pos_as_xyz
  1  'x, y, z'
loop_
 _atom_site_type_symbol
 _atom_site_label
 _atom_site_symmetry_multiplicity
 _atom_site_fract_x
 _atom_site_fract_y
 _atom_site_fract_z
 _atom_site_occupancy
  Zn  Zn0  1  0.72050000  0.24677000  0.23793000  1.0
  Zn  Zn1  1  0.77950000  0.75323000  0.73793000  1.0
  Zn  Zn2  1  0.27950000  0.74677000  0.26207000  1.0
  Zn  Zn3  1  0.22050000  0.25322000  0.76207000  1.0
  Zn  Zn4  1  0.77703000  0.85814000  0.87869000  1.0
  Zn  Zn5  1  0.72297000  0.14186000  0.37869000  1.0
  Zn  Zn6  1  0.22297000  0.35814000  0.62131000  1.0
  Zn  Zn7  1  0.27703000  0.64186000  0.12132000  1.0
  Zn  Zn8  1  0.11370000  0.73216000  0.17860000  1.0
  Zn  Zn9  1  0.38630000  0.26784000  0.67860000  1.0
  Zn  Zn10  1  0.88630000  0.23216000  0.32140000  1.0
  Zn  Zn11  1  0.61370000  0.76784000  0.82140000  1.0
  Zn  Zn12  1  0.68873000  0.91969000  0.72675000  1.0
  Zn  Zn13  1  0.81127000  0.08031000  0.22675000  1.0
  Zn  Zn14  1  0.31127000  0.41969000  0.77326000  1.0
  Zn  Zn15  1  0.18873000  0.58031000  0.27325000  1.0
  H  H16  1  0.78346000  0.06554000  0.00399000  1.0
  H  H17  1  0.71655000  0.93446000  0.50399000  1.0
  H  H18  1  0.21655000  0.56553000  0.49601000  1.0
  H  H19  1  0.28345000  0.43446000  0.99601000  1.0
  H  H20  1  0.63800000  0.27430000  0.01900000  1.0
  H  H21  1  0.86200000  0.72570000  0.51901000  1.0
  H  H22  1  0.36200000  0.77430000  0.48099000  1.0
  H  H23  1  0.13800000  0.22570000  0.98099000  1.0
  H  H24  1  0.61566000  0.12404000  0.82793000  1.0
  H  H25  1  0.88434000  0.87596000  0.32793000  1.0
  H  H26  1  0.38434000  0.62404000  0.67207000  1.0
  H  H27  1  0.11565000  0.37596000  0.17207000  1.0
  H  H28  1  0.53520000  0.24230000  0.83147000  1.0
  H  H29  1  0.96480000  0.75770000  0.33147000  1.0
  H  H30  1  0.46480000  0.74230000  0.66853000  1.0
  H  H31  1  0.03520000  0.25770000  0.16853000  1.0
  H  H32  1  0.58162000  0.32099000  0.88002000  1.0
  H  H33  1  0.91838000  0.67901000  0.38002000  1.0
  H  H34  1  0.41838000  0.82099000  0.61998000  1.0
  H  H35  1  0.08162000  0.17901000  0.11998000  1.0
  H  H36  1  0.50188000  0.26657000  0.92239000  1.0
  H  H37  1  0.99812000  0.73343000  0.42239000  1.0
  H  H38  1  0.49812000  0.76657000  0.57761000  1.0
  H  H39  1  0.00188000  0.23343000  0.07761000  1.0
  H  H40  1  0.96870000  0.47074000  0.26784000  1.0
  H  H41  1  0.53130000  0.52926000  0.76784000  1.0
  H  H42  1  0.03130000  0.97074000  0.23216000  1.0
  H  H43  1  0.46870000  0.02926000  0.73216000  1.0
  H  H44  1  0.70432000  0.48255000  0.24979000  1.0
  H  H45  1  0.79568000  0.51745000  0.74979000  1.0
  H  H46  1  0.29568000  0.98255000  0.25021000  1.0
  H  H47  1  0.20432000  0.01745000  0.75021000  1.0
  H  H48  1  0.85146000  0.68948000  0.21860000  1.0
  H  H49  1  0.64854000  0.31052000  0.71860000  1.0
  H  H50  1  0.14854000  0.18948000  0.28140000  1.0
  H  H51  1  0.35146000  0.81052000  0.78140000  1.0
  H  H52  1  0.63496000  0.60183000  0.22652000  1.0
  H  H53  1  0.86504000  0.39817000  0.72651000  1.0
  H  H54  1  0.36504000  0.10183000  0.27349000  1.0
  H  H55  1  0.13496000  0.89817000  0.77349000  1.0
  H  H56  1  0.68959000  0.66978000  0.17078000  1.0
  H  H57  1  0.81041000  0.33022000  0.67078000  1.0
  H  H58  1  0.31041000  0.16978000  0.32923000  1.0
  H  H59  1  0.18959000  0.83022000  0.82922000  1.0
  H  H60  1  0.68381000  0.68388000  0.26761000  1.0
  H  H61  1  0.81619000  0.31612000  0.76761000  1.0
  H  H62  1  0.31619000  0.18388000  0.23239000  1.0
  H  H63  1  0.18381000  0.81612000  0.73239000  1.0
  H  H64  1  0.47338000  0.29861000  0.24258000  1.0
  H  H65  1  0.02662000  0.70139000  0.74258000  1.0
  H  H66  1  0.52662000  0.79861000  0.25742000  1.0
  H  H67  1  0.97338000  0.20139000  0.75742000  1.0
  H  H68  1  0.27571000  0.34806000  0.39580000  1.0
  H  H69  1  0.22429000  0.65194000  0.89580000  1.0
  H  H70  1  0.72429000  0.84806000  0.10420000  1.0
  H  H71  1  0.77570000  0.15194000  0.60420000  1.0
  H  H72  1  0.49586000  0.23393000  0.47207000  1.0
  H  H73  1  0.00414000  0.76607000  0.97208000  1.0
  H  H74  1  0.50414000  0.73393000  0.02792000  1.0
  H  H75  1  0.99586000  0.26607000  0.52792000  1.0
  H  H76  1  0.35046000  0.35675000  0.19522000  1.0
  H  H77  1  0.14954000  0.64325000  0.69522000  1.0
  H  H78  1  0.64955000  0.85675000  0.30478000  1.0
  H  H79  1  0.85046000  0.14325000  0.80478000  1.0
  H  H80  1  0.29594000  0.41803000  0.25791000  1.0
  H  H81  1  0.20406000  0.58197000  0.75791000  1.0
  H  H82  1  0.70407000  0.91803000  0.24209000  1.0
  H  H83  1  0.79594000  0.08197000  0.74209000  1.0
  H  H84  1  0.25982000  0.32338000  0.24035000  1.0
  H  H85  1  0.24019000  0.67662000  0.74035000  1.0
  H  H86  1  0.74019000  0.82338000  0.25965000  1.0
  H  H87  1  0.75982000  0.17662000  0.75965000  1.0
  H  H88  1  0.81538000  0.00729000  0.62682000  1.0
  H  H89  1  0.68462000  0.99270000  0.12682000  1.0
  H  H90  1  0.18462000  0.50730000  0.87318000  1.0
  H  H91  1  0.31538000  0.49271000  0.37318000  1.0
  H  H92  1  0.90303000  0.02790000  0.54114000  1.0
  H  H93  1  0.59697000  0.97210000  0.04114000  1.0
  H  H94  1  0.09697000  0.52790000  0.95886000  1.0
  H  H95  1  0.40303000  0.47210000  0.45886000  1.0
  H  H96  1  0.95174000  0.94076000  0.50895000  1.0
  H  H97  1  0.54826000  0.05924000  0.00895000  1.0
  H  H98  1  0.04826000  0.44076000  0.99105000  1.0
  H  H99  1  0.45174000  0.55924000  0.49105000  1.0
  H  H100  1  0.00873000  0.00964000  0.56347000  1.0
  H  H101  1  0.49127000  0.99036000  0.06346000  1.0
  H  H102  1  0.99127000  0.50964000  0.93654000  1.0
  H  H103  1  0.50873000  0.49036000  0.43653000  1.0
  H  H104  1  0.94489000  0.85363000  0.69870000  1.0
  H  H105  1  0.55511000  0.14637000  0.19870000  1.0
  H  H106  1  0.05512000  0.35363000  0.80130000  1.0
  H  H107  1  0.44489000  0.64637000  0.30130000  1.0
  H  H108  1  0.03555000  0.90120000  0.66313000  1.0
  H  H109  1  0.46445000  0.09880000  0.16313000  1.0
  H  H110  1  0.96445000  0.40120000  0.83687000  1.0
  H  H111  1  0.53555000  0.59880000  0.33687000  1.0
  H  H112  1  0.97892000  0.83449000  0.60623000  1.0
  H  H113  1  0.52108000  0.16551000  0.10623000  1.0
  H  H114  1  0.02108000  0.33449000  0.89377000  1.0
  H  H115  1  0.47892000  0.66551000  0.39377000  1.0
  H  H116  1  0.58512000  0.95982000  0.59609000  1.0
  H  H117  1  0.91488000  0.04018000  0.09609000  1.0
  H  H118  1  0.41488000  0.45982000  0.90391000  1.0
  H  H119  1  0.08512000  0.54018000  0.40391000  1.0
  H  H120  1  0.64592000  0.15305000  0.65072000  1.0
  H  H121  1  0.85408000  0.84695000  0.15072000  1.0
  H  H122  1  0.35408000  0.65305000  0.84928000  1.0
  H  H123  1  0.14592000  0.34695000  0.34928000  1.0
  H  H124  1  0.54356000  0.18845000  0.63466000  1.0
  H  H125  1  0.95645000  0.81155000  0.13466000  1.0
  H  H126  1  0.45644000  0.68845000  0.86534000  1.0
  H  H127  1  0.04356000  0.31155000  0.36534000  1.0
  H  H128  1  0.61742000  0.18899000  0.56077000  1.0
  H  H129  1  0.88258000  0.81101000  0.06077000  1.0
  H  H130  1  0.38258000  0.68899000  0.93923000  1.0
  H  H131  1  0.11742000  0.31101000  0.43923000  1.0
  H  H132  1  0.48524000  0.00850000  0.53400000  1.0
  H  H133  1  0.01476000  0.99150000  0.03400000  1.0
  H  H134  1  0.51476000  0.50850000  0.96600000  1.0
  H  H135  1  0.98524000  0.49150000  0.46600000  1.0
  H  H136  1  0.51265000  0.09641000  0.48648000  1.0
  H  H137  1  0.98735000  0.90359000  0.98648000  1.0
  H  H138  1  0.48736000  0.59641000  0.01352000  1.0
  H  H139  1  0.01265000  0.40359000  0.51352000  1.0
  H  H140  1  0.44618000  0.10026000  0.56589000  1.0
  H  H141  1  0.05382000  0.89975000  0.06589000  1.0
  H  H142  1  0.55382000  0.60026000  0.93411000  1.0
  H  H143  1  0.94618000  0.39974000  0.43411000  1.0
  C  C144  1  0.72179000  0.01373000  0.87200000  1.0
  C  C145  1  0.77821000  0.98627000  0.37199000  1.0
  C  C146  1  0.27821000  0.51373000  0.62801000  1.0
  C  C147  1  0.22178000  0.48627000  0.12801000  1.0
  C  C148  1  0.70227000  0.08836000  0.91151000  1.0
  C  C149  1  0.79773000  0.91164000  0.41151000  1.0
  C  C150  1  0.29773000  0.58836000  0.58849000  1.0
  C  C151  1  0.20227000  0.41164000  0.08849000  1.0
  C  C152  1  0.73875000  0.10551000  0.97981000  1.0
  C  C153  1  0.76125000  0.89449000  0.47981000  1.0
  C  C154  1  0.26125000  0.60551000  0.52019000  1.0
  C  C155  1  0.23875000  0.39449000  0.02019000  1.0
  C  C156  1  0.71502000  0.17268000  0.01829000  1.0
  C  C157  1  0.78498000  0.82732000  0.51829000  1.0
  C  C158  1  0.28498000  0.67268000  0.48171000  1.0
  C  C159  1  0.21502000  0.32732000  0.98171000  1.0
  C  C160  1  0.65607000  0.22288000  0.98736000  1.0
  C  C161  1  0.84393000  0.77712000  0.48736000  1.0
  C  C162  1  0.34393000  0.72288000  0.51264000  1.0
  C  C163  1  0.15606000  0.27712000  0.01264000  1.0
  C  C164  1  0.61990000  0.20742000  0.91822000  1.0
  C  C165  1  0.88010000  0.79258000  0.41822000  1.0
  C  C166  1  0.38010000  0.70742000  0.58178000  1.0
  C  C167  1  0.11990000  0.29258000  0.08177000  1.0
  C  C168  1  0.64353000  0.13940000  0.88108000  1.0
  C  C169  1  0.85647000  0.86060000  0.38108000  1.0
  C  C170  1  0.35647000  0.63940000  0.61892000  1.0
  C  C171  1  0.14352000  0.36060000  0.11892000  1.0
  C  C172  1  0.55639000  0.26184000  0.88620000  1.0
  C  C173  1  0.94361000  0.73816000  0.38620000  1.0
  C  C174  1  0.44361000  0.76184000  0.61380000  1.0
  C  C175  1  0.05639000  0.23816000  0.11380000  1.0
  C  C176  1  0.00102000  0.62197000  0.23967000  1.0
  C  C177  1  0.49898000  0.37803000  0.73967000  1.0
  C  C178  1  0.99898000  0.12197000  0.26033000  1.0
  C  C179  1  0.50102000  0.87803000  0.76033000  1.0
  C  C180  1  0.91770000  0.58418000  0.24312000  1.0
  C  C181  1  0.58230000  0.41582000  0.74312000  1.0
  C  C182  1  0.08230000  0.08418000  0.25688000  1.0
  C  C183  1  0.41770000  0.91582000  0.75688000  1.0
  C  C184  1  0.91261000  0.50437000  0.25863000  1.0
  C  C185  1  0.58739000  0.49563000  0.75863000  1.0
  C  C186  1  0.08739000  0.00437000  0.24137000  1.0
  C  C187  1  0.41261000  0.99563000  0.74137000  1.0
  C  C188  1  0.83546000  0.46816000  0.25996000  1.0
  C  C189  1  0.66455000  0.53184000  0.75996000  1.0
  C  C190  1  0.16455000  0.96816000  0.24004000  1.0
  C  C191  1  0.33546000  0.03184000  0.74004000  1.0
  C  C192  1  0.76373000  0.51239000  0.24835000  1.0
  C  C193  1  0.73628000  0.48761000  0.74835000  1.0
  C  C194  1  0.23627000  0.01239000  0.25165000  1.0
  C  C195  1  0.26373000  0.98761000  0.75165000  1.0
  C  C196  1  0.76758000  0.59237000  0.23474000  1.0
  C  C197  1  0.73242000  0.40763000  0.73474000  1.0
  C  C198  1  0.23242000  0.09237000  0.26526000  1.0
  C  C199  1  0.26758000  0.90763000  0.76526000  1.0
  C  C200  1  0.84569000  0.62745000  0.23084000  1.0
  C  C201  1  0.65431000  0.37256000  0.73084000  1.0
  C  C202  1  0.15431000  0.12744000  0.26916000  1.0
  C  C203  1  0.34569000  0.87256000  0.76916000  1.0
  C  C204  1  0.68997000  0.63913000  0.22430000  1.0
  C  C205  1  0.81003000  0.36087000  0.72430000  1.0
  C  C206  1  0.31003000  0.13913000  0.27570000  1.0
  C  C207  1  0.18997000  0.86087000  0.77570000  1.0
  C  C208  1  0.57641000  0.23106000  0.33881000  1.0
  C  C209  1  0.92359000  0.76894000  0.83881000  1.0
  C  C210  1  0.42359000  0.73106000  0.16119000  1.0
  C  C211  1  0.07641000  0.26894000  0.66119000  1.0
  C  C212  1  0.49249000  0.26255000  0.35537000  1.0
  C  C213  1  0.00751000  0.73745000  0.85537000  1.0
  C  C214  1  0.50751000  0.76255000  0.14463000  1.0
  C  C215  1  0.99249000  0.23745000  0.64463000  1.0
  C  C216  1  0.44639000  0.29657000  0.29796000  1.0
  C  C217  1  0.05360000  0.70343000  0.79796000  1.0
  C  C218  1  0.55361000  0.79657000  0.20204000  1.0
  C  C219  1  0.94639000  0.20343000  0.70204000  1.0
  C  C220  1  0.36743000  0.32659000  0.31057000  1.0
  C  C221  1  0.13257000  0.67341000  0.81057000  1.0
  C  C222  1  0.63257000  0.82659000  0.18943000  1.0
  C  C223  1  0.86743000  0.17341000  0.68943000  1.0
  C  C224  1  0.33643000  0.32411000  0.38321000  1.0
  C  C225  1  0.16357000  0.67589000  0.88321000  1.0
  C  C226  1  0.66357000  0.82411000  0.11679000  1.0
  C  C227  1  0.83643000  0.17589000  0.61679000  1.0
  C  C228  1  0.38215000  0.29084000  0.44109000  1.0
  C  C229  1  0.11785000  0.70916000  0.94109000  1.0
  C  C230  1  0.61785000  0.79083000  0.05891000  1.0
  C  C231  1  0.88215000  0.20916000  0.55891000  1.0
  C  C232  1  0.46022000  0.25935000  0.42704000  1.0
  C  C233  1  0.03978000  0.74065000  0.92704000  1.0
  C  C234  1  0.53978000  0.75935000  0.07296000  1.0
  C  C235  1  0.96022000  0.24065000  0.57296000  1.0
  C  C236  1  0.31636000  0.35806000  0.24782000  1.0
  C  C237  1  0.18364000  0.64194000  0.74782000  1.0
  C  C238  1  0.68364000  0.85806000  0.25218000  1.0
  C  C239  1  0.81636000  0.14194000  0.75218000  1.0
  C  C240  1  0.82716000  0.38241000  0.27185000  1.0
  C  C241  1  0.67284000  0.61759000  0.77185000  1.0
  C  C242  1  0.17284000  0.88241000  0.22815000  1.0
  C  C243  1  0.32716000  0.11759000  0.72815000  1.0
  C  C244  1  0.74682000  0.18720000  0.09520000  1.0
  C  C245  1  0.75318000  0.81280000  0.59520000  1.0
  C  C246  1  0.25318000  0.68720000  0.40480000  1.0
  C  C247  1  0.24682000  0.31280000  0.90480000  1.0
  C  C248  1  0.34843000  0.29029000  0.51844000  1.0
  C  C249  1  0.15157000  0.70972000  0.01844000  1.0
  C  C250  1  0.65157000  0.79029000  0.98156000  1.0
  C  C251  1  0.84843000  0.20972000  0.48156000  1.0
  C  C252  1  0.85056000  0.96126000  0.65545000  1.0
  C  C253  1  0.64944000  0.03874000  0.15545000  1.0
  C  C254  1  0.14944000  0.46126000  0.84455000  1.0
  C  C255  1  0.35056000  0.53874000  0.34455000  1.0
  C  C256  1  0.94792000  0.98245000  0.55519000  1.0
  C  C257  1  0.55208000  0.01755000  0.05519000  1.0
  C  C258  1  0.05208000  0.48245000  0.94481000  1.0
  C  C259  1  0.44792000  0.51755000  0.44481000  1.0
  C  C260  1  0.97349000  0.87943000  0.64951000  1.0
  C  C261  1  0.52651000  0.12057000  0.14951000  1.0
  C  C262  1  0.02651000  0.37943000  0.85049000  1.0
  C  C263  1  0.47349000  0.62057000  0.35049000  1.0
  C  C264  1  0.61082000  0.01591000  0.61465000  1.0
  C  C265  1  0.88918000  0.98409000  0.11465000  1.0
  C  C266  1  0.38918000  0.51591000  0.88535000  1.0
  C  C267  1  0.11082000  0.48409000  0.38535000  1.0
  C  C268  1  0.59588000  0.15714000  0.61007000  1.0
  C  C269  1  0.90412000  0.84286000  0.11007000  1.0
  C  C270  1  0.40412000  0.65714000  0.88993000  1.0
  C  C271  1  0.09588000  0.34286000  0.38993000  1.0
  C  C272  1  0.49957000  0.07052000  0.54104000  1.0
  C  C273  1  0.00044000  0.92948000  0.04104000  1.0
  C  C274  1  0.50044000  0.57052000  0.95896000  1.0
  C  C275  1  0.99956000  0.42948000  0.45896000  1.0
  N  N276  1  0.57089000  0.07854000  0.58958000  1.0
  N  N277  1  0.92911000  0.92146000  0.08958000  1.0
  N  N278  1  0.42910000  0.57854000  0.91042000  1.0
  N  N279  1  0.07089000  0.42146000  0.41042000  1.0
  N  N280  1  0.92192000  0.94274000  0.62255000  1.0
  N  N281  1  0.57808000  0.05725000  0.12255000  1.0
  N  N282  1  0.07808000  0.44275000  0.87745000  1.0
  N  N283  1  0.42192000  0.55726000  0.37745000  1.0
  O  O284  1  0.77817000  0.97028000  0.90077000  1.0
  O  O285  1  0.72183000  0.02972000  0.40077000  1.0
  O  O286  1  0.22183000  0.47028000  0.59923000  1.0
  O  O287  1  0.27816000  0.52972000  0.09923000  1.0
  O  O288  1  0.68018000  0.99846000  0.81446000  1.0
  O  O289  1  0.81983000  0.00154000  0.31446000  1.0
  O  O290  1  0.31983000  0.49846000  0.68554000  1.0
  O  O291  1  0.18017000  0.50154000  0.18554000  1.0
  O  O292  1  0.05945000  0.58871000  0.27342000  1.0
  O  O293  1  0.44055000  0.41129000  0.77343000  1.0
  O  O294  1  0.94055000  0.08871000  0.22657000  1.0
  O  O295  1  0.55945000  0.91129000  0.72658000  1.0
  O  O296  1  0.00598000  0.68589000  0.20253000  1.0
  O  O297  1  0.49402000  0.31412000  0.70254000  1.0
  O  O298  1  0.99402000  0.18589000  0.29747000  1.0
  O  O299  1  0.50598000  0.81412000  0.79747000  1.0
  O  O300  1  0.61184000  0.18958000  0.38846000  1.0
  O  O301  1  0.88816000  0.81042000  0.88846000  1.0
  O  O302  1  0.38816000  0.68958000  0.11154000  1.0
  O  O303  1  0.11184000  0.31042000  0.61153000  1.0
  O  O304  1  0.60575000  0.24822000  0.27536000  1.0
  O  O305  1  0.89424000  0.75178000  0.77536000  1.0
  O  O306  1  0.39425000  0.74821000  0.22464000  1.0
  O  O307  1  0.10575000  0.25178000  0.72464000  1.0
  O  O308  1  0.89191000  0.34331000  0.28873000  1.0
  O  O309  1  0.60809000  0.65669000  0.78873000  1.0
  O  O310  1  0.10809000  0.84331000  0.21127000  1.0
  O  O311  1  0.39191000  0.15669000  0.71126000  1.0
  O  O312  1  0.75487000  0.35430000  0.26402000  1.0
  O  O313  1  0.74513000  0.64569000  0.76403000  1.0
  O  O314  1  0.24514000  0.85430000  0.23598000  1.0
  O  O315  1  0.25487000  0.14570000  0.73597000  1.0
  O  O316  1  0.70844000  0.24116000  0.13122000  1.0
  O  O317  1  0.79156000  0.75884000  0.63122000  1.0
  O  O318  1  0.29156000  0.74116000  0.36878000  1.0
  O  O319  1  0.20844000  0.25884000  0.86878000  1.0
  O  O320  1  0.80472000  0.14578000  0.12068000  1.0
  O  O321  1  0.69527000  0.85422000  0.62068000  1.0
  O  O322  1  0.19527000  0.64579000  0.37932000  1.0
  O  O323  1  0.30472000  0.35422000  0.87932000  1.0
  O  O324  1  0.39368000  0.25926000  0.56837000  1.0
  O  O325  1  0.10632000  0.74074000  0.06837000  1.0
  O  O326  1  0.60632000  0.75926000  0.93163000  1.0
  O  O327  1  0.89368000  0.24074000  0.43162000  1.0
  O  O328  1  0.27775000  0.32126000  0.52800000  1.0
  O  O329  1  0.22225000  0.67875000  0.02800000  1.0
  O  O330  1  0.72225000  0.82126000  0.97200000  1.0
  O  O331  1  0.77774000  0.17875000  0.47200000  1.0
  O  O332  1  0.78844000  0.17395000  0.29303000  1.0
  O  O333  1  0.71156000  0.82605000  0.79303000  1.0
  O  O334  1  0.21156000  0.67395000  0.20697000  1.0
  O  O335  1  0.28844000  0.32605000  0.70697000  1.0
  O  O336  1  0.82331000  0.92965000  0.71334000  1.0
  O  O337  1  0.67669000  0.07035000  0.21334000  1.0
  O  O338  1  0.17669000  0.42965000  0.78666000  1.0
  O  O339  1  0.32331000  0.57035000  0.28667000  1.0
  O  O340  1  0.67294000  0.01846000  0.65666000  1.0
  O  O341  1  0.82706000  0.98154000  0.15666000  1.0
  O  O342  1  0.32706000  0.51846000  0.84334000  1.0
  O  O343  1  0.17294000  0.48154000  0.34334000  1.0
