# generated using pymatgen
data_EuH8C6O7
_symmetry_space_group_name_H-M   'P 1'
_cell_length_a   7.73924000
_cell_length_b   10.62709156
_cell_length_c   12.91900000
_cell_angle_alpha   95.31583920
_cell_angle_beta   107.43020000
_cell_angle_gamma   111.35544168
_symmetry_Int_Tables_number   1
_chemical_formula_structural   EuH8C6O7
_chemical_formula_sum   'Eu4 H32 C24 O28'
_cell_volume   919.48643686
_cell_formula_units_Z   4
loop_
 _symmetry_equiv_pos_site_id
 _symmetry_equiv_pos_as_xyz
  1  'x, y, z'
loop_
 _atom_site_type_symbol
 _atom_site_label
 _atom_site_symmetry_multiplicity
 _atom_site_fract_x
 _atom_site_fract_y
 _atom_site_fract_z
 _atom_site_occupancy
  Eu  Eu0  1  0.67491000  0.18870000  0.73028000  1.0
  Eu  Eu1  1  0.25594000  0.31131000  0.76973000  1.0
  Eu  Eu2  1  0.32509000  0.81130000  0.26972000  1.0
  Eu  Eu3  1  0.74406000  0.68869000  0.23027000  1.0
  H  H4  1  0.97331000  0.36945000  0.46534000  1.0
  H  H5  1  0.63852000  0.13054000  0.03466000  1.0
  H  H6  1  0.02669000  0.63055000  0.53466000  1.0
  H  H7  1  0.36148000  0.86946000  0.96534000  1.0
  H  H8  1  0.73703000  0.24669000  0.36841000  1.0
  H  H9  1  0.62195000  0.25331000  0.13158000  1.0
  H  H10  1  0.26297000  0.75331000  0.63159000  1.0
  H  H11  1  0.37805000  0.74669000  0.86842000  1.0
  H  H12  1  0.04747000  0.21136000  0.35889000  1.0
  H  H13  1  0.97723000  0.28865000  0.14111000  1.0
  H  H14  1  0.95253000  0.78864000  0.64111000  1.0
  H  H15  1  0.02277000  0.71135000  0.85889000  1.0
  H  H16  1  0.08021000  0.16846000  0.48923000  1.0
  H  H17  1  0.92253000  0.33154000  0.01076000  1.0
  H  H18  1  0.91979000  0.83154000  0.51077000  1.0
  H  H19  1  0.07747000  0.66846000  0.98924000  1.0
  H  H20  1  0.18422000  0.13871000  0.02847000  1.0
  H  H21  1  0.51702000  0.36129000  0.47153000  1.0
  H  H22  1  0.81578000  0.86129000  0.97153000  1.0
  H  H23  1  0.48298000  0.63871000  0.52847000  1.0
  H  H24  1  0.11315000  0.99926000  0.91960000  1.0
  H  H25  1  0.69428000  0.50073000  0.58040000  1.0
  H  H26  1  0.88685000  0.00074000  0.08040000  1.0
  H  H27  1  0.30571000  0.49927000  0.41960000  1.0
  H  H28  1  0.59196000  0.91732000  0.58743000  1.0
  H  H29  1  0.58722000  0.58268000  0.91258000  1.0
  H  H30  1  0.40804000  0.08268000  0.41258000  1.0
  H  H31  1  0.41278000  0.41732000  0.08742000  1.0
  H  H32  1  0.83389000  0.99665000  0.64603000  1.0
  H  H33  1  0.69122000  0.50335000  0.85397000  1.0
  H  H34  1  0.16611000  0.00335000  0.35397000  1.0
  H  H35  1  0.30878000  0.49665000  0.14603000  1.0
  C  C36  1  0.79722000  0.23277000  0.53826000  1.0
  C  C37  1  0.52618000  0.26722000  0.96174000  1.0
  C  C38  1  0.20278000  0.76723000  0.46174000  1.0
  C  C39  1  0.47383000  0.73278000  0.03826000  1.0
  C  C40  1  0.86531000  0.26059000  0.44124000  1.0
  C  C41  1  0.66348000  0.23941000  0.05875000  1.0
  C  C42  1  0.13470000  0.73941000  0.55876000  1.0
  C  C43  1  0.33652000  0.76059000  0.94125000  1.0
  C  C44  1  0.96717000  0.16909000  0.41386000  1.0
  C  C45  1  0.88423000  0.33091000  0.08614000  1.0
  C  C46  1  0.03283000  0.83091000  0.58614000  1.0
  C  C47  1  0.11577000  0.66909000  0.91386000  1.0
  C  C48  1  0.82534000  0.01890000  0.35705000  1.0
  C  C49  1  0.94940000  0.48110000  0.14294000  1.0
  C  C50  1  0.17466000  0.98110000  0.64295000  1.0
  C  C51  1  0.05060000  0.51890000  0.85706000  1.0
  C  C52  1  0.92283000  0.10353000  0.89362000  1.0
  C  C53  1  0.42568000  0.39648000  0.60639000  1.0
  C  C54  1  0.07717000  0.89647000  0.10638000  1.0
  C  C55  1  0.57432000  0.60352000  0.39361000  1.0
  C  C56  1  0.05348000  0.04937000  0.96988000  1.0
  C  C57  1  0.53422000  0.45063000  0.53012000  1.0
  C  C58  1  0.94652000  0.95063000  0.03012000  1.0
  C  C59  1  0.46578000  0.54937000  0.46988000  1.0
  O  O60  1  0.61422000  0.18008000  0.52587000  1.0
  O  O61  1  0.40827000  0.31991000  0.97415000  1.0
  O  O62  1  0.38578000  0.81992000  0.47413000  1.0
  O  O63  1  0.59173000  0.68009000  0.02585000  1.0
  O  O64  1  0.92649000  0.26616000  0.63750000  1.0
  O  O65  1  0.52276000  0.23383000  0.86249000  1.0
  O  O66  1  0.07351000  0.73384000  0.36250000  1.0
  O  O67  1  0.47724000  0.76617000  0.13751000  1.0
  O  O68  1  0.89920000  0.93611000  0.33081000  1.0
  O  O69  1  0.13230000  0.56389000  0.16920000  1.0
  O  O70  1  0.10080000  0.06389000  0.66919000  1.0
  O  O71  1  0.86770000  0.43611000  0.83080000  1.0
  O  O72  1  0.64311000  0.98508000  0.33948000  1.0
  O  O73  1  0.81854000  0.51492000  0.16048000  1.0
  O  O74  1  0.35689000  0.01492000  0.66052000  1.0
  O  O75  1  0.18146000  0.48508000  0.83952000  1.0
  O  O76  1  0.99893000  0.19175000  0.83951000  1.0
  O  O77  1  0.46764000  0.30825000  0.66048000  1.0
  O  O78  1  0.00107000  0.80825000  0.16049000  1.0
  O  O79  1  0.53236000  0.69175000  0.33952000  1.0
  O  O80  1  0.74223000  0.06589000  0.88192000  1.0
  O  O81  1  0.29446000  0.43415000  0.61811000  1.0
  O  O82  1  0.25777000  0.93411000  0.11808000  1.0
  O  O83  1  0.70554000  0.56585000  0.38189000  1.0
  O  O84  1  0.70565000  0.98088000  0.65501000  1.0
  O  O85  1  0.56976000  0.51912000  0.84500000  1.0
  O  O86  1  0.29435000  0.01912000  0.34499000  1.0
  O  O87  1  0.43024000  0.48088000  0.15500000  1.0
