# generated using pymatgen
data_KH34C20NO
_symmetry_space_group_name_H-M   'P 1'
_cell_length_a   9.72926000
_cell_length_b   11.24360000
_cell_length_c   11.56300000
_cell_angle_alpha   108.38500000
_cell_angle_beta   102.89400000
_cell_angle_gamma   113.95700000
_symmetry_Int_Tables_number   1
_chemical_formula_structural   KH34C20NO
_chemical_formula_sum   'K2 H68 C40 N2 O2'
_cell_volume   1002.94058435
_cell_formula_units_Z   2
loop_
 _symmetry_equiv_pos_site_id
 _symmetry_equiv_pos_as_xyz
  1  'x, y, z'
loop_
 _atom_site_type_symbol
 _atom_site_label
 _atom_site_symmetry_multiplicity
 _atom_site_fract_x
 _atom_site_fract_y
 _atom_site_fract_z
 _atom_site_occupancy
  K  K0  1  0.39476000  0.14258000  0.90675000  1.0
  K  K1  1  0.98780000  0.23644000  0.09283000  1.0
  H  H2  1  0.90929000  0.26948000  0.73303000  1.0
  H  H3  1  0.67579000  0.53632000  0.26688000  1.0
  H  H4  1  0.10156000  0.40518000  0.75293000  1.0
  H  H5  1  0.84812000  0.65217000  0.24695000  1.0
  H  H6  1  0.02121000  0.44627000  0.87182000  1.0
  H  H7  1  0.64894000  0.57416000  0.12798000  1.0
  H  H8  1  0.33035000  0.37273000  0.05451000  1.0
  H  H9  1  0.77587000  0.31828000  0.94562000  1.0
  H  H10  1  0.29184000  0.51542000  0.05837000  1.0
  H  H11  1  0.73355000  0.45710000  0.94173000  1.0
  H  H12  1  0.37847000  0.45700000  0.95094000  1.0
  H  H13  1  0.92754000  0.50610000  0.04926000  1.0
  H  H14  1  0.83795000  0.62520000  0.59262000  1.0
  H  H15  1  0.74548000  0.03255000  0.40731000  1.0
  H  H16  1  0.83908000  0.52831000  0.75811000  1.0
  H  H17  1  0.58104000  0.77018000  0.24182000  1.0
  H  H18  1  0.97894000  0.70290000  0.99976000  1.0
  H  H19  1  0.47922000  0.70316000  0.00014000  1.0
  H  H20  1  0.05840000  0.01859000  0.67677000  1.0
  H  H21  1  0.88174000  0.34190000  0.32337000  1.0
  H  H22  1  0.18712000  0.86664000  0.62090000  1.0
  H  H23  1  0.06609000  0.24564000  0.37922000  1.0
  H  H24  1  0.08939000  0.88369000  0.48256000  1.0
  H  H25  1  0.10676000  0.40102000  0.51762000  1.0
  H  H26  1  0.99340000  0.71874000  0.49513000  1.0
  H  H27  1  0.99801000  0.22345000  0.50495000  1.0
  H  H28  1  0.73277000  0.73607000  0.48097000  1.0
  H  H29  1  0.75165000  0.25509000  0.51906000  1.0
  H  H30  1  0.82817000  0.89022000  0.45321000  1.0
  H  H31  1  0.87485000  0.43701000  0.54685000  1.0
  H  H32  1  0.75354000  0.90320000  0.58186000  1.0
  H  H33  1  0.67162000  0.32139000  0.41818000  1.0
  H  H34  1  0.15482000  0.10467000  0.12990000  1.0
  H  H35  1  0.52530000  0.97492000  0.87012000  1.0
  H  H36  1  0.28050000  0.90477000  0.16818000  1.0
  H  H37  1  0.61243000  0.73663000  0.83200000  1.0
  H  H38  1  0.35740000  0.08625000  0.28848000  1.0
  H  H39  1  0.56916000  0.79771000  0.71159000  1.0
  H  H40  1  0.37802000  0.05278000  0.13482000  1.0
  H  H41  1  0.74335000  0.91793000  0.86526000  1.0
  H  H42  1  0.90008000  0.93993000  0.15198000  1.0
  H  H43  1  0.24834000  0.78829000  0.84819000  1.0
  H  H44  1  0.08135000  0.03024000  0.29973000  1.0
  H  H45  1  0.28168000  0.73067000  0.70032000  1.0
  H  H46  1  0.99472000  0.84387000  0.18891000  1.0
  H  H47  1  0.30593000  0.65522000  0.81123000  1.0
  H  H48  1  0.63332000  0.10788000  0.75109000  1.0
  H  H49  1  0.38228000  0.35689000  0.24879000  1.0
  H  H50  1  0.62044000  0.03651000  0.58596000  1.0
  H  H51  1  0.53452000  0.45068000  0.41386000  1.0
  H  H52  1  0.44641000  0.95177000  0.61996000  1.0
  H  H53  1  0.32660000  0.33171000  0.37989000  1.0
  H  H54  1  0.60311000  0.26102000  0.63962000  1.0
  H  H55  1  0.46297000  0.62127000  0.36020000  1.0
  H  H56  1  0.41639000  0.10501000  0.50872000  1.0
  H  H57  1  0.40751000  0.59616000  0.49124000  1.0
  H  H58  1  0.23927000  0.24533000  0.70614000  1.0
  H  H59  1  0.03274000  0.53877000  0.29362000  1.0
  H  H60  1  0.24748000  0.19150000  0.54675000  1.0
  H  H61  1  0.20009000  0.64428000  0.45311000  1.0
  H  H62  1  0.51796000  0.47549000  0.80109000  1.0
  H  H63  1  0.21707000  0.67403000  0.19896000  1.0
  H  H64  1  0.36717000  0.46348000  0.67119000  1.0
  H  H65  1  0.19619000  0.79207000  0.32881000  1.0
  H  H66  1  0.51967000  0.42709000  0.63990000  1.0
  H  H67  1  0.37970000  0.78654000  0.36023000  1.0
  H  H68  1  0.92100000  0.08718000  0.77443000  1.0
  H  H69  1  0.64625000  0.31266000  0.22560000  1.0
  C  C70  1  0.04526000  0.15990000  0.85558000  1.0
  C  C71  1  0.68939000  0.30428000  0.14445000  1.0
  C  C72  1  0.11755000  0.30511000  0.88503000  1.0
  C  C73  1  0.73229000  0.42002000  0.11502000  1.0
  C  C74  1  0.03322000  0.35843000  0.80723000  1.0
  C  C75  1  0.72557000  0.55108000  0.19271000  1.0
  C  C76  1  0.28689000  0.41708000  0.99224000  1.0
  C  C77  1  0.79464000  0.42489000  0.00792000  1.0
  C  C78  1  0.03720000  0.95246000  0.87615000  1.0
  C  C79  1  0.66104000  0.07633000  0.12384000  1.0
  C  C80  1  0.96714000  0.85084000  0.73732000  1.0
  C  C81  1  0.72987000  0.11351000  0.26266000  1.0
  C  C82  1  0.89322000  0.70082000  0.69872000  1.0
  C  C83  1  0.69467000  0.00205000  0.30118000  1.0
  C  C84  1  0.89410000  0.64545000  0.79071000  1.0
  C  C85  1  0.60357000  0.85470000  0.20921000  1.0
  C  C86  1  0.97320000  0.74421000  0.92622000  1.0
  C  C87  1  0.54714000  0.81797000  0.07371000  1.0
  C  C88  1  0.04367000  0.89434000  0.97040000  1.0
  C  C89  1  0.57339000  0.92400000  0.02962000  1.0
  C  C90  1  0.98156000  0.89882000  0.62897000  1.0
  C  C91  1  0.85260000  0.26988000  0.37113000  1.0
  C  C92  1  0.06780000  0.83843000  0.55267000  1.0
  C  C93  1  0.01499000  0.28568000  0.44748000  1.0
  C  C94  1  0.81469000  0.85545000  0.53077000  1.0
  C  C95  1  0.78380000  0.32466000  0.46925000  1.0
  C  C96  1  0.12815000  0.99598000  0.11935000  1.0
  C  C97  1  0.50898000  0.87672000  0.88066000  1.0
  C  C98  1  0.29484000  0.01081000  0.18102000  1.0
  C  C99  1  0.61399000  0.82978000  0.81903000  1.0
  C  C100  1  0.01991000  0.95026000  0.19356000  1.0
  C  C101  1  0.32648000  0.75693000  0.80650000  1.0
  C  C102  1  0.55180000  0.05754000  0.64549000  1.0
  C  C103  1  0.40632000  0.41206000  0.35439000  1.0
  C  C104  1  0.49615000  0.15633000  0.61575000  1.0
  C  C105  1  0.38015000  0.54044000  0.38420000  1.0
  C  C106  1  0.32344000  0.25423000  0.65527000  1.0
  C  C107  1  0.16773000  0.59850000  0.34463000  1.0
  C  C108  1  0.43932000  0.41355000  0.69383000  1.0
  C  C109  1  0.24543000  0.71930000  0.30619000  1.0
  N  N110  1  0.10691000  0.10233000  0.92605000  1.0
  N  N111  1  0.68070000  0.17631000  0.07397000  1.0
  O  O112  1  0.40554000  0.18236000  0.69295000  1.0
  O  O113  1  0.21223000  0.48898000  0.30710000  1.0
