# generated using pymatgen
data_Lu3H44C50N10Cl9
_symmetry_space_group_name_H-M   'P 1'
_cell_length_a   11.87110000
_cell_length_b   12.01220000
_cell_length_c   20.47180000
_cell_angle_alpha   95.10940000
_cell_angle_beta   89.99990000
_cell_angle_gamma   89.99990000
_symmetry_Int_Tables_number   1
_chemical_formula_structural   Lu3H44C50N10Cl9
_chemical_formula_sum   'Lu6 H88 C100 N20 Cl18'
_cell_volume   2907.63861071
_cell_formula_units_Z   2
loop_
 _symmetry_equiv_pos_site_id
 _symmetry_equiv_pos_as_xyz
  1  'x, y, z'
loop_
 _atom_site_type_symbol
 _atom_site_label
 _atom_site_symmetry_multiplicity
 _atom_site_fract_x
 _atom_site_fract_y
 _atom_site_fract_z
 _atom_site_occupancy
  Lu  Lu0  1  0.98357000  0.74690000  0.87828000  1.0
  Lu  Lu1  1  0.98357000  0.75310000  0.62172000  1.0
  Lu  Lu2  1  0.01643000  0.25310000  0.12172000  1.0
  Lu  Lu3  1  0.01643000  0.24690000  0.37828000  1.0
  Lu  Lu4  1  0.51944000  0.25000000  0.75000000  1.0
  Lu  Lu5  1  0.48056000  0.75000000  0.25000000  1.0
  H  H6  1  0.20120000  0.56920000  0.86938000  1.0
  H  H7  1  0.20120000  0.93080000  0.63062000  1.0
  H  H8  1  0.79881000  0.43080000  0.13062000  1.0
  H  H9  1  0.79880000  0.06920000  0.36938000  1.0
  H  H10  1  0.78378000  0.59291000  0.80025000  1.0
  H  H11  1  0.78378000  0.90709000  0.69975000  1.0
  H  H12  1  0.21622000  0.40709000  0.19975000  1.0
  H  H13  1  0.21623000  0.09291000  0.30025000  1.0
  H  H14  1  0.92527000  0.89387000  0.01510000  1.0
  H  H15  1  0.92527000  0.60613000  0.48490000  1.0
  H  H16  1  0.07473000  0.10613000  0.98490000  1.0
  H  H17  1  0.07473000  0.39388000  0.51510000  1.0
  H  H18  1  0.55411000  0.91300000  0.88533000  1.0
  H  H19  1  0.55411000  0.58700000  0.61467000  1.0
  H  H20  1  0.44589000  0.08700000  0.11467000  1.0
  H  H21  1  0.44589000  0.41300000  0.38533000  1.0
  H  H22  1  0.57524000  0.57699000  0.79030000  1.0
  H  H23  1  0.57524000  0.92301000  0.70970000  1.0
  H  H24  1  0.42476000  0.42301000  0.20970000  1.0
  H  H25  1  0.42476000  0.07699000  0.29030000  1.0
  H  H26  1  0.39507000  0.90894000  0.81264000  1.0
  H  H27  1  0.39506000  0.59106000  0.68736000  1.0
  H  H28  1  0.60494000  0.09106000  0.18736000  1.0
  H  H29  1  0.60494000  0.40894000  0.31264000  1.0
  H  H30  1  0.41133000  0.56600000  0.86165000  1.0
  H  H31  1  0.41133000  0.93400000  0.63835000  1.0
  H  H32  1  0.58867000  0.43400000  0.13835000  1.0
  H  H33  1  0.58867000  0.06600000  0.36165000  1.0
  H  H34  1  0.05741000  0.61216000  0.00510000  1.0
  H  H35  1  0.05741000  0.88784000  0.49490000  1.0
  H  H36  1  0.94259000  0.38784000  0.99490000  1.0
  H  H37  1  0.94259000  0.11216000  0.50510000  1.0
  H  H38  1  0.32318000  0.92628000  0.03614000  1.0
  H  H39  1  0.32318000  0.57372000  0.46386000  1.0
  H  H40  1  0.67682000  0.07372000  0.96386000  1.0
  H  H41  1  0.67682000  0.42628000  0.53614000  1.0
  H  H42  1  0.76369000  0.91407000  0.89081000  1.0
  H  H43  1  0.76369000  0.58593000  0.60919000  1.0
  H  H44  1  0.23631000  0.08593000  0.10919000  1.0
  H  H45  1  0.23631000  0.41407000  0.39081000  1.0
  H  H46  1  0.18547000  0.89396000  0.81789000  1.0
  H  H47  1  0.18547000  0.60604000  0.68211000  1.0
  H  H48  1  0.81453000  0.10604000  0.18211000  1.0
  H  H49  1  0.81453000  0.39396000  0.31789000  1.0
  H  H50  1  0.16749000  0.91925000  0.95324000  1.0
  H  H51  1  0.16749000  0.58075000  0.54676000  1.0
  H  H52  1  0.83251000  0.08075000  0.04676000  1.0
  H  H53  1  0.83251000  0.41925000  0.45324000  1.0
  H  H54  1  0.79405000  0.58645000  0.94543000  1.0
  H  H55  1  0.79405000  0.91356000  0.55457000  1.0
  H  H56  1  0.20595000  0.41355000  0.05457000  1.0
  H  H57  1  0.20595000  0.08645000  0.44543000  1.0
  H  H58  1  0.34613000  0.76457000  0.10489000  1.0
  H  H59  1  0.34613000  0.73543000  0.39511000  1.0
  H  H60  1  0.65387000  0.23543000  0.89511000  1.0
  H  H61  1  0.65387000  0.26457000  0.60489000  1.0
  H  H62  1  0.63741000  0.76614000  0.11331000  1.0
  H  H63  1  0.63740000  0.73385000  0.38669000  1.0
  H  H64  1  0.36259000  0.23385000  0.88669000  1.0
  H  H65  1  0.36259000  0.26615000  0.61331000  1.0
  H  H66  1  0.78467000  0.91603000  0.10554000  1.0
  H  H67  1  0.78466000  0.58397000  0.39446000  1.0
  H  H68  1  0.21533000  0.08397000  0.89446000  1.0
  H  H69  1  0.21533000  0.41603000  0.60554000  1.0
  H  H70  1  0.20591000  0.60737000  0.09120000  1.0
  H  H71  1  0.20591000  0.89263000  0.40880000  1.0
  H  H72  1  0.79409000  0.39263000  0.90880000  1.0
  H  H73  1  0.79409000  0.10737000  0.59120000  1.0
  H  H74  1  0.64568000  0.59624000  0.03338000  1.0
  H  H75  1  0.64568000  0.90376000  0.46662000  1.0
  H  H76  1  0.35432000  0.40376000  0.96662000  1.0
  H  H77  1  0.35432000  0.09624000  0.53338000  1.0
  H  H78  1  0.09919000  0.42915000  0.77399000  1.0
  H  H79  1  0.09919000  0.07084000  0.72601000  1.0
  H  H80  1  0.90080000  0.57085000  0.22601000  1.0
  H  H81  1  0.90080000  0.92915000  0.27399000  1.0
  H  H82  1  0.93826000  0.41679000  0.71692000  1.0
  H  H83  1  0.93826000  0.08321000  0.78308000  1.0
  H  H84  1  0.06174000  0.58321000  0.28308000  1.0
  H  H85  1  0.06174000  0.91679000  0.21692000  1.0
  H  H86  1  0.30956000  0.42170000  0.77055000  1.0
  H  H87  1  0.30956000  0.07829000  0.72944000  1.0
  H  H88  1  0.69044000  0.57829000  0.22945000  1.0
  H  H89  1  0.69044000  0.92171000  0.27055000  1.0
  H  H90  1  0.72931000  0.40995000  0.71971000  1.0
  H  H91  1  0.72931000  0.09005000  0.78029000  1.0
  H  H92  1  0.27069000  0.59005000  0.28029000  1.0
  H  H93  1  0.27069000  0.90995000  0.21971000  1.0
  C  C94  1  0.24779000  0.64202000  0.85583000  1.0
  C  C95  1  0.24779000  0.85799000  0.64417000  1.0
  C  C96  1  0.75221000  0.35799000  0.14417000  1.0
  C  C97  1  0.75221000  0.14202000  0.35583000  1.0
  C  C98  1  0.72938000  0.66198000  0.81841000  1.0
  C  C99  1  0.72938000  0.83803000  0.68159000  1.0
  C  C100  1  0.27062000  0.33803000  0.18159000  1.0
  C  C101  1  0.27062000  0.16198000  0.31841000  1.0
  C  C102  1  0.86175000  0.82984000  0.02057000  1.0
  C  C103  1  0.86175000  0.67016000  0.47943000  1.0
  C  C104  1  0.13825000  0.17016000  0.97943000  1.0
  C  C105  1  0.13825000  0.32984000  0.52057000  1.0
  C  C106  1  0.60143000  0.83972000  0.86603000  1.0
  C  C107  1  0.60143000  0.66028000  0.63397000  1.0
  C  C108  1  0.39857000  0.16028000  0.13397000  1.0
  C  C109  1  0.39857000  0.33972000  0.36603000  1.0
  C  C110  1  0.61277000  0.65362000  0.81319000  1.0
  C  C111  1  0.61277000  0.84638000  0.68681000  1.0
  C  C112  1  0.38723000  0.34638000  0.18681000  1.0
  C  C113  1  0.38723000  0.15362000  0.31319000  1.0
  C  C114  1  0.35582000  0.83130000  0.82492000  1.0
  C  C115  1  0.35582000  0.66870000  0.67508000  1.0
  C  C116  1  0.64418000  0.16870000  0.17508000  1.0
  C  C117  1  0.64418000  0.33130000  0.32492000  1.0
  C  C118  1  0.42146000  0.73856000  0.83791000  1.0
  C  C119  1  0.42147000  0.76144000  0.66209000  1.0
  C  C120  1  0.57854000  0.26144000  0.16209000  1.0
  C  C121  1  0.57854000  0.23856000  0.33791000  1.0
  C  C122  1  0.36470000  0.64113000  0.85198000  1.0
  C  C123  1  0.36470000  0.85887000  0.64802000  1.0
  C  C124  1  0.63530000  0.35887000  0.14802000  1.0
  C  C125  1  0.63530000  0.14113000  0.35198000  1.0
  C  C126  1  0.54595000  0.74372000  0.83849000  1.0
  C  C127  1  0.54595000  0.75628000  0.66151000  1.0
  C  C128  1  0.45405000  0.25628000  0.16151000  1.0
  C  C129  1  0.45405000  0.24372000  0.33849000  1.0
  C  C130  1  0.11797000  0.68019000  0.01357000  1.0
  C  C131  1  0.11797000  0.81981000  0.48643000  1.0
  C  C132  1  0.88203000  0.31981000  0.98643000  1.0
  C  C133  1  0.88203000  0.18019000  0.51357000  1.0
  C  C134  1  0.26603000  0.85506000  0.03083000  1.0
  C  C135  1  0.26603000  0.64494000  0.46917000  1.0
  C  C136  1  0.73397000  0.14494000  0.96917000  1.0
  C  C137  1  0.73397000  0.35506000  0.53083000  1.0
  C  C138  1  0.71819000  0.84098000  0.86917000  1.0
  C  C139  1  0.71819000  0.65902000  0.63083000  1.0
  C  C140  1  0.28181000  0.15902000  0.13083000  1.0
  C  C141  1  0.28182000  0.34098000  0.36917000  1.0
  C  C142  1  0.23912000  0.82371000  0.82802000  1.0
  C  C143  1  0.23912000  0.67629000  0.67198000  1.0
  C  C144  1  0.76088000  0.17629000  0.17198000  1.0
  C  C145  1  0.76088000  0.32371000  0.32802000  1.0
  C  C146  1  0.18020000  0.85164000  0.98458000  1.0
  C  C147  1  0.18020000  0.64836000  0.51542000  1.0
  C  C148  1  0.81980000  0.14835000  0.01542000  1.0
  C  C149  1  0.81980000  0.35164000  0.48457000  1.0
  C  C150  1  0.78812000  0.65795000  0.98195000  1.0
  C  C151  1  0.78812000  0.84205000  0.51805000  1.0
  C  C152  1  0.21188000  0.34205000  0.01805000  1.0
  C  C153  1  0.21188000  0.15795000  0.48195000  1.0
  C  C154  1  0.27795000  0.76587000  0.06939000  1.0
  C  C155  1  0.27796000  0.73413000  0.43061000  1.0
  C  C156  1  0.72204000  0.23413000  0.93061000  1.0
  C  C157  1  0.72204000  0.26587000  0.56939000  1.0
  C  C158  1  0.70248000  0.75813000  0.07569000  1.0
  C  C159  1  0.70248000  0.74187000  0.42431000  1.0
  C  C160  1  0.29752000  0.24187000  0.92431000  1.0
  C  C161  1  0.29752000  0.25813000  0.57569000  1.0
  C  C162  1  0.78261000  0.84182000  0.07087000  1.0
  C  C163  1  0.78261000  0.65818000  0.42914000  1.0
  C  C164  1  0.21739000  0.15818000  0.92913000  1.0
  C  C165  1  0.21739000  0.34182000  0.57086000  1.0
  C  C166  1  0.20145000  0.67764000  0.06114000  1.0
  C  C167  1  0.20145000  0.82235000  0.43886000  1.0
  C  C168  1  0.79855000  0.32236000  0.93886000  1.0
  C  C169  1  0.79855000  0.17764000  0.56114000  1.0
  C  C170  1  0.70641000  0.66372000  0.03077000  1.0
  C  C171  1  0.70641000  0.83628000  0.46923000  1.0
  C  C172  1  0.29359000  0.33628000  0.96923000  1.0
  C  C173  1  0.29359000  0.16372000  0.53077000  1.0
  C  C174  1  0.14233000  0.34986000  0.76211000  1.0
  C  C175  1  0.14233000  0.15014000  0.73789000  1.0
  C  C176  1  0.85766000  0.65014000  0.23790000  1.0
  C  C177  1  0.85767000  0.84986000  0.26211000  1.0
  C  C178  1  0.08132000  0.25000000  0.75000000  1.0
  C  C179  1  0.91867000  0.75000000  0.25000000  1.0
  C  C180  1  0.89629000  0.34307000  0.73269000  1.0
  C  C181  1  0.89629000  0.15693000  0.76731000  1.0
  C  C182  1  0.10371000  0.65693000  0.26731000  1.0
  C  C183  1  0.10371000  0.84306000  0.23269000  1.0
  C  C184  1  0.25912000  0.34609000  0.76144000  1.0
  C  C185  1  0.25912000  0.15391000  0.73856000  1.0
  C  C186  1  0.74087000  0.65391000  0.23856000  1.0
  C  C187  1  0.74088000  0.84609000  0.26144000  1.0
  C  C188  1  0.77954000  0.33966000  0.73346000  1.0
  C  C189  1  0.77954000  0.16034000  0.76654000  1.0
  C  C190  1  0.22046000  0.66034000  0.26654000  1.0
  C  C191  1  0.22046000  0.83966000  0.23346000  1.0
  C  C192  1  0.95727000  0.25000000  0.75000000  1.0
  C  C193  1  0.04272000  0.75000000  0.25000000  1.0
  N  N194  1  0.18486000  0.73202000  0.84509000  1.0
  N  N195  1  0.18486000  0.76798000  0.65491000  1.0
  N  N196  1  0.81515000  0.26798000  0.15491000  1.0
  N  N197  1  0.81514000  0.23202000  0.34509000  1.0
  N  N198  1  0.78226000  0.75285000  0.84717000  1.0
  N  N199  1  0.78226000  0.74715000  0.65283000  1.0
  N  N200  1  0.21775000  0.24715000  0.15283000  1.0
  N  N201  1  0.21775000  0.25285000  0.34717000  1.0
  N  N202  1  0.10790000  0.76509000  0.97491000  1.0
  N  N203  1  0.10790000  0.73491000  0.52509000  1.0
  N  N204  1  0.89210000  0.23491000  0.02509000  1.0
  N  N205  1  0.89210000  0.26509000  0.47491000  1.0
  N  N206  1  0.86407000  0.74013000  0.97598000  1.0
  N  N207  1  0.86406000  0.75987000  0.52403000  1.0
  N  N208  1  0.13594000  0.25987000  0.02402000  1.0
  N  N209  1  0.13594000  0.24013000  0.47597000  1.0
  N  N210  1  0.72098000  0.25000000  0.75000000  1.0
  N  N211  1  0.27901000  0.75000000  0.25000000  1.0
  N  N212  1  0.31746000  0.25000000  0.75000000  1.0
  N  N213  1  0.68253000  0.75000000  0.25000000  1.0
  Cl  Cl214  1  0.98012000  0.53525000  0.87305000  1.0
  Cl  Cl215  1  0.98012000  0.96475000  0.62694000  1.0
  Cl  Cl216  1  0.01988000  0.46475000  0.12695000  1.0
  Cl  Cl217  1  0.01988000  0.03525000  0.37305000  1.0
  Cl  Cl218  1  0.98380000  0.95948000  0.88620000  1.0
  Cl  Cl219  1  0.98380000  0.54052000  0.61380000  1.0
  Cl  Cl220  1  0.01620000  0.04052000  0.11379000  1.0
  Cl  Cl221  1  0.01620000  0.45948000  0.38621000  1.0
  Cl  Cl222  1  0.98346000  0.75000000  0.75000000  1.0
  Cl  Cl223  1  0.01655000  0.25000000  0.25000000  1.0
  Cl  Cl224  1  0.52319000  0.38836000  0.85188000  1.0
  Cl  Cl225  1  0.52320000  0.11164000  0.64812000  1.0
  Cl  Cl226  1  0.47680000  0.61164000  0.14812000  1.0
  Cl  Cl227  1  0.47681000  0.88836000  0.35188000  1.0
  Cl  Cl228  1  0.50992000  0.08834000  0.82217000  1.0
  Cl  Cl229  1  0.50992000  0.41167000  0.67783000  1.0
  Cl  Cl230  1  0.49008000  0.91166000  0.17783000  1.0
  Cl  Cl231  1  0.49008000  0.58833000  0.32217000  1.0
