# generated using pymatgen
data_Cu2H6C7S(IN)2
_symmetry_space_group_name_H-M   'P 1'
_cell_length_a   6.10863000
_cell_length_b   10.93190000
_cell_length_c   11.38972675
_cell_angle_alpha   106.39135587
_cell_angle_beta   105.46863870
_cell_angle_gamma   90.06760000
_symmetry_Int_Tables_number   1
_chemical_formula_structural   Cu2H6C7S(IN)2
_chemical_formula_sum   'Cu4 H12 C14 S2 I4 N4'
_cell_volume   700.84139689
_cell_formula_units_Z   2
loop_
 _symmetry_equiv_pos_site_id
 _symmetry_equiv_pos_as_xyz
  1  'x, y, z'
loop_
 _atom_site_type_symbol
 _atom_site_label
 _atom_site_symmetry_multiplicity
 _atom_site_fract_x
 _atom_site_fract_y
 _atom_site_fract_z
 _atom_site_occupancy
  Cu  Cu0  1  0.57773000  0.10128000  0.60530000  1.0
  Cu  Cu1  1  0.97305000  0.89879000  0.39481000  1.0
  Cu  Cu2  1  0.42227000  0.89872000  0.39470000  1.0
  Cu  Cu3  1  0.02695000  0.10122000  0.60519000  1.0
  H  H4  1  0.17929000  0.13637000  0.35737000  1.0
  H  H5  1  0.82072000  0.86363000  0.64263000  1.0
  H  H6  1  0.29759000  0.50369000  0.59507000  1.0
  H  H7  1  0.70241000  0.49631000  0.40493000  1.0
  H  H8  1  0.20119000  0.64264000  0.40175000  1.0
  H  H9  1  0.79881000  0.35736000  0.59824000  1.0
  H  H10  1  0.08421000  0.59641000  0.16740000  1.0
  H  H11  1  0.91577000  0.40358000  0.83259000  1.0
  H  H12  1  0.01320000  0.37158000  0.02455000  1.0
  H  H13  1  0.98679000  0.62842000  0.97544000  1.0
  H  H14  1  0.05819000  0.18728000  0.11398000  1.0
  H  H15  1  0.94181000  0.81272000  0.88602000  1.0
  C  C16  1  0.25623000  0.30532000  0.51206000  1.0
  C  C17  1  0.74378000  0.69468000  0.48794000  1.0
  C  C18  1  0.19504000  0.44008000  0.38915000  1.0
  C  C19  1  0.80496000  0.55992000  0.61085000  1.0
  C  C20  1  0.17056000  0.54417000  0.34030000  1.0
  C  C21  1  0.82945000  0.45583000  0.65971000  1.0
  C  C22  1  0.10446000  0.51653000  0.20783000  1.0
  C  C23  1  0.89554000  0.48347000  0.79217000  1.0
  C  C24  1  0.06460000  0.39000000  0.12760000  1.0
  C  C25  1  0.93540000  0.61000000  0.87240000  1.0
  C  C26  1  0.08910000  0.28539000  0.17616000  1.0
  C  C27  1  0.91090000  0.71461000  0.82384000  1.0
  C  C28  1  0.15487000  0.31281000  0.30837000  1.0
  C  C29  1  0.84514000  0.68719000  0.69163000  1.0
  S  S30  1  0.32195000  0.25400000  0.64412000  1.0
  S  S31  1  0.67805000  0.74600000  0.35588000  1.0
  I  I32  1  0.90309000  0.10518000  0.80741000  1.0
  I  I33  1  0.09691000  0.89482000  0.19259000  1.0
  I  I34  1  0.70183000  0.10458000  0.40298000  1.0
  I  I35  1  0.29817000  0.89542000  0.59702000  1.0
  N  N36  1  0.25664000  0.43066000  0.51297000  1.0
  N  N37  1  0.74336000  0.56934000  0.48703000  1.0
  N  N38  1  0.19439000  0.23457000  0.38770000  1.0
  N  N39  1  0.80561000  0.76543000  0.61230000  1.0
