# generated using pymatgen
data_CuH10C7(NO)3
_symmetry_space_group_name_H-M   'P 1'
_cell_length_a   6.60722000
_cell_length_b   8.11393000
_cell_length_c   18.27290000
_cell_angle_alpha   89.99960000
_cell_angle_beta   89.99940000
_cell_angle_gamma   91.94910000
_symmetry_Int_Tables_number   1
_chemical_formula_structural   CuH10C7(NO)3
_chemical_formula_sum   'Cu4 H40 C28 N12 O12'
_cell_volume   979.05290905
_cell_formula_units_Z   4
loop_
 _symmetry_equiv_pos_site_id
 _symmetry_equiv_pos_as_xyz
  1  'x, y, z'
loop_
 _atom_site_type_symbol
 _atom_site_label
 _atom_site_symmetry_multiplicity
 _atom_site_fract_x
 _atom_site_fract_y
 _atom_site_fract_z
 _atom_site_occupancy
  Cu  Cu0  1  0.94095000  0.22443000  0.51170000  1.0
  Cu  Cu1  1  0.05905000  0.27557000  0.01170000  1.0
  Cu  Cu2  1  0.05905000  0.77557000  0.48830000  1.0
  Cu  Cu3  1  0.94095000  0.72443000  0.98830000  1.0
  H  H4  1  0.57946000  0.10988000  0.50480000  1.0
  H  H5  1  0.42055000  0.39011000  0.00480000  1.0
  H  H6  1  0.42053000  0.89011000  0.49520000  1.0
  H  H7  1  0.57946000  0.60989000  0.99520000  1.0
  H  H8  1  0.62659000  0.26382000  0.43145000  1.0
  H  H9  1  0.37341000  0.23618000  0.93145000  1.0
  H  H10  1  0.37340000  0.73618000  0.56855000  1.0
  H  H11  1  0.62659000  0.76382000  0.06855000  1.0
  H  H12  1  0.72794000  0.47522000  0.52525000  1.0
  H  H13  1  0.27204000  0.02478000  0.02525000  1.0
  H  H14  1  0.27205000  0.52478000  0.47475000  1.0
  H  H15  1  0.72795000  0.97522000  0.97475000  1.0
  H  H16  1  0.65342000  0.19154000  0.63697000  1.0
  H  H17  1  0.34656000  0.30846000  0.13697000  1.0
  H  H18  1  0.34658000  0.80846000  0.36303000  1.0
  H  H19  1  0.65343000  0.69154000  0.86303000  1.0
  H  H20  1  0.77061000  0.38979000  0.65489000  1.0
  H  H21  1  0.22938000  0.11020000  0.15489000  1.0
  H  H22  1  0.22939000  0.61021000  0.34510000  1.0
  H  H23  1  0.77063000  0.88979000  0.84511000  1.0
  H  H24  1  0.57175000  0.59211000  0.70353000  1.0
  H  H25  1  0.42825000  0.90789000  0.20353000  1.0
  H  H26  1  0.42826000  0.40789000  0.29647000  1.0
  H  H27  1  0.57176000  0.09210000  0.79646000  1.0
  H  H28  1  0.47638000  0.42186000  0.75668000  1.0
  H  H29  1  0.52361000  0.07814000  0.25668000  1.0
  H  H30  1  0.52361000  0.57814000  0.24331000  1.0
  H  H31  1  0.47640000  0.92186000  0.74332000  1.0
  H  H32  1  0.20136000  0.65472000  0.66860000  1.0
  H  H33  1  0.79864000  0.84529000  0.16861000  1.0
  H  H34  1  0.79865000  0.34529000  0.33139000  1.0
  H  H35  1  0.20137000  0.15472000  0.83139000  1.0
  H  H36  1  0.16869000  0.48964000  0.82046000  1.0
  H  H37  1  0.83130000  0.01038000  0.32045000  1.0
  H  H38  1  0.83133000  0.51037000  0.17955000  1.0
  H  H39  1  0.16869000  0.98962000  0.67955000  1.0
  H  H40  1  0.98683000  0.62919000  0.77686000  1.0
  H  H41  1  0.01316000  0.87082000  0.27686000  1.0
  H  H42  1  0.01318000  0.37083000  0.22314000  1.0
  H  H43  1  0.98684000  0.12917000  0.72314000  1.0
  C  C44  1  0.64504000  0.22965000  0.48870000  1.0
  C  C45  1  0.35496000  0.27035000  0.98870000  1.0
  C  C46  1  0.35496000  0.77034000  0.51130000  1.0
  C  C47  1  0.64504000  0.72966000  0.01130000  1.0
  C  C48  1  0.69694000  0.34725000  0.54162000  1.0
  C  C49  1  0.30305000  0.15275000  0.04162000  1.0
  C  C50  1  0.30305000  0.65274000  0.45838000  1.0
  C  C51  1  0.69695000  0.84726000  0.95838000  1.0
  C  C52  1  0.65612000  0.32286000  0.62194000  1.0
  C  C53  1  0.34386000  0.17714000  0.12194000  1.0
  C  C54  1  0.34387000  0.67713000  0.37806000  1.0
  C  C55  1  0.65613000  0.82286000  0.87806000  1.0
  C  C56  1  0.44727000  0.49880000  0.70862000  1.0
  C  C57  1  0.55273000  0.00120000  0.20862000  1.0
  C  C58  1  0.55274000  0.50120000  0.29138000  1.0
  C  C59  1  0.44728000  0.99881000  0.79138000  1.0
  C  C60  1  0.24782000  0.57889000  0.71473000  1.0
  C  C61  1  0.75219000  0.92111000  0.21473000  1.0
  C  C62  1  0.75219000  0.42112000  0.28527000  1.0
  C  C63  1  0.24781000  0.07889000  0.78527000  1.0
  C  C64  1  0.12811000  0.56440000  0.77337000  1.0
  C  C65  1  0.87188000  0.93561000  0.27336000  1.0
  C  C66  1  0.87190000  0.43561000  0.22663000  1.0
  C  C67  1  0.12811000  0.06439000  0.72664000  1.0
  C  C68  1  0.29737000  0.34487000  0.60684000  1.0
  C  C69  1  0.70263000  0.15513000  0.10684000  1.0
  C  C70  1  0.70264000  0.65513000  0.39316000  1.0
  C  C71  1  0.29738000  0.84487000  0.89316000  1.0
  N  N72  1  0.45953000  0.39606000  0.64173000  1.0
  N  N73  1  0.54046000  0.10394000  0.14173000  1.0
  N  N74  1  0.54047000  0.60394000  0.35827000  1.0
  N  N75  1  0.45954000  0.89606000  0.85827000  1.0
  N  N76  1  0.15897000  0.29779000  0.57132000  1.0
  N  N77  1  0.84102000  0.20222000  0.07132000  1.0
  N  N78  1  0.84103000  0.70221000  0.42868000  1.0
  N  N79  1  0.15898000  0.79779000  0.92868000  1.0
  N  N80  1  0.18829000  0.16136000  0.39269000  1.0
  N  N81  1  0.81171000  0.33864000  0.89269000  1.0
  N  N82  1  0.81172000  0.83864000  0.60731000  1.0
  N  N83  1  0.18828000  0.66136000  0.10731000  1.0
  O  O84  1  0.15870000  0.31268000  0.38664000  1.0
  O  O85  1  0.84129000  0.18732000  0.88664000  1.0
  O  O86  1  0.84130000  0.68732000  0.61336000  1.0
  O  O87  1  0.15870000  0.81268000  0.11336000  1.0
  O  O88  1  0.31577000  0.08820000  0.35537000  1.0
  O  O89  1  0.68424000  0.41180000  0.85537000  1.0
  O  O90  1  0.68424000  0.91179000  0.64463000  1.0
  O  O91  1  0.31574000  0.58820000  0.14464000  1.0
  O  O92  1  0.08014000  0.07642000  0.44038000  1.0
  O  O93  1  0.91985000  0.42358000  0.94038000  1.0
  O  O94  1  0.91985000  0.92358000  0.55962000  1.0
  O  O95  1  0.08015000  0.57642000  0.05962000  1.0
