# generated using pymatgen
data_ZnH17C26O5
_symmetry_space_group_name_H-M   'P 1'
_cell_length_a   12.95180000
_cell_length_b   26.67960000
_cell_length_c   26.67970000
_cell_angle_alpha   65.74950000
_cell_angle_beta   75.95360000
_cell_angle_gamma   75.95350000
_symmetry_Int_Tables_number   1
_chemical_formula_structural   ZnH17C26O5
_chemical_formula_sum   'Zn8 H136 C208 O40'
_cell_volume   8046.98544972
_cell_formula_units_Z   8
loop_
 _symmetry_equiv_pos_site_id
 _symmetry_equiv_pos_as_xyz
  1  'x, y, z'
loop_
 _atom_site_type_symbol
 _atom_site_label
 _atom_site_symmetry_multiplicity
 _atom_site_fract_x
 _atom_site_fract_y
 _atom_site_fract_z
 _atom_site_occupancy
  Zn  Zn0  1  0.16369000  0.48356000  0.36621000  1.0
  Zn  Zn1  1  0.01258000  0.55920000  0.29081000  1.0
  Zn  Zn2  1  0.98672000  0.86632000  0.98352000  1.0
  Zn  Zn3  1  0.13736000  0.79100000  0.05923000  1.0
  Zn  Zn4  1  0.33631000  0.63379000  0.51644000  1.0
  Zn  Zn5  1  0.48742000  0.70918000  0.44080000  1.0
  Zn  Zn6  1  0.51328000  0.01648000  0.13368000  1.0
  Zn  Zn7  1  0.36265000  0.94077000  0.20900000  1.0
  H  H8  1  0.02895000  0.26068000  0.37777000  1.0
  H  H9  1  0.08376000  0.34614000  0.37263000  1.0
  H  H10  1  0.84615000  0.44785000  0.26774000  1.0
  H  H11  1  0.78922000  0.36292000  0.27432000  1.0
  H  H12  1  0.02315000  0.20647000  0.32310000  1.0
  H  H13  1  0.69900000  0.29232000  0.34626000  1.0
  H  H14  1  0.95389000  0.12204000  0.33896000  1.0
  H  H15  1  0.55821000  0.31178000  0.28721000  1.0
  H  H16  1  0.42692000  0.39193000  0.30298000  1.0
  H  H17  1  0.33039000  0.28787000  0.47261000  1.0
  H  H18  1  0.46397000  0.20759000  0.45799000  1.0
  H  H19  1  0.47458000  0.15949000  0.38065000  1.0
  H  H20  1  0.83420000  0.95551000  0.09311000  1.0
  H  H21  1  0.77984000  0.99758000  0.16467000  1.0
  H  H22  1  0.09672000  0.93430000  0.21167000  1.0
  H  H23  1  0.14847000  0.89022000  0.14159000  1.0
  H  H24  1  0.79479000  0.06238000  0.19527000  1.0
  H  H25  1  0.74625000  0.10014000  0.26968000  1.0
  H  H26  1  0.99978000  0.92218000  0.29461000  1.0
  H  H27  1  0.96401000  0.95182000  0.46351000  1.0
  H  H28  1  0.15734000  0.94464000  0.31627000  1.0
  H  H29  1  0.96252000  0.85309000  0.46758000  1.0
  H  H30  1  0.30612000  0.86323000  0.33388000  1.0
  H  H31  1  0.10909000  0.77089000  0.48305000  1.0
  H  H32  1  0.48291000  0.01953000  0.38998000  1.0
  H  H33  1  0.43260000  0.08341000  0.40012000  1.0
  H  H34  1  0.39259000  0.09013000  0.30973000  1.0
  H  H35  1  0.48620000  0.13523000  0.29501000  1.0
  H  H36  1  0.53160000  0.06938000  0.28806000  1.0
  H  H37  1  0.87713000  0.97855000  0.52556000  1.0
  H  H38  1  0.81780000  0.04131000  0.53619000  1.0
  H  H39  1  0.01548000  0.02452000  0.53659000  1.0
  H  H40  1  0.04405000  0.02191000  0.46891000  1.0
  H  H41  1  0.98030000  0.08535000  0.47818000  1.0
  H  H42  1  0.33294000  0.87777000  0.76081000  1.0
  H  H43  1  0.19780000  0.87262000  0.84627000  1.0
  H  H44  1  0.43856000  0.76775000  0.94798000  1.0
  H  H45  1  0.57384000  0.77430000  0.86307000  1.0
  H  H46  1  0.44761000  0.82307000  0.70668000  1.0
  H  H47  1  0.66286000  0.84637000  0.79235000  1.0
  H  H48  1  0.58525000  0.83900000  0.62216000  1.0
  H  H49  1  0.84350000  0.78715000  0.81183000  1.0
  H  H50  1  0.87864000  0.80310000  0.89193000  1.0
  H  H51  1  0.90953000  0.97269000  0.78773000  1.0
  H  H52  1  0.87100000  0.95792000  0.70750000  1.0
  H  H53  1  0.98578000  0.88041000  0.65947000  1.0
  H  H54  1  0.11717000  0.59304000  0.45527000  1.0
  H  H55  1  0.05815000  0.66447000  0.49754000  1.0
  H  H56  1  0.75718000  0.71152000  0.43459000  1.0
  H  H57  1  0.81944000  0.64164000  0.39025000  1.0
  H  H58  1  0.94739000  0.69509000  0.56256000  1.0
  H  H59  1  0.88372000  0.76954000  0.60028000  1.0
  H  H60  1  0.78405000  0.79458000  0.42209000  1.0
  H  H61  1  0.62076000  0.96340000  0.45184000  1.0
  H  H62  1  0.58158000  0.81636000  0.44462000  1.0
  H  H63  1  0.71694000  0.96757000  0.35305000  1.0
  H  H64  1  0.49616000  0.83413000  0.36331000  1.0
  H  H65  1  0.63648000  0.98326000  0.27097000  1.0
  H  H66  1  0.10770000  0.89006000  0.51948000  1.0
  H  H67  1  0.08391000  0.90015000  0.58339000  1.0
  H  H68  1  0.20790000  0.80982000  0.59003000  1.0
  H  H69  1  0.08394000  0.79501000  0.63516000  1.0
  H  H70  1  0.11135000  0.78810000  0.56928000  1.0
  H  H71  1  0.61879000  0.02548000  0.47854000  1.0
  H  H72  1  0.60478000  0.03614000  0.54127000  1.0
  H  H73  1  0.42346000  0.03659000  0.52452000  1.0
  H  H74  1  0.46505000  0.96890000  0.52193000  1.0
  H  H75  1  0.45619000  0.97818000  0.58535000  1.0
  H  H76  1  0.47105000  0.62223000  0.73932000  1.0
  H  H77  1  0.41624000  0.62737000  0.65386000  1.0
  H  H78  1  0.65385000  0.73226000  0.55215000  1.0
  H  H79  1  0.71078000  0.72568000  0.63708000  1.0
  H  H80  1  0.47685000  0.67690000  0.79353000  1.0
  H  H81  1  0.80099000  0.65374000  0.70768000  1.0
  H  H82  1  0.54611000  0.66104000  0.87796000  1.0
  H  H83  1  0.94179000  0.71279000  0.68822000  1.0
  H  H84  1  0.07308000  0.69702000  0.60806000  1.0
  H  H85  1  0.16961000  0.52739000  0.71213000  1.0
  H  H86  1  0.03603000  0.54201000  0.79241000  1.0
  H  H87  1  0.02542000  0.61935000  0.84051000  1.0
  H  H88  1  0.66580000  0.90689000  0.04449000  1.0
  H  H89  1  0.72016000  0.83533000  0.00242000  1.0
  H  H90  1  0.40328000  0.78833000  0.06570000  1.0
  H  H91  1  0.35154000  0.85841000  0.10978000  1.0
  H  H92  1  0.70521000  0.80473000  0.93762000  1.0
  H  H93  1  0.75375000  0.73032000  0.89986000  1.0
  H  H94  1  0.50022000  0.70540000  0.07782000  1.0
  H  H95  1  0.53599000  0.53649000  0.04818000  1.0
  H  H96  1  0.34266000  0.68373000  0.05536000  1.0
  H  H97  1  0.53748000  0.53242000  0.14691000  1.0
  H  H98  1  0.19388000  0.66613000  0.13677000  1.0
  H  H99  1  0.39091000  0.51695000  0.22911000  1.0
  H  H100  1  0.01709000  0.61002000  0.98047000  1.0
  H  H101  1  0.06740000  0.59988000  0.91659000  1.0
  H  H102  1  0.10741000  0.69027000  0.90987000  1.0
  H  H103  1  0.01380000  0.70499000  0.86476000  1.0
  H  H104  1  0.96840000  0.71194000  0.93062000  1.0
  H  H105  1  0.62287000  0.47443000  0.02145000  1.0
  H  H106  1  0.68220000  0.46380000  0.95870000  1.0
  H  H107  1  0.48452000  0.46341000  0.97548000  1.0
  H  H108  1  0.45595000  0.53108000  0.97809000  1.0
  H  H109  1  0.51970000  0.52181000  0.91465000  1.0
  H  H110  1  0.16706000  0.23919000  0.12223000  1.0
  H  H111  1  0.30220000  0.15373000  0.12738000  1.0
  H  H112  1  0.06144000  0.05201000  0.23225000  1.0
  H  H113  1  0.92616000  0.13692000  0.22570000  1.0
  H  H114  1  0.05239000  0.29332000  0.17693000  1.0
  H  H115  1  0.83713000  0.20765000  0.15363000  1.0
  H  H116  1  0.91474000  0.37784000  0.16100000  1.0
  H  H117  1  0.65650000  0.18817000  0.21285000  1.0
  H  H118  1  0.62136000  0.10807000  0.19690000  1.0
  H  H119  1  0.59047000  0.21227000  0.02731000  1.0
  H  H120  1  0.62899000  0.29250000  0.04208000  1.0
  H  H121  1  0.51422000  0.34053000  0.11959000  1.0
  H  H122  1  0.38283000  0.54473000  0.40696000  1.0
  H  H123  1  0.44185000  0.50246000  0.33553000  1.0
  H  H124  1  0.74282000  0.56541000  0.28848000  1.0
  H  H125  1  0.68056000  0.60975000  0.35836000  1.0
  H  H126  1  0.55261000  0.43744000  0.30491000  1.0
  H  H127  1  0.61628000  0.39972000  0.23046000  1.0
  H  H128  1  0.71595000  0.57792000  0.20542000  1.0
  H  H129  1  0.87923000  0.54816000  0.03660000  1.0
  H  H130  1  0.91842000  0.55538000  0.18364000  1.0
  H  H131  1  0.78305000  0.64696000  0.03243000  1.0
  H  H132  1  0.00384000  0.63669000  0.16587000  1.0
  H  H133  1  0.86352000  0.72903000  0.01674000  1.0
  H  H134  1  0.39230000  0.48052000  0.10994000  1.0
  H  H135  1  0.41608000  0.41662000  0.09985000  1.0
  H  H136  1  0.29209000  0.40997000  0.19018000  1.0
  H  H137  1  0.41606000  0.36484000  0.20499000  1.0
  H  H138  1  0.38864000  0.43073000  0.21189000  1.0
  H  H139  1  0.88121000  0.52146000  0.97452000  1.0
  H  H140  1  0.89522000  0.45873000  0.96386000  1.0
  H  H141  1  0.07654000  0.47548000  0.96341000  1.0
  H  H142  1  0.03495000  0.47807000  0.03110000  1.0
  H  H143  1  0.04381000  0.41465000  0.02181000  1.0
  C  C144  1  0.90440000  0.30574000  0.32680000  1.0
  C  C145  1  0.98979000  0.30170000  0.35305000  1.0
  C  C146  1  0.02069000  0.34927000  0.35035000  1.0
  C  C147  1  0.96871000  0.40230000  0.31977000  1.0
  C  C148  1  0.88603000  0.40681000  0.29177000  1.0
  C  C149  1  0.85404000  0.35906000  0.29575000  1.0
  C  C150  1  0.86470000  0.25558000  0.33362000  1.0
  C  C151  1  0.93639000  0.20634000  0.33220000  1.0
  C  C152  1  0.75459000  0.25537000  0.34337000  1.0
  C  C153  1  0.71201000  0.20776000  0.35215000  1.0
  C  C154  1  0.89776000  0.15923000  0.34082000  1.0
  C  C155  1  0.78510000  0.15796000  0.35153000  1.0
  C  C156  1  0.59862000  0.20656000  0.36439000  1.0
  C  C157  1  0.51998000  0.25452000  0.37177000  1.0
  C  C158  1  0.50938000  0.30673000  0.32806000  1.0
  C  C159  1  0.43674000  0.35138000  0.33665000  1.0
  C  C160  1  0.37289000  0.34486000  0.38887000  1.0
  C  C161  1  0.38140000  0.29264000  0.43237000  1.0
  C  C162  1  0.45483000  0.24804000  0.42384000  1.0
  C  C163  1  0.56132000  0.15906000  0.37216000  1.0
  C  C164  1  0.63360000  0.11057000  0.37022000  1.0
  C  C165  1  0.74457000  0.10895000  0.36192000  1.0
  C  C166  1  0.89109000  0.95079000  0.11950000  1.0
  C  C167  1  0.99400000  0.91926000  0.11352000  1.0
  C  C168  1  0.86108000  0.97432000  0.15986000  1.0
  C  C169  1  0.93352000  0.96719000  0.19496000  1.0
  C  C170  1  0.03811000  0.93756000  0.18682000  1.0
  C  C171  1  0.06779000  0.91351000  0.14719000  1.0
  C  C172  1  0.90286000  0.98962000  0.23953000  1.0
  C  C173  1  0.82901000  0.03998000  0.23357000  1.0
  C  C174  1  0.80244000  0.06125000  0.27489000  1.0
  C  C175  1  0.94667000  0.96203000  0.28841000  1.0
  C  C176  1  0.92212000  0.98298000  0.33154000  1.0
  C  C177  1  0.84732000  0.03395000  0.32498000  1.0
  C  C178  1  0.81876000  0.05562000  0.36784000  1.0
  C  C179  1  0.86016000  0.02561000  0.41755000  1.0
  C  C180  1  0.93218000  0.97493000  0.42466000  1.0
  C  C181  1  0.96541000  0.95431000  0.38240000  1.0
  C  C182  1  0.04929000  0.90413000  0.39050000  1.0
  C  C183  1  0.14623000  0.90625000  0.35240000  1.0
  C  C184  1  0.03689000  0.85502000  0.43768000  1.0
  C  C185  1  0.22919000  0.86092000  0.36189000  1.0
  C  C186  1  0.11883000  0.80910000  0.44665000  1.0
  C  C187  1  0.21608000  0.81206000  0.40909000  1.0
  C  C188  1  0.49145000  0.06367000  0.37342000  1.0
  C  C189  1  0.47477000  0.09144000  0.31298000  1.0
  C  C190  1  0.87484000  0.02388000  0.50736000  1.0
  C  C191  1  0.98528000  0.03986000  0.49689000  1.0
  C  C192  1  0.30773000  0.76597000  0.42166000  1.0
  C  C193  1  0.02456000  0.88938000  0.07476000  1.0
  C  C194  1  0.99980000  0.45268000  0.31861000  1.0
  C  C195  1  0.29292000  0.39300000  0.39624000  1.0
  C  C196  1  0.46346000  0.82683000  0.80587000  1.0
  C  C197  1  0.35583000  0.85307000  0.80183000  1.0
  C  C198  1  0.28001000  0.85036000  0.84939000  1.0
  C  C199  1  0.30951000  0.81979000  0.90243000  1.0
  C  C200  1  0.41567000  0.79179000  0.90694000  1.0
  C  C201  1  0.49148000  0.79576000  0.85919000  1.0
  C  C202  1  0.54647000  0.83367000  0.75570000  1.0
  C  C203  1  0.52538000  0.83222000  0.70649000  1.0
  C  C204  1  0.64706000  0.84344000  0.75543000  1.0
  C  C205  1  0.72846000  0.85215000  0.70780000  1.0
  C  C206  1  0.60240000  0.84085000  0.65934000  1.0
  C  C207  1  0.70567000  0.85154000  0.65802000  1.0
  C  C208  1  0.83091000  0.86432000  0.70656000  1.0
  C  C209  1  0.85438000  0.87170000  0.75449000  1.0
  C  C210  1  0.85648000  0.82803000  0.80673000  1.0
  C  C211  1  0.87573000  0.83672000  0.85135000  1.0
  C  C212  1  0.89379000  0.88896000  0.84480000  1.0
  C  C213  1  0.89411000  0.93241000  0.79255000  1.0
  C  C214  1  0.87392000  0.92380000  0.74796000  1.0
  C  C215  1  0.90788000  0.87203000  0.65903000  1.0
  C  C216  1  0.88586000  0.87014000  0.61056000  1.0
  C  C217  1  0.78476000  0.86188000  0.60897000  1.0
  C  C218  1  0.03860000  0.61945000  0.45065000  1.0
  C  C219  1  0.97312000  0.61355000  0.41911000  1.0
  C  C220  1  0.00485000  0.65972000  0.47430000  1.0
  C  C221  1  0.90445000  0.69483000  0.46725000  1.0
  C  C222  1  0.83745000  0.68671000  0.43770000  1.0
  C  C223  1  0.87135000  0.64719000  0.41351000  1.0
  C  C224  1  0.86820000  0.73943000  0.48966000  1.0
  C  C225  1  0.89743000  0.73343000  0.54009000  1.0
  C  C226  1  0.86140000  0.77477000  0.56134000  1.0
  C  C227  1  0.80328000  0.78836000  0.46200000  1.0
  C  C228  1  0.76367000  0.83149000  0.48295000  1.0
  C  C229  1  0.79389000  0.82491000  0.53397000  1.0
  C  C230  1  0.75792000  0.86777000  0.55565000  1.0
  C  C231  1  0.69678000  0.91747000  0.52563000  1.0
  C  C232  1  0.66840000  0.92457000  0.47493000  1.0
  C  C233  1  0.69815000  0.88234000  0.45426000  1.0
  C  C234  1  0.65618000  0.89050000  0.40409000  1.0
  C  C235  1  0.59495000  0.85250000  0.40624000  1.0
  C  C236  1  0.67035000  0.93773000  0.35501000  1.0
  C  C237  1  0.54757000  0.86208000  0.36096000  1.0
  C  C238  1  0.62504000  0.94681000  0.30914000  1.0
  C  C239  1  0.56227000  0.90930000  0.31210000  1.0
  C  C240  1  0.07166000  0.87344000  0.56363000  1.0
  C  C241  1  0.12114000  0.81303000  0.59136000  1.0
  C  C242  1  0.59396000  0.00730000  0.52387000  1.0
  C  C243  1  0.47798000  0.99688000  0.53986000  1.0
  C  C244  1  0.50422000  0.92186000  0.26598000  1.0
  C  C245  1  0.01121000  0.57487000  0.38915000  1.0
  C  C246  1  0.22915000  0.81871000  0.95278000  1.0
  C  C247  1  0.91796000  0.89638000  0.89298000  1.0
  C  C248  1  0.59560000  0.67320000  0.69426000  1.0
  C  C249  1  0.51021000  0.64694000  0.69830000  1.0
  C  C250  1  0.47931000  0.64964000  0.65073000  1.0
  C  C251  1  0.53129000  0.68023000  0.59770000  1.0
  C  C252  1  0.61397000  0.70822000  0.59319000  1.0
  C  C253  1  0.64596000  0.70425000  0.64094000  1.0
  C  C254  1  0.63530000  0.66638000  0.74442000  1.0
  C  C255  1  0.56361000  0.66780000  0.79366000  1.0
  C  C256  1  0.74541000  0.65662000  0.74463000  1.0
  C  C257  1  0.78799000  0.64785000  0.79224000  1.0
  C  C258  1  0.60223000  0.65918000  0.84077000  1.0
  C  C259  1  0.71490000  0.64847000  0.84204000  1.0
  C  C260  1  0.90138000  0.63561000  0.79344000  1.0
  C  C261  1  0.98002000  0.62823000  0.74548000  1.0
  C  C262  1  0.99062000  0.67194000  0.69327000  1.0
  C  C263  1  0.06326000  0.66334000  0.64862000  1.0
  C  C264  1  0.12711000  0.61113000  0.65514000  1.0
  C  C265  1  0.11860000  0.56763000  0.70736000  1.0
  C  C266  1  0.04517000  0.57616000  0.75196000  1.0
  C  C267  1  0.93868000  0.62784000  0.84094000  1.0
  C  C268  1  0.86640000  0.62978000  0.88943000  1.0
  C  C269  1  0.75543000  0.63808000  0.89105000  1.0
  C  C270  1  0.60891000  0.88050000  0.04921000  1.0
  C  C271  1  0.50601000  0.88648000  0.08074000  1.0
  C  C272  1  0.63892000  0.84014000  0.02567000  1.0
  C  C273  1  0.56648000  0.80505000  0.03281000  1.0
  C  C274  1  0.46190000  0.81318000  0.06243000  1.0
  C  C275  1  0.43221000  0.85281000  0.08649000  1.0
  C  C276  1  0.59714000  0.76047000  0.01038000  1.0
  C  C277  1  0.67099000  0.76643000  0.96002000  1.0
  C  C278  1  0.69756000  0.72512000  0.93875000  1.0
  C  C279  1  0.55333000  0.71159000  0.03797000  1.0
  C  C280  1  0.57788000  0.66846000  0.01701000  1.0
  C  C281  1  0.65268000  0.67502000  0.96605000  1.0
  C  C282  1  0.68124000  0.63216000  0.94438000  1.0
  C  C283  1  0.63984000  0.58245000  0.97439000  1.0
  C  C284  1  0.56782000  0.57534000  0.02507000  1.0
  C  C285  1  0.53459000  0.61760000  0.04569000  1.0
  C  C286  1  0.45071000  0.60950000  0.09587000  1.0
  C  C287  1  0.35377000  0.64760000  0.09375000  1.0
  C  C288  1  0.46311000  0.56232000  0.14498000  1.0
  C  C289  1  0.27081000  0.63812000  0.13908000  1.0
  C  C290  1  0.38116000  0.55335000  0.19090000  1.0
  C  C291  1  0.28392000  0.59091000  0.18794000  1.0
  C  C292  1  0.00855000  0.62658000  0.93633000  1.0
  C  C293  1  0.02522000  0.68702000  0.90856000  1.0
  C  C294  1  0.62516000  0.49264000  0.97612000  1.0
  C  C295  1  0.51471000  0.50311000  0.96014000  1.0
  C  C296  1  0.19227000  0.57834000  0.23403000  1.0
  C  C297  1  0.47545000  0.92524000  0.11062000  1.0
  C  C298  1  0.50020000  0.68138000  0.54732000  1.0
  C  C299  1  0.20708000  0.60375000  0.60700000  1.0
  C  C300  1  0.03654000  0.19413000  0.17317000  1.0
  C  C301  1  0.14417000  0.19817000  0.14693000  1.0
  C  C302  1  0.21998000  0.15061000  0.14964000  1.0
  C  C303  1  0.19049000  0.09757000  0.18021000  1.0
  C  C304  1  0.08433000  0.09306000  0.20821000  1.0
  C  C305  1  0.00852000  0.14081000  0.20424000  1.0
  C  C306  1  0.95353000  0.24430000  0.16633000  1.0
  C  C307  1  0.97461000  0.29351000  0.16778000  1.0
  C  C308  1  0.85293000  0.24457000  0.15656000  1.0
  C  C309  1  0.77154000  0.29220000  0.14785000  1.0
  C  C310  1  0.89760000  0.34066000  0.15915000  1.0
  C  C311  1  0.79432000  0.34198000  0.14846000  1.0
  C  C312  1  0.66909000  0.29344000  0.13568000  1.0
  C  C313  1  0.64562000  0.24551000  0.12830000  1.0
  C  C314  1  0.64352000  0.19327000  0.17197000  1.0
  C  C315  1  0.62427000  0.14865000  0.16328000  1.0
  C  C316  1  0.60621000  0.15520000  0.11104000  1.0
  C  C317  1  0.60589000  0.20745000  0.06759000  1.0
  C  C318  1  0.62608000  0.25204000  0.07620000  1.0
  C  C319  1  0.59212000  0.34097000  0.12797000  1.0
  C  C320  1  0.61414000  0.38945000  0.12985000  1.0
  C  C321  1  0.71525000  0.39103000  0.13811000  1.0
  C  C322  1  0.46140000  0.54936000  0.38055000  1.0
  C  C323  1  0.52688000  0.58089000  0.38645000  1.0
  C  C324  1  0.49515000  0.52570000  0.34028000  1.0
  C  C325  1  0.59556000  0.53275000  0.30516000  1.0
  C  C326  1  0.66255000  0.56230000  0.31329000  1.0
  C  C327  1  0.62865000  0.58649000  0.35281000  1.0
  C  C328  1  0.63181000  0.51034000  0.26057000  1.0
  C  C329  1  0.60257000  0.45991000  0.26657000  1.0
  C  C330  1  0.63860000  0.43866000  0.22523000  1.0
  C  C331  1  0.69672000  0.53801000  0.21164000  1.0
  C  C332  1  0.73633000  0.51705000  0.16851000  1.0
  C  C333  1  0.70612000  0.46603000  0.17508000  1.0
  C  C334  1  0.74209000  0.44435000  0.13223000  1.0
  C  C335  1  0.80322000  0.47437000  0.08253000  1.0
  C  C336  1  0.83160000  0.52507000  0.07543000  1.0
  C  C337  1  0.80185000  0.54574000  0.11766000  1.0
  C  C338  1  0.84382000  0.59591000  0.10950000  1.0
  C  C339  1  0.90505000  0.59376000  0.14750000  1.0
  C  C340  1  0.82965000  0.64499000  0.06227000  1.0
  C  C341  1  0.95243000  0.63904000  0.13792000  1.0
  C  C342  1  0.87496000  0.69086000  0.05319000  1.0
  C  C343  1  0.93773000  0.68790000  0.09070000  1.0
  C  C344  1  0.42833000  0.43638000  0.12656000  1.0
  C  C345  1  0.37886000  0.40864000  0.18697000  1.0
  C  C346  1  0.90604000  0.47613000  0.99270000  1.0
  C  C347  1  0.02202000  0.46014000  0.00312000  1.0
  C  C348  1  0.99578000  0.73402000  0.07814000  1.0
  C  C349  1  0.48879000  0.61085000  0.42513000  1.0
  C  C350  1  0.27085000  0.04722000  0.18129000  1.0
  C  C351  1  0.58204000  0.10702000  0.10362000  1.0
  O  O352  1  0.82608000  0.04808000  0.45757000  1.0
  O  O353  1  0.59996000  0.06188000  0.37980000  1.0
  O  O354  1  0.40066000  0.77219000  0.39004000  1.0
  O  O355  1  0.29737000  0.72192000  0.46522000  1.0
  O  O356  1  0.96260000  0.50068000  0.28336000  1.0
  O  O357  1  0.06023000  0.44684000  0.35232000  1.0
  O  O358  1  0.96248000  0.89868000  0.04007000  1.0
  O  O359  1  0.11295000  0.85409000  0.07964000  1.0
  O  O360  1  0.30757000  0.44186000  0.35764000  1.0
  O  O361  1  0.21376000  0.38709000  0.43474000  1.0
  O  O362  1  0.66827000  0.95749000  0.54809000  1.0
  O  O363  1  0.95858000  0.87970000  0.56186000  1.0
  O  O364  1  0.43718000  0.89005000  0.27203000  1.0
  O  O365  1  0.51473000  0.96555000  0.22203000  1.0
  O  O366  1  0.25348000  0.78345000  0.00079000  1.0
  O  O367  1  0.14094000  0.85249000  0.94688000  1.0
  O  O368  1  0.09858000  0.54011000  0.39851000  1.0
  O  O369  1  0.95338000  0.57988000  0.35374000  1.0
  O  O370  1  0.89311000  0.85774000  0.94181000  1.0
  O  O371  1  0.96432000  0.93494000  0.88712000  1.0
  O  O372  1  0.67392000  0.54243000  0.95192000  1.0
  O  O373  1  0.90005000  0.62020000  0.93812000  1.0
  O  O374  1  0.09934000  0.60996000  0.22781000  1.0
  O  O375  1  0.20263000  0.53478000  0.27808000  1.0
  O  O376  1  0.53740000  0.71664000  0.49932000  1.0
  O  O377  1  0.43976000  0.64768000  0.55316000  1.0
  O  O378  1  0.53753000  0.95993000  0.10132000  1.0
  O  O379  1  0.38706000  0.92036000  0.14591000  1.0
  O  O380  1  0.19242000  0.64236000  0.55814000  1.0
  O  O381  1  0.28623000  0.56525000  0.61291000  1.0
  O  O382  1  0.83173000  0.45191000  0.04251000  1.0
  O  O383  1  0.54142000  0.43814000  0.12030000  1.0
  O  O384  1  0.06282000  0.72797000  0.10995000  1.0
  O  O385  1  0.98526000  0.77798000  0.03445000  1.0
  O  O386  1  0.24652000  0.99920000  0.21656000  1.0
  O  O387  1  0.35906000  0.05312000  0.14751000  1.0
  O  O388  1  0.40142000  0.60149000  0.45989000  1.0
  O  O389  1  0.54663000  0.64626000  0.42013000  1.0
  O  O390  1  0.60689000  0.05818000  0.14227000  1.0
  O  O391  1  0.53568000  0.11288000  0.06506000  1.0
