# generated using pymatgen
data_ZnH10C10NO5
_symmetry_space_group_name_H-M   'P 1'
_cell_length_a   5.76170000
_cell_length_b   12.32350000
_cell_length_c   15.28800000
_cell_angle_alpha   90.00000000
_cell_angle_beta   100.11900000
_cell_angle_gamma   90.00000000
_symmetry_Int_Tables_number   1
_chemical_formula_structural   ZnH10C10NO5
_chemical_formula_sum   'Zn4 H40 C40 N4 O20'
_cell_volume   1068.62869159
_cell_formula_units_Z   4
loop_
 _symmetry_equiv_pos_site_id
 _symmetry_equiv_pos_as_xyz
  1  'x, y, z'
loop_
 _atom_site_type_symbol
 _atom_site_label
 _atom_site_symmetry_multiplicity
 _atom_site_fract_x
 _atom_site_fract_y
 _atom_site_fract_z
 _atom_site_occupancy
  Zn  Zn0  1  0.66181000  0.34081000  0.47031000  1.0
  Zn  Zn1  1  0.33820000  0.34082000  0.02969000  1.0
  Zn  Zn2  1  0.33821000  0.65919000  0.52969000  1.0
  Zn  Zn3  1  0.66181000  0.65919000  0.97031000  1.0
  H  H4  1  0.93091000  0.13575000  0.46928000  1.0
  H  H5  1  0.06906000  0.13578000  0.03072000  1.0
  H  H6  1  0.06910000  0.86423000  0.53073000  1.0
  H  H7  1  0.93093000  0.86424000  0.96927000  1.0
  H  H8  1  0.85700000  0.94946000  0.40032000  1.0
  H  H9  1  0.14295000  0.94949000  0.09968000  1.0
  H  H10  1  0.14299000  0.05053000  0.59969000  1.0
  H  H11  1  0.85700000  0.05053000  0.90031000  1.0
  H  H12  1  0.14740000  0.05399000  0.29886000  1.0
  H  H13  1  0.85258000  0.05397000  0.20112000  1.0
  H  H14  1  0.85262000  0.94602000  0.70114000  1.0
  H  H15  1  0.14739000  0.94601000  0.79886000  1.0
  H  H16  1  0.25033000  0.23540000  0.36527000  1.0
  H  H17  1  0.74967000  0.23538000  0.13472000  1.0
  H  H18  1  0.74970000  0.76461000  0.63472000  1.0
  H  H19  1  0.25034000  0.76461000  0.86528000  1.0
  H  H20  1  0.25474000  0.86967000  0.27630000  1.0
  H  H21  1  0.74521000  0.86966000  0.22368000  1.0
  H  H22  1  0.74524000  0.13033000  0.72370000  1.0
  H  H23  1  0.25475000  0.13034000  0.77630000  1.0
  H  H24  1  0.52319000  0.81408000  0.33492000  1.0
  H  H25  1  0.47673000  0.81408000  0.16507000  1.0
  H  H26  1  0.47679000  0.18591000  0.66507000  1.0
  H  H27  1  0.52322000  0.18591000  0.83493000  1.0
  H  H28  1  0.25526000  0.31392000  0.74473000  1.0
  H  H29  1  0.74473000  0.31393000  0.75527000  1.0
  H  H30  1  0.74474000  0.68608000  0.25528000  1.0
  H  H31  1  0.25526000  0.68608000  0.24474000  1.0
  H  H32  1  0.26533000  0.50295000  0.78718000  1.0
  H  H33  1  0.73470000  0.50296000  0.71282000  1.0
  H  H34  1  0.73468000  0.49705000  0.21283000  1.0
  H  H35  1  0.26529000  0.49704000  0.28717000  1.0
  H  H36  1  0.34410000  0.42994000  0.55331000  1.0
  H  H37  1  0.65591000  0.42995000  0.94670000  1.0
  H  H38  1  0.65591000  0.57005000  0.44670000  1.0
  H  H39  1  0.34409000  0.57006000  0.05330000  1.0
  H  H40  1  0.20686000  0.37743000  0.46243000  1.0
  H  H41  1  0.79314000  0.37744000  0.03758000  1.0
  H  H42  1  0.79316000  0.62256000  0.53758000  1.0
  H  H43  1  0.20686000  0.62257000  0.96242000  1.0
  C  C44  1  0.76184000  0.11337000  0.42949000  1.0
  C  C45  1  0.23816000  0.11339000  0.07051000  1.0
  C  C46  1  0.23820000  0.88663000  0.57052000  1.0
  C  C47  1  0.76182000  0.88662000  0.92949000  1.0
  C  C48  1  0.71851000  0.01085000  0.39243000  1.0
  C  C49  1  0.28145000  0.01087000  0.10756000  1.0
  C  C50  1  0.28151000  0.98912000  0.60757000  1.0
  C  C51  1  0.71852000  0.98915000  0.89243000  1.0
  C  C52  1  0.49553000  0.98684000  0.34305000  1.0
  C  C53  1  0.50447000  0.98685000  0.15695000  1.0
  C  C54  1  0.50448000  0.01316000  0.65695000  1.0
  C  C55  1  0.49549000  0.01314000  0.84304000  1.0
  C  C56  1  0.32442000  0.06858000  0.33543000  1.0
  C  C57  1  0.67555000  0.06857000  0.16455000  1.0
  C  C58  1  0.67561000  0.93142000  0.66457000  1.0
  C  C59  1  0.32443000  0.93143000  0.83544000  1.0
  C  C60  1  0.37976000  0.16980000  0.37296000  1.0
  C  C61  1  0.62026000  0.16980000  0.12704000  1.0
  C  C62  1  0.62028000  0.83020000  0.62704000  1.0
  C  C63  1  0.37974000  0.83019000  0.87296000  1.0
  C  C64  1  0.44596000  0.88221000  0.29328000  1.0
  C  C65  1  0.55399000  0.88221000  0.20671000  1.0
  C  C66  1  0.55403000  0.11778000  0.70671000  1.0
  C  C67  1  0.44598000  0.11779000  0.79329000  1.0
  C  C68  1  0.09692000  0.36101000  0.71910000  1.0
  C  C69  1  0.90307000  0.36102000  0.78090000  1.0
  C  C70  1  0.90307000  0.63899000  0.28091000  1.0
  C  C71  1  0.09692000  0.63899000  0.21911000  1.0
  C  C72  1  0.11725000  0.48603000  0.73280000  1.0
  C  C73  1  0.88277000  0.48603000  0.76720000  1.0
  C  C74  1  0.88275000  0.51398000  0.26720000  1.0
  C  C75  1  0.11722000  0.51397000  0.23280000  1.0
  C  C76  1  0.14736000  0.55791000  0.65619000  1.0
  C  C77  1  0.85268000  0.55792000  0.84381000  1.0
  C  C78  1  0.85267000  0.44209000  0.34381000  1.0
  C  C79  1  0.14732000  0.44210000  0.15619000  1.0
  C  C80  1  0.98451000  0.31836000  0.62861000  1.0
  C  C81  1  0.01549000  0.31835000  0.87139000  1.0
  C  C82  1  0.01550000  0.68165000  0.37140000  1.0
  C  C83  1  0.98451000  0.68164000  0.12862000  1.0
  N  N84  1  0.59614000  0.19206000  0.41929000  1.0
  N  N85  1  0.40384000  0.19206000  0.08070000  1.0
  N  N86  1  0.40388000  0.80793000  0.58071000  1.0
  N  N87  1  0.59615000  0.80795000  0.91929000  1.0
  O  O88  1  0.33371000  0.53999000  0.62063000  1.0
  O  O89  1  0.66633000  0.54000000  0.87938000  1.0
  O  O90  1  0.66632000  0.46000000  0.37938000  1.0
  O  O91  1  0.33367000  0.46000000  0.12062000  1.0
  O  O92  1  0.00817000  0.63479000  0.63081000  1.0
  O  O93  1  0.99188000  0.63479000  0.86918000  1.0
  O  O94  1  0.99185000  0.36521000  0.36918000  1.0
  O  O95  1  0.00812000  0.36521000  0.13082000  1.0
  O  O96  1  0.99475000  0.21960000  0.61188000  1.0
  O  O97  1  0.00527000  0.21962000  0.88813000  1.0
  O  O98  1  0.00526000  0.78038000  0.38815000  1.0
  O  O99  1  0.99475000  0.78042000  0.11188000  1.0
  O  O100  1  0.86892000  0.39073000  0.57626000  1.0
  O  O101  1  0.13107000  0.39074000  0.92374000  1.0
  O  O102  1  0.13110000  0.60926000  0.42375000  1.0
  O  O103  1  0.86893000  0.60928000  0.07626000  1.0
  O  O104  1  0.34809000  0.37013000  0.50984000  1.0
  O  O105  1  0.65191000  0.37014000  0.99016000  1.0
  O  O106  1  0.65192000  0.62986000  0.49016000  1.0
  O  O107  1  0.34810000  0.62987000  0.00984000  1.0
