# generated using pymatgen
data_RbH2C6N3O8
_symmetry_space_group_name_H-M   'P 1'
_cell_length_a   4.54670000
_cell_length_b   10.96640000
_cell_length_c   19.64430000
_cell_angle_alpha   90.00000000
_cell_angle_beta   91.26110000
_cell_angle_gamma   90.00000000
_symmetry_Int_Tables_number   1
_chemical_formula_structural   RbH2C6N3O8
_chemical_formula_sum   'Rb4 H8 C24 N12 O32'
_cell_volume   979.24583614
_cell_formula_units_Z   4
loop_
 _symmetry_equiv_pos_site_id
 _symmetry_equiv_pos_as_xyz
  1  'x, y, z'
loop_
 _atom_site_type_symbol
 _atom_site_label
 _atom_site_symmetry_multiplicity
 _atom_site_fract_x
 _atom_site_fract_y
 _atom_site_fract_z
 _atom_site_occupancy
  Rb  Rb0  1  0.91485000  0.85995000  0.13283000  1.0
  Rb  Rb1  1  0.58516000  0.35995000  0.36717000  1.0
  Rb  Rb2  1  0.08516000  0.14005000  0.86717000  1.0
  Rb  Rb3  1  0.41484000  0.64005000  0.63283000  1.0
  H  H4  1  0.09749000  0.88220000  0.48180000  1.0
  H  H5  1  0.40252000  0.38220000  0.01820000  1.0
  H  H6  1  0.90252000  0.11780000  0.51820000  1.0
  H  H7  1  0.59748000  0.61780000  0.98180000  1.0
  H  H8  1  0.67507000  0.96232000  0.30683000  1.0
  H  H9  1  0.82494000  0.46232000  0.19317000  1.0
  H  H10  1  0.32493000  0.03768000  0.69317000  1.0
  H  H11  1  0.17507000  0.53768000  0.80683000  1.0
  C  C12  1  0.42796000  0.83089000  0.32842000  1.0
  C  C13  1  0.07204000  0.33089000  0.17158000  1.0
  C  C14  1  0.57204000  0.16911000  0.67158000  1.0
  C  C15  1  0.92796000  0.66911000  0.82842000  1.0
  C  C16  1  0.31692000  0.71331000  0.31628000  1.0
  C  C17  1  0.18308000  0.21331000  0.18372000  1.0
  C  C18  1  0.68307000  0.28668000  0.68372000  1.0
  C  C19  1  0.81692000  0.78668000  0.81628000  1.0
  C  C20  1  0.13047000  0.64667000  0.36322000  1.0
  C  C21  1  0.36953000  0.14667000  0.13678000  1.0
  C  C22  1  0.86953000  0.35333000  0.63678000  1.0
  C  C23  1  0.63047000  0.85333000  0.86322000  1.0
  C  C24  1  0.05414000  0.71865000  0.42329000  1.0
  C  C25  1  0.44586000  0.21865000  0.07671000  1.0
  C  C26  1  0.94586000  0.28135000  0.57671000  1.0
  C  C27  1  0.55414000  0.78135000  0.92329000  1.0
  C  C28  1  0.15691000  0.83461000  0.43545000  1.0
  C  C29  1  0.34309000  0.33461000  0.06455000  1.0
  C  C30  1  0.84309000  0.16539000  0.56455000  1.0
  C  C31  1  0.65691000  0.66539000  0.93545000  1.0
  C  C32  1  0.33777000  0.89286000  0.38882000  1.0
  C  C33  1  0.16223000  0.39286000  0.11118000  1.0
  C  C34  1  0.66223000  0.10714000  0.61118000  1.0
  C  C35  1  0.83777000  0.60714000  0.88882000  1.0
  N  N36  1  0.39299000  0.65373000  0.25397000  1.0
  N  N37  1  0.10701000  0.15373000  0.24603000  1.0
  N  N38  1  0.60701000  0.34627000  0.74603000  1.0
  N  N39  1  0.89299000  0.84627000  0.75397000  1.0
  N  N40  1  0.87697000  0.66359000  0.47493000  1.0
  N  N41  1  0.62303000  0.16359000  0.02507000  1.0
  N  N42  1  0.12303000  0.33641000  0.52507000  1.0
  N  N43  1  0.37697000  0.83641000  0.97493000  1.0
  N  N44  1  0.43126000  0.01342000  0.40297000  1.0
  N  N45  1  0.06874000  0.51342000  0.09703000  1.0
  N  N46  1  0.56874000  0.98658000  0.59703000  1.0
  N  N47  1  0.93126000  0.48658000  0.90297000  1.0
  O  O48  1  0.62057000  0.87958000  0.28671000  1.0
  O  O49  1  0.87942000  0.37958000  0.21329000  1.0
  O  O50  1  0.37942000  0.12042000  0.71329000  1.0
  O  O51  1  0.12058000  0.62042000  0.78671000  1.0
  O  O52  1  0.38855000  0.71461000  0.20006000  1.0
  O  O53  1  0.11145000  0.21461000  0.29994000  1.0
  O  O54  1  0.61145000  0.28539000  0.79994000  1.0
  O  O55  1  0.88855000  0.78539000  0.70006000  1.0
  O  O56  1  0.45187000  0.54289000  0.25542000  1.0
  O  O57  1  0.04813000  0.04289000  0.24458000  1.0
  O  O58  1  0.54813000  0.45711000  0.74458000  1.0
  O  O59  1  0.95187000  0.95711000  0.75542000  1.0
  O  O60  1  0.04997000  0.53902000  0.35395000  1.0
  O  O61  1  0.45003000  0.03902000  0.14605000  1.0
  O  O62  1  0.95004000  0.46098000  0.64605000  1.0
  O  O63  1  0.54997000  0.96098000  0.85395000  1.0
  O  O64  1  0.67583000  0.59278000  0.45727000  1.0
  O  O65  1  0.82417000  0.09278000  0.04273000  1.0
  O  O66  1  0.32417000  0.40722000  0.54273000  1.0
  O  O67  1  0.17583000  0.90722000  0.95727000  1.0
  O  O68  1  0.93150000  0.69082000  0.53578000  1.0
  O  O69  1  0.56850000  0.19082000  0.96422000  1.0
  O  O70  1  0.06850000  0.30918000  0.46422000  1.0
  O  O71  1  0.43150000  0.80918000  0.03578000  1.0
  O  O72  1  0.33076000  0.07028000  0.45184000  1.0
  O  O73  1  0.16924000  0.57028000  0.04816000  1.0
  O  O74  1  0.66925000  0.92972000  0.54816000  1.0
  O  O75  1  0.83075000  0.42972000  0.95184000  1.0
  O  O76  1  0.62255000  0.06170000  0.36452000  1.0
  O  O77  1  0.87746000  0.56170000  0.13548000  1.0
  O  O78  1  0.37746000  0.93830000  0.63548000  1.0
  O  O79  1  0.12254000  0.43830000  0.86452000  1.0
