# generated using pymatgen
data_CdH16C18N2O5
_symmetry_space_group_name_H-M   'P 1'
_cell_length_a   8.38570000
_cell_length_b   10.48330000
_cell_length_c   10.92020000
_cell_angle_alpha   112.05500000
_cell_angle_beta   94.92970000
_cell_angle_gamma   103.19700000
_symmetry_Int_Tables_number   1
_chemical_formula_structural   CdH16C18N2O5
_chemical_formula_sum   'Cd2 H32 C36 N4 O10'
_cell_volume   850.42761941
_cell_formula_units_Z   2
loop_
 _symmetry_equiv_pos_site_id
 _symmetry_equiv_pos_as_xyz
  1  'x, y, z'
loop_
 _atom_site_type_symbol
 _atom_site_label
 _atom_site_symmetry_multiplicity
 _atom_site_fract_x
 _atom_site_fract_y
 _atom_site_fract_z
 _atom_site_occupancy
  Cd  Cd0  1  0.62743000  0.13553000  0.44141000  1.0
  Cd  Cd1  1  0.37257000  0.86446000  0.55859000  1.0
  H  H2  1  0.05311000  0.91977000  0.38271000  1.0
  H  H3  1  0.94689000  0.08023000  0.61729000  1.0
  H  H4  1  0.11213000  0.69624000  0.24233000  1.0
  H  H5  1  0.88787000  0.30376000  0.75767000  1.0
  H  H6  1  0.17288000  0.65045000  0.01550000  1.0
  H  H7  1  0.82713000  0.34955000  0.98450000  1.0
  H  H8  1  0.29074000  0.83325000  0.10232000  1.0
  H  H9  1  0.70926000  0.16675000  0.89768000  1.0
  H  H10  1  0.09674000  0.90082000  0.98053000  1.0
  H  H11  1  0.90327000  0.09919000  0.01948000  1.0
  H  H12  1  0.98334000  0.71682000  0.89158000  1.0
  H  H13  1  0.01668000  0.28319000  0.10842000  1.0
  H  H14  1  0.77923000  0.80320000  0.02894000  1.0
  H  H15  1  0.22077000  0.19681000  0.97105000  1.0
  H  H16  1  0.03863000  0.04821000  0.18510000  1.0
  H  H17  1  0.96137000  0.95179000  0.81490000  1.0
  H  H18  1  0.79020000  0.24898000  0.23187000  1.0
  H  H19  1  0.20979000  0.75102000  0.76812000  1.0
  H  H20  1  0.91704000  0.48006000  0.20994000  1.0
  H  H21  1  0.08296000  0.51994000  0.79006000  1.0
  H  H22  1  0.92010000  0.71282000  0.39897000  1.0
  H  H23  1  0.07990000  0.28718000  0.60104000  1.0
  H  H24  1  0.79239000  0.70553000  0.59154000  1.0
  H  H25  1  0.20760000  0.29446000  0.40846000  1.0
  H  H26  1  0.64990000  0.68526000  0.72592000  1.0
  H  H27  1  0.35010000  0.31474000  0.27408000  1.0
  H  H28  1  0.50209000  0.64947000  0.90258000  1.0
  H  H29  1  0.49791000  0.35053000  0.09742000  1.0
  H  H30  1  0.40472000  0.39975000  0.89537000  1.0
  H  H31  1  0.59529000  0.60025000  0.10464000  1.0
  H  H32  1  0.47852000  0.20066000  0.71876000  1.0
  H  H33  1  0.52148000  0.79933000  0.28124000  1.0
  C  C34  1  0.27267000  0.01440000  0.33198000  1.0
  C  C35  1  0.72732000  0.98560000  0.66802000  1.0
  C  C36  1  0.09497000  0.91931000  0.28997000  1.0
  C  C37  1  0.90503000  0.08069000  0.71003000  1.0
  C  C38  1  0.07988000  0.76272000  0.19267000  1.0
  C  C39  1  0.92012000  0.23728000  0.80733000  1.0
  C  C40  1  0.16437000  0.75936000  0.07229000  1.0
  C  C41  1  0.83564000  0.24065000  0.92771000  1.0
  C  C42  1  0.03904000  0.80195000  0.99209000  1.0
  C  C43  1  0.96097000  0.19806000  0.00791000  1.0
  C  C44  1  0.90487000  0.81959000  0.08003000  1.0
  C  C45  1  0.09513000  0.18042000  0.91996000  1.0
  C  C46  1  0.97058000  0.95923000  0.20795000  1.0
  C  C47  1  0.02942000  0.04077000  0.79205000  1.0
  C  C48  1  0.83678000  0.01111000  0.28239000  1.0
  C  C49  1  0.16322000  0.98889000  0.71761000  1.0
  C  C50  1  0.79495000  0.35314000  0.30950000  1.0
  C  C51  1  0.20505000  0.64686000  0.69049000  1.0
  C  C52  1  0.86563000  0.48120000  0.29844000  1.0
  C  C53  1  0.13436000  0.51880000  0.70156000  1.0
  C  C54  1  0.86559000  0.60953000  0.40176000  1.0
  C  C55  1  0.13441000  0.39047000  0.59825000  1.0
  C  C56  1  0.79426000  0.60569000  0.51122000  1.0
  C  C57  1  0.20573000  0.39430000  0.48878000  1.0
  C  C58  1  0.72387000  0.47270000  0.51490000  1.0
  C  C59  1  0.27613000  0.52729000  0.48510000  1.0
  C  C60  1  0.64250000  0.46039000  0.62735000  1.0
  C  C61  1  0.35750000  0.53960000  0.37264000  1.0
  C  C62  1  0.61301000  0.57923000  0.72720000  1.0
  C  C63  1  0.38699000  0.42077000  0.27279000  1.0
  C  C64  1  0.52907000  0.55863000  0.82596000  1.0
  C  C65  1  0.47093000  0.44137000  0.17404000  1.0
  C  C66  1  0.47714000  0.42157000  0.82387000  1.0
  C  C67  1  0.52286000  0.57843000  0.17613000  1.0
  C  C68  1  0.51419000  0.30942000  0.72343000  1.0
  C  C69  1  0.48581000  0.69058000  0.27657000  1.0
  N  N70  1  0.72633000  0.34944000  0.41483000  1.0
  N  N71  1  0.27367000  0.65056000  0.58517000  1.0
  N  N72  1  0.59485000  0.32871000  0.62807000  1.0
  N  N73  1  0.40515000  0.67129000  0.37193000  1.0
  O  O74  1  0.37449000  0.97727000  0.39967000  1.0
  O  O75  1  0.62551000  0.02272000  0.60033000  1.0
  O  O76  1  0.32004000  0.11906000  0.30161000  1.0
  O  O77  1  0.67996000  0.88093000  0.69839000  1.0
  O  O78  1  0.69110000  0.98434000  0.21819000  1.0
  O  O79  1  0.30889000  0.01565000  0.78181000  1.0
  O  O80  1  0.88117000  0.08712000  0.40955000  1.0
  O  O81  1  0.11882000  0.91288000  0.59045000  1.0
  O  O82  1  0.90405000  0.70989000  0.13209000  1.0
  O  O83  1  0.09595000  0.29011000  0.86790000  1.0
