# generated using pymatgen
data_Er4Si3H48(C7O2)12
_symmetry_space_group_name_H-M   'P 1'
_cell_length_a   17.49720000
_cell_length_b   17.49710000
_cell_length_c   24.89210000
_cell_angle_alpha   90.00200000
_cell_angle_beta   90.00370000
_cell_angle_gamma   65.40300000
_symmetry_Int_Tables_number   1
_chemical_formula_structural   Er4Si3H48(C7O2)12
_chemical_formula_sum   'Er8 Si6 H96 C168 O48'
_cell_volume   6929.20246350
_cell_formula_units_Z   2
loop_
 _symmetry_equiv_pos_site_id
 _symmetry_equiv_pos_as_xyz
  1  'x, y, z'
loop_
 _atom_site_type_symbol
 _atom_site_label
 _atom_site_symmetry_multiplicity
 _atom_site_fract_x
 _atom_site_fract_y
 _atom_site_fract_z
 _atom_site_occupancy
  Er  Er0  1  0.38355000  0.00220000  0.99999000  1.0
  Er  Er1  1  0.61645000  0.99779000  0.99998000  1.0
  Er  Er2  1  0.00221000  0.38354000  0.50000000  1.0
  Er  Er3  1  0.99779000  0.61646000  0.49998000  1.0
  Er  Er4  1  0.33117000  0.75573000  0.00001000  1.0
  Er  Er5  1  0.66879000  0.24428000  0.99997000  1.0
  Er  Er6  1  0.75575000  0.33110000  0.50003000  1.0
  Er  Er7  1  0.24425000  0.66889000  0.49995000  1.0
  Si  Si8  1  0.00002000  0.99995000  0.25002000  1.0
  Si  Si9  1  0.99997000  0.00006000  0.75003000  1.0
  Si  Si10  1  0.37956000  0.37954000  0.75001000  1.0
  Si  Si11  1  0.62039000  0.62047000  0.74997000  1.0
  Si  Si12  1  0.62049000  0.62039000  0.24997000  1.0
  Si  Si13  1  0.37958000  0.37957000  0.25002000  1.0
  H  H14  1  0.18118000  0.08065000  0.12515000  1.0
  H  H15  1  0.81880000  0.91935000  0.12512000  1.0
  H  H16  1  0.08064000  0.18120000  0.37487000  1.0
  H  H17  1  0.91945000  0.81866000  0.37484000  1.0
  H  H18  1  0.81869000  0.91945000  0.87485000  1.0
  H  H19  1  0.18134000  0.08055000  0.87487000  1.0
  H  H20  1  0.91929000  0.81889000  0.62514000  1.0
  H  H21  1  0.08058000  0.18130000  0.62516000  1.0
  H  H22  1  0.12630000  0.84458000  0.19964000  1.0
  H  H23  1  0.87378000  0.15532000  0.19966000  1.0
  H  H24  1  0.84464000  0.12622000  0.30038000  1.0
  H  H25  1  0.15541000  0.87369000  0.30037000  1.0
  H  H26  1  0.87370000  0.15544000  0.80039000  1.0
  H  H27  1  0.12624000  0.84463000  0.80036000  1.0
  H  H28  1  0.15533000  0.87380000  0.69965000  1.0
  H  H29  1  0.84461000  0.12631000  0.69966000  1.0
  H  H30  1  0.23090000  0.81833000  0.12736000  1.0
  H  H31  1  0.76917000  0.18162000  0.12736000  1.0
  H  H32  1  0.81836000  0.23085000  0.37266000  1.0
  H  H33  1  0.18176000  0.76898000  0.37260000  1.0
  H  H34  1  0.76901000  0.18176000  0.87263000  1.0
  H  H35  1  0.23094000  0.81827000  0.87261000  1.0
  H  H36  1  0.18156000  0.76922000  0.62734000  1.0
  H  H37  1  0.81829000  0.23097000  0.62741000  1.0
  H  H38  1  0.07408000  0.10881000  0.19693000  1.0
  H  H39  1  0.92590000  0.89113000  0.19692000  1.0
  H  H40  1  0.10883000  0.07408000  0.30309000  1.0
  H  H41  1  0.89122000  0.92584000  0.30310000  1.0
  H  H42  1  0.92585000  0.89124000  0.80311000  1.0
  H  H43  1  0.07415000  0.10881000  0.80313000  1.0
  H  H44  1  0.89112000  0.92597000  0.69695000  1.0
  H  H45  1  0.10881000  0.07415000  0.69692000  1.0
  H  H46  1  0.29997000  0.19895000  0.87276000  1.0
  H  H47  1  0.70002000  0.80105000  0.87273000  1.0
  H  H48  1  0.19891000  0.29999000  0.62726000  1.0
  H  H49  1  0.80102000  0.70004000  0.62723000  1.0
  H  H50  1  0.70004000  0.80104000  0.12723000  1.0
  H  H51  1  0.29999000  0.19893000  0.12728000  1.0
  H  H52  1  0.80107000  0.70001000  0.37273000  1.0
  H  H53  1  0.19896000  0.29996000  0.37274000  1.0
  H  H54  1  0.27355000  0.30180000  0.79814000  1.0
  H  H55  1  0.72641000  0.69821000  0.79809000  1.0
  H  H56  1  0.30178000  0.27354000  0.70189000  1.0
  H  H57  1  0.69812000  0.72648000  0.70182000  1.0
  H  H58  1  0.72649000  0.69816000  0.20185000  1.0
  H  H59  1  0.27357000  0.30181000  0.20190000  1.0
  H  H60  1  0.69825000  0.72641000  0.29808000  1.0
  H  H61  1  0.30183000  0.27355000  0.29813000  1.0
  H  H62  1  0.53748000  0.25008000  0.79666000  1.0
  H  H63  1  0.46248000  0.74992000  0.79666000  1.0
  H  H64  1  0.25013000  0.53748000  0.70333000  1.0
  H  H65  1  0.74987000  0.46252000  0.70332000  1.0
  H  H66  1  0.46256000  0.74985000  0.20332000  1.0
  H  H67  1  0.53749000  0.25017000  0.20332000  1.0
  H  H68  1  0.74992000  0.46248000  0.29664000  1.0
  H  H69  1  0.25011000  0.53749000  0.29667000  1.0
  H  H70  1  0.56155000  0.15068000  0.87269000  1.0
  H  H71  1  0.43844000  0.84931000  0.87269000  1.0
  H  H72  1  0.15072000  0.56156000  0.62731000  1.0
  H  H73  1  0.84930000  0.43846000  0.62731000  1.0
  H  H74  1  0.43846000  0.84928000  0.12730000  1.0
  H  H75  1  0.56156000  0.15074000  0.12730000  1.0
  H  H76  1  0.84930000  0.43842000  0.37269000  1.0
  H  H77  1  0.15070000  0.56155000  0.37270000  1.0
  H  H78  1  0.36105000  0.38929000  0.12962000  1.0
  H  H79  1  0.63906000  0.61064000  0.12957000  1.0
  H  H80  1  0.38931000  0.36103000  0.37042000  1.0
  H  H81  1  0.61101000  0.63845000  0.37041000  1.0
  H  H82  1  0.63855000  0.61093000  0.87040000  1.0
  H  H83  1  0.36135000  0.38911000  0.87042000  1.0
  H  H84  1  0.61060000  0.63911000  0.62959000  1.0
  H  H85  1  0.38910000  0.36139000  0.62960000  1.0
  H  H86  1  0.34458000  0.49826000  0.06242000  1.0
  H  H87  1  0.65555000  0.50161000  0.06240000  1.0
  H  H88  1  0.49832000  0.34454000  0.43760000  1.0
  H  H89  1  0.50213000  0.65473000  0.43762000  1.0
  H  H90  1  0.65482000  0.50206000  0.93761000  1.0
  H  H91  1  0.34505000  0.49801000  0.93763000  1.0
  H  H92  1  0.50156000  0.65567000  0.56241000  1.0
  H  H93  1  0.49800000  0.34506000  0.56239000  1.0
  H  H94  1  0.35399000  0.66369000  0.18756000  1.0
  H  H95  1  0.64592000  0.33633000  0.18755000  1.0
  H  H96  1  0.66368000  0.35400000  0.31245000  1.0
  H  H97  1  0.33619000  0.64658000  0.31242000  1.0
  H  H98  1  0.64644000  0.33621000  0.81243000  1.0
  H  H99  1  0.35365000  0.66375000  0.81244000  1.0
  H  H100  1  0.33634000  0.64584000  0.68754000  1.0
  H  H101  1  0.66378000  0.35360000  0.68758000  1.0
  H  H102  1  0.37177000  0.55326000  0.25539000  1.0
  H  H103  1  0.62822000  0.44680000  0.25536000  1.0
  H  H104  1  0.55322000  0.37175000  0.24464000  1.0
  H  H105  1  0.44664000  0.62868000  0.24462000  1.0
  H  H106  1  0.62857000  0.44664000  0.74461000  1.0
  H  H107  1  0.37145000  0.55330000  0.74463000  1.0
  H  H108  1  0.44679000  0.62811000  0.75536000  1.0
  H  H109  1  0.55333000  0.37147000  0.75539000  1.0
  C  C110  1  0.27397000  0.93222000  0.07695000  1.0
  C  C111  1  0.72606000  0.06777000  0.07693000  1.0
  C  C112  1  0.93222000  0.27394000  0.42307000  1.0
  C  C113  1  0.06790000  0.72580000  0.42298000  1.0
  C  C114  1  0.72585000  0.06790000  0.92300000  1.0
  C  C115  1  0.27412000  0.93210000  0.92302000  1.0
  C  C116  1  0.06771000  0.72620000  0.57691000  1.0
  C  C117  1  0.93214000  0.27411000  0.57701000  1.0
  C  C118  1  0.21268000  0.94800000  0.12184000  1.0
  C  C119  1  0.78737000  0.05197000  0.12182000  1.0
  C  C120  1  0.94801000  0.21264000  0.37819000  1.0
  C  C121  1  0.05210000  0.78717000  0.37814000  1.0
  C  C122  1  0.78721000  0.05210000  0.87815000  1.0
  C  C123  1  0.21278000  0.94792000  0.87816000  1.0
  C  C124  1  0.05191000  0.78747000  0.62181000  1.0
  C  C125  1  0.94794000  0.21279000  0.62188000  1.0
  C  C126  1  0.09208000  0.97874000  0.20401000  1.0
  C  C127  1  0.90796000  0.02118000  0.20402000  1.0
  C  C128  1  0.97879000  0.09202000  0.29602000  1.0
  C  C129  1  0.02128000  0.90787000  0.29601000  1.0
  C  C130  1  0.90788000  0.02130000  0.79603000  1.0
  C  C131  1  0.09208000  0.97877000  0.79603000  1.0
  C  C132  1  0.02117000  0.90801000  0.70402000  1.0
  C  C133  1  0.97874000  0.09215000  0.70404000  1.0
  C  C134  1  0.16862000  0.02956000  0.14209000  1.0
  C  C135  1  0.83138000  0.97042000  0.14208000  1.0
  C  C136  1  0.02956000  0.16863000  0.35793000  1.0
  C  C137  1  0.97052000  0.83124000  0.35791000  1.0
  C  C138  1  0.83126000  0.97053000  0.85792000  1.0
  C  C139  1  0.16874000  0.02948000  0.85793000  1.0
  C  C140  1  0.97037000  0.83147000  0.64208000  1.0
  C  C141  1  0.02951000  0.16873000  0.64211000  1.0
  C  C142  1  0.13794000  0.89704000  0.18395000  1.0
  C  C143  1  0.86212000  0.10288000  0.18395000  1.0
  C  C144  1  0.89709000  0.13788000  0.31607000  1.0
  C  C145  1  0.10298000  0.86200000  0.31606000  1.0
  C  C146  1  0.86201000  0.10301000  0.81608000  1.0
  C  C147  1  0.13794000  0.89706000  0.81607000  1.0
  C  C148  1  0.10287000  0.86216000  0.68394000  1.0
  C  C149  1  0.89705000  0.13799000  0.68397000  1.0
  C  C150  1  0.19731000  0.88160000  0.14335000  1.0
  C  C151  1  0.80274000  0.11835000  0.14335000  1.0
  C  C152  1  0.88162000  0.19727000  0.35667000  1.0
  C  C153  1  0.11848000  0.80256000  0.35663000  1.0
  C  C154  1  0.80259000  0.11849000  0.85664000  1.0
  C  C155  1  0.19737000  0.88154000  0.85663000  1.0
  C  C156  1  0.11831000  0.80282000  0.64334000  1.0
  C  C157  1  0.88156000  0.19741000  0.64340000  1.0
  C  C158  1  0.10891000  0.04457000  0.18249000  1.0
  C  C159  1  0.89110000  0.95537000  0.18249000  1.0
  C  C160  1  0.04460000  0.10890000  0.31753000  1.0
  C  C161  1  0.95546000  0.89101000  0.31753000  1.0
  C  C162  1  0.89101000  0.95549000  0.81754000  1.0
  C  C163  1  0.10897000  0.04457000  0.81755000  1.0
  C  C164  1  0.95535000  0.89117000  0.68250000  1.0
  C  C165  1  0.04456000  0.10897000  0.68250000  1.0
  C  C166  1  0.44592000  0.11316000  0.92422000  1.0
  C  C167  1  0.55409000  0.88685000  0.92420000  1.0
  C  C168  1  0.11315000  0.44594000  0.57578000  1.0
  C  C169  1  0.88685000  0.55409000  0.57579000  1.0
  C  C170  1  0.55409000  0.88686000  0.07576000  1.0
  C  C171  1  0.44593000  0.11314000  0.07578000  1.0
  C  C172  1  0.88686000  0.55407000  0.42422000  1.0
  C  C173  1  0.11312000  0.44591000  0.42422000  1.0
  C  C174  1  0.43193000  0.16975000  0.87725000  1.0
  C  C175  1  0.56806000  0.83025000  0.87723000  1.0
  C  C176  1  0.16974000  0.43195000  0.62276000  1.0
  C  C177  1  0.83023000  0.56809000  0.62276000  1.0
  C  C178  1  0.56808000  0.83024000  0.12274000  1.0
  C  C179  1  0.43195000  0.16975000  0.12277000  1.0
  C  C180  1  0.83028000  0.56804000  0.37723000  1.0
  C  C181  1  0.16975000  0.43193000  0.37725000  1.0
  C  C182  1  0.40369000  0.28346000  0.79195000  1.0
  C  C183  1  0.59626000  0.71655000  0.79192000  1.0
  C  C184  1  0.28348000  0.40369000  0.70807000  1.0
  C  C185  1  0.71646000  0.59633000  0.70803000  1.0
  C  C186  1  0.59634000  0.71647000  0.20803000  1.0
  C  C187  1  0.40370000  0.28350000  0.20807000  1.0
  C  C188  1  0.71658000  0.59627000  0.29191000  1.0
  C  C189  1  0.28349000  0.40370000  0.29196000  1.0
  C  C190  1  0.35119000  0.21082000  0.85543000  1.0
  C  C191  1  0.64879000  0.78918000  0.85540000  1.0
  C  C192  1  0.21081000  0.35120000  0.64459000  1.0
  C  C193  1  0.78912000  0.64883000  0.64457000  1.0
  C  C194  1  0.64883000  0.78915000  0.14456000  1.0
  C  C195  1  0.35121000  0.21083000  0.14460000  1.0
  C  C196  1  0.78921000  0.64877000  0.35540000  1.0
  C  C197  1  0.21083000  0.35119000  0.35542000  1.0
  C  C198  1  0.33733000  0.26755000  0.81343000  1.0
  C  C199  1  0.66263000  0.73245000  0.81339000  1.0
  C  C200  1  0.26755000  0.33733000  0.68659000  1.0
  C  C201  1  0.73236000  0.66269000  0.68655000  1.0
  C  C202  1  0.66270000  0.73239000  0.18655000  1.0
  C  C203  1  0.33735000  0.26758000  0.18659000  1.0
  C  C204  1  0.73249000  0.66263000  0.31339000  1.0
  C  C205  1  0.26758000  0.33734000  0.31343000  1.0
  C  C206  1  0.48496000  0.23896000  0.81279000  1.0
  C  C207  1  0.51500000  0.76104000  0.81277000  1.0
  C  C208  1  0.23900000  0.48495000  0.68723000  1.0
  C  C209  1  0.76096000  0.51506000  0.68719000  1.0
  C  C210  1  0.51508000  0.76096000  0.18719000  1.0
  C  C211  1  0.48496000  0.23904000  0.18722000  1.0
  C  C212  1  0.76105000  0.51501000  0.31276000  1.0
  C  C213  1  0.23900000  0.48496000  0.31280000  1.0
  C  C214  1  0.49917000  0.18306000  0.85526000  1.0
  C  C215  1  0.50082000  0.81694000  0.85525000  1.0
  C  C216  1  0.18309000  0.49917000  0.64475000  1.0
  C  C217  1  0.81690000  0.50085000  0.64474000  1.0
  C  C218  1  0.50086000  0.81689000  0.14472000  1.0
  C  C219  1  0.49918000  0.18311000  0.14474000  1.0
  C  C220  1  0.81695000  0.50080000  0.35525000  1.0
  C  C221  1  0.18307000  0.49916000  0.35527000  1.0
  C  C222  1  0.46305000  0.36702000  0.69826000  1.0
  C  C223  1  0.53684000  0.63304000  0.69824000  1.0
  C  C224  1  0.36703000  0.46303000  0.80177000  1.0
  C  C225  1  0.63293000  0.53697000  0.80173000  1.0
  C  C226  1  0.53700000  0.63295000  0.30174000  1.0
  C  C227  1  0.46310000  0.36699000  0.30176000  1.0
  C  C228  1  0.63305000  0.53687000  0.19823000  1.0
  C  C229  1  0.36700000  0.46311000  0.19828000  1.0
  C  C230  1  0.65236000  0.34227000  0.57953000  1.0
  C  C231  1  0.34751000  0.65780000  0.57952000  1.0
  C  C232  1  0.34232000  0.65235000  0.92049000  1.0
  C  C233  1  0.65766000  0.34766000  0.92048000  1.0
  C  C234  1  0.34769000  0.65772000  0.42048000  1.0
  C  C235  1  0.65248000  0.34219000  0.42047000  1.0
  C  C236  1  0.65774000  0.34755000  0.07953000  1.0
  C  C237  1  0.34225000  0.65244000  0.07956000  1.0
  C  C238  1  0.58761000  0.34915000  0.62070000  1.0
  C  C239  1  0.41224000  0.65094000  0.62070000  1.0
  C  C240  1  0.34920000  0.58759000  0.87932000  1.0
  C  C241  1  0.65078000  0.41242000  0.87931000  1.0
  C  C242  1  0.41245000  0.65083000  0.37930000  1.0
  C  C243  1  0.58771000  0.34909000  0.37930000  1.0
  C  C244  1  0.65093000  0.41227000  0.12071000  1.0
  C  C245  1  0.34911000  0.58768000  0.12072000  1.0
  C  C246  1  0.44911000  0.35940000  0.64320000  1.0
  C  C247  1  0.55067000  0.64092000  0.64319000  1.0
  C  C248  1  0.35941000  0.44909000  0.85683000  1.0
  C  C249  1  0.64051000  0.55093000  0.85680000  1.0
  C  C250  1  0.55099000  0.64048000  0.35681000  1.0
  C  C251  1  0.44925000  0.35918000  0.35682000  1.0
  C  C252  1  0.64089000  0.55071000  0.14318000  1.0
  C  C253  1  0.35919000  0.44924000  0.14322000  1.0
  C  C254  1  0.51044000  0.35025000  0.60486000  1.0
  C  C255  1  0.48927000  0.65019000  0.60487000  1.0
  C  C256  1  0.35026000  0.51044000  0.89516000  1.0
  C  C257  1  0.64965000  0.48960000  0.89514000  1.0
  C  C258  1  0.48965000  0.64962000  0.39515000  1.0
  C  C259  1  0.51064000  0.34995000  0.39514000  1.0
  C  C260  1  0.65012000  0.48932000  0.10486000  1.0
  C  C261  1  0.34997000  0.51060000  0.10489000  1.0
  C  C262  1  0.60320000  0.35544000  0.67521000  1.0
  C  C263  1  0.39683000  0.64424000  0.67519000  1.0
  C  C264  1  0.35549000  0.60318000  0.82481000  1.0
  C  C265  1  0.64454000  0.39681000  0.82479000  1.0
  C  C266  1  0.39680000  0.64464000  0.32479000  1.0
  C  C267  1  0.60316000  0.35567000  0.32480000  1.0
  C  C268  1  0.64431000  0.39683000  0.17520000  1.0
  C  C269  1  0.35566000  0.60316000  0.17522000  1.0
  C  C270  1  0.54143000  0.36434000  0.71321000  1.0
  C  C271  1  0.45859000  0.63544000  0.71319000  1.0
  C  C272  1  0.36436000  0.54140000  0.78682000  1.0
  C  C273  1  0.63565000  0.45858000  0.78679000  1.0
  C  C274  1  0.45859000  0.63573000  0.28680000  1.0
  C  C275  1  0.54139000  0.36451000  0.28681000  1.0
  C  C276  1  0.63550000  0.45860000  0.21319000  1.0
  C  C277  1  0.36451000  0.54141000  0.21322000  1.0
  O  O278  1  0.30944000  0.85720000  0.05806000  1.0
  O  O279  1  0.69064000  0.14278000  0.05803000  1.0
  O  O280  1  0.85720000  0.30939000  0.44197000  1.0
  O  O281  1  0.14297000  0.69003000  0.44177000  1.0
  O  O282  1  0.69012000  0.14295000  0.94181000  1.0
  O  O283  1  0.30979000  0.85707000  0.94185000  1.0
  O  O284  1  0.14270000  0.69087000  0.55797000  1.0
  O  O285  1  0.85708000  0.30979000  0.55818000  1.0
  O  O286  1  0.28879000  0.99266000  0.05931000  1.0
  O  O287  1  0.71117000  0.00736000  0.05929000  1.0
  O  O288  1  0.99263000  0.28881000  0.44072000  1.0
  O  O289  1  0.00738000  0.71118000  0.44072000  1.0
  O  O290  1  0.71119000  0.00739000  0.94070000  1.0
  O  O291  1  0.28884000  0.99259000  0.94073000  1.0
  O  O292  1  0.00734000  0.71123000  0.55929000  1.0
  O  O293  1  0.99262000  0.28881000  0.55930000  1.0
  O  O294  1  0.38395000  0.10074000  0.94231000  1.0
  O  O295  1  0.61609000  0.89921000  0.94229000  1.0
  O  O296  1  0.10078000  0.38395000  0.55768000  1.0
  O  O297  1  0.89925000  0.61607000  0.55769000  1.0
  O  O298  1  0.61607000  0.89925000  0.05767000  1.0
  O  O299  1  0.38394000  0.10075000  0.05770000  1.0
  O  O300  1  0.89923000  0.61606000  0.44231000  1.0
  O  O301  1  0.10073000  0.38393000  0.44229000  1.0
  O  O302  1  0.51998000  0.07965000  0.94395000  1.0
  O  O303  1  0.48004000  0.92040000  0.94394000  1.0
  O  O304  1  0.07964000  0.52000000  0.55605000  1.0
  O  O305  1  0.92036000  0.48003000  0.55605000  1.0
  O  O306  1  0.48002000  0.92036000  0.05604000  1.0
  O  O307  1  0.51999000  0.07966000  0.05603000  1.0
  O  O308  1  0.92037000  0.48000000  0.44395000  1.0
  O  O309  1  0.07960000  0.51998000  0.44395000  1.0
  O  O310  1  0.69865000  0.26997000  0.55951000  1.0
  O  O311  1  0.30226000  0.72991000  0.55881000  1.0
  O  O312  1  0.27002000  0.69861000  0.94054000  1.0
  O  O313  1  0.72997000  0.30129000  0.94045000  1.0
  O  O314  1  0.30113000  0.73008000  0.44030000  1.0
  O  O315  1  0.69807000  0.27002000  0.44095000  1.0
  O  O316  1  0.72987000  0.30207000  0.05894000  1.0
  O  O317  1  0.27007000  0.69811000  0.05910000  1.0
  O  O318  1  0.66040000  0.40859000  0.56397000  1.0
  O  O319  1  0.33845000  0.59172000  0.56463000  1.0
  O  O320  1  0.40864000  0.66042000  0.93602000  1.0
  O  O321  1  0.59130000  0.33974000  0.93609000  1.0
  O  O322  1  0.33994000  0.59133000  0.43621000  1.0
  O  O323  1  0.66122000  0.40835000  0.43557000  1.0
  O  O324  1  0.59159000  0.33872000  0.06453000  1.0
  O  O325  1  0.40843000  0.66109000  0.06441000  1.0
