# generated using pymatgen
data_CuH22C18N2O5
_symmetry_space_group_name_H-M   'P 1'
_cell_length_a   8.83151000
_cell_length_b   10.69230000
_cell_length_c   10.92860000
_cell_angle_alpha   70.09490000
_cell_angle_beta   72.14310000
_cell_angle_gamma   68.08260000
_symmetry_Int_Tables_number   1
_chemical_formula_structural   CuH22C18N2O5
_chemical_formula_sum   'Cu2 H44 C36 N4 O10'
_cell_volume   880.91599987
_cell_formula_units_Z   2
loop_
 _symmetry_equiv_pos_site_id
 _symmetry_equiv_pos_as_xyz
  1  'x, y, z'
loop_
 _atom_site_type_symbol
 _atom_site_label
 _atom_site_symmetry_multiplicity
 _atom_site_fract_x
 _atom_site_fract_y
 _atom_site_fract_z
 _atom_site_occupancy
  Cu  Cu0  1  0.00000000  0.50000000  0.00000000  1.0
  Cu  Cu1  1  0.50001000  0.00000000  0.50000000  1.0
  H  H2  1  0.71234000  0.79371000  0.98160000  1.0
  H  H3  1  0.28765000  0.20629000  0.01840000  1.0
  H  H4  1  0.72066000  0.91939000  0.04801000  1.0
  H  H5  1  0.27933000  0.08061000  0.95199000  1.0
  H  H6  1  0.99410000  0.92501000  0.89423000  1.0
  H  H7  1  0.00589000  0.07499000  0.10578000  1.0
  H  H8  1  0.71789000  0.96061000  0.75521000  1.0
  H  H9  1  0.28212000  0.03940000  0.24478000  1.0
  H  H10  1  0.74589000  0.08258000  0.81488000  1.0
  H  H11  1  0.25411000  0.91742000  0.18513000  1.0
  H  H12  1  0.55359000  0.04166000  0.87139000  1.0
  H  H13  1  0.44641000  0.95834000  0.12861000  1.0
  H  H14  1  0.27814000  0.25766000  0.35882000  1.0
  H  H15  1  0.72187000  0.74234000  0.64117000  1.0
  H  H16  1  0.16536000  0.42187000  0.70005000  1.0
  H  H17  1  0.83464000  0.57813000  0.29994000  1.0
  H  H18  1  0.28290000  0.40467000  0.12864000  1.0
  H  H19  1  0.71710000  0.59532000  0.87136000  1.0
  H  H20  1  0.71763000  0.13664000  0.51640000  1.0
  H  H21  1  0.28239000  0.86337000  0.48360000  1.0
  H  H22  1  0.20258000  0.22108000  0.61510000  1.0
  H  H23  1  0.79744000  0.77891000  0.38489000  1.0
  H  H24  1  0.30440000  0.59987000  0.68624000  1.0
  H  H25  1  0.69559000  0.40013000  0.31377000  1.0
  H  H26  1  0.52487000  0.54885000  0.66777000  1.0
  H  H27  1  0.47511000  0.45116000  0.33224000  1.0
  H  H28  1  0.70167000  0.33569000  0.59388000  1.0
  H  H29  1  0.29833000  0.66432000  0.40612000  1.0
  H  H30  1  0.77457000  0.12719000  0.01728000  1.0
  H  H31  1  0.22543000  0.87280000  0.98271000  1.0
  H  H32  1  0.75183000  0.99214000  0.25323000  1.0
  H  H33  1  0.24818000  0.00786000  0.74677000  1.0
  H  H34  1  0.35518000  0.55360000  0.90337000  1.0
  H  H35  1  0.64481000  0.44640000  0.09664000  1.0
  H  H36  1  0.28727000  0.41864000  0.90323000  1.0
  H  H37  1  0.71272000  0.58135000  0.09677000  1.0
  H  H38  1  0.65110000  0.40097000  0.87881000  1.0
  H  H39  1  0.34889000  0.59903000  0.12118000  1.0
  H  H40  1  0.59628000  0.27489000  0.85047000  1.0
  H  H41  1  0.40371000  0.72511000  0.14953000  1.0
  H  H42  1  0.06687000  0.11704000  0.45855000  1.0
  H  H43  1  0.93313000  0.88296000  0.54145000  1.0
  H  H44  1  0.08514000  0.00786000  0.59709000  1.0
  H  H45  1  0.91486000  0.99215000  0.40291000  1.0
  C  C46  1  0.00994000  0.74302000  0.05652000  1.0
  C  C47  1  0.99004000  0.25697000  0.94348000  1.0
  C  C48  1  0.75965000  0.88262000  0.95758000  1.0
  C  C49  1  0.24035000  0.11738000  0.04242000  1.0
  C  C50  1  0.00959000  0.76689000  0.80834000  1.0
  C  C51  1  0.99041000  0.23312000  0.19167000  1.0
  C  C52  1  0.95275000  0.83173000  0.92572000  1.0
  C  C53  1  0.04725000  0.16827000  0.07429000  1.0
  C  C54  1  0.68946000  0.99817000  0.84380000  1.0
  C  C55  1  0.31054000  0.00183000  0.15620000  1.0
  C  C56  1  0.43136000  0.39645000  0.65456000  1.0
  C  C57  1  0.56864000  0.60355000  0.34544000  1.0
  C  C58  1  0.38694000  0.23353000  0.28026000  1.0
  C  C59  1  0.61306000  0.76647000  0.71974000  1.0
  C  C60  1  0.29047000  0.36240000  0.65892000  1.0
  C  C61  1  0.70954000  0.63759000  0.34108000  1.0
  C  C62  1  0.39125000  0.31512000  0.15009000  1.0
  C  C63  1  0.60875000  0.68488000  0.84990000  1.0
  C  C64  1  0.59812000  0.20273000  0.55780000  1.0
  C  C65  1  0.40190000  0.79728000  0.44219000  1.0
  C  C66  1  0.30998000  0.24971000  0.61311000  1.0
  C  C67  1  0.69003000  0.75029000  0.38688000  1.0
  C  C68  1  0.41415000  0.51209000  0.71115000  1.0
  C  C69  1  0.58584000  0.48791000  0.28885000  1.0
  C  C70  1  0.58724000  0.31403000  0.60165000  1.0
  C  C71  1  0.41277000  0.68597000  0.39835000  1.0
  C  C72  1  0.66271000  0.16011000  0.09048000  1.0
  C  C73  1  0.33729000  0.83988000  0.90951000  1.0
  C  C74  1  0.65078000  0.08443000  0.22206000  1.0
  C  C75  1  0.34922000  0.91557000  0.77794000  1.0
  C  C76  1  0.53154000  0.27812000  0.05117000  1.0
  C  C77  1  0.46846000  0.72187000  0.94883000  1.0
  C  C78  1  0.39253000  0.46292000  0.86323000  1.0
  C  C79  1  0.60746000  0.53708000  0.13677000  1.0
  C  C80  1  0.54876000  0.35453000  0.90666000  1.0
  C  C81  1  0.45124000  0.64547000  0.09334000  1.0
  N  N82  1  0.51407000  0.11992000  0.31570000  1.0
  N  N83  1  0.48593000  0.88008000  0.68430000  1.0
  N  N84  1  0.46203000  0.17016000  0.56438000  1.0
  N  N85  1  0.53799000  0.82984000  0.43562000  1.0
  O  O86  1  0.04672000  0.60782000  0.08739000  1.0
  O  O87  1  0.95325000  0.39219000  0.91262000  1.0
  O  O88  1  0.01450000  0.80578000  0.13239000  1.0
  O  O89  1  0.98548000  0.19423000  0.86762000  1.0
  O  O90  1  0.01139000  0.64029000  0.82848000  1.0
  O  O91  1  0.98862000  0.35971000  0.17151000  1.0
  O  O92  1  0.04334000  0.84172000  0.69187000  1.0
  O  O93  1  0.95665000  0.15829000  0.30814000  1.0
  O  O94  1  0.13190000  0.08000000  0.52878000  1.0
  O  O95  1  0.86810000  0.92001000  0.47121000  1.0
