# generated using pymatgen
data_LaH13C18N2O7
_symmetry_space_group_name_H-M   'P 1'
_cell_length_a   9.00855000
_cell_length_b   10.09490000
_cell_length_c   10.59100000
_cell_angle_alpha   72.25670000
_cell_angle_beta   77.85110000
_cell_angle_gamma   70.03250000
_symmetry_Int_Tables_number   1
_chemical_formula_structural   LaH13C18N2O7
_chemical_formula_sum   'La2 H26 C36 N4 O14'
_cell_volume   856.07996321
_cell_formula_units_Z   2
loop_
 _symmetry_equiv_pos_site_id
 _symmetry_equiv_pos_as_xyz
  1  'x, y, z'
loop_
 _atom_site_type_symbol
 _atom_site_label
 _atom_site_symmetry_multiplicity
 _atom_site_fract_x
 _atom_site_fract_y
 _atom_site_fract_z
 _atom_site_occupancy
  La  La0  1  0.41733000  0.58735000  0.16646000  1.0
  La  La1  1  0.58267000  0.41265000  0.83354000  1.0
  H  H2  1  0.30781000  0.38458000  0.47493000  1.0
  H  H3  1  0.69219000  0.61542000  0.52507000  1.0
  H  H4  1  0.13138000  0.38375000  0.69100000  1.0
  H  H5  1  0.86862000  0.61625000  0.30900000  1.0
  H  H6  1  0.92191000  0.61446000  0.71919000  1.0
  H  H7  1  0.07808000  0.38554000  0.28081000  1.0
  H  H8  1  0.78410000  0.87439000  0.62047000  1.0
  H  H9  1  0.21589000  0.12561000  0.37953000  1.0
  H  H10  1  0.75422000  0.09145000  0.42976000  1.0
  H  H11  1  0.24578000  0.90855000  0.57024000  1.0
  H  H12  1  0.85288000  0.21217000  0.20069000  1.0
  H  H13  1  0.14712000  0.78783000  0.79931000  1.0
  H  H14  1  0.05345000  0.19476000  0.99567000  1.0
  H  H15  1  0.94655000  0.80524000  0.00432000  1.0
  H  H16  1  0.26734000  0.95775000  0.99447000  1.0
  H  H17  1  0.73266000  0.04224000  0.00553000  1.0
  H  H18  1  0.48623000  0.07108000  0.36721000  1.0
  H  H19  1  0.51378000  0.92892000  0.63279000  1.0
  H  H20  1  0.51313000  0.96141000  0.11840000  1.0
  H  H21  1  0.48687000  0.03859000  0.88160000  1.0
  H  H22  1  0.12514000  0.43820000  0.89158000  1.0
  H  H23  1  0.87486000  0.56180000  0.10842000  1.0
  H  H24  1  0.62012000  0.47142000  0.38707000  1.0
  H  H25  1  0.37988000  0.52858000  0.61293000  1.0
  H  H26  1  0.56053000  0.32986000  0.43457000  1.0
  H  H27  1  0.43947000  0.67014000  0.56543000  1.0
  C  C28  1  0.21899000  0.48494000  0.49090000  1.0
  C  C29  1  0.78100000  0.51506000  0.50910000  1.0
  C  C30  1  0.11921000  0.48439000  0.61234000  1.0
  C  C31  1  0.88079000  0.51561000  0.38766000  1.0
  C  C32  1  0.00439000  0.61199000  0.62796000  1.0
  C  C33  1  0.99560000  0.38801000  0.37204000  1.0
  C  C34  1  0.98928000  0.73908000  0.52202000  1.0
  C  C35  1  0.01071000  0.26092000  0.47798000  1.0
  C  C36  1  0.86612000  0.87174000  0.52905000  1.0
  C  C37  1  0.13389000  0.12825000  0.47095000  1.0
  C  C38  1  0.85010000  0.99166000  0.42351000  1.0
  C  C39  1  0.14990000  0.00834000  0.57649000  1.0
  C  C40  1  0.95962000  0.98859000  0.30437000  1.0
  C  C41  1  0.04038000  0.01141000  0.69563000  1.0
  C  C42  1  0.94884000  0.11204000  0.19468000  1.0
  C  C43  1  0.05116000  0.88796000  0.80532000  1.0
  C  C44  1  0.05932000  0.10267000  0.08300000  1.0
  C  C45  1  0.94068000  0.89733000  0.91700000  1.0
  C  C46  1  0.17888000  0.96997000  0.08130000  1.0
  C  C47  1  0.82112000  0.03003000  0.91870000  1.0
  C  C48  1  0.08516000  0.85886000  0.29373000  1.0
  C  C49  1  0.91484000  0.14114000  0.70627000  1.0
  C  C50  1  0.09827000  0.73068000  0.40393000  1.0
  C  C51  1  0.90173000  0.26933000  0.59607000  1.0
  C  C52  1  0.48119000  0.22245000  0.16678000  1.0
  C  C53  1  0.51881000  0.77755000  0.83322000  1.0
  C  C54  1  0.49509000  0.07604000  0.26149000  1.0
  C  C55  1  0.50492000  0.92396000  0.73851000  1.0
  C  C56  1  0.50567000  0.95749000  0.22364000  1.0
  C  C57  1  0.49433000  0.04251000  0.77636000  1.0
  C  C58  1  0.50538000  0.81465000  0.32055000  1.0
  C  C59  1  0.49462000  0.18535000  0.67945000  1.0
  C  C60  1  0.18620000  0.54265000  0.01988000  1.0
  C  C61  1  0.81380000  0.45736000  0.98012000  1.0
  C  C62  1  0.07618000  0.49127000  0.97321000  1.0
  C  C63  1  0.92383000  0.50873000  0.02679000  1.0
  N  N64  1  0.21181000  0.60440000  0.39060000  1.0
  N  N65  1  0.78819000  0.39560000  0.60940000  1.0
  N  N66  1  0.19238000  0.85107000  0.18259000  1.0
  N  N67  1  0.80762000  0.14893000  0.81741000  1.0
  O  O68  1  0.40932000  0.33076000  0.21676000  1.0
  O  O69  1  0.59068000  0.66924000  0.78324000  1.0
  O  O70  1  0.53774000  0.23018000  0.04456000  1.0
  O  O71  1  0.46225000  0.76982000  0.95544000  1.0
  O  O72  1  0.47711000  0.80676000  0.44411000  1.0
  O  O73  1  0.52289000  0.19324000  0.55589000  1.0
  O  O74  1  0.53616000  0.70642000  0.26901000  1.0
  O  O75  1  0.46384000  0.29358000  0.73099000  1.0
  O  O76  1  0.14074000  0.59826000  0.11915000  1.0
  O  O77  1  0.85926000  0.40174000  0.88084000  1.0
  O  O78  1  0.32688000  0.52849000  0.95662000  1.0
  O  O79  1  0.67311000  0.47151000  0.04337000  1.0
  O  O80  1  0.58549000  0.40745000  0.35462000  1.0
  O  O81  1  0.41451000  0.59255000  0.64538000  1.0
