# generated using pymatgen
data_H4PbC4O5
_symmetry_space_group_name_H-M   'P 1'
_cell_length_a   6.90379624
_cell_length_b   7.09701000
_cell_length_c   7.73536000
_cell_angle_alpha   109.02890000
_cell_angle_beta   97.56569659
_cell_angle_gamma   67.95901839
_symmetry_Int_Tables_number   1
_chemical_formula_structural   H4PbC4O5
_chemical_formula_sum   'H8 Pb2 C8 O10'
_cell_volume   332.08878627
_cell_formula_units_Z   2
loop_
 _symmetry_equiv_pos_site_id
 _symmetry_equiv_pos_as_xyz
  1  'x, y, z'
loop_
 _atom_site_type_symbol
 _atom_site_label
 _atom_site_symmetry_multiplicity
 _atom_site_fract_x
 _atom_site_fract_y
 _atom_site_fract_z
 _atom_site_occupancy
  H  H0  1  0.97141000  0.57529000  0.52593000  1.0
  H  H1  1  0.96502000  0.24796000  0.35361000  1.0
  H  H2  1  0.90829000  0.80420000  0.49677000  1.0
  H  H3  1  0.08727000  0.23107000  0.54000000  1.0
  H  H4  1  0.87939000  0.49595000  0.82761000  1.0
  H  H5  1  0.12194000  0.54427000  0.19340000  1.0
  H  H6  1  0.64729000  0.26105000  0.98744000  1.0
  H  H7  1  0.37125000  0.72573000  0.00552000  1.0
  Pb  Pb8  1  0.53851000  0.82746000  0.68537000  1.0
  Pb  Pb9  1  0.46057000  0.17691000  0.31552000  1.0
  C  C10  1  0.14318000  0.22200000  0.87284000  1.0
  C  C11  1  0.85550000  0.81432000  0.14585000  1.0
  C  C12  1  0.99532000  0.44715000  0.92969000  1.0
  C  C13  1  0.00516000  0.59037000  0.09081000  1.0
  C  C14  1  0.50913000  0.34737000  0.73819000  1.0
  C  C15  1  0.51167000  0.63666000  0.25414000  1.0
  C  C16  1  0.54977000  0.39498000  0.93799000  1.0
  C  C17  1  0.46985000  0.59169000  0.05434000  1.0
  O  O18  1  0.15508000  0.12382000  0.70066000  1.0
  O  O19  1  0.86129000  0.92506000  0.31359000  1.0
  O  O20  1  0.25528000  0.13687000  0.99024000  1.0
  O  O21  1  0.72079000  0.88645000  0.03180000  1.0
  O  O22  1  0.42389000  0.49458000  0.66478000  1.0
  O  O23  1  0.60212000  0.48599000  0.32367000  1.0
  O  O24  1  0.56581000  0.14915000  0.64271000  1.0
  O  O25  1  0.45052000  0.83381000  0.35250000  1.0
  O  O26  1  0.90900000  0.73145000  0.58688000  1.0
  O  O27  1  0.06571000  0.29834000  0.43812000  1.0
