# generated using pymatgen
data_ZnH9C9NO5
_symmetry_space_group_name_H-M   'P 1'
_cell_length_a   7.46458000
_cell_length_b   7.92138000
_cell_length_c   9.78029000
_cell_angle_alpha   78.84350000
_cell_angle_beta   74.20150000
_cell_angle_gamma   63.26580000
_symmetry_Int_Tables_number   1
_chemical_formula_structural   ZnH9C9NO5
_chemical_formula_sum   'Zn2 H18 C18 N2 O10'
_cell_volume   495.27712655
_cell_formula_units_Z   2
loop_
 _symmetry_equiv_pos_site_id
 _symmetry_equiv_pos_as_xyz
  1  'x, y, z'
loop_
 _atom_site_type_symbol
 _atom_site_label
 _atom_site_symmetry_multiplicity
 _atom_site_fract_x
 _atom_site_fract_y
 _atom_site_fract_z
 _atom_site_occupancy
  Zn  Zn0  1  0.10574000  0.14636000  0.43442000  1.0
  Zn  Zn1  1  0.89426000  0.85364000  0.56558000  1.0
  H  H2  1  0.82109000  0.49921000  0.46368000  1.0
  H  H3  1  0.17890000  0.50079000  0.53632000  1.0
  H  H4  1  0.73925000  0.37377000  0.40507000  1.0
  H  H5  1  0.26075000  0.62623000  0.59493000  1.0
  H  H6  1  0.62076000  0.50304000  0.16155000  1.0
  H  H7  1  0.37924000  0.49696000  0.83845000  1.0
  H  H8  1  0.87146000  0.48514000  0.09794000  1.0
  H  H9  1  0.12853000  0.51486000  0.90206000  1.0
  H  H10  1  0.33615000  0.79541000  0.26307000  1.0
  H  H11  1  0.66385000  0.20459000  0.73693000  1.0
  H  H12  1  0.95328000  0.75442000  0.11769000  1.0
  H  H13  1  0.04672000  0.24558000  0.88231000  1.0
  H  H14  1  0.70945000  0.51580000  0.89475000  1.0
  H  H15  1  0.29055000  0.48420000  0.10525000  1.0
  H  H16  1  0.76143000  0.71692000  0.88610000  1.0
  H  H17  1  0.23857000  0.28308000  0.11390000  1.0
  H  H18  1  0.50688000  0.73445000  0.95142000  1.0
  H  H19  1  0.49312000  0.26555000  0.04857000  1.0
  C  C20  1  0.70986000  0.58223000  0.10063000  1.0
  C  C21  1  0.29014000  0.41777000  0.89937000  1.0
  C  C22  1  0.65452000  0.75052000  0.17817000  1.0
  C  C23  1  0.34548000  0.24948000  0.82183000  1.0
  C  C24  1  0.45386000  0.84483000  0.25447000  1.0
  C  C25  1  0.54614000  0.15517000  0.74553000  1.0
  C  C26  1  0.73704000  0.97902000  0.25126000  1.0
  C  C27  1  0.26297000  0.02097000  0.74874000  1.0
  C  C28  1  0.79571000  0.82161000  0.17708000  1.0
  C  C29  1  0.20429000  0.17839000  0.82292000  1.0
  C  C30  1  0.44308000  0.24924000  0.39264000  1.0
  C  C31  1  0.55691000  0.75076000  0.60736000  1.0
  C  C32  1  0.53113000  0.06845000  0.32041000  1.0
  C  C33  1  0.46887000  0.93155000  0.67959000  1.0
  C  C34  1  0.66975000  0.64102000  0.94913000  1.0
  C  C35  1  0.33025000  0.35898000  0.05087000  1.0
  C  C36  1  0.89849000  0.04210000  0.25509000  1.0
  C  C37  1  0.10152000  0.95790000  0.74490000  1.0
  N  N38  1  0.39514000  0.99944000  0.32106000  1.0
  N  N39  1  0.60486000  0.00056000  0.67894000  1.0
  O  O40  1  0.55132000  0.33577000  0.38163000  1.0
  O  O41  1  0.44868000  0.66424000  0.61836000  1.0
  O  O42  1  0.86388000  0.38687000  0.40920000  1.0
  O  O43  1  0.13612000  0.61313000  0.59080000  1.0
  O  O44  1  0.25381000  0.30661000  0.45998000  1.0
  O  O45  1  0.74619000  0.69340000  0.54002000  1.0
  O  O46  1  0.96458000  0.99245000  0.37536000  1.0
  O  O47  1  0.03542000  0.00755000  0.62464000  1.0
  O  O48  1  0.97021000  0.12279000  0.14936000  1.0
  O  O49  1  0.02979000  0.87719000  0.85064000  1.0
