# generated using pymatgen
data_Zn4H8C40Br8O13F4
_symmetry_space_group_name_H-M   'P 1'
_cell_length_a   23.94130790
_cell_length_b   23.94160000
_cell_length_c   23.93970000
_cell_angle_alpha   66.32310000
_cell_angle_beta   72.58686492
_cell_angle_gamma   107.40981459
_symmetry_Int_Tables_number   1
_chemical_formula_structural   Zn4H8C40Br8O13F4
_chemical_formula_sum   'Zn8 H16 C80 Br16 O26 F8'
_cell_volume   10519.92483422
_cell_formula_units_Z   2
loop_
 _symmetry_equiv_pos_site_id
 _symmetry_equiv_pos_as_xyz
  1  'x, y, z'
loop_
 _atom_site_type_symbol
 _atom_site_label
 _atom_site_symmetry_multiplicity
 _atom_site_fract_x
 _atom_site_fract_y
 _atom_site_fract_z
 _atom_site_occupancy
  Zn  Zn0  1  0.05687000  0.09975000  0.45710000  1.0
  Zn  Zn1  1  0.05686000  0.95712000  0.48602000  1.0
  Zn  Zn2  1  0.94313000  0.95711000  0.59976000  1.0
  Zn  Zn3  1  0.94315000  0.98604000  0.45710000  1.0
  Zn  Zn4  1  0.94314000  0.40026000  0.04289000  1.0
  Zn  Zn5  1  0.05687000  0.54289000  0.90024000  1.0
  Zn  Zn6  1  0.94314000  0.54289000  0.01398000  1.0
  Zn  Zn7  1  0.05685000  0.51397000  0.04290000  1.0
  H  H8  1  0.92370000  0.20884000  0.90105000  1.0
  H  H9  1  0.07628000  0.40104000  0.70882000  1.0
  H  H10  1  0.92371000  0.09896000  0.79118000  1.0
  H  H11  1  0.07624000  0.29118000  0.59893000  1.0
  H  H12  1  0.07630000  0.67528000  0.21485000  1.0
  H  H13  1  0.92372000  0.71490000  0.17522000  1.0
  H  H14  1  0.07624000  0.78507000  0.32481000  1.0
  H  H15  1  0.92371000  0.82476000  0.28512000  1.0
  H  H16  1  0.60987000  0.20883000  0.21491000  1.0
  H  H17  1  0.60987000  0.40105000  0.17523000  1.0
  H  H18  1  0.39013000  0.09895000  0.32478000  1.0
  H  H19  1  0.39012000  0.29114000  0.28518000  1.0
  H  H20  1  0.39013000  0.71494000  0.70883000  1.0
  H  H21  1  0.39011000  0.67522000  0.90107000  1.0
  H  H22  1  0.60989000  0.82479000  0.59893000  1.0
  H  H23  1  0.60986000  0.78513000  0.79117000  1.0
  C  C24  1  0.18095000  0.09047000  0.40952000  1.0
  C  C25  1  1.00000000  0.86262000  0.63738000  1.0
  C  C26  1  0.99999000  0.09047000  0.59048000  1.0
  C  C27  1  0.81905000  0.90953000  0.59046000  1.0
  C  C28  1  1.00000000  0.13739000  0.36261000  1.0
  C  C29  1  1.00000000  0.90953000  0.40952000  1.0
  C  C30  1  1.00000000  0.40953000  0.90952000  1.0
  C  C31  1  0.00001000  0.63739000  0.86261000  1.0
  C  C32  1  0.81905000  0.40953000  0.09049000  1.0
  C  C33  1  0.99999000  0.59048000  0.09048000  1.0
  C  C34  1  1.00000000  0.36261000  0.13739000  1.0
  C  C35  1  0.18095000  0.59048000  0.90954000  1.0
  C  C36  1  1.00000000  0.19482000  0.30519000  1.0
  C  C37  1  1.00000000  0.30519000  0.19481000  1.0
  C  C38  1  0.95790000  0.18125000  0.27665000  1.0
  C  C39  1  0.04211000  0.31877000  0.22334000  1.0
  C  C40  1  0.95789000  0.23455000  0.22335000  1.0
  C  C41  1  0.04211000  0.26545000  0.27665000  1.0
  C  C42  1  1.00000000  0.80519000  0.69481000  1.0
  C  C43  1  1.00000000  0.69481000  0.80519000  1.0
  C  C44  1  0.95790000  0.77666000  0.76545000  1.0
  C  C45  1  0.04211000  0.72335000  0.73454000  1.0
  C  C46  1  0.95790000  0.72334000  0.81876000  1.0
  C  C47  1  0.04211000  0.77667000  0.68123000  1.0
  C  C48  1  0.00000000  0.37204000  0.87201000  1.0
  C  C49  1  0.95733000  0.29922000  0.90684000  1.0
  C  C50  1  0.95721000  0.26443000  0.87223000  1.0
  C  C51  1  0.99999000  0.30048000  0.80047000  1.0
  C  C52  1  0.04277000  0.37223000  0.76441000  1.0
  C  C53  1  0.04266000  0.40685000  0.79920000  1.0
  C  C54  1  0.99998000  0.26522000  0.76522000  1.0
  C  C55  1  0.99998000  0.23479000  0.73478000  1.0
  C  C56  1  0.99998000  0.19953000  0.69952000  1.0
  C  C57  1  0.95721000  0.12777000  0.73559000  1.0
  C  C58  1  0.95733000  0.09316000  0.70079000  1.0
  C  C59  1  0.99998000  0.12797000  0.62798000  1.0
  C  C60  1  0.04263000  0.20080000  0.59315000  1.0
  C  C61  1  0.04274000  0.23558000  0.62776000  1.0
  C  C62  1  1.00000000  0.62799000  0.12796000  1.0
  C  C63  1  0.04267000  0.63585000  0.15810000  1.0
  C  C64  1  0.04279000  0.67059000  0.19277000  1.0
  C  C65  1  0.00001000  0.69955000  0.19950000  1.0
  C  C66  1  0.95723000  0.69282000  0.17053000  1.0
  C  C67  1  0.95735000  0.65815000  0.13580000  1.0
  C  C68  1  1.00000000  0.73480000  0.23477000  1.0
  C  C69  1  0.99999000  0.76522000  0.26522000  1.0
  C  C70  1  0.99998000  0.80046000  0.30049000  1.0
  C  C71  1  0.04274000  0.80716000  0.32949000  1.0
  C  C72  1  0.04262000  0.84183000  0.36422000  1.0
  C  C73  1  0.99998000  0.87200000  0.37204000  1.0
  C  C74  1  0.95733000  0.86417000  0.34188000  1.0
  C  C75  1  0.95721000  0.82944000  0.30721000  1.0
  C  C76  1  0.74405000  0.37203000  0.12798000  1.0
  C  C77  1  0.70605000  0.29922000  0.15814000  1.0
  C  C78  1  0.63664000  0.26442000  0.19283000  1.0
  C  C79  1  0.60095000  0.30048000  0.19953000  1.0
  C  C80  1  0.63664000  0.37223000  0.17055000  1.0
  C  C81  1  0.70605000  0.40685000  0.13581000  1.0
  C  C82  1  0.53044000  0.26522000  0.23479000  1.0
  C  C83  1  0.46957000  0.23478000  0.26524000  1.0
  C  C84  1  0.39905000  0.19951000  0.30051000  1.0
  C  C85  1  0.36336000  0.12777000  0.32948000  1.0
  C  C86  1  0.29395000  0.09315000  0.36421000  1.0
  C  C87  1  0.25595000  0.12796000  0.37205000  1.0
  C  C88  1  0.29395000  0.20077000  0.34191000  1.0
  C  C89  1  0.36336000  0.23557000  0.30724000  1.0
  C  C90  1  0.25595000  0.62798000  0.87204000  1.0
  C  C91  1  0.29396000  0.65817000  0.79921000  1.0
  C  C92  1  0.36336000  0.69284000  0.76442000  1.0
  C  C93  1  0.39905000  0.69954000  0.80048000  1.0
  C  C94  1  0.36335000  0.67055000  0.87224000  1.0
  C  C95  1  0.29394000  0.63581000  0.90686000  1.0
  C  C96  1  0.46957000  0.73481000  0.76522000  1.0
  C  C97  1  0.53044000  0.76525000  0.73476000  1.0
  C  C98  1  0.60095000  0.80050000  0.69951000  1.0
  C  C99  1  0.63665000  0.82947000  0.62775000  1.0
  C  C100  1  0.70606000  0.86420000  0.59314000  1.0
  C  C101  1  0.74405000  0.87204000  0.62796000  1.0
  C  C102  1  0.70604000  0.84188000  0.70078000  1.0
  C  C103  1  0.63664000  0.80722000  0.73557000  1.0
  Br  Br104  1  0.89499000  0.23850000  0.00372000  1.0
  Br  Br105  1  0.10501000  0.50372000  0.73846000  1.0
  Br  Br106  1  0.89499000  0.99628000  0.76154000  1.0
  Br  Br107  1  0.10494000  0.26153000  0.49625000  1.0
  Br  Br108  1  0.10503000  0.60134000  0.15646000  1.0
  Br  Br109  1  0.89501000  0.65654000  0.10126000  1.0
  Br  Br110  1  0.10494000  0.84342000  0.39878000  1.0
  Br  Br111  1  0.89499000  0.89870000  0.34349000  1.0
  Br  Br112  1  0.74220000  0.23849000  0.15653000  1.0
  Br  Br113  1  0.74220000  0.50373000  0.10125000  1.0
  Br  Br114  1  0.25781000  0.99628000  0.39874000  1.0
  Br  Br115  1  0.25780000  0.26149000  0.34355000  1.0
  Br  Br116  1  0.25782000  0.65658000  0.73847000  1.0
  Br  Br117  1  0.25779000  0.60125000  0.00375000  1.0
  Br  Br118  1  0.74221000  0.89874000  0.49625000  1.0
  Br  Br119  1  0.74218000  0.84350000  0.76151000  1.0
  O  O120  1  0.00000000  0.00000000  0.50000000  1.0
  O  O121  1  0.15164000  0.12631000  0.41310000  1.0
  O  O122  1  0.04008000  0.88434000  0.57558000  1.0
  O  O123  1  0.96055000  0.02532000  0.62631000  1.0
  O  O124  1  0.15163000  0.02532000  0.43523000  1.0
  O  O125  1  0.03945000  0.12629000  0.52533000  1.0
  O  O126  1  0.95991000  0.88433000  0.65576000  1.0
  O  O127  1  0.84836000  0.91311000  0.62630000  1.0
  O  O128  1  0.95993000  0.07559000  0.38432000  1.0
  O  O129  1  0.84837000  0.93525000  0.52531000  1.0
  O  O130  1  0.04008000  0.15575000  0.38434000  1.0
  O  O131  1  0.03944000  0.91314000  0.43522000  1.0
  O  O132  1  0.96057000  0.93524000  0.41312000  1.0
  O  O133  1  1.00000000  0.50000000  1.00000000  1.0
  O  O134  1  0.96057000  0.37370000  0.97467000  1.0
  O  O135  1  0.04009000  0.61567000  0.84425000  1.0
  O  O136  1  0.84837000  0.47467000  0.06478000  1.0
  O  O137  1  0.03943000  0.47468000  0.87368000  1.0
  O  O138  1  0.84837000  0.37371000  0.08687000  1.0
  O  O139  1  0.95992000  0.61566000  0.92442000  1.0
  O  O140  1  0.96056000  0.58687000  0.06476000  1.0
  O  O141  1  0.04008000  0.42442000  0.11566000  1.0
  O  O142  1  0.03940000  0.56474000  0.08690000  1.0
  O  O143  1  0.95992000  0.34426000  0.11566000  1.0
  O  O144  1  0.15164000  0.58686000  0.87371000  1.0
  O  O145  1  0.15163000  0.56478000  0.97468000  1.0
  F  F146  1  0.91527000  0.11604000  0.29923000  1.0
  F  F147  1  0.08473000  0.38396000  0.20076000  1.0
  F  F148  1  0.91527000  0.21450000  0.20077000  1.0
  F  F149  1  0.08473000  0.28550000  0.29923000  1.0
  F  F150  1  0.91527000  0.79922000  0.78552000  1.0
  F  F151  1  0.08473000  0.70078000  0.71448000  1.0
  F  F152  1  0.91528000  0.70077000  0.88397000  1.0
  F  F153  1  0.08473000  0.79924000  0.61602000  1.0
