# generated using pymatgen
data_AgH3C3N2
_symmetry_space_group_name_H-M   'P 1'
_cell_length_a   5.39144000
_cell_length_b   6.66547000
_cell_length_c   22.48370000
_cell_angle_alpha   89.99780000
_cell_angle_beta   89.99790000
_cell_angle_gamma   89.99840000
_symmetry_Int_Tables_number   1
_chemical_formula_structural   AgH3C3N2
_chemical_formula_sum   'Ag8 H24 C24 N16'
_cell_volume   807.98506937
_cell_formula_units_Z   8
loop_
 _symmetry_equiv_pos_site_id
 _symmetry_equiv_pos_as_xyz
  1  'x, y, z'
loop_
 _atom_site_type_symbol
 _atom_site_label
 _atom_site_symmetry_multiplicity
 _atom_site_fract_x
 _atom_site_fract_y
 _atom_site_fract_z
 _atom_site_occupancy
  Ag  Ag0  1  0.63293000  0.43169000  0.38043000  1.0
  Ag  Ag1  1  0.36706000  0.93169000  0.11958000  1.0
  Ag  Ag2  1  0.13292000  0.06831000  0.61956000  1.0
  Ag  Ag3  1  0.86709000  0.56830000  0.88043000  1.0
  Ag  Ag4  1  0.41790000  0.38932000  0.11897000  1.0
  Ag  Ag5  1  0.58211000  0.88931000  0.38103000  1.0
  Ag  Ag6  1  0.91790000  0.11070000  0.88103000  1.0
  Ag  Ag7  1  0.08207000  0.61069000  0.61897000  1.0
  H  H8  1  0.86884000  0.34297000  0.50638000  1.0
  H  H9  1  0.13117000  0.84297000  0.99363000  1.0
  H  H10  1  0.36884000  0.15703000  0.49361000  1.0
  H  H11  1  0.63116000  0.65702000  0.00637000  1.0
  H  H12  1  0.19273000  0.63872000  0.47036000  1.0
  H  H13  1  0.80725000  0.13872000  0.02964000  1.0
  H  H14  1  0.69273000  0.86128000  0.52963000  1.0
  H  H15  1  0.30729000  0.36128000  0.97037000  1.0
  H  H16  1  0.97774000  0.20257000  0.16935000  1.0
  H  H17  1  0.02228000  0.70255000  0.33066000  1.0
  H  H18  1  0.47777000  0.29741000  0.83063000  1.0
  H  H19  1  0.52223000  0.79744000  0.66937000  1.0
  H  H20  1  0.37512000  0.48482000  0.25493000  1.0
  H  H21  1  0.62486000  0.98482000  0.24507000  1.0
  H  H22  1  0.87513000  0.01520000  0.74507000  1.0
  H  H23  1  0.12487000  0.51519000  0.75493000  1.0
  H  H24  1  0.61365000  0.40388000  0.61230000  1.0
  H  H25  1  0.38634000  0.90389000  0.88771000  1.0
  H  H26  1  0.11367000  0.09613000  0.38770000  1.0
  H  H27  1  0.88632000  0.59612000  0.11230000  1.0
  H  H28  1  0.06774000  0.21383000  0.29013000  1.0
  H  H29  1  0.93227000  0.71382000  0.20987000  1.0
  H  H30  1  0.56774000  0.28618000  0.70984000  1.0
  H  H31  1  0.43225000  0.78618000  0.79015000  1.0
  C  C32  1  0.69079000  0.41277000  0.51457000  1.0
  C  C33  1  0.30920000  0.91276000  0.98543000  1.0
  C  C34  1  0.19079000  0.08725000  0.48542000  1.0
  C  C35  1  0.80923000  0.58722000  0.01457000  1.0
  C  C36  1  0.34272000  0.56681000  0.49450000  1.0
  C  C37  1  0.65729000  0.06680000  0.00550000  1.0
  C  C38  1  0.84271000  0.93320000  0.50550000  1.0
  C  C39  1  0.15730000  0.43319000  0.99450000  1.0
  C  C40  1  0.86512000  0.26441000  0.20491000  1.0
  C  C41  1  0.13488000  0.76440000  0.29510000  1.0
  C  C42  1  0.36514000  0.23558000  0.79508000  1.0
  C  C43  1  0.63486000  0.73559000  0.70492000  1.0
  C  C44  1  0.55214000  0.41081000  0.24821000  1.0
  C  C45  1  0.44784000  0.91080000  0.25179000  1.0
  C  C46  1  0.05216000  0.08919000  0.75179000  1.0
  C  C47  1  0.94784000  0.58919000  0.74821000  1.0
  C  C48  1  0.56441000  0.44387000  0.56709000  1.0
  C  C49  1  0.43559000  0.94386000  0.93291000  1.0
  C  C50  1  0.06443000  0.05615000  0.43290000  1.0
  C  C51  1  0.93556000  0.55613000  0.06709000  1.0
  C  C52  1  0.90996000  0.27002000  0.26535000  1.0
  C  C53  1  0.09004000  0.77001000  0.23465000  1.0
  C  C54  1  0.40997000  0.22998000  0.73463000  1.0
  C  C55  1  0.59002000  0.72999000  0.76537000  1.0
  N  N56  1  0.54900000  0.48993000  0.46884000  1.0
  N  N57  1  0.45101000  0.98992000  0.03116000  1.0
  N  N58  1  0.04899000  0.01007000  0.53115000  1.0
  N  N59  1  0.95103000  0.51007000  0.96884000  1.0
  N  N60  1  0.34538000  0.54269000  0.55404000  1.0
  N  N61  1  0.65463000  0.04270000  0.94597000  1.0
  N  N62  1  0.84537000  0.95731000  0.44596000  1.0
  N  N63  1  0.15463000  0.45730000  0.05404000  1.0
  N  N64  1  0.71076000  0.36337000  0.29243000  1.0
  N  N65  1  0.28924000  0.86335000  0.20758000  1.0
  N  N66  1  0.21077000  0.13666000  0.70756000  1.0
  N  N67  1  0.78924000  0.63665000  0.79243000  1.0
  N  N68  1  0.63816000  0.35429000  0.19451000  1.0
  N  N69  1  0.36185000  0.85427000  0.30549000  1.0
  N  N70  1  0.13817000  0.14570000  0.80548000  1.0
  N  N71  1  0.86182000  0.64572000  0.69452000  1.0
