# generated using pymatgen
data_Cd2H7C9N12ClO2
_symmetry_space_group_name_H-M   'P 1'
_cell_length_a   9.04849000
_cell_length_b   10.58880000
_cell_length_c   15.54280000
_cell_angle_alpha   90.00000000
_cell_angle_beta   90.00000000
_cell_angle_gamma   106.21000000
_symmetry_Int_Tables_number   1
_chemical_formula_structural   Cd2H7C9N12ClO2
_chemical_formula_sum   'Cd8 H28 C36 N48 Cl4 O8'
_cell_volume   1429.99381612
_cell_formula_units_Z   4
loop_
 _symmetry_equiv_pos_site_id
 _symmetry_equiv_pos_as_xyz
  1  'x, y, z'
loop_
 _atom_site_type_symbol
 _atom_site_label
 _atom_site_symmetry_multiplicity
 _atom_site_fract_x
 _atom_site_fract_y
 _atom_site_fract_z
 _atom_site_occupancy
  Cd  Cd0  1  0.27196000  0.70144000  0.39949000  1.0
  Cd  Cd1  1  0.22804000  0.29856000  0.89949000  1.0
  Cd  Cd2  1  0.72804000  0.29856000  0.60051000  1.0
  Cd  Cd3  1  0.77196000  0.70144000  0.10051000  1.0
  Cd  Cd4  1  0.61208000  0.94790000  0.26548000  1.0
  Cd  Cd5  1  0.88792000  0.05210000  0.76548000  1.0
  Cd  Cd6  1  0.38792000  0.05210000  0.73452000  1.0
  Cd  Cd7  1  0.11208000  0.94790000  0.23452000  1.0
  H  H8  1  0.13252000  0.42845000  0.32025000  1.0
  H  H9  1  0.36748000  0.57155000  0.82025000  1.0
  H  H10  1  0.86748000  0.57155000  0.67975000  1.0
  H  H11  1  0.63252000  0.42845000  0.17975000  1.0
  H  H12  1  0.12613000  0.46659000  0.04500000  1.0
  H  H13  1  0.37387000  0.53341000  0.54500000  1.0
  H  H14  1  0.87386000  0.53341000  0.95500000  1.0
  H  H15  1  0.62614000  0.46659000  0.45500000  1.0
  H  H16  1  0.75861000  0.18500000  0.17345000  1.0
  H  H17  1  0.74139000  0.81500000  0.67345000  1.0
  H  H18  1  0.24139000  0.81500000  0.82655000  1.0
  H  H19  1  0.25861000  0.18500000  0.32655000  1.0
  H  H20  1  0.14829000  0.47748000  0.51831000  1.0
  H  H21  1  0.35171000  0.52252000  0.01831000  1.0
  H  H22  1  0.85171000  0.52252000  0.48169000  1.0
  H  H23  1  0.64829000  0.47748000  0.98169000  1.0
  H  H24  1  0.60049000  0.08176000  0.09517000  1.0
  H  H25  1  0.89951000  0.91824000  0.59517000  1.0
  H  H26  1  0.39951000  0.91824000  0.90483000  1.0
  H  H27  1  0.10049000  0.08176000  0.40483000  1.0
  H  H28  1  0.44081000  0.97285000  0.11350000  1.0
  H  H29  1  0.05919000  0.02715000  0.61350000  1.0
  H  H30  1  0.55919000  0.02715000  0.88650000  1.0
  H  H31  1  0.94081000  0.97285000  0.38650000  1.0
  H  H32  1  0.05932000  0.42994000  0.43448000  1.0
  H  H33  1  0.44068000  0.57006000  0.93448000  1.0
  H  H34  1  0.94068000  0.57006000  0.56552000  1.0
  H  H35  1  0.55932000  0.42994000  0.06552000  1.0
  C  C36  1  0.85460000  0.24611000  0.33484000  1.0
  C  C37  1  0.64540000  0.75389000  0.83484000  1.0
  C  C38  1  0.14540000  0.75389000  0.66516000  1.0
  C  C39  1  0.35460000  0.24611000  0.16516000  1.0
  C  C40  1  0.93301000  0.30224000  0.25605000  1.0
  C  C41  1  0.56699000  0.69776000  0.75605000  1.0
  C  C42  1  0.06699000  0.69776000  0.74395000  1.0
  C  C43  1  0.43302000  0.30224000  0.24395000  1.0
  C  C44  1  0.07300000  0.40104000  0.25955000  1.0
  C  C45  1  0.42700000  0.59896000  0.75955000  1.0
  C  C46  1  0.92700000  0.59896000  0.74045000  1.0
  C  C47  1  0.57300000  0.40104000  0.24045000  1.0
  C  C48  1  0.14028000  0.46226000  0.18413000  1.0
  C  C49  1  0.35972000  0.53774000  0.68413000  1.0
  C  C50  1  0.85972000  0.53774000  0.81587000  1.0
  C  C51  1  0.64028000  0.46226000  0.31587000  1.0
  C  C52  1  0.28547000  0.56563000  0.18797000  1.0
  C  C53  1  0.21452000  0.43437000  0.68797000  1.0
  C  C54  1  0.71453000  0.43437000  0.81203000  1.0
  C  C55  1  0.78548000  0.56563000  0.31203000  1.0
  C  C56  1  0.07438000  0.41852000  0.10386000  1.0
  C  C57  1  0.42562000  0.58148000  0.60386000  1.0
  C  C58  1  0.92562000  0.58148000  0.89614000  1.0
  C  C59  1  0.57438000  0.41852000  0.39614000  1.0
  C  C60  1  0.94133000  0.31322000  0.09978000  1.0
  C  C61  1  0.55867000  0.68678000  0.59978000  1.0
  C  C62  1  0.05867000  0.68678000  0.90022000  1.0
  C  C63  1  0.44133000  0.31322000  0.40022000  1.0
  C  C64  1  0.87794000  0.25150000  0.01881000  1.0
  C  C65  1  0.62206000  0.74850000  0.51881000  1.0
  C  C66  1  0.12206000  0.74850000  0.98119000  1.0
  C  C67  1  0.37794000  0.25150000  0.48119000  1.0
  C  C68  1  0.86746000  0.26047000  0.17624000  1.0
  C  C69  1  0.63253000  0.73953000  0.67624000  1.0
  C  C70  1  0.13253000  0.73953000  0.82376000  1.0
  C  C71  1  0.36747000  0.26047000  0.32376000  1.0
  N  N72  1  0.88963000  0.30199000  0.41217000  1.0
  N  N73  1  0.61037000  0.69801000  0.91217000  1.0
  N  N74  1  0.11037000  0.69801000  0.58783000  1.0
  N  N75  1  0.38963000  0.30199000  0.08783000  1.0
  N  N76  1  0.78474000  0.22749000  0.46605000  1.0
  N  N77  1  0.71527000  0.77251000  0.96605000  1.0
  N  N78  1  0.21526000  0.77251000  0.53395000  1.0
  N  N79  1  0.28474000  0.22749000  0.03395000  1.0
  N  N80  1  0.68928000  0.12986000  0.42466000  1.0
  N  N81  1  0.81072000  0.87014000  0.92466000  1.0
  N  N82  1  0.31073000  0.87014000  0.57534000  1.0
  N  N83  1  0.18927000  0.12986000  0.07534000  1.0
  N  N84  1  0.73104000  0.13893000  0.34167000  1.0
  N  N85  1  0.76896000  0.86107000  0.84167000  1.0
  N  N86  1  0.26896000  0.86107000  0.65833000  1.0
  N  N87  1  0.23104000  0.13893000  0.15833000  1.0
  N  N88  1  0.34134000  0.64920000  0.25377000  1.0
  N  N89  1  0.15866000  0.35080000  0.75377000  1.0
  N  N90  1  0.65866000  0.35080000  0.74623000  1.0
  N  N91  1  0.84134000  0.64920000  0.24623000  1.0
  N  N92  1  0.48000000  0.72197000  0.22696000  1.0
  N  N93  1  0.02000000  0.27804000  0.72696000  1.0
  N  N94  1  0.52000000  0.27804000  0.77304000  1.0
  N  N95  1  0.98000000  0.72196000  0.27304000  1.0
  N  N96  1  0.50760000  0.68364000  0.14938000  1.0
  N  N97  1  0.99240000  0.31636000  0.64938000  1.0
  N  N98  1  0.49240000  0.31636000  0.85062000  1.0
  N  N99  1  0.00760000  0.68364000  0.35062000  1.0
  N  N100  1  0.38783000  0.58676000  0.12319000  1.0
  N  N101  1  0.11217000  0.41324000  0.62319000  1.0
  N  N102  1  0.61217000  0.41324000  0.87681000  1.0
  N  N103  1  0.88783000  0.58676000  0.37681000  1.0
  N  N104  1  0.95415000  0.25138000  0.94377000  1.0
  N  N105  1  0.54585000  0.74862000  0.44377000  1.0
  N  N106  1  0.04585000  0.74862000  0.05623000  1.0
  N  N107  1  0.45415000  0.25138000  0.55623000  1.0
  N  N108  1  0.84917000  0.17425000  0.89083000  1.0
  N  N109  1  0.65083000  0.82575000  0.39083000  1.0
  N  N110  1  0.15083000  0.82575000  0.10917000  1.0
  N  N111  1  0.34917000  0.17425000  0.60917000  1.0
  N  N112  1  0.71742000  0.13073000  0.93153000  1.0
  N  N113  1  0.78258000  0.86927000  0.43153000  1.0
  N  N114  1  0.28258000  0.86927000  0.06847000  1.0
  N  N115  1  0.21742000  0.13073000  0.56847000  1.0
  N  N116  1  0.73103000  0.17630000  0.01167000  1.0
  N  N117  1  0.76897000  0.82370000  0.51167000  1.0
  N  N118  1  0.26897000  0.82370000  0.98833000  1.0
  N  N119  1  0.23103000  0.17630000  0.48833000  1.0
  Cl  Cl120  1  0.34407000  0.94340000  0.33508000  1.0
  Cl  Cl121  1  0.15593000  0.05660000  0.83508000  1.0
  Cl  Cl122  1  0.65593000  0.05660000  0.66492000  1.0
  Cl  Cl123  1  0.84407000  0.94340000  0.16492000  1.0
  O  O124  1  0.53138000  0.03602000  0.14242000  1.0
  O  O125  1  0.96863000  0.96398000  0.64242000  1.0
  O  O126  1  0.46863000  0.96398000  0.85758000  1.0
  O  O127  1  0.03137000  0.03602000  0.35758000  1.0
  O  O128  1  0.16027000  0.49019000  0.45445000  1.0
  O  O129  1  0.33973000  0.50981000  0.95445000  1.0
  O  O130  1  0.83973000  0.50981000  0.54555000  1.0
  O  O131  1  0.66027000  0.49019000  0.04555000  1.0
