# generated using pymatgen
data_CuH12C16(NO2)2
_symmetry_space_group_name_H-M   'P 1'
_cell_length_a   4.86402000
_cell_length_b   10.63640000
_cell_length_c   15.22500000
_cell_angle_alpha   89.99950000
_cell_angle_beta   83.14610000
_cell_angle_gamma   89.99970000
_symmetry_Int_Tables_number   1
_chemical_formula_structural   CuH12C16(NO2)2
_chemical_formula_sum   'Cu2 H24 C32 N4 O8'
_cell_volume   782.04647982
_cell_formula_units_Z   2
loop_
 _symmetry_equiv_pos_site_id
 _symmetry_equiv_pos_as_xyz
  1  'x, y, z'
loop_
 _atom_site_type_symbol
 _atom_site_label
 _atom_site_symmetry_multiplicity
 _atom_site_fract_x
 _atom_site_fract_y
 _atom_site_fract_z
 _atom_site_occupancy
  Cu  Cu0  1  0.99836000  0.97558000  0.99860000  1.0
  Cu  Cu1  1  0.99835000  0.02443000  0.49860000  1.0
  H  H2  1  0.53606000  0.58031000  0.14498000  1.0
  H  H3  1  0.53605000  0.41970000  0.64499000  1.0
  H  H4  1  0.24831000  0.66075000  0.10946000  1.0
  H  H5  1  0.24830000  0.33925000  0.60947000  1.0
  H  H6  1  0.36506000  0.70021000  0.21225000  1.0
  H  H7  1  0.36506000  0.29979000  0.71225000  1.0
  H  H8  1  0.75546000  0.20781000  0.10529000  1.0
  H  H9  1  0.75542000  0.79220000  0.60529000  1.0
  H  H10  1  0.89594000  0.43648000  0.10833000  1.0
  H  H11  1  0.89591000  0.56353000  0.60834000  1.0
  H  H12  1  0.31061000  0.50981000  0.00528000  1.0
  H  H13  1  0.31060000  0.49019000  0.50529000  1.0
  H  H14  1  0.69755000  0.45359000  0.88614000  1.0
  H  H15  1  0.69750000  0.54640000  0.38614000  1.0
  H  H16  1  0.93584000  0.29093000  0.78648000  1.0
  H  H17  1  0.93581000  0.70906000  0.28648000  1.0
  H  H18  1  0.96890000  0.05943000  0.73440000  1.0
  H  H19  1  0.96892000  0.94057000  0.23441000  1.0
  H  H20  1  0.77512000  0.84280000  0.75285000  1.0
  H  H21  1  0.77513000  0.15720000  0.25285000  1.0
  H  H22  1  0.35321000  0.80342000  0.86277000  1.0
  H  H23  1  0.35322000  0.19659000  0.36277000  1.0
  H  H24  1  0.80869000  0.78489000  0.13281000  1.0
  H  H25  1  0.80868000  0.21510000  0.63281000  1.0
  C  C26  1  0.93479000  0.24426000  0.06308000  1.0
  C  C27  1  0.93477000  0.75574000  0.56308000  1.0
  C  C28  1  0.01509000  0.37120000  0.06370000  1.0
  C  C29  1  0.01509000  0.62879000  0.56370000  1.0
  C  C30  1  0.24016000  0.41239000  0.00659000  1.0
  C  C31  1  0.24014000  0.58761000  0.50660000  1.0
  C  C32  1  0.38658000  0.32524000  0.94851000  1.0
  C  C33  1  0.38655000  0.67477000  0.44851000  1.0
  C  C34  1  0.62394000  0.35659000  0.88694000  1.0
  C  C35  1  0.62390000  0.64341000  0.38694000  1.0
  C  C36  1  0.75524000  0.26660000  0.83291000  1.0
  C  C37  1  0.75522000  0.73340000  0.33290000  1.0
  C  C38  1  0.66130000  0.13854000  0.83535000  1.0
  C  C39  1  0.66129000  0.86145000  0.33535000  1.0
  C  C40  1  0.78803000  0.04046000  0.78233000  1.0
  C  C41  1  0.78802000  0.95954000  0.28233000  1.0
  C  C42  1  0.67882000  0.92044000  0.79162000  1.0
  C  C43  1  0.67883000  0.07956000  0.29162000  1.0
  C  C44  1  0.44479000  0.89669000  0.85289000  1.0
  C  C45  1  0.44480000  0.10331000  0.35288000  1.0
  C  C46  1  0.42790000  0.10617000  0.89556000  1.0
  C  C47  1  0.42787000  0.89383000  0.39556000  1.0
  C  C48  1  0.29124000  0.19951000  0.95246000  1.0
  C  C49  1  0.29121000  0.80050000  0.45246000  1.0
  C  C50  1  0.74765000  0.73026000  0.00346000  1.0
  C  C51  1  0.74766000  0.26973000  0.50347000  1.0
  C  C52  1  0.62547000  0.77003000  0.09781000  1.0
  C  C53  1  0.62546000  0.22998000  0.59782000  1.0
  C  C54  1  0.48650000  0.89877000  0.09485000  1.0
  C  C55  1  0.48649000  0.10123000  0.59485000  1.0
  C  C56  1  0.43238000  0.67176000  0.14384000  1.0
  C  C57  1  0.43237000  0.32824000  0.64385000  1.0
  N  N58  1  0.07060000  0.16087000  0.00903000  1.0
  N  N59  1  0.07058000  0.83914000  0.50903000  1.0
  N  N60  1  0.32321000  0.98781000  0.90335000  1.0
  N  N61  1  0.32321000  0.01219000  0.40335000  1.0
  O  O62  1  0.92595000  0.80562000  0.96062000  1.0
  O  O63  1  0.92595000  0.19438000  0.46063000  1.0
  O  O64  1  0.67804000  0.62874000  0.97209000  1.0
  O  O65  1  0.67804000  0.37128000  0.47209000  1.0
  O  O66  1  0.23004000  0.90893000  0.11715000  1.0
  O  O67  1  0.23003000  0.09106000  0.61715000  1.0
  O  O68  1  0.63806000  0.99422000  0.06838000  1.0
  O  O69  1  0.63805000  0.00578000  0.56838000  1.0
