# generated using pymatgen
data_Zr6H20C54S10O41
_symmetry_space_group_name_H-M   'P 1'
_cell_length_a   16.41990000
_cell_length_b   16.44960000
_cell_length_c   16.42318821
_cell_angle_alpha   60.26176972
_cell_angle_beta   88.62288562
_cell_angle_gamma   60.32190000
_symmetry_Int_Tables_number   1
_chemical_formula_structural   Zr6H20C54S10O41
_chemical_formula_sum   'Zr6 H20 C54 S10 O41'
_cell_volume   3198.85602741
_cell_formula_units_Z   1
loop_
 _symmetry_equiv_pos_site_id
 _symmetry_equiv_pos_as_xyz
  1  'x, y, z'
loop_
 _atom_site_type_symbol
 _atom_site_label
 _atom_site_symmetry_multiplicity
 _atom_site_fract_x
 _atom_site_fract_y
 _atom_site_fract_z
 _atom_site_occupancy
  Zr  Zr0  1  0.90347000  0.48400000  0.40489000  1.0
  Zr  Zr1  1  0.10177000  0.51154000  0.60254000  1.0
  Zr  Zr2  1  0.89311000  0.70947000  0.39435000  1.0
  Zr  Zr3  1  0.11131000  0.28741000  0.61235000  1.0
  Zr  Zr4  1  0.89266000  0.49853000  0.61281000  1.0
  Zr  Zr5  1  0.11123000  0.49860000  0.39330000  1.0
  H  H6  1  0.75261000  0.65318000  0.42635000  1.0
  H  H7  1  0.08005000  0.34266000  0.75333000  1.0
  H  H8  1  0.08108000  0.67392000  0.40981000  1.0
  H  H9  1  0.09505000  0.32163000  0.42438000  1.0
  H  H10  1  0.61348000  0.48067000  0.64292000  1.0
  H  H11  1  0.12879000  0.50719000  0.10229000  1.0
  H  H12  1  0.12929000  0.98583000  0.88902000  1.0
  H  H13  1  0.39792000  0.98599000  0.64074000  1.0
  H  H14  1  0.63735000  0.96569000  0.13661000  1.0
  H  H15  1  0.64939000  0.69305000  0.15122000  1.0
  H  H16  1  0.37012000  0.02850000  0.86978000  1.0
  H  H17  1  0.35736000  0.30189000  0.85454000  1.0
  H  H18  1  0.87651000  0.23107000  0.39240000  1.0
  H  H19  1  0.44081000  0.50640000  0.31375000  1.0
  H  H20  1  0.81285000  0.50682000  0.94076000  1.0
  H  H21  1  0.80365000  0.10358000  0.06161000  1.0
  H  H22  1  0.57075000  0.10456000  0.31660000  1.0
  H  H23  1  0.17259000  0.75082000  0.68151000  1.0
  H  H24  1  0.64437000  0.08854000  0.00817000  1.0
  H  H25  1  0.50431000  0.90071000  0.86624000  1.0
  C  C26  1  0.73941000  0.47758000  0.51780000  1.0
  C  C27  1  0.98735000  0.51805000  0.76577000  1.0
  C  C28  1  0.27199000  0.50330000  0.49472000  1.0
  C  C29  1  0.00914000  0.49196000  0.23325000  1.0
  C  C30  1  0.73942000  0.74360000  0.23741000  1.0
  C  C31  1  0.00741000  0.21622000  0.51635000  1.0
  C  C32  1  0.26962000  0.25083000  0.76617000  1.0
  C  C33  1  0.99085000  0.77811000  0.49878000  1.0
  C  C34  1  0.72930000  0.76879000  0.50461000  1.0
  C  C35  1  0.99468000  0.76818000  0.22178000  1.0
  C  C36  1  0.28203000  0.22734000  0.50840000  1.0
  C  C37  1  0.99979000  0.22685000  0.77546000  1.0
  C  C38  1  0.41976000  0.49577000  0.43288000  1.0
  C  C39  1  0.59332000  0.48201000  0.57946000  1.0
  C  C40  1  0.36338000  0.49740000  0.49780000  1.0
  C  C41  1  0.64922000  0.47954000  0.51541000  1.0
  C  C42  1  0.50986000  0.48721000  0.55005000  1.0
  C  C43  1  0.50396000  0.48931000  0.46353000  1.0
  C  C44  1  0.92402000  0.51299000  0.91205000  1.0
  C  C45  1  0.06631000  0.50665000  0.08276000  1.0
  C  C46  1  0.98729000  0.51841000  0.85423000  1.0
  C  C47  1  0.00420000  0.49977000  0.14039000  1.0
  C  C48  1  0.03720000  0.51200000  0.99908000  1.0
  C  C49  1  0.95302000  0.50931000  0.99501000  1.0
  C  C50  1  0.92213000  0.97425000  0.07976000  1.0
  C  C51  1  0.06439000  0.02215000  0.91080000  1.0
  C  C52  1  0.99183000  0.85793000  0.13172000  1.0
  C  C53  1  0.99645000  0.13728000  0.86090000  1.0
  C  C54  1  0.03774000  0.96239000  0.99066000  1.0
  C  C55  1  0.94908000  0.03375000  0.99940000  1.0
  C  C56  1  0.59268000  0.97515000  0.43696000  1.0
  C  C57  1  0.42136000  0.02252000  0.57725000  1.0
  C  C58  1  0.64339000  0.85867000  0.50563000  1.0
  C  C59  1  0.37151000  0.13774000  0.50910000  1.0
  C  C60  1  0.50238000  0.96283000  0.55170000  1.0
  C  C61  1  0.51224000  0.03435000  0.46395000  1.0
  C  C62  1  0.60781000  0.93902000  0.10328000  1.0
  C  C63  1  0.61452000  0.78361000  0.11296000  1.0
  C  C64  1  0.53507000  0.85758000  0.03001000  1.0
  C  C65  1  0.48809000  0.97686000  0.98060000  1.0
  C  C66  1  0.40336000  0.05570000  0.89866000  1.0
  C  C67  1  0.39503000  0.21129000  0.89013000  1.0
  C  C68  1  0.47776000  0.13742000  0.96992000  1.0
  C  C69  1  0.52623000  0.01805000  0.01814000  1.0
  C  C70  1  0.65175000  0.82448000  0.14893000  1.0
  C  C71  1  0.35834000  0.17026000  0.85370000  1.0
  C  C72  1  0.05930000  0.84574000  0.57134000  1.0
  C  C73  1  0.93575000  0.14673000  0.45103000  1.0
  C  C74  1  0.99157000  0.86367000  0.50398000  1.0
  C  C75  1  0.00372000  0.12854000  0.51701000  1.0
  C  C76  1  0.95526000  0.04400000  0.47069000  1.0
  C  C77  1  0.03807000  0.94940000  0.55185000  1.0
  C  C78  1  0.51182000  0.18913000  0.00257000  1.0
  C  C79  1  0.50187000  0.80618000  0.99620000  1.0
  S  S80  1  0.41257000  0.49238000  0.59458000  1.0
  S  S81  1  0.60141000  0.48364000  0.41892000  1.0
  S  S82  1  0.08091000  0.51948000  0.90092000  1.0
  S  S83  1  0.90965000  0.50022000  0.09381000  1.0
  S  S84  1  0.08847000  0.82236000  0.08110000  1.0
  S  S85  1  0.89899000  0.17417000  0.90990000  1.0
  S  S86  1  0.59228000  0.82273000  0.60191000  1.0
  S  S87  1  0.42256000  0.17470000  0.41344000  1.0
  S  S88  1  0.90279000  0.00623000  0.41814000  1.0
  S  S89  1  0.09169000  0.98668000  0.60400000  1.0
  O  O90  1  0.77795000  0.47336000  0.45013000  1.0
  O  O91  1  0.05609000  0.52092000  0.72828000  1.0
  O  O92  1  0.23345000  0.50856000  0.56234000  1.0
  O  O93  1  0.94284000  0.48498000  0.27304000  1.0
  O  O94  1  0.76898000  0.78517000  0.26727000  1.0
  O  O95  1  0.07539000  0.18578000  0.58222000  1.0
  O  O96  1  0.23979000  0.20907000  0.73648000  1.0
  O  O97  1  0.92442000  0.80966000  0.43033000  1.0
  O  O98  1  0.76183000  0.66672000  0.57434000  1.0
  O  O99  1  0.06679000  0.66654000  0.25664000  1.0
  O  O100  1  0.24717000  0.32882000  0.43706000  1.0
  O  O101  1  0.93054000  0.32863000  0.74243000  1.0
  O  O102  1  0.92569000  0.79837000  0.26001000  1.0
  O  O103  1  0.24607000  0.19508000  0.57902000  1.0
  O  O104  1  0.07289000  0.19451000  0.74244000  1.0
  O  O105  1  0.76505000  0.79895000  0.43325000  1.0
  O  O106  1  0.77660000  0.63914000  0.27555000  1.0
  O  O107  1  0.05958000  0.67597000  0.56425000  1.0
  O  O108  1  0.23106000  0.35512000  0.72921000  1.0
  O  O109  1  0.94121000  0.31739000  0.44691000  1.0
  O  O110  1  0.07871000  0.49179000  0.26669000  1.0
  O  O111  1  0.77038000  0.48263000  0.58468000  1.0
  O  O112  1  0.92122000  0.51244000  0.73358000  1.0
  O  O113  1  0.23692000  0.50347000  0.42577000  1.0
  O  O114  1  0.06971000  0.37093000  0.44754000  1.0
  O  O115  1  0.05802000  0.62446000  0.43544000  1.0
  O  O116  1  0.05833000  0.38629000  0.68227000  1.0
  O  O117  1  0.82367000  0.60823000  0.44805000  1.0
  O  O118  1  0.95300000  0.59054000  0.54431000  1.0
  O  O119  1  0.96135000  0.40385000  0.55361000  1.0
  O  O120  1  0.13412000  0.41570000  0.54419000  1.0
  O  O121  1  0.96101000  0.57961000  0.37154000  1.0
  O  O122  1  0.39531000  0.50018000  0.35188000  1.0
  O  O123  1  0.84622000  0.51078000  0.89037000  1.0
  O  O124  1  0.83952000  0.02166000  0.10417000  1.0
  O  O125  1  0.61804000  0.02313000  0.35547000  1.0
  O  O126  1  0.13520000  0.74231000  0.64465000  1.0
  O  O127  1  0.60939000  0.14968000  0.01820000  1.0
  O  O128  1  0.45709000  0.26540000  0.01204000  1.0
  O  O129  1  0.48865000  0.84411000  0.89901000  1.0
  O  O130  1  0.48998000  0.73177000  0.05050000  1.0
