# generated using pymatgen
data_ZnH7C10N3O5
_symmetry_space_group_name_H-M   'P 1'
_cell_length_a   10.36430000
_cell_length_b   10.60150000
_cell_length_c   11.06300000
_cell_angle_alpha   90.00000000
_cell_angle_beta   116.03700000
_cell_angle_gamma   89.99990000
_symmetry_Int_Tables_number   1
_chemical_formula_structural   ZnH7C10N3O5
_chemical_formula_sum   'Zn4 H28 C40 N12 O20'
_cell_volume   1092.20332207
_cell_formula_units_Z   4
loop_
 _symmetry_equiv_pos_site_id
 _symmetry_equiv_pos_as_xyz
  1  'x, y, z'
loop_
 _atom_site_type_symbol
 _atom_site_label
 _atom_site_symmetry_multiplicity
 _atom_site_fract_x
 _atom_site_fract_y
 _atom_site_fract_z
 _atom_site_occupancy
  Zn  Zn0  1  0.18900000  0.60977000  0.81761000  1.0
  Zn  Zn1  1  0.81100000  0.10977000  0.68239000  1.0
  Zn  Zn2  1  0.81100000  0.39023000  0.18239000  1.0
  Zn  Zn3  1  0.18900000  0.89023000  0.31761000  1.0
  H  H4  1  0.41463000  0.39825000  0.68361000  1.0
  H  H5  1  0.58537000  0.89825000  0.81639000  1.0
  H  H6  1  0.58537000  0.60174000  0.31639000  1.0
  H  H7  1  0.41463000  0.10175000  0.18361000  1.0
  H  H8  1  0.45499000  0.28270000  0.32895000  1.0
  H  H9  1  0.54501000  0.78270000  0.17105000  1.0
  H  H10  1  0.54501000  0.71730000  0.67105000  1.0
  H  H11  1  0.45499000  0.21730000  0.82895000  1.0
  H  H12  1  0.12780000  0.23022000  0.08607000  1.0
  H  H13  1  0.87220000  0.73022000  0.41393000  1.0
  H  H14  1  0.87220000  0.76978000  0.91393000  1.0
  H  H15  1  0.12780000  0.26978000  0.58607000  1.0
  H  H16  1  0.11019000  0.53053000  0.29440000  1.0
  H  H17  1  0.88981000  0.03053000  0.20560000  1.0
  H  H18  1  0.88981000  0.46947000  0.70561000  1.0
  H  H19  1  0.11019000  0.96947000  0.79440000  1.0
  H  H20  1  0.28633000  0.60492000  0.13270000  1.0
  H  H21  1  0.71367000  0.10492000  0.36730000  1.0
  H  H22  1  0.71367000  0.39508000  0.86729000  1.0
  H  H23  1  0.28633000  0.89508000  0.63270000  1.0
  H  H24  1  0.98197000  0.78494000  0.70513000  1.0
  H  H25  1  0.01803000  0.28494000  0.79487000  1.0
  H  H26  1  0.01803000  0.21506000  0.29487000  1.0
  H  H27  1  0.98197000  0.71506000  0.20513000  1.0
  H  H28  1  0.06574000  0.79415000  0.87145000  1.0
  H  H29  1  0.93426000  0.29415000  0.62855000  1.0
  H  H30  1  0.93426000  0.20585000  0.12855000  1.0
  H  H31  1  0.06574000  0.70585000  0.37145000  1.0
  C  C32  1  0.37489000  0.40048000  0.57484000  1.0
  C  C33  1  0.62511000  0.90048000  0.92516000  1.0
  C  C34  1  0.62511000  0.59952000  0.42515000  1.0
  C  C35  1  0.37489000  0.09952000  0.07485000  1.0
  C  C36  1  0.44619000  0.33136000  0.51526000  1.0
  C  C37  1  0.55381000  0.83136000  0.98474000  1.0
  C  C38  1  0.55382000  0.66864000  0.48474000  1.0
  C  C39  1  0.44619000  0.16864000  0.01527000  1.0
  C  C40  1  0.39704000  0.33405000  0.37535000  1.0
  C  C41  1  0.60297000  0.83405000  0.12465000  1.0
  C  C42  1  0.60297000  0.66596000  0.62465000  1.0
  C  C43  1  0.39704000  0.16595000  0.87535000  1.0
  C  C44  1  0.27676000  0.40684000  0.29922000  1.0
  C  C45  1  0.72324000  0.90684000  0.20078000  1.0
  C  C46  1  0.72324000  0.59316000  0.70078000  1.0
  C  C47  1  0.27676000  0.09316000  0.79922000  1.0
  C  C48  1  0.20461000  0.47600000  0.35781000  1.0
  C  C49  1  0.79539000  0.97600000  0.14219000  1.0
  C  C50  1  0.79539000  0.52400000  0.64219000  1.0
  C  C51  1  0.20461000  0.02400000  0.85781000  1.0
  C  C52  1  0.25354000  0.47257000  0.49714000  1.0
  C  C53  1  0.74646000  0.97257000  0.00286000  1.0
  C  C54  1  0.74646000  0.52743000  0.50286000  1.0
  C  C55  1  0.25354000  0.02743000  0.99714000  1.0
  C  C56  1  0.15353000  0.32310000  0.06221000  1.0
  C  C57  1  0.84647000  0.82310000  0.43779000  1.0
  C  C58  1  0.84647000  0.67690000  0.93779000  1.0
  C  C59  1  0.15352000  0.17690000  0.56221000  1.0
  C  C60  1  0.23358000  0.51666000  0.08571000  1.0
  C  C61  1  0.76642000  0.01666000  0.41429000  1.0
  C  C62  1  0.76642000  0.48334000  0.91429000  1.0
  C  C63  1  0.23358000  0.98334000  0.58571000  1.0
  C  C64  1  0.57677000  0.25669000  0.60348000  1.0
  C  C65  1  0.42323000  0.75669000  0.89652000  1.0
  C  C66  1  0.42323000  0.74331000  0.39652000  1.0
  C  C67  1  0.57677000  0.24331000  0.10348000  1.0
  C  C68  1  0.17826000  0.54387000  0.56472000  1.0
  C  C69  1  0.82174000  0.04387000  0.93528000  1.0
  C  C70  1  0.82174000  0.45613000  0.43528000  1.0
  C  C71  1  0.17826000  0.95612000  0.06472000  1.0
  N  N72  1  0.22510000  0.41385000  0.15583000  1.0
  N  N73  1  0.77490000  0.91385000  0.34417000  1.0
  N  N74  1  0.77490000  0.58615000  0.84417000  1.0
  N  N75  1  0.22510000  0.08615000  0.65583000  1.0
  N  N76  1  0.11927000  0.36724000  0.94062000  1.0
  N  N77  1  0.88073000  0.86724000  0.55938000  1.0
  N  N78  1  0.88073000  0.63276000  0.05938000  1.0
  N  N79  1  0.11927000  0.13276000  0.44062000  1.0
  N  N80  1  0.17042000  0.48926000  0.95589000  1.0
  N  N81  1  0.82958000  0.98926000  0.54411000  1.0
  N  N82  1  0.82958000  0.51074000  0.04411000  1.0
  N  N83  1  0.17042000  0.01074000  0.45589000  1.0
  O  O84  1  0.62495000  0.26295000  0.72919000  1.0
  O  O85  1  0.37506000  0.76295000  0.77081000  1.0
  O  O86  1  0.37506000  0.73705000  0.27081000  1.0
  O  O87  1  0.62494000  0.23705000  0.22919000  1.0
  O  O88  1  0.63349000  0.18859000  0.54262000  1.0
  O  O89  1  0.36651000  0.68859000  0.95738000  1.0
  O  O90  1  0.36651000  0.81141000  0.45737000  1.0
  O  O91  1  0.63349000  0.31141000  0.04262000  1.0
  O  O92  1  0.20445000  0.50267000  0.68310000  1.0
  O  O93  1  0.79555000  0.00267000  0.81690000  1.0
  O  O94  1  0.79555000  0.49733000  0.31690000  1.0
  O  O95  1  0.20445000  0.99733000  0.18310000  1.0
  O  O96  1  0.09679000  0.63512000  0.50773000  1.0
  O  O97  1  0.90321000  0.13511000  0.99227000  1.0
  O  O98  1  0.90321000  0.36488000  0.49227000  1.0
  O  O99  1  0.09679000  0.86489000  0.00773000  1.0
  O  O100  1  0.03728000  0.73610000  0.79064000  1.0
  O  O101  1  0.96272000  0.23609000  0.70937000  1.0
  O  O102  1  0.96272000  0.26390000  0.20937000  1.0
  O  O103  1  0.03728000  0.76391000  0.29063000  1.0
