# generated using pymatgen
data_HgH9C7I2N
_symmetry_space_group_name_H-M   'P 1'
_cell_length_a   4.31333000
_cell_length_b   15.38653386
_cell_length_c   18.26957634
_cell_angle_alpha   109.89791885
_cell_angle_beta   96.77506160
_cell_angle_gamma   98.03374245
_symmetry_Int_Tables_number   1
_chemical_formula_structural   HgH9C7I2N
_chemical_formula_sum   'Hg4 H36 C28 I8 N4'
_cell_volume   1110.93980684
_cell_formula_units_Z   4
loop_
 _symmetry_equiv_pos_site_id
 _symmetry_equiv_pos_as_xyz
  1  'x, y, z'
loop_
 _atom_site_type_symbol
 _atom_site_label
 _atom_site_symmetry_multiplicity
 _atom_site_fract_x
 _atom_site_fract_y
 _atom_site_fract_z
 _atom_site_occupancy
  Hg  Hg0  1  0.81827000  0.27750000  0.49040000  1.0
  Hg  Hg1  1  0.55187000  0.22266000  0.00954000  1.0
  Hg  Hg2  1  0.18168000  0.72251000  0.50959000  1.0
  Hg  Hg3  1  0.44812000  0.77734000  0.99047000  1.0
  H  H4  1  0.64130000  0.28316000  0.65659000  1.0
  H  H5  1  0.20280000  0.21666000  0.84334000  1.0
  H  H6  1  0.35869000  0.71683000  0.34340000  1.0
  H  H7  1  0.79724000  0.78335000  0.15667000  1.0
  H  H8  1  0.07323000  0.54477000  0.84732000  1.0
  H  H9  1  0.18163000  0.95475000  0.65282000  1.0
  H  H10  1  0.92676000  0.45522000  0.15267000  1.0
  H  H11  1  0.81839000  0.04526000  0.34719000  1.0
  H  H12  1  0.21966000  0.48623000  0.60671000  1.0
  H  H13  1  0.62806000  0.01361000  0.89340000  1.0
  H  H14  1  0.78036000  0.51376000  0.39329000  1.0
  H  H15  1  0.37194000  0.98639000  0.10660000  1.0
  H  H16  1  0.73637000  0.42723000  0.87742000  1.0
  H  H17  1  0.93376000  0.07254000  0.62253000  1.0
  H  H18  1  0.26365000  0.57276000  0.12258000  1.0
  H  H19  1  0.06631000  0.92748000  0.37748000  1.0
  H  H20  1  0.76905000  0.31086000  0.82100000  1.0
  H  H21  1  0.13878000  0.18888000  0.67906000  1.0
  H  H22  1  0.23095000  0.68913000  0.17900000  1.0
  H  H23  1  0.86126000  0.81113000  0.32095000  1.0
  H  H24  1  0.42525000  0.35472000  0.79911000  1.0
  H  H25  1  0.77273000  0.14503000  0.70075000  1.0
  H  H26  1  0.57475000  0.64528000  0.20088000  1.0
  H  H27  1  0.22730000  0.85498000  0.29925000  1.0
  H  H28  1  0.40006000  0.66523000  0.81857000  1.0
  H  H29  1  0.41541000  0.83421000  0.68169000  1.0
  H  H30  1  0.59990000  0.33477000  0.18142000  1.0
  H  H31  1  0.58456000  0.16579000  0.31831000  1.0
  H  H32  1  0.27858000  0.66594000  0.72212000  1.0
  H  H33  1  0.39105000  0.83385000  0.77829000  1.0
  H  H34  1  0.72137000  0.33405000  0.27787000  1.0
  H  H35  1  0.60893000  0.16615000  0.22171000  1.0
  H  H36  1  0.62007000  0.62078000  0.74240000  1.0
  H  H37  1  0.75696000  0.87857000  0.75757000  1.0
  H  H38  1  0.37991000  0.37922000  0.25759000  1.0
  H  H39  1  0.24301000  0.12142000  0.24242000  1.0
  C  C40  1  0.79231000  0.35336000  0.68053000  1.0
  C  C41  1  0.25959000  0.14644000  0.81946000  1.0
  C  C42  1  0.20768000  0.64663000  0.31947000  1.0
  C  C43  1  0.74044000  0.85356000  0.18055000  1.0
  C  C44  1  0.83829000  0.40930000  0.76080000  1.0
  C  C45  1  0.16917000  0.09040000  0.73923000  1.0
  C  C46  1  0.16170000  0.59068000  0.23919000  1.0
  C  C47  1  0.83086000  0.90961000  0.26078000  1.0
  C  C48  1  0.03237000  0.49863000  0.78517000  1.0
  C  C49  1  0.24937000  0.00099000  0.71494000  1.0
  C  C50  1  0.96765000  0.50137000  0.21483000  1.0
  C  C51  1  0.75063000  0.99901000  0.28506000  1.0
  C  C52  1  0.17478000  0.52954000  0.73111000  1.0
  C  C53  1  0.41471000  0.97011000  0.76905000  1.0
  C  C54  1  0.82522000  0.47046000  0.26888000  1.0
  C  C55  1  0.58530000  0.02990000  0.23095000  1.0
  C  C56  1  0.11519000  0.46742000  0.65225000  1.0
  C  C57  1  0.49658000  0.03240000  0.84788000  1.0
  C  C58  1  0.88482000  0.53257000  0.34775000  1.0
  C  C59  1  0.50342000  0.96759000  0.15212000  1.0
  C  C60  1  0.68509000  0.37392000  0.81755000  1.0
  C  C61  1  0.99514000  0.12581000  0.68242000  1.0
  C  C62  1  0.31492000  0.62607000  0.18245000  1.0
  C  C63  1  0.00489000  0.87420000  0.31758000  1.0
  C  C64  1  0.37897000  0.62543000  0.75517000  1.0
  C  C65  1  0.49856000  0.87412000  0.74503000  1.0
  C  C66  1  0.62099000  0.37457000  0.24482000  1.0
  C  C67  1  0.50142000  0.12588000  0.25497000  1.0
  I  I68  1  0.43770000  0.12526000  0.49410000  1.0
  I  I69  1  0.31701000  0.37462000  0.00591000  1.0
  I  I70  1  0.56224000  0.87475000  0.50589000  1.0
  I  I71  1  0.68296000  0.62538000  0.99409000  1.0
  I  I72  1  0.25083000  0.36335000  0.42793000  1.0
  I  I73  1  0.96101000  0.13636000  0.07156000  1.0
  I  I74  1  0.74914000  0.63665000  0.57206000  1.0
  I  I75  1  0.03898000  0.86364000  0.92844000  1.0
  N  N76  1  0.92837000  0.38197000  0.62821000  1.0
  N  N77  1  0.41955000  0.11792000  0.87182000  1.0
  N  N78  1  0.07162000  0.61802000  0.37178000  1.0
  N  N79  1  0.58049000  0.88209000  0.12819000  1.0
