# generated using pymatgen
data_CoH27C33N5O7
_symmetry_space_group_name_H-M   'P 1'
_cell_length_a   10.29330000
_cell_length_b   12.89550000
_cell_length_c   14.54640000
_cell_angle_alpha   110.80900000
_cell_angle_beta   106.03200000
_cell_angle_gamma   99.61260000
_symmetry_Int_Tables_number   1
_chemical_formula_structural   CoH27C33N5O7
_chemical_formula_sum   'Co2 H54 C66 N10 O14'
_cell_volume   1657.46481185
_cell_formula_units_Z   2
loop_
 _symmetry_equiv_pos_site_id
 _symmetry_equiv_pos_as_xyz
  1  'x, y, z'
loop_
 _atom_site_type_symbol
 _atom_site_label
 _atom_site_symmetry_multiplicity
 _atom_site_fract_x
 _atom_site_fract_y
 _atom_site_fract_z
 _atom_site_occupancy
  Co  Co0  1  0.91789000  0.02284000  0.71965000  1.0
  Co  Co1  1  0.08210000  0.97713000  0.28033000  1.0
  H  H2  1  0.06572000  0.31628000  0.44766000  1.0
  H  H3  1  0.93429000  0.68374000  0.55235000  1.0
  H  H4  1  0.03889000  0.32774000  0.22873000  1.0
  H  H5  1  0.96110000  0.67226000  0.77127000  1.0
  H  H6  1  0.15037000  0.24160000  0.80073000  1.0
  H  H7  1  0.84962000  0.75843000  0.19927000  1.0
  H  H8  1  0.22449000  0.38735000  0.73563000  1.0
  H  H9  1  0.77547000  0.61268000  0.26436000  1.0
  H  H10  1  0.93245000  0.14371000  0.42409000  1.0
  H  H11  1  0.06755000  0.85628000  0.57591000  1.0
  H  H12  1  0.85951000  0.01358000  0.50458000  1.0
  H  H13  1  0.14052000  0.98642000  0.49543000  1.0
  H  H14  1  0.05587000  0.39493000  0.36470000  1.0
  H  H15  1  0.94412000  0.60508000  0.63531000  1.0
  H  H16  1  0.23669000  0.71152000  0.35074000  1.0
  H  H17  1  0.76331000  0.28847000  0.64925000  1.0
  H  H18  1  0.34984000  0.80697000  0.54768000  1.0
  H  H19  1  0.65017000  0.19304000  0.45232000  1.0
  H  H20  1  0.31842000  0.69325000  0.65176000  1.0
  H  H21  1  0.68158000  0.30675000  0.34824000  1.0
  H  H22  1  0.01063000  0.02667000  0.92827000  1.0
  H  H23  1  0.98938000  0.97333000  0.07174000  1.0
  H  H24  1  0.06820000  0.16092000  0.11663000  1.0
  H  H25  1  0.93178000  0.83908000  0.88336000  1.0
  H  H26  1  0.95017000  0.41464000  0.00549000  1.0
  H  H27  1  0.04982000  0.58533000  0.99450000  1.0
  H  H28  1  0.90081000  0.27170000  0.82462000  1.0
  H  H29  1  0.09920000  0.72828000  0.17537000  1.0
  H  H30  1  0.61712000  0.68072000  0.45749000  1.0
  H  H31  1  0.38288000  0.31927000  0.54254000  1.0
  H  H32  1  0.47550000  0.49322000  0.30200000  1.0
  H  H33  1  0.52452000  0.50678000  0.69803000  1.0
  H  H34  1  0.67156000  0.71295000  0.77066000  1.0
  H  H35  1  0.32844000  0.28707000  0.22937000  1.0
  H  H36  1  0.28404000  0.08894000  0.92793000  1.0
  H  H37  1  0.71595000  0.91104000  0.07206000  1.0
  H  H38  1  0.50102000  0.23165000  0.07994000  1.0
  H  H39  1  0.49896000  0.76833000  0.92004000  1.0
  H  H40  1  0.25720000  0.72622000  0.79489000  1.0
  H  H41  1  0.74277000  0.27374000  0.20509000  1.0
  H  H42  1  0.44638000  0.00931000  0.77606000  1.0
  H  H43  1  0.55362000  0.99068000  0.22393000  1.0
  H  H44  1  0.30246000  0.98020000  0.65962000  1.0
  H  H45  1  0.69755000  0.01979000  0.34037000  1.0
  H  H46  1  0.37271000  0.12187000  0.76419000  1.0
  H  H47  1  0.62728000  0.87811000  0.23581000  1.0
  H  H48  1  0.54932000  0.14969000  0.57850000  1.0
  H  H49  1  0.45069000  0.85033000  0.42151000  1.0
  H  H50  1  0.42698000  0.20170000  0.63616000  1.0
  H  H51  1  0.57304000  0.79831000  0.36385000  1.0
  H  H52  1  0.37035000  0.06219000  0.52836000  1.0
  H  H53  1  0.62966000  0.93783000  0.47165000  1.0
  H  H54  1  0.64818000  0.02231000  0.76152000  1.0
  H  H55  1  0.35182000  0.97770000  0.23848000  1.0
  C  C56  1  0.10253000  0.22393000  0.71777000  1.0
  C  C57  1  0.89747000  0.77611000  0.28223000  1.0
  C  C58  1  0.14544000  0.30483000  0.68160000  1.0
  C  C59  1  0.85455000  0.69520000  0.31839000  1.0
  C  C60  1  0.08076000  0.27930000  0.57417000  1.0
  C  C61  1  0.91923000  0.72071000  0.42583000  1.0
  C  C62  1  0.98025000  0.16993000  0.50865000  1.0
  C  C63  1  0.01976000  0.83008000  0.49134000  1.0
  C  C64  1  0.94116000  0.09673000  0.55264000  1.0
  C  C65  1  0.05884000  0.90328000  0.44735000  1.0
  C  C66  1  0.17670000  0.47252000  0.58180000  1.0
  C  C67  1  0.82329000  0.52747000  0.41819000  1.0
  C  C68  1  0.18670000  0.53657000  0.51493000  1.0
  C  C69  1  0.81328000  0.46341000  0.48506000  1.0
  C  C70  1  0.12330000  0.48431000  0.40495000  1.0
  C  C71  1  0.87669000  0.51569000  0.59505000  1.0
  C  C72  1  0.14325000  0.54622000  0.34562000  1.0
  C  C73  1  0.85674000  0.45378000  0.65437000  1.0
  C  C74  1  0.22373000  0.66330000  0.39747000  1.0
  C  C75  1  0.77628000  0.33669000  0.60253000  1.0
  C  C76  1  0.28564000  0.71626000  0.50736000  1.0
  C  C77  1  0.71437000  0.28374000  0.49264000  1.0
  C  C78  1  0.26830000  0.65367000  0.56611000  1.0
  C  C79  1  0.73168000  0.34632000  0.43389000  1.0
  C  C80  1  0.99744000  0.11297000  0.94944000  1.0
  C  C81  1  0.00258000  0.88703000  0.05058000  1.0
  C  C82  1  0.02704000  0.18699000  0.05327000  1.0
  C  C83  1  0.97296000  0.81302000  0.94674000  1.0
  C  C84  1  0.00995000  0.29847000  0.07650000  1.0
  C  C85  1  0.99006000  0.70152000  0.92350000  1.0
  C  C86  1  0.96449000  0.32988000  0.99259000  1.0
  C  C87  1  0.03551000  0.67012000  0.00744000  1.0
  C  C88  1  0.93699000  0.24940000  0.89088000  1.0
  C  C89  1  0.06301000  0.75061000  0.10914000  1.0
  C  C90  1  0.08893000  0.49055000  0.22764000  1.0
  C  C91  1  0.91103000  0.50944000  0.77235000  1.0
  C  C92  1  0.74680000  0.82782000  0.66201000  1.0
  C  C93  1  0.25323000  0.17217000  0.33799000  1.0
  C  C94  1  0.65357000  0.70705000  0.61718000  1.0
  C  C95  1  0.34645000  0.29299000  0.38282000  1.0
  C  C96  1  0.59564000  0.64157000  0.50896000  1.0
  C  C97  1  0.40437000  0.35844000  0.49105000  1.0
  C  C98  1  0.51216000  0.52496000  0.46504000  1.0
  C  C99  1  0.48785000  0.47505000  0.53497000  1.0
  C  C100  1  0.45394000  0.45524000  0.35435000  1.0
  C  C101  1  0.54603000  0.54473000  0.64564000  1.0
  C  C102  1  0.62665000  0.65827000  0.68598000  1.0
  C  C103  1  0.37333000  0.34172000  0.31401000  1.0
  C  C104  1  0.11724000  0.88306000  0.77046000  1.0
  C  C105  1  0.88275000  0.11691000  0.22950000  1.0
  C  C106  1  0.25727000  0.90665000  0.85363000  1.0
  C  C107  1  0.74271000  0.09335000  0.14635000  1.0
  C  C108  1  0.33152000  0.01941000  0.92811000  1.0
  C  C109  1  0.66847000  0.98057000  0.07188000  1.0
  C  C110  1  0.46870000  0.04622000  0.00183000  1.0
  C  C111  1  0.53130000  0.95379000  0.99817000  1.0
  C  C112  1  0.54836000  0.16145000  0.07759000  1.0
  C  C113  1  0.45167000  0.83855000  0.92242000  1.0
  C  C114  1  0.31736000  0.81493000  0.85263000  1.0
  C  C115  1  0.68264000  0.18506000  0.14737000  1.0
  C  C116  1  0.40057000  0.04505000  0.72113000  1.0
  C  C117  1  0.59943000  0.95494000  0.27887000  1.0
  C  C118  1  0.45927000  0.12469000  0.60009000  1.0
  C  C119  1  0.54074000  0.87532000  0.39992000  1.0
  C  C120  1  0.63002000  0.06043000  0.70370000  1.0
  C  C121  1  0.36999000  0.93958000  0.29630000  1.0
  N  N122  1  0.99943000  0.12251000  0.65637000  1.0
  N  N123  1  0.00058000  0.87751000  0.34362000  1.0
  N  N124  1  0.10789000  0.35461000  0.52874000  1.0
  N  N125  1  0.89210000  0.64539000  0.47126000  1.0
  N  N126  1  0.04062000  0.37071000  0.18155000  1.0
  N  N127  1  0.95936000  0.62927000  0.81844000  1.0
  N  N128  1  0.95217000  0.14223000  0.86828000  1.0
  N  N129  1  0.04786000  0.85778000  0.13175000  1.0
  N  N130  1  0.50130000  0.07513000  0.67513000  1.0
  N  N131  1  0.49871000  0.92488000  0.32488000  1.0
  O  O132  1  0.22918000  0.52339000  0.67947000  1.0
  O  O133  1  0.77081000  0.47661000  0.32052000  1.0
  O  O134  1  0.09555000  0.54809000  0.17588000  1.0
  O  O135  1  0.90440000  0.45190000  0.82413000  1.0
  O  O136  1  0.09081000  0.97356000  0.76107000  1.0
  O  O137  1  0.90924000  0.02643000  0.23890000  1.0
  O  O138  1  0.03828000  0.77973000  0.71364000  1.0
  O  O139  1  0.96171000  0.22025000  0.28633000  1.0
  O  O140  1  0.79631000  0.88961000  0.76118000  1.0
  O  O141  1  0.20370000  0.11041000  0.23881000  1.0
  O  O142  1  0.77757000  0.86916000  0.59944000  1.0
  O  O143  1  0.22248000  0.13086000  0.40057000  1.0
  O  O144  1  0.72365000  0.08576000  0.66919000  1.0
  O  O145  1  0.27637000  0.91425000  0.33083000  1.0
