# generated using pymatgen
data_Li2H8C13S2(NO2)2
_symmetry_space_group_name_H-M   'P 1'
_cell_length_a   5.16800000
_cell_length_b   10.09610000
_cell_length_c   14.63160000
_cell_angle_alpha   90.00020000
_cell_angle_beta   90.00000000
_cell_angle_gamma   94.56470000
_symmetry_Int_Tables_number   1
_chemical_formula_structural   Li2H8C13S2(NO2)2
_chemical_formula_sum   'Li4 H16 C26 S4 N4 O8'
_cell_volume   761.00627937
_cell_formula_units_Z   2
loop_
 _symmetry_equiv_pos_site_id
 _symmetry_equiv_pos_as_xyz
  1  'x, y, z'
loop_
 _atom_site_type_symbol
 _atom_site_label
 _atom_site_symmetry_multiplicity
 _atom_site_fract_x
 _atom_site_fract_y
 _atom_site_fract_z
 _atom_site_occupancy
  Li  Li0  1  0.30763000  0.00238000  0.56704000  1.0
  Li  Li1  1  0.69236000  0.49762000  0.06704000  1.0
  Li  Li2  1  0.69237000  0.99762000  0.43296000  1.0
  Li  Li3  1  0.30763000  0.50238000  0.93296000  1.0
  H  H4  1  0.14585000  0.06678000  0.75931000  1.0
  H  H5  1  0.85416000  0.43323000  0.25931000  1.0
  H  H6  1  0.85416000  0.93322000  0.24069000  1.0
  H  H7  1  0.14584000  0.56678000  0.74069000  1.0
  H  H8  1  0.95924000  0.34569000  0.71505000  1.0
  H  H9  1  0.04076000  0.15431000  0.21505000  1.0
  H  H10  1  0.04076000  0.65431000  0.28495000  1.0
  H  H11  1  0.95924000  0.84569000  0.78495000  1.0
  H  H12  1  0.31991000  0.21131000  0.88926000  1.0
  H  H13  1  0.68010000  0.28869000  0.38927000  1.0
  H  H14  1  0.68010000  0.78869000  0.11074000  1.0
  H  H15  1  0.31990000  0.71131000  0.61074000  1.0
  H  H16  1  0.75174000  0.20245000  0.59041000  1.0
  H  H17  1  0.24826000  0.29755000  0.09041000  1.0
  H  H18  1  0.24826000  0.79755000  0.40959000  1.0
  H  H19  1  0.75174000  0.70245000  0.90959000  1.0
  C  C20  1  0.00000000  0.00001000  0.00000000  1.0
  C  C21  1  0.00001000  0.50000000  0.50000000  1.0
  C  C22  1  0.32487000  0.13108000  0.75227000  1.0
  C  C23  1  0.67513000  0.36891000  0.25227000  1.0
  C  C24  1  0.67513000  0.86892000  0.24773000  1.0
  C  C25  1  0.32487000  0.63108000  0.74773000  1.0
  C  C26  1  0.65437000  0.28923000  0.81188000  1.0
  C  C27  1  0.34563000  0.21077000  0.31188000  1.0
  C  C28  1  0.34562000  0.71077000  0.18812000  1.0
  C  C29  1  0.65438000  0.78923000  0.68812000  1.0
  C  C30  1  0.77179000  0.37422000  0.88871000  1.0
  C  C31  1  0.22822000  0.12579000  0.38871000  1.0
  C  C32  1  0.22821000  0.62578000  0.11129000  1.0
  C  C33  1  0.77179000  0.87422000  0.61129000  1.0
  C  C34  1  0.77663000  0.28665000  0.72665000  1.0
  C  C35  1  0.22337000  0.21335000  0.22665000  1.0
  C  C36  1  0.22336000  0.71335000  0.27335000  1.0
  C  C37  1  0.77663000  0.78665000  0.77335000  1.0
  C  C38  1  0.42250000  0.21004000  0.82439000  1.0
  C  C39  1  0.57750000  0.28996000  0.32439000  1.0
  C  C40  1  0.57749000  0.78996000  0.17560000  1.0
  C  C41  1  0.42251000  0.71003000  0.67560000  1.0
  C  C42  1  0.66232000  0.20673000  0.65789000  1.0
  C  C43  1  0.33769000  0.29327000  0.15789000  1.0
  C  C44  1  0.33768000  0.79327000  0.34211000  1.0
  C  C45  1  0.66232000  0.70673000  0.84211000  1.0
  S  S46  1  0.80406000  0.10452000  0.02306000  1.0
  S  S47  1  0.19594000  0.39548000  0.52306000  1.0
  S  S48  1  0.19593000  0.89549000  0.97694000  1.0
  S  S49  1  0.80405000  0.60451000  0.47694000  1.0
  N  N50  1  0.44079000  0.12921000  0.67004000  1.0
  N  N51  1  0.55921000  0.37079000  0.17004000  1.0
  N  N52  1  0.55921000  0.87079000  0.32996000  1.0
  N  N53  1  0.44079000  0.62921000  0.82996000  1.0
  O  O54  1  0.62022000  0.40060000  0.95413000  1.0
  O  O55  1  0.37979000  0.09941000  0.45413000  1.0
  O  O56  1  0.37979000  0.59941000  0.04587000  1.0
  O  O57  1  0.62021000  0.90059000  0.54587000  1.0
  O  O58  1  0.00898000  0.41275000  0.88305000  1.0
  O  O59  1  0.99102000  0.08725000  0.38305000  1.0
  O  O60  1  0.99101000  0.58725000  0.11695000  1.0
  O  O61  1  0.00899000  0.91275000  0.61695000  1.0
