# generated using pymatgen
data_MgH4(C2N3)2
_symmetry_space_group_name_H-M   'P 1'
_cell_length_a   12.54890000
_cell_length_b   12.54885000
_cell_length_c   12.54886897
_cell_angle_alpha   59.99968639
_cell_angle_beta   59.99955459
_cell_angle_gamma   59.99960459
_symmetry_Int_Tables_number   1
_chemical_formula_structural   MgH4(C2N3)2
_chemical_formula_sum   'Mg6 H24 C24 N36'
_cell_volume   1397.31842026
_cell_formula_units_Z   6
loop_
 _symmetry_equiv_pos_site_id
 _symmetry_equiv_pos_as_xyz
  1  'x, y, z'
loop_
 _atom_site_type_symbol
 _atom_site_label
 _atom_site_symmetry_multiplicity
 _atom_site_fract_x
 _atom_site_fract_y
 _atom_site_fract_z
 _atom_site_occupancy
  Mg  Mg0  1  0.00000000  0.50000000  0.50000000  1.0
  Mg  Mg1  1  0.00000000  0.00000000  0.00000000  1.0
  Mg  Mg2  1  0.00000000  0.00000000  0.50000000  1.0
  Mg  Mg3  1  0.50000000  0.00000000  0.50000000  1.0
  Mg  Mg4  1  0.87500000  0.87500000  0.37500000  1.0
  Mg  Mg5  1  0.12500000  0.12500000  0.62500000  1.0
  H  H6  1  0.16107000  0.47651000  0.66106000  1.0
  H  H7  1  0.70136000  0.16106000  0.97651000  1.0
  H  H8  1  0.16107000  0.70136000  0.66106000  1.0
  H  H9  1  0.47651000  0.16106000  0.20136000  1.0
  H  H10  1  0.70136000  0.16106000  0.66107000  1.0
  H  H11  1  0.16107000  0.70136000  0.97651000  1.0
  H  H12  1  0.47651000  0.16106000  0.66107000  1.0
  H  H13  1  0.16107000  0.47651000  0.20136000  1.0
  H  H14  1  0.47651000  0.70136000  0.66107000  1.0
  H  H15  1  0.16106000  0.16107000  0.97651000  1.0
  H  H16  1  0.70136000  0.47651000  0.66107000  1.0
  H  H17  1  0.16106000  0.16107000  0.20136000  1.0
  H  H18  1  0.83894000  0.83893000  0.02349000  1.0
  H  H19  1  0.29864000  0.52349000  0.33893000  1.0
  H  H20  1  0.83893000  0.83894000  0.79864000  1.0
  H  H21  1  0.52348000  0.29864000  0.33894000  1.0
  H  H22  1  0.29865000  0.83893000  0.33893000  1.0
  H  H23  1  0.83894000  0.52349000  0.79864000  1.0
  H  H24  1  0.52349000  0.83893000  0.33894000  1.0
  H  H25  1  0.83893000  0.29864000  0.02349000  1.0
  H  H26  1  0.52350000  0.83893000  0.79864000  1.0
  H  H27  1  0.83893000  0.52349000  0.33894000  1.0
  H  H28  1  0.29863000  0.83894000  0.02349000  1.0
  H  H29  1  0.83894000  0.29864000  0.33893000  1.0
  C  C30  1  0.11529000  0.57948000  0.61528000  1.0
  C  C31  1  0.68996000  0.11528000  0.07948000  1.0
  C  C32  1  0.11529000  0.68995000  0.61528000  1.0
  C  C33  1  0.57949000  0.11528000  0.18995000  1.0
  C  C34  1  0.68995000  0.11528000  0.61528000  1.0
  C  C35  1  0.11529000  0.68995000  0.07948000  1.0
  C  C36  1  0.57949000  0.11528000  0.61528000  1.0
  C  C37  1  0.11528000  0.57949000  0.18995000  1.0
  C  C38  1  0.57949000  0.68995000  0.61528000  1.0
  C  C39  1  0.11527000  0.11529000  0.07949000  1.0
  C  C40  1  0.68996000  0.57948000  0.61528000  1.0
  C  C41  1  0.11528000  0.11528000  0.18995000  1.0
  C  C42  1  0.88471000  0.88472000  0.92052000  1.0
  C  C43  1  0.31004000  0.42052000  0.38472000  1.0
  C  C44  1  0.88473000  0.88471000  0.81004000  1.0
  C  C45  1  0.42051000  0.31005000  0.38472000  1.0
  C  C46  1  0.31004000  0.88472000  0.38472000  1.0
  C  C47  1  0.88471000  0.42052000  0.81005000  1.0
  C  C48  1  0.42051000  0.88472000  0.38472000  1.0
  C  C49  1  0.88471000  0.31005000  0.92052000  1.0
  C  C50  1  0.42051000  0.88472000  0.81005000  1.0
  C  C51  1  0.88472000  0.42052000  0.38472000  1.0
  C  C52  1  0.31004000  0.88472000  0.92052000  1.0
  C  C53  1  0.88471000  0.31005000  0.38472000  1.0
  N  N54  1  0.04238000  0.62039000  0.54238000  1.0
  N  N55  1  0.79484000  0.04238000  0.12040000  1.0
  N  N56  1  0.04238000  0.79485000  0.54238000  1.0
  N  N57  1  0.62039000  0.04238000  0.29485000  1.0
  N  N58  1  0.79485000  0.04238000  0.54238000  1.0
  N  N59  1  0.04238000  0.79485000  0.12039000  1.0
  N  N60  1  0.62039000  0.04238000  0.54238000  1.0
  N  N61  1  0.04238000  0.62039000  0.29485000  1.0
  N  N62  1  0.62039000  0.79485000  0.54238000  1.0
  N  N63  1  0.04238000  0.04238000  0.12039000  1.0
  N  N64  1  0.79485000  0.62039000  0.54238000  1.0
  N  N65  1  0.04238000  0.04238000  0.29485000  1.0
  N  N66  1  0.95762000  0.95762000  0.87961000  1.0
  N  N67  1  0.20515000  0.37961000  0.45762000  1.0
  N  N68  1  0.95762000  0.95762000  0.70515000  1.0
  N  N69  1  0.37961000  0.20515000  0.45762000  1.0
  N  N70  1  0.20515000  0.95762000  0.45762000  1.0
  N  N71  1  0.95762000  0.37961000  0.70515000  1.0
  N  N72  1  0.37961000  0.95762000  0.45762000  1.0
  N  N73  1  0.95762000  0.20515000  0.87961000  1.0
  N  N74  1  0.37961000  0.95762000  0.70515000  1.0
  N  N75  1  0.95762000  0.37961000  0.45762000  1.0
  N  N76  1  0.20515000  0.95762000  0.87961000  1.0
  N  N77  1  0.95762000  0.20515000  0.45762000  1.0
  N  N78  1  0.99924000  0.75077000  0.49923000  1.0
  N  N79  1  0.75075000  0.99924000  0.25077000  1.0
  N  N80  1  0.75076000  0.99924000  0.49923000  1.0
  N  N81  1  0.99924000  0.75076000  0.25076000  1.0
  N  N82  1  0.75077000  0.75076000  0.49924000  1.0
  N  N83  1  0.99923000  0.99924000  0.25077000  1.0
  N  N84  1  0.00076000  0.00077000  0.74923000  1.0
  N  N85  1  0.24924000  0.24923000  0.50077000  1.0
  N  N86  1  0.24923000  0.00077000  0.50076000  1.0
  N  N87  1  0.00076000  0.24924000  0.74924000  1.0
  N  N88  1  0.24923000  0.00076000  0.74924000  1.0
  N  N89  1  0.00077000  0.24923000  0.50077000  1.0
