# generated using pymatgen
data_CuH16C24(NO)4
_symmetry_space_group_name_H-M   'P 1'
_cell_length_a   8.58912000
_cell_length_b   10.27450000
_cell_length_c   14.18220000
_cell_angle_alpha   92.29000000
_cell_angle_beta   94.91960000
_cell_angle_gamma   112.11600000
_symmetry_Int_Tables_number   1
_chemical_formula_structural   CuH16C24(NO)4
_chemical_formula_sum   'Cu2 H32 C48 N8 O8'
_cell_volume   1151.66269049
_cell_formula_units_Z   2
loop_
 _symmetry_equiv_pos_site_id
 _symmetry_equiv_pos_as_xyz
  1  'x, y, z'
loop_
 _atom_site_type_symbol
 _atom_site_label
 _atom_site_symmetry_multiplicity
 _atom_site_fract_x
 _atom_site_fract_y
 _atom_site_fract_z
 _atom_site_occupancy
  Cu  Cu0  1  0.27792000  0.80908000  0.24735000  1.0
  Cu  Cu1  1  0.72208000  0.19092000  0.75265000  1.0
  H  H2  1  0.89657000  0.68297000  0.19663000  1.0
  H  H3  1  0.10342000  0.31702000  0.80336000  1.0
  H  H4  1  0.70704000  0.58581000  0.04375000  1.0
  H  H5  1  0.29295000  0.41419000  0.95624000  1.0
  H  H6  1  0.83592000  0.58822000  0.89164000  1.0
  H  H7  1  0.16408000  0.41177000  0.10836000  1.0
  H  H8  1  0.42388000  0.76541000  0.82323000  1.0
  H  H9  1  0.57613000  0.23459000  0.17677000  1.0
  H  H10  1  0.70059000  0.87638000  0.92546000  1.0
  H  H11  1  0.29942000  0.12362000  0.07454000  1.0
  H  H12  1  0.85269000  0.95906000  0.09149000  1.0
  H  H13  1  0.14730000  0.04092000  0.90852000  1.0
  H  H14  1  0.68251000  0.93717000  0.22821000  1.0
  H  H15  1  0.31748000  0.06282000  0.77179000  1.0
  H  H16  1  0.10908000  0.66273000  0.80943000  1.0
  H  H17  1  0.89093000  0.33727000  0.19057000  1.0
  H  H18  1  0.95941000  0.42568000  0.41615000  1.0
  H  H19  1  0.04059000  0.57432000  0.58386000  1.0
  H  H20  1  0.28895000  0.32443000  0.24136000  1.0
  H  H21  1  0.71104000  0.67557000  0.75864000  1.0
  H  H22  1  0.95133000  0.00170000  0.39211000  1.0
  H  H23  1  0.04867000  0.99830000  0.60789000  1.0
  H  H24  1  0.75576000  0.24316000  0.49451000  1.0
  H  H25  1  0.24424000  0.75685000  0.50549000  1.0
  H  H26  1  0.86186000  0.14774000  0.55303000  1.0
  H  H27  1  0.13814000  0.85226000  0.44697000  1.0
  H  H28  1  0.74967000  0.87983000  0.51969000  1.0
  H  H29  1  0.25032000  0.12017000  0.48030000  1.0
  H  H30  1  0.52618000  0.10324000  0.34582000  1.0
  H  H31  1  0.47382000  0.89677000  0.65418000  1.0
  H  H32  1  0.47908000  0.68984000  0.39890000  1.0
  H  H33  1  0.52093000  0.31017000  0.60109000  1.0
  C  C34  1  0.94759000  0.68419000  0.12875000  1.0
  C  C35  1  0.05241000  0.31581000  0.87125000  1.0
  C  C36  1  0.84369000  0.63059000  0.04276000  1.0
  C  C37  1  0.15631000  0.36941000  0.95724000  1.0
  C  C38  1  0.91529000  0.63377000  0.95855000  1.0
  C  C39  1  0.08470000  0.36622000  0.04144000  1.0
  C  C40  1  0.09346000  0.69276000  0.96049000  1.0
  C  C41  1  0.90654000  0.30723000  0.03951000  1.0
  C  C42  1  0.18877000  0.74402000  0.05015000  1.0
  C  C43  1  0.81123000  0.25597000  0.94984000  1.0
  C  C44  1  0.35555000  0.75731000  0.88554000  1.0
  C  C45  1  0.64446000  0.24270000  0.11446000  1.0
  C  C46  1  0.45412000  0.80912000  0.97577000  1.0
  C  C47  1  0.54588000  0.19088000  0.02423000  1.0
  C  C48  1  0.63292000  0.86774000  0.98815000  1.0
  C  C49  1  0.36708000  0.13226000  0.01185000  1.0
  C  C50  1  0.71512000  0.91368000  0.07871000  1.0
  C  C51  1  0.28488000  0.08631000  0.92129000  1.0
  C  C52  1  0.62012000  0.90207000  0.15627000  1.0
  C  C53  1  0.37987000  0.09792000  0.84373000  1.0
  C  C54  1  0.18258000  0.70149000  0.87838000  1.0
  C  C55  1  0.81743000  0.29851000  0.12162000  1.0
  C  C56  1  0.94222000  0.20929000  0.41412000  1.0
  C  C57  1  0.05779000  0.79071000  0.58588000  1.0
  C  C58  1  0.00620000  0.34827000  0.38841000  1.0
  C  C59  1  0.99380000  0.65173000  0.61159000  1.0
  C  C60  1  0.12972000  0.38957000  0.32502000  1.0
  C  C61  1  0.87028000  0.61044000  0.67498000  1.0
  C  C62  1  0.19080000  0.29155000  0.28906000  1.0
  C  C63  1  0.80919000  0.70845000  0.71094000  1.0
  C  C64  1  0.12676000  0.15218000  0.31319000  1.0
  C  C65  1  0.87324000  0.84782000  0.68681000  1.0
  C  C66  1  0.00132000  0.11150000  0.37498000  1.0
  C  C67  1  0.99868000  0.88850000  0.62502000  1.0
  C  C68  1  0.19925000  0.05014000  0.27554000  1.0
  C  C69  1  0.80075000  0.94986000  0.72446000  1.0
  C  C70  1  0.80983000  0.16355000  0.48279000  1.0
  C  C71  1  0.19017000  0.83645000  0.51721000  1.0
  C  C72  1  0.66270000  0.89655000  0.46623000  1.0
  C  C73  1  0.33732000  0.10346000  0.53378000  1.0
  C  C74  1  0.19546000  0.53580000  0.29052000  1.0
  C  C75  1  0.80454000  0.46420000  0.70948000  1.0
  C  C76  1  0.54855000  0.01638000  0.37713000  1.0
  C  C77  1  0.45145000  0.98363000  0.62287000  1.0
  C  C78  1  0.52843000  0.80386000  0.40686000  1.0
  C  C79  1  0.47156000  0.19613000  0.59312000  1.0
  C  C80  1  0.36954000  0.80235000  0.05798000  1.0
  C  C81  1  0.63045000  0.19765000  0.94202000  1.0
  N  N82  1  0.11543000  0.73869000  0.13190000  1.0
  N  N83  1  0.88457000  0.26131000  0.86810000  1.0
  N  N84  1  0.45203000  0.84848000  0.14624000  1.0
  N  N85  1  0.54797000  0.15152000  0.85376000  1.0
  N  N86  1  0.67322000  0.03023000  0.44680000  1.0
  N  N87  1  0.32677000  0.96978000  0.55320000  1.0
  N  N88  1  0.45833000  0.88034000  0.35219000  1.0
  N  N89  1  0.54168000  0.11967000  0.64781000  1.0
  O  O90  1  0.13541000  0.92328000  0.30032000  1.0
  O  O91  1  0.86458000  0.07672000  0.69968000  1.0
  O  O92  1  0.31964000  0.09516000  0.22505000  1.0
  O  O93  1  0.68038000  0.90485000  0.77496000  1.0
  O  O94  1  0.13827000  0.62519000  0.32350000  1.0
  O  O95  1  0.86175000  0.37482000  0.67650000  1.0
  O  O96  1  0.30159000  0.56106000  0.23049000  1.0
  O  O97  1  0.69843000  0.43894000  0.76952000  1.0
