# generated using pymatgen
data_NdPH19C24NO8
_symmetry_space_group_name_H-M   'P 1'
_cell_length_a   10.67270000
_cell_length_b   11.92978882
_cell_length_c   14.65880000
_cell_angle_alpha   92.30731083
_cell_angle_beta   105.73390000
_cell_angle_gamma   116.16094556
_symmetry_Int_Tables_number   1
_chemical_formula_structural   NdPH19C24NO8
_chemical_formula_sum   'Nd2 P2 H38 C48 N2 O16'
_cell_volume   1584.61018622
_cell_formula_units_Z   2
loop_
 _symmetry_equiv_pos_site_id
 _symmetry_equiv_pos_as_xyz
  1  'x, y, z'
loop_
 _atom_site_type_symbol
 _atom_site_label
 _atom_site_symmetry_multiplicity
 _atom_site_fract_x
 _atom_site_fract_y
 _atom_site_fract_z
 _atom_site_occupancy
  Nd  Nd0  1  0.46100000  0.45373000  0.62795000  1.0
  Nd  Nd1  1  0.53901000  0.54627000  0.37205000  1.0
  P  P2  1  0.14286000  0.28694000  0.73279000  1.0
  P  P3  1  0.85713000  0.71307000  0.26722000  1.0
  H  H4  1  0.87276000  0.36442000  0.43767000  1.0
  H  H5  1  0.12725000  0.63559000  0.56233000  1.0
  H  H6  1  0.15957000  0.10761000  0.61084000  1.0
  H  H7  1  0.84044000  0.89241000  0.38917000  1.0
  H  H8  1  0.07239000  0.32503000  0.54183000  1.0
  H  H9  1  0.92764000  0.67499000  0.45817000  1.0
  H  H10  1  0.20420000  0.16427000  0.89209000  1.0
  H  H11  1  0.79579000  0.83572000  0.10789000  1.0
  H  H12  1  0.73123000  0.39695000  0.68141000  1.0
  H  H13  1  0.26877000  0.60305000  0.31859000  1.0
  H  H14  1  0.92330000  0.35281000  0.78445000  1.0
  H  H15  1  0.07671000  0.64720000  0.21555000  1.0
  H  H16  1  0.90523000  0.09582000  0.79769000  1.0
  H  H17  1  0.09478000  0.90419000  0.20232000  1.0
  H  H18  1  0.32167000  0.60034000  0.03061000  1.0
  H  H19  1  0.67831000  0.39963000  0.96941000  1.0
  H  H20  1  0.32206000  0.24649000  0.06988000  1.0
  H  H21  1  0.67792000  0.75347000  0.93011000  1.0
  H  H22  1  0.99864000  0.87233000  0.55062000  1.0
  H  H23  1  0.00137000  0.12768000  0.44938000  1.0
  H  H24  1  0.75516000  0.85918000  0.74271000  1.0
  H  H25  1  0.24484000  0.14082000  0.25730000  1.0
  H  H26  1  0.21642000  0.52535000  0.85171000  1.0
  H  H27  1  0.78357000  0.47465000  0.14831000  1.0
  H  H28  1  0.53516000  0.19071000  0.73603000  1.0
  H  H29  1  0.46486000  0.80927000  0.26398000  1.0
  H  H30  1  0.21565000  0.92304000  0.51791000  1.0
  H  H31  1  0.78433000  0.07696000  0.48207000  1.0
  H  H32  1  0.36798000  0.92410000  0.49003000  1.0
  H  H33  1  0.63203000  0.07590000  0.50995000  1.0
  H  H34  1  0.33694000  0.06090000  0.48344000  1.0
  H  H35  1  0.66307000  0.93912000  0.51656000  1.0
  H  H36  1  0.52831000  0.92173000  0.65117000  1.0
  H  H37  1  0.47170000  0.07825000  0.34882000  1.0
  H  H38  1  0.36560000  0.87231000  0.68407000  1.0
  H  H39  1  0.63435000  0.12766000  0.31592000  1.0
  H  H40  1  0.53199000  0.00917000  0.75466000  1.0
  H  H41  1  0.46798000  0.99082000  0.24533000  1.0
  C  C42  1  0.20003000  0.33878000  0.86072000  1.0
  C  C43  1  0.79995000  0.66121000  0.13928000  1.0
  C  C44  1  0.88466000  0.35975000  0.51347000  1.0
  C  C45  1  0.11536000  0.64027000  0.48652000  1.0
  C  C46  1  0.04159000  0.11546000  0.70727000  1.0
  C  C47  1  0.95842000  0.88455000  0.29274000  1.0
  C  C48  1  0.00848000  0.33370000  0.66922000  1.0
  C  C49  1  0.99156000  0.66635000  0.33079000  1.0
  C  C50  1  0.07069000  0.05254000  0.63925000  1.0
  C  C51  1  0.92930000  0.94748000  0.36074000  1.0
  C  C52  1  0.99510000  0.33772000  0.57149000  1.0
  C  C53  1  0.00492000  0.66229000  0.42852000  1.0
  C  C54  1  0.78713000  0.37882000  0.55179000  1.0
  C  C55  1  0.21286000  0.62117000  0.44821000  1.0
  C  C56  1  0.23002000  0.25997000  0.92217000  1.0
  C  C57  1  0.76998000  0.74002000  0.07783000  1.0
  C  C58  1  0.80268000  0.37756000  0.64983000  1.0
  C  C59  1  0.19733000  0.62247000  0.35017000  1.0
  C  C60  1  0.91223000  0.35383000  0.70829000  1.0
  C  C61  1  0.08778000  0.64618000  0.29170000  1.0
  C  C62  1  0.92782000  0.04664000  0.74482000  1.0
  C  C63  1  0.07218000  0.95337000  0.25518000  1.0
  C  C64  1  0.32662000  0.42701000  0.06015000  1.0
  C  C65  1  0.67338000  0.57297000  0.93986000  1.0
  C  C66  1  0.39797000  0.47124000  0.16736000  1.0
  C  C67  1  0.60202000  0.52873000  0.83265000  1.0
  C  C68  1  0.29550000  0.50519000  0.99908000  1.0
  C  C69  1  0.70448000  0.49478000  0.00093000  1.0
  C  C70  1  0.29463000  0.30473000  0.02098000  1.0
  C  C71  1  0.70538000  0.69526000  0.97902000  1.0
  C  C72  1  0.86811000  0.85323000  0.64322000  1.0
  C  C73  1  0.13189000  0.14677000  0.35679000  1.0
  C  C74  1  0.98246000  0.92218000  0.60667000  1.0
  C  C75  1  0.01754000  0.07782000  0.39333000  1.0
  C  C76  1  0.84336000  0.91557000  0.71423000  1.0
  C  C77  1  0.15665000  0.08445000  0.28578000  1.0
  C  C78  1  0.76413000  0.71473000  0.60131000  1.0
  C  C79  1  0.23587000  0.28528000  0.39870000  1.0
  C  C80  1  0.67329000  0.40604000  0.48648000  1.0
  C  C81  1  0.32671000  0.59394000  0.51350000  1.0
  C  C82  1  0.23484000  0.46247000  0.89953000  1.0
  C  C83  1  0.76516000  0.53752000  0.10048000  1.0
  C  C84  1  0.46471000  0.15800000  0.65954000  1.0
  C  C85  1  0.53529000  0.84204000  0.34046000  1.0
  C  C86  1  0.33108000  0.98343000  0.52263000  1.0
  C  C87  1  0.66891000  0.01657000  0.47735000  1.0
  C  C88  1  0.46468000  0.95571000  0.68119000  1.0
  C  C89  1  0.53530000  0.04426000  0.31880000  1.0
  N  N90  1  0.42472000  0.03760000  0.62250000  1.0
  N  N91  1  0.57528000  0.96241000  0.37748000  1.0
  O  O92  1  0.46931000  0.41720000  0.21188000  1.0
  O  O93  1  0.53068000  0.58277000  0.78814000  1.0
  O  O94  1  0.67800000  0.42255000  0.40225000  1.0
  O  O95  1  0.32197000  0.57742000  0.59774000  1.0
  O  O96  1  0.75587000  0.67689000  0.51643000  1.0
  O  O97  1  0.24414000  0.32312000  0.48358000  1.0
  O  O98  1  0.38577000  0.56007000  0.21000000  1.0
  O  O99  1  0.61421000  0.43990000  0.78999000  1.0
  O  O100  1  0.69092000  0.64945000  0.65241000  1.0
  O  O101  1  0.30908000  0.35055000  0.34760000  1.0
  O  O102  1  0.57645000  0.41584000  0.51715000  1.0
  O  O103  1  0.42356000  0.58415000  0.48285000  1.0
  O  O104  1  0.27023000  0.33077000  0.69392000  1.0
  O  O105  1  0.72977000  0.66924000  0.30609000  1.0
  O  O106  1  0.42671000  0.22843000  0.61220000  1.0
  O  O107  1  0.57331000  0.77159000  0.38780000  1.0
