# generated using pymatgen
data_P2H34Au2C31Cl2
_symmetry_space_group_name_H-M   'P 1'
_cell_length_a   9.12594000
_cell_length_b   9.12600000
_cell_length_c   20.77790000
_cell_angle_alpha   95.57780000
_cell_angle_beta   95.57760000
_cell_angle_gamma   113.58900000
_symmetry_Int_Tables_number   1
_chemical_formula_structural   P2H34Au2C31Cl2
_chemical_formula_sum   'P4 H68 Au4 C62 Cl4'
_cell_volume   1560.67903813
_cell_formula_units_Z   2
loop_
 _symmetry_equiv_pos_site_id
 _symmetry_equiv_pos_as_xyz
  1  'x, y, z'
loop_
 _atom_site_type_symbol
 _atom_site_label
 _atom_site_symmetry_multiplicity
 _atom_site_fract_x
 _atom_site_fract_y
 _atom_site_fract_z
 _atom_site_occupancy
  P  P0  1  0.63130000  0.06664000  0.17148000  1.0
  P  P1  1  0.06663000  0.63130000  0.67148000  1.0
  P  P2  1  0.50526000  0.42207000  0.99714000  1.0
  P  P3  1  0.42207000  0.50525000  0.49714000  1.0
  H  H4  1  0.57796000  0.21275000  0.29307000  1.0
  H  H5  1  0.21275000  0.57796000  0.79307000  1.0
  H  H6  1  0.52418000  0.11532000  0.40008000  1.0
  H  H7  1  0.11531000  0.52418000  0.90009000  1.0
  H  H8  1  0.50868000  0.84306000  0.41632000  1.0
  H  H9  1  0.84306000  0.50867000  0.91632000  1.0
  H  H10  1  0.55661000  0.67293000  0.32671000  1.0
  H  H11  1  0.67292000  0.55661000  0.82671000  1.0
  H  H12  1  0.61237000  0.76919000  0.22147000  1.0
  H  H13  1  0.76919000  0.61237000  0.72147000  1.0
  H  H14  1  0.30818000  0.84410000  0.19536000  1.0
  H  H15  1  0.84409000  0.30817000  0.69536000  1.0
  H  H16  1  0.05545000  0.67403000  0.12068000  1.0
  H  H17  1  0.67402000  0.05545000  0.62067000  1.0
  H  H18  1  0.04787000  0.66710000  0.00045000  1.0
  H  H19  1  0.66710000  0.04787000  0.50045000  1.0
  H  H20  1  0.29468000  0.83285000  0.95518000  1.0
  H  H21  1  0.83286000  0.29468000  0.45518000  1.0
  H  H22  1  0.54759000  0.00583000  0.02944000  1.0
  H  H23  1  0.00583000  0.54759000  0.52944000  1.0
  H  H24  1  0.78908000  0.01777000  0.09383000  1.0
  H  H25  1  0.01777000  0.78908000  0.59384000  1.0
  H  H26  1  0.76561000  0.88789000  0.15435000  1.0
  H  H27  1  0.88789000  0.76561000  0.65435000  1.0
  H  H28  1  0.94547000  0.15694000  0.23625000  1.0
  H  H29  1  0.15694000  0.94547000  0.73625000  1.0
  H  H30  1  0.98230000  0.25026000  0.16579000  1.0
  H  H31  1  0.25026000  0.98230000  0.66579000  1.0
  H  H32  1  0.09311000  0.04144000  0.12687000  1.0
  H  H33  1  0.04144000  0.09311000  0.62687000  1.0
  H  H34  1  0.07206000  0.97643000  0.20351000  1.0
  H  H35  1  0.97643000  0.07206000  0.70351000  1.0
  H  H36  1  0.25293000  0.26012000  0.25888000  1.0
  H  H37  1  0.26013000  0.25293000  0.75888000  1.0
  H  H38  1  0.34984000  0.17024000  0.20922000  1.0
  H  H39  1  0.17024000  0.34984000  0.70923000  1.0
  H  H40  1  0.42701000  0.45709000  0.19710000  1.0
  H  H41  1  0.45709000  0.42701000  0.69711000  1.0
  H  H42  1  0.22511000  0.42044000  0.16893000  1.0
  H  H43  1  0.42045000  0.22511000  0.66893000  1.0
  H  H44  1  0.22286000  0.23491000  0.07117000  1.0
  H  H45  1  0.23490000  0.22287000  0.57117000  1.0
  H  H46  1  0.41686000  0.25435000  0.10337000  1.0
  H  H47  1  0.25435000  0.41687000  0.60337000  1.0
  H  H48  1  0.32633000  0.51582000  0.05032000  1.0
  H  H49  1  0.51581000  0.32632000  0.55032000  1.0
  H  H50  1  0.51458000  0.56476000  0.09966000  1.0
  H  H51  1  0.56477000  0.51457000  0.59966000  1.0
  H  H52  1  0.37286000  0.51082000  0.87656000  1.0
  H  H53  1  0.51082000  0.37286000  0.37655000  1.0
  H  H54  1  0.46380000  0.76947000  0.83045000  1.0
  H  H55  1  0.76947000  0.46380000  0.33044000  1.0
  H  H56  1  0.70470000  0.00857000  0.88710000  1.0
  H  H57  1  0.00856000  0.70470000  0.38709000  1.0
  H  H58  1  0.86406000  0.98825000  0.98700000  1.0
  H  H59  1  0.98825000  0.86405000  0.48700000  1.0
  H  H60  1  0.77701000  0.72885000  0.03269000  1.0
  H  H61  1  0.72886000  0.77699000  0.53269000  1.0
  H  H62  1  0.48393000  0.13176000  0.91518000  1.0
  H  H63  1  0.13176000  0.48392000  0.41518000  1.0
  H  H64  1  0.25663000  0.91531000  0.83857000  1.0
  H  H65  1  0.91532000  0.25664000  0.33856000  1.0
  H  H66  1  0.98830000  0.92759000  0.82023000  1.0
  H  H67  1  0.92759000  0.98829000  0.32023000  1.0
  H  H68  1  0.94920000  0.15905000  0.87831000  1.0
  H  H69  1  0.15905000  0.94919000  0.37831000  1.0
  H  H70  1  0.16928000  0.36593000  0.95739000  1.0
  H  H71  1  0.36592000  0.16927000  0.45739000  1.0
  Au  Au72  1  0.70605000  0.33490000  0.17518000  1.0
  Au  Au73  1  0.33490000  0.70605000  0.67518000  1.0
  Au  Au74  1  0.71599000  0.35999000  0.02346000  1.0
  Au  Au75  1  0.35999000  0.71599000  0.52346000  1.0
  C  C76  1  0.59930000  0.99887000  0.25040000  1.0
  C  C77  1  0.99886000  0.59930000  0.75040000  1.0
  C  C78  1  0.57367000  0.09477000  0.30108000  1.0
  C  C79  1  0.09477000  0.57367000  0.80108000  1.0
  C  C80  1  0.54230000  0.03934000  0.36070000  1.0
  C  C81  1  0.03934000  0.54230000  0.86070000  1.0
  C  C82  1  0.53498000  0.88726000  0.36989000  1.0
  C  C83  1  0.88725000  0.53498000  0.86989000  1.0
  C  C84  1  0.56048000  0.79101000  0.31956000  1.0
  C  C85  1  0.79101000  0.56048000  0.81956000  1.0
  C  C86  1  0.59249000  0.84616000  0.26003000  1.0
  C  C87  1  0.84616000  0.59249000  0.76003000  1.0
  C  C88  1  0.44566000  0.93554000  0.11758000  1.0
  C  C89  1  0.93553000  0.44566000  0.61758000  1.0
  C  C90  1  0.30609000  0.84199000  0.14275000  1.0
  C  C91  1  0.84198000  0.30609000  0.64275000  1.0
  C  C92  1  0.16343000  0.74573000  0.10061000  1.0
  C  C93  1  0.74572000  0.16343000  0.60060000  1.0
  C  C94  1  0.15947000  0.74252000  0.03316000  1.0
  C  C95  1  0.74252000  0.15947000  0.53316000  1.0
  C  C96  1  0.29788000  0.83536000  0.00778000  1.0
  C  C97  1  0.83536000  0.29788000  0.50778000  1.0
  C  C98  1  0.44057000  0.93234000  0.04968000  1.0
  C  C99  1  0.93234000  0.44058000  0.54968000  1.0
  C  C100  1  0.79187000  0.01295000  0.14654000  1.0
  C  C101  1  0.01294000  0.79187000  0.64654000  1.0
  C  C102  1  0.95467000  0.13457000  0.18417000  1.0
  C  C103  1  0.13457000  0.95467000  0.68417000  1.0
  C  C104  1  0.09278000  0.08251000  0.17847000  1.0
  C  C105  1  0.08251000  0.09278000  0.67847000  1.0
  C  C106  1  0.25702000  0.21896000  0.20765000  1.0
  C  C107  1  0.21897000  0.25702000  0.70766000  1.0
  C  C108  1  0.31179000  0.36421000  0.17041000  1.0
  C  C109  1  0.36421000  0.31179000  0.67041000  1.0
  C  C110  1  0.33759000  0.31941000  0.10089000  1.0
  C  C111  1  0.31941000  0.33759000  0.60089000  1.0
  C  C112  1  0.41374000  0.46701000  0.06669000  1.0
  C  C113  1  0.46701000  0.41374000  0.56669000  1.0
  C  C114  1  0.56670000  0.60422000  0.95848000  1.0
  C  C115  1  0.60422000  0.56670000  0.45848000  1.0
  C  C116  1  0.47917000  0.61586000  0.90137000  1.0
  C  C117  1  0.61586000  0.47917000  0.40137000  1.0
  C  C118  1  0.52954000  0.76122000  0.87570000  1.0
  C  C119  1  0.76122000  0.52954000  0.37570000  1.0
  C  C120  1  0.66658000  0.89509000  0.90701000  1.0
  C  C121  1  0.89508000  0.66657000  0.40700000  1.0
  C  C122  1  0.75617000  0.88343000  0.96326000  1.0
  C  C123  1  0.88342000  0.75616000  0.46326000  1.0
  C  C124  1  0.70679000  0.73852000  0.98888000  1.0
  C  C125  1  0.73852000  0.70678000  0.48888000  1.0
  C  C126  1  0.34285000  0.26493000  0.94033000  1.0
  C  C127  1  0.26492000  0.34285000  0.44033000  1.0
  C  C128  1  0.36636000  0.13722000  0.90661000  1.0
  C  C129  1  0.13723000  0.36635000  0.40660000  1.0
  C  C130  1  0.23885000  0.01614000  0.86375000  1.0
  C  C131  1  0.01613000  0.23885000  0.36375000  1.0
  C  C132  1  0.08819000  0.02284000  0.85340000  1.0
  C  C133  1  0.02284000  0.08818000  0.35340000  1.0
  C  C134  1  0.06539000  0.15127000  0.88613000  1.0
  C  C135  1  0.15126000  0.06540000  0.38613000  1.0
  C  C136  1  0.19125000  0.27058000  0.93001000  1.0
  C  C137  1  0.27058000  0.19124000  0.43002000  1.0
  Cl  Cl138  1  0.79856000  0.61424000  0.18787000  1.0
  Cl  Cl139  1  0.61424000  0.79856000  0.68787000  1.0
  Cl  Cl140  1  0.94145000  0.30471000  0.03801000  1.0
  Cl  Cl141  1  0.30471000  0.94145000  0.53801000  1.0
