# generated using pymatgen
data_FeH2C7O5
_symmetry_space_group_name_H-M   'P 1'
_cell_length_a   8.62237033
_cell_length_b   8.62218000
_cell_length_c   11.23930000
_cell_angle_alpha   89.99930000
_cell_angle_beta   90.00110000
_cell_angle_gamma   60.00019057
_symmetry_Int_Tables_number   1
_chemical_formula_structural   FeH2C7O5
_chemical_formula_sum   'Fe3 H6 C21 O15'
_cell_volume   723.62653817
_cell_formula_units_Z   3
loop_
 _symmetry_equiv_pos_site_id
 _symmetry_equiv_pos_as_xyz
  1  'x, y, z'
loop_
 _atom_site_type_symbol
 _atom_site_label
 _atom_site_symmetry_multiplicity
 _atom_site_fract_x
 _atom_site_fract_y
 _atom_site_fract_z
 _atom_site_occupancy
  Fe  Fe0  1  0.90862000  0.99999000  0.50000000  1.0
  Fe  Fe1  1  0.00000000  0.09140000  0.16666000  1.0
  Fe  Fe2  1  0.09138000  0.90861000  0.83334000  1.0
  H  H3  1  0.86591000  0.47693000  0.49526000  1.0
  H  H4  1  0.47694000  0.65716000  0.16191000  1.0
  H  H5  1  0.65713000  0.86590000  0.82855000  1.0
  H  H6  1  0.34287000  0.52305000  0.50477000  1.0
  H  H7  1  0.13410000  0.34284000  0.83811000  1.0
  H  H8  1  0.52307000  0.13409000  0.17140000  1.0
  C  C9  1  0.91836000  0.67974000  0.56639000  1.0
  C  C10  1  0.92171000  0.51619000  0.56832000  1.0
  C  C11  1  0.67975000  0.40191000  0.23304000  1.0
  C  C12  1  0.51620000  0.56211000  0.23498000  1.0
  C  C13  1  0.40188000  0.91836000  0.89968000  1.0
  C  C14  1  0.56208000  0.92171000  0.90162000  1.0
  C  C15  1  0.59812000  0.32025000  0.43364000  1.0
  C  C16  1  0.43792000  0.48380000  0.43170000  1.0
  C  C17  1  0.08165000  0.59809000  0.76698000  1.0
  C  C18  1  0.07830000  0.43790000  0.76505000  1.0
  C  C19  1  0.32024000  0.08166000  0.10027000  1.0
  C  C20  1  0.48380000  0.07830000  0.09834000  1.0
  C  C21  1  0.99999000  0.71779000  0.66666667  1.0
  C  C22  1  0.00000000  0.40099000  0.66666667  1.0
  C  C23  1  0.00000000  0.22728000  0.66666667  1.0
  C  C24  1  0.71780000  0.28221000  0.33333333  1.0
  C  C25  1  0.40099000  0.59902000  0.33333333  1.0
  C  C26  1  0.22728000  0.77272000  0.33333333  1.0
  C  C27  1  0.28220000  0.00002000  0.99998000  1.0
  C  C28  1  0.59901000  0.99999000  0.99998000  1.0
  C  C29  1  0.77272000  0.99999000  0.99998000  1.0
  O  O30  1  0.85009000  0.80441000  0.48518000  1.0
  O  O31  1  0.98605000  0.16735000  0.56611000  1.0
  O  O32  1  0.80441000  0.34551000  0.15183000  1.0
  O  O33  1  0.16735000  0.84662000  0.23277000  1.0
  O  O34  1  0.34549000  0.85008000  0.81848000  1.0
  O  O35  1  0.84659000  0.98602000  0.89941000  1.0
  O  O36  1  0.65452000  0.19558000  0.51484000  1.0
  O  O37  1  0.15340000  0.83263000  0.43391000  1.0
  O  O38  1  0.14992000  0.65449000  0.84819000  1.0
  O  O39  1  0.01395000  0.15341000  0.76726000  1.0
  O  O40  1  0.19559000  0.14992000  0.18148000  1.0
  O  O41  1  0.83264000  0.01397000  0.10055000  1.0
  O  O42  1  0.00000000  0.86730000  0.66666667  1.0
  O  O43  1  0.86730000  0.13271000  0.33333333  1.0
  O  O44  1  0.13269000  0.00001000  0.99999000  1.0
