# generated using pymatgen
data_HgH9C9I2N3O2
_symmetry_space_group_name_H-M   'P 1'
_cell_length_a   7.01324000
_cell_length_b   11.17390000
_cell_length_c   18.76108949
_cell_angle_alpha   107.32298108
_cell_angle_beta   95.67256978
_cell_angle_gamma   90.03050000
_symmetry_Int_Tables_number   1
_chemical_formula_structural   HgH9C9I2N3O2
_chemical_formula_sum   'Hg4 H36 C36 I8 N12 O8'
_cell_volume   1395.96238220
_cell_formula_units_Z   4
loop_
 _symmetry_equiv_pos_site_id
 _symmetry_equiv_pos_as_xyz
  1  'x, y, z'
loop_
 _atom_site_type_symbol
 _atom_site_label
 _atom_site_symmetry_multiplicity
 _atom_site_fract_x
 _atom_site_fract_y
 _atom_site_fract_z
 _atom_site_occupancy
  Hg  Hg0  1  0.03445000  0.17652000  0.59960000  1.0
  Hg  Hg1  1  0.46534000  0.57732000  0.40047000  1.0
  Hg  Hg2  1  0.96554000  0.82348000  0.40040000  1.0
  Hg  Hg3  1  0.53466000  0.42268000  0.59953000  1.0
  H  H4  1  0.91200000  0.34085000  0.90632000  1.0
  H  H5  1  0.58771000  0.43437000  0.09370000  1.0
  H  H6  1  0.08800000  0.65915000  0.09368000  1.0
  H  H7  1  0.41229000  0.56563000  0.90630000  1.0
  H  H8  1  0.32275000  0.33445000  0.90110000  1.0
  H  H9  1  0.17695000  0.43343000  0.09887000  1.0
  H  H10  1  0.67725000  0.66555000  0.09890000  1.0
  H  H11  1  0.82305000  0.56656000  0.90112000  1.0
  H  H12  1  0.24936000  0.23198000  0.77284000  1.0
  H  H13  1  0.25004000  0.45958000  0.22719000  1.0
  H  H14  1  0.75063000  0.76802000  0.22716000  1.0
  H  H15  1  0.74996000  0.54042000  0.77281000  1.0
  H  H16  1  0.48644000  0.15652000  0.99108000  1.0
  H  H17  1  0.01325000  0.16549000  0.00898000  1.0
  H  H18  1  0.51355000  0.84348000  0.00892000  1.0
  H  H19  1  0.98675000  0.83451000  0.99102000  1.0
  H  H20  1  0.47427000  0.00751000  0.92078000  1.0
  H  H21  1  0.02543000  0.08683000  0.07930000  1.0
  H  H22  1  0.52572000  0.99248000  0.07922000  1.0
  H  H23  1  0.97457000  0.91318000  0.92070000  1.0
  H  H24  1  0.27350000  0.10498000  0.92773000  1.0
  H  H25  1  0.22618000  0.17749000  0.07233000  1.0
  H  H26  1  0.72649000  0.89502000  0.07227000  1.0
  H  H27  1  0.77382000  0.82251000  0.92767000  1.0
  H  H28  1  0.59734000  0.92548000  0.79889000  1.0
  H  H29  1  0.90249000  0.12664000  0.20121000  1.0
  H  H30  1  0.40266000  0.07452000  0.20111000  1.0
  H  H31  1  0.09751000  0.87336000  0.79879000  1.0
  H  H32  1  0.26815000  0.91590000  0.59035000  1.0
  H  H33  1  0.23180000  0.32593000  0.40968000  1.0
  H  H34  1  0.73185000  0.08410000  0.40965000  1.0
  H  H35  1  0.76820000  0.67407000  0.59032000  1.0
  H  H36  1  0.48501000  0.80969000  0.66454000  1.0
  H  H37  1  0.01498000  0.14533000  0.33556000  1.0
  H  H38  1  0.51498000  0.19031000  0.33546000  1.0
  H  H39  1  0.98502000  0.85467000  0.66444000  1.0
  C  C40  1  0.30656000  0.13867000  0.75181000  1.0
  C  C41  1  0.19291000  0.38725000  0.24823000  1.0
  C  C42  1  0.69344000  0.86133000  0.24819000  1.0
  C  C43  1  0.80709000  0.61275000  0.75177000  1.0
  C  C44  1  0.72760000  0.17582000  0.88630000  1.0
  C  C45  1  0.77206000  0.28945000  0.11368000  1.0
  C  C46  1  0.27240000  0.82418000  0.11370000  1.0
  C  C47  1  0.22794000  0.71056000  0.88632000  1.0
  C  C48  1  0.61270000  0.37278000  0.90443000  1.0
  C  C49  1  0.88700000  0.46832000  0.09556000  1.0
  C  C50  1  0.38730000  0.62721000  0.09556000  1.0
  C  C51  1  0.11300000  0.53168000  0.90444000  1.0
  C  C52  1  0.43083000  0.10509000  0.93331000  1.0
  C  C53  1  0.06887000  0.17190000  0.06675000  1.0
  C  C54  1  0.56917000  0.89491000  0.06669000  1.0
  C  C55  1  0.93113000  0.82811000  0.93325000  1.0
  C  C56  1  0.50448000  0.16510000  0.87733000  1.0
  C  C57  1  0.99516000  0.28785000  0.12269000  1.0
  C  C58  1  0.49552000  0.83491000  0.12267000  1.0
  C  C59  1  0.00485000  0.71215000  0.87731000  1.0
  C  C60  1  0.49865000  0.96800000  0.76562000  1.0
  C  C61  1  0.00113000  0.20254000  0.23447000  1.0
  C  C62  1  0.50135000  0.03200000  0.23438000  1.0
  C  C63  1  0.99888000  0.79746000  0.76553000  1.0
  C  C64  1  0.43487000  0.08943000  0.79676000  1.0
  C  C65  1  0.06465000  0.29290000  0.20330000  1.0
  C  C66  1  0.56513000  0.91057000  0.20324000  1.0
  C  C67  1  0.93535000  0.70710000  0.79670000  1.0
  C  C68  1  0.31550000  0.96209000  0.64948000  1.0
  C  C69  1  0.18427000  0.31299000  0.35057000  1.0
  C  C70  1  0.68449000  0.03791000  0.35052000  1.0
  C  C71  1  0.81573000  0.68701000  0.64943000  1.0
  C  C72  1  0.43843000  0.90393000  0.69104000  1.0
  C  C73  1  0.06142000  0.21313000  0.30905000  1.0
  C  C74  1  0.56157000  0.09607000  0.30896000  1.0
  C  C75  1  0.93859000  0.78687000  0.69095000  1.0
  I  I76  1  0.24150000  0.10754000  0.48172000  1.0
  I  I77  1  0.25873000  0.62563000  0.51844000  1.0
  I  I78  1  0.75850000  0.89246000  0.51828000  1.0
  I  I79  1  0.74127000  0.37437000  0.48156000  1.0
  I  I80  1  0.74632000  0.24026000  0.68845000  1.0
  I  I81  1  0.75345000  0.55171000  0.31157000  1.0
  I  I82  1  0.25368000  0.75975000  0.31156000  1.0
  I  I83  1  0.24654000  0.44828000  0.68842000  1.0
  N  N84  1  0.77473000  0.30069000  0.90088000  1.0
  N  N85  1  0.72495000  0.39970000  0.09911000  1.0
  N  N86  1  0.22527000  0.69931000  0.09912000  1.0
  N  N87  1  0.27505000  0.60032000  0.90090000  1.0
  N  N88  1  0.45684000  0.29714000  0.89346000  1.0
  N  N89  1  0.04284000  0.40375000  0.10653000  1.0
  N  N90  1  0.54317000  0.70286000  0.10654000  1.0
  N  N91  1  0.95716000  0.59625000  0.89347000  1.0
  N  N92  1  0.24857000  0.07620000  0.68007000  1.0
  N  N93  1  0.25104000  0.39657000  0.31996000  1.0
  N  N94  1  0.75143000  0.92380000  0.31993000  1.0
  N  N95  1  0.74896000  0.60343000  0.68004000  1.0
  O  O96  1  0.83949000  0.09038000  0.88175000  1.0
  O  O97  1  0.66015000  0.20847000  0.11823000  1.0
  O  O98  1  0.16051000  0.90961000  0.11825000  1.0
  O  O99  1  0.33985000  0.79153000  0.88177000  1.0
  O  O100  1  0.61762000  0.48938000  0.91645000  1.0
  O  O101  1  0.88220000  0.57287000  0.08350000  1.0
  O  O102  1  0.38238000  0.51062000  0.08355000  1.0
  O  O103  1  0.11780000  0.42713000  0.91650000  1.0
