# generated using pymatgen
data_CdH42C46S2(N4O3)2
_symmetry_space_group_name_H-M   'P 1'
_cell_length_a   9.15556000
_cell_length_b   10.49200000
_cell_length_c   11.42550000
_cell_angle_alpha   95.36470000
_cell_angle_beta   90.95140000
_cell_angle_gamma   96.08770000
_symmetry_Int_Tables_number   1
_chemical_formula_structural   CdH42C46S2(N4O3)2
_chemical_formula_sum   'Cd1 H42 C46 S2 N8 O6'
_cell_volume   1086.17551919
_cell_formula_units_Z   1
loop_
 _symmetry_equiv_pos_site_id
 _symmetry_equiv_pos_as_xyz
  1  'x, y, z'
loop_
 _atom_site_type_symbol
 _atom_site_label
 _atom_site_symmetry_multiplicity
 _atom_site_fract_x
 _atom_site_fract_y
 _atom_site_fract_z
 _atom_site_occupancy
  Cd  Cd0  1  0.00000000  0.00000000  0.50000000  1.0
  H  H1  1  0.69660000  0.17964000  0.08297000  1.0
  H  H2  1  0.30340000  0.82037000  0.91703000  1.0
  H  H3  1  0.64167000  0.05089000  0.88887000  1.0
  H  H4  1  0.35833000  0.94911000  0.11113000  1.0
  H  H5  1  0.82116000  0.91393000  0.80221000  1.0
  H  H6  1  0.17884000  0.08607000  0.19779000  1.0
  H  H7  1  0.76137000  0.19805000  0.54487000  1.0
  H  H8  1  0.23862000  0.80194000  0.45514000  1.0
  H  H9  1  0.51049000  0.21239000  0.62768000  1.0
  H  H10  1  0.48951000  0.78761000  0.37232000  1.0
  H  H11  1  0.37901000  0.01801000  0.70635000  1.0
  H  H12  1  0.62099000  0.98198000  0.29365000  1.0
  H  H13  1  0.74914000  0.81274000  0.60196000  1.0
  H  H14  1  0.25086000  0.18725000  0.39805000  1.0
  H  H15  1  0.49990000  0.62337000  0.78849000  1.0
  H  H16  1  0.50010000  0.37662000  0.21151000  1.0
  H  H17  1  0.66983000  0.68935000  0.73866000  1.0
  H  H18  1  0.33017000  0.31065000  0.26135000  1.0
  H  H19  1  0.72286000  0.49299000  0.62551000  1.0
  H  H20  1  0.27715000  0.50701000  0.37449000  1.0
  H  H21  1  0.32353000  0.65700000  0.55625000  1.0
  H  H22  1  0.67648000  0.34300000  0.44375000  1.0
  H  H23  1  0.08263000  0.10563000  0.76065000  1.0
  H  H24  1  0.91737000  0.89437000  0.23935000  1.0
  H  H25  1  0.14065000  0.52353000  0.80745000  1.0
  H  H26  1  0.85935000  0.47647000  0.19255000  1.0
  H  H27  1  0.09385000  0.52122000  0.59569000  1.0
  H  H28  1  0.90615000  0.47878000  0.40431000  1.0
  H  H29  1  0.04654000  0.30988000  0.46983000  1.0
  H  H30  1  0.95346000  0.69012000  0.53017000  1.0
  H  H31  1  0.16037000  0.38600000  0.09482000  1.0
  H  H32  1  0.83964000  0.61400000  0.90518000  1.0
  H  H33  1  0.12255000  0.49697000  0.99519000  1.0
  H  H34  1  0.87744000  0.50303000  0.00481000  1.0
  H  H35  1  0.40314000  0.28840000  0.89670000  1.0
  H  H36  1  0.59686000  0.71160000  0.10330000  1.0
  H  H37  1  0.33035000  0.63917000  0.10374000  1.0
  H  H38  1  0.66965000  0.36083000  0.89626000  1.0
  H  H39  1  0.38107000  0.79222000  0.73062000  1.0
  H  H40  1  0.61893000  0.20777000  0.26938000  1.0
  H  H41  1  0.12788000  0.21758000  0.95173000  1.0
  H  H42  1  0.87212000  0.78242000  0.04827000  1.0
  C  C43  1  0.01636000  0.03684000  0.05606000  1.0
  C  C44  1  0.98364000  0.96316000  0.94394000  1.0
  C  C45  1  0.90792000  0.11400000  0.10424000  1.0
  C  C46  1  0.09208000  0.88600000  0.89575000  1.0
  C  C47  1  0.77644000  0.11913000  0.04476000  1.0
  C  C48  1  0.22356000  0.88088000  0.95523000  1.0
  C  C49  1  0.74573000  0.04643000  0.93533000  1.0
  C  C50  1  0.25427000  0.95357000  0.06467000  1.0
  C  C51  1  0.84633000  0.96995000  0.88630000  1.0
  C  C52  1  0.15367000  0.03005000  0.11370000  1.0
  C  C53  1  0.69964000  0.11543000  0.57856000  1.0
  C  C54  1  0.30035000  0.88457000  0.42144000  1.0
  C  C55  1  0.56062000  0.12251000  0.62601000  1.0
  C  C56  1  0.43938000  0.87749000  0.37399000  1.0
  C  C57  1  0.48816000  0.01498000  0.66971000  1.0
  C  C58  1  0.51183000  0.98502000  0.33029000  1.0
  C  C59  1  0.55599000  0.89940000  0.66666667  1.0
  C  C60  1  0.44401000  0.10060000  0.33333333  1.0
  C  C61  1  0.69321000  0.89954000  0.61174000  1.0
  C  C62  1  0.30679000  0.10045000  0.38826000  1.0
  C  C63  1  0.55159000  0.67327000  0.71652000  1.0
  C  C64  1  0.44841000  0.32673000  0.28348000  1.0
  C  C65  1  0.52619000  0.58586000  0.60284000  1.0
  C  C66  1  0.47381000  0.41414000  0.39716000  1.0
  C  C67  1  0.62418000  0.49567000  0.57099000  1.0
  C  C68  1  0.37582000  0.50433000  0.42901000  1.0
  C  C69  1  0.40196000  0.58900000  0.53058000  1.0
  C  C70  1  0.59804000  0.41100000  0.46942000  1.0
  C  C71  1  0.08554000  0.20015000  0.72776000  1.0
  C  C72  1  0.91446000  0.79985000  0.27224000  1.0
  C  C73  1  0.11229000  0.31375000  0.80510000  1.0
  C  C74  1  0.88771000  0.68625000  0.19491000  1.0
  C  C75  1  0.11680000  0.43157000  0.75484000  1.0
  C  C76  1  0.88320000  0.56843000  0.24516000  1.0
  C  C77  1  0.09094000  0.43032000  0.63461000  1.0
  C  C78  1  0.90906000  0.56968000  0.36539000  1.0
  C  C79  1  0.06414000  0.31394000  0.56466000  1.0
  C  C80  1  0.93587000  0.68606000  0.43534000  1.0
  C  C81  1  0.18502000  0.41444000  0.00631000  1.0
  C  C82  1  0.81498000  0.58556000  0.99369000  1.0
  C  C83  1  0.34795000  0.45852000  0.00017000  1.0
  C  C84  1  0.65205000  0.54148000  0.99983000  1.0
  C  C85  1  0.44530000  0.38142000  0.94227000  1.0
  C  C86  1  0.55470000  0.61858000  0.05773000  1.0
  C  C87  1  0.40458000  0.57774000  0.05767000  1.0
  C  C88  1  0.59542000  0.42226000  0.94233000  1.0
  S  S89  1  0.93560000  0.20135000  0.24659000  1.0
  S  S90  1  0.06440000  0.79865000  0.75341000  1.0
  N  N91  1  0.76243000  0.00517000  0.57112000  1.0
  N  N92  1  0.23757000  0.99483000  0.42888000  1.0
  N  N93  1  0.49195000  0.79613000  0.71815000  1.0
  N  N94  1  0.50805000  0.20386000  0.28185000  1.0
  N  N95  1  0.06242000  0.20071000  0.61183000  1.0
  N  N96  1  0.93758000  0.79929000  0.38817000  1.0
  N  N97  1  0.13032000  0.30652000  0.92357000  1.0
  N  N98  1  0.86968000  0.69348000  0.07643000  1.0
  O  O99  1  0.93484000  0.09912000  0.32735000  1.0
  O  O100  1  0.06515000  0.90087000  0.67265000  1.0
  O  O101  1  0.80918000  0.27524000  0.26287000  1.0
  O  O102  1  0.19081000  0.72476000  0.73713000  1.0
  O  O103  1  0.07602000  0.28226000  0.24776000  1.0
  O  O104  1  0.92398000  0.71774000  0.75224000  1.0
