# generated using pymatgen
data_AgH20C26N7O3
_symmetry_space_group_name_H-M   'P 1'
_cell_length_a   10.32480000
_cell_length_b   10.94120000
_cell_length_c   11.29750000
_cell_angle_alpha   105.94700000
_cell_angle_beta   91.48970000
_cell_angle_gamma   103.13100000
_symmetry_Int_Tables_number   1
_chemical_formula_structural   AgH20C26N7O3
_chemical_formula_sum   'Ag2 H40 C52 N14 O6'
_cell_volume   1189.69171574
_cell_formula_units_Z   2
loop_
 _symmetry_equiv_pos_site_id
 _symmetry_equiv_pos_as_xyz
  1  'x, y, z'
loop_
 _atom_site_type_symbol
 _atom_site_label
 _atom_site_symmetry_multiplicity
 _atom_site_fract_x
 _atom_site_fract_y
 _atom_site_fract_z
 _atom_site_occupancy
  Ag  Ag0  1  0.14925000  0.33606000  0.98401000  1.0
  Ag  Ag1  1  0.85075000  0.66394000  0.01599000  1.0
  H  H2  1  0.31995000  0.59137000  0.95148000  1.0
  H  H3  1  0.68004000  0.40862000  0.04853000  1.0
  H  H4  1  0.53082000  0.66939000  0.86056000  1.0
  H  H5  1  0.46917000  0.33062000  0.13945000  1.0
  H  H6  1  0.65832000  0.50194000  0.75611000  1.0
  H  H7  1  0.34167000  0.49807000  0.24389000  1.0
  H  H8  1  0.34335000  0.20512000  0.82542000  1.0
  H  H9  1  0.65665000  0.79488000  0.17457000  1.0
  H  H10  1  0.67299000  0.27541000  0.68730000  1.0
  H  H11  1  0.32700000  0.72459000  0.31270000  1.0
  H  H12  1  0.78239000  0.99314000  0.51107000  1.0
  H  H13  1  0.21760000  0.00686000  0.48894000  1.0
  H  H14  1  0.90630000  0.84614000  0.37377000  1.0
  H  H15  1  0.09370000  0.15387000  0.62623000  1.0
  H  H16  1  0.85772000  0.61155000  0.36084000  1.0
  H  H17  1  0.14228000  0.38846000  0.63916000  1.0
  H  H18  1  0.68788000  0.51956000  0.48718000  1.0
  H  H19  1  0.31213000  0.48045000  0.51283000  1.0
  H  H20  1  0.56396000  0.66418000  0.62268000  1.0
  H  H21  1  0.43605000  0.33582000  0.37733000  1.0
  H  H22  1  0.31742000  0.72515000  0.84274000  1.0
  H  H23  1  0.68257000  0.27485000  0.15726000  1.0
  H  H24  1  0.08736000  0.59301000  0.75275000  1.0
  H  H25  1  0.91263000  0.40699000  0.24725000  1.0
  H  H26  1  0.99968000  0.60085000  0.54988000  1.0
  H  H27  1  0.00032000  0.39915000  0.45011000  1.0
  H  H28  1  0.13959000  0.73444000  0.43281000  1.0
  H  H29  1  0.86041000  0.26556000  0.56718000  1.0
  H  H30  1  0.36876000  0.86328000  0.52071000  1.0
  H  H31  1  0.63124000  0.13672000  0.47930000  1.0
  H  H32  1  0.62126000  0.92365000  0.06044000  1.0
  H  H33  1  0.37875000  0.07634000  0.93956000  1.0
  H  H34  1  0.80986000  0.96284000  0.22356000  1.0
  H  H35  1  0.19015000  0.03716000  0.77643000  1.0
  H  H36  1  0.03923000  0.09286000  0.32125000  1.0
  H  H37  1  0.96077000  0.90714000  0.67875000  1.0
  H  H38  1  0.17294000  0.24695000  0.21916000  1.0
  H  H39  1  0.82706000  0.75305000  0.78084000  1.0
  H  H40  1  0.87593000  0.14798000  0.93056000  1.0
  H  H41  1  0.12407000  0.85202000  0.06944000  1.0
  C  C42  1  0.37553000  0.52357000  0.90054000  1.0
  C  C43  1  0.62447000  0.47643000  0.09946000  1.0
  C  C44  1  0.49371000  0.56519000  0.85073000  1.0
  C  C45  1  0.50628000  0.43481000  0.14927000  1.0
  C  C46  1  0.56247000  0.47337000  0.79208000  1.0
  C  C47  1  0.43753000  0.52664000  0.20791000  1.0
  C  C48  1  0.50892000  0.34070000  0.78291000  1.0
  C  C49  1  0.49107000  0.65930000  0.21709000  1.0
  C  C50  1  0.38753000  0.30729000  0.83258000  1.0
  C  C51  1  0.61246000  0.69271000  0.16741000  1.0
  C  C52  1  0.57794000  0.24196000  0.72338000  1.0
  C  C53  1  0.42205000  0.75804000  0.27661000  1.0
  C  C54  1  0.59042000  0.92501000  0.65356000  1.0
  C  C55  1  0.40958000  0.07499000  0.34645000  1.0
  C  C56  1  0.66484000  0.83875000  0.57566000  1.0
  C  C57  1  0.33516000  0.16125000  0.42435000  1.0
  C  C58  1  0.76221000  0.88925000  0.50461000  1.0
  C  C59  1  0.23778000  0.11076000  0.49539000  1.0
  C  C60  1  0.83057000  0.80749000  0.42851000  1.0
  C  C61  1  0.16943000  0.19252000  0.57149000  1.0
  C  C62  1  0.80372000  0.67417000  0.42160000  1.0
  C  C63  1  0.19628000  0.32583000  0.57840000  1.0
  C  C64  1  0.70832000  0.62327000  0.49210000  1.0
  C  C65  1  0.29168000  0.37674000  0.50791000  1.0
  C  C66  1  0.63936000  0.70488000  0.56881000  1.0
  C  C67  1  0.36064000  0.29512000  0.43120000  1.0
  C  C68  1  0.49624000  0.87223000  0.73734000  1.0
  C  C69  1  0.50376000  0.12777000  0.26267000  1.0
  C  C70  1  0.36003000  0.79879000  0.68630000  1.0
  C  C71  1  0.63996000  0.20121000  0.31370000  1.0
  C  C72  1  0.27872000  0.72344000  0.75185000  1.0
  C  C73  1  0.72128000  0.27656000  0.24815000  1.0
  C  C74  1  0.15090000  0.65108000  0.70212000  1.0
  C  C75  1  0.84910000  0.34892000  0.29788000  1.0
  C  C76  1  0.10113000  0.65536000  0.58723000  1.0
  C  C77  1  0.89887000  0.34464000  0.41277000  1.0
  C  C78  1  0.17954000  0.73143000  0.52210000  1.0
  C  C79  1  0.82047000  0.26857000  0.47790000  1.0
  C  C80  1  0.30886000  0.80237000  0.57108000  1.0
  C  C81  1  0.69114000  0.19764000  0.42892000  1.0
  C  C82  1  0.69485000  0.96783000  0.00605000  1.0
  C  C83  1  0.30515000  0.03217000  0.99395000  1.0
  C  C84  1  0.82638000  0.04189000  0.06677000  1.0
  C  C85  1  0.17362000  0.95811000  0.93323000  1.0
  C  C86  1  0.87289000  0.02828000  0.17924000  1.0
  C  C87  1  0.12712000  0.97172000  0.82075000  1.0
  C  C88  1  0.99905000  0.10066000  0.23438000  1.0
  C  C89  1  0.00095000  0.89934000  0.76562000  1.0
  C  C90  1  0.07457000  0.18711000  0.17774000  1.0
  C  C91  1  0.92544000  0.81289000  0.82225000  1.0
  C  C92  1  0.90909000  0.13136000  0.01596000  1.0
  C  C93  1  0.09091000  0.86864000  0.98404000  1.0
  N  N94  1  0.32298000  0.39614000  0.89129000  1.0
  N  N95  1  0.67702000  0.60386000  0.10871000  1.0
  N  N96  1  0.53006000  0.11853000  0.71189000  1.0
  N  N97  1  0.46994000  0.88147000  0.28811000  1.0
  N  N98  1  0.60774000  0.04313000  0.64420000  1.0
  N  N99  1  0.39226000  0.95688000  0.35580000  1.0
  N  N100  1  0.53302000  0.88494000  0.85221000  1.0
  N  N101  1  0.46698000  0.11506000  0.14779000  1.0
  N  N102  1  0.66379000  0.95525000  0.89074000  1.0
  N  N103  1  0.33621000  0.04474000  0.10926000  1.0
  N  N104  1  0.02995000  0.20272000  0.07072000  1.0
  N  N105  1  0.97006000  0.79728000  0.92928000  1.0
  N  N106  1  0.90223000  0.39802000  0.84160000  1.0
  N  N107  1  0.09777000  0.60198000  0.15840000  1.0
  O  O108  1  0.86174000  0.41300000  0.94909000  1.0
  O  O109  1  0.13826000  0.58700000  0.05091000  1.0
  O  O110  1  0.96682000  0.31156000  0.80041000  1.0
  O  O111  1  0.03318000  0.68844000  0.19959000  1.0
  O  O112  1  0.87855000  0.46925000  0.77611000  1.0
  O  O113  1  0.12145000  0.53075000  0.22388000  1.0
