# generated using pymatgen
data_ErH6C8NO8
_symmetry_space_group_name_H-M   'P 1'
_cell_length_a   7.64584000
_cell_length_b   7.68756000
_cell_length_c   9.79319000
_cell_angle_alpha   111.13800000
_cell_angle_beta   97.87960000
_cell_angle_gamma   91.69410000
_symmetry_Int_Tables_number   1
_chemical_formula_structural   ErH6C8NO8
_chemical_formula_sum   'Er2 H12 C16 N2 O16'
_cell_volume   529.87474951
_cell_formula_units_Z   2
loop_
 _symmetry_equiv_pos_site_id
 _symmetry_equiv_pos_as_xyz
  1  'x, y, z'
loop_
 _atom_site_type_symbol
 _atom_site_label
 _atom_site_symmetry_multiplicity
 _atom_site_fract_x
 _atom_site_fract_y
 _atom_site_fract_z
 _atom_site_occupancy
  Er  Er0  1  0.35875000  0.53293000  0.69998000  1.0
  Er  Er1  1  0.64126000  0.46707000  0.30002000  1.0
  H  H2  1  0.58209000  0.94229000  0.89628000  1.0
  H  H3  1  0.41792000  0.05772000  0.10373000  1.0
  H  H4  1  0.02649000  0.36375000  0.09404000  1.0
  H  H5  1  0.97351000  0.63626000  0.90596000  1.0
  H  H6  1  0.98685000  0.02058000  0.64964000  1.0
  H  H7  1  0.01316000  0.97944000  0.35036000  1.0
  H  H8  1  0.12416000  0.26413000  0.86503000  1.0
  H  H9  1  0.87584000  0.73588000  0.13497000  1.0
  H  H10  1  0.53851000  0.19699000  0.62421000  1.0
  H  H11  1  0.46148000  0.80300000  0.37579000  1.0
  H  H12  1  0.67862000  0.34273000  0.61187000  1.0
  H  H13  1  0.32138000  0.65726000  0.38813000  1.0
  C  C14  1  0.68218000  0.79898000  0.62336000  1.0
  C  C15  1  0.31781000  0.20103000  0.37663000  1.0
  C  C16  1  0.77160000  0.95994000  0.75733000  1.0
  C  C17  1  0.22840000  0.04007000  0.24267000  1.0
  C  C18  1  0.70370000  0.01448000  0.89010000  1.0
  C  C19  1  0.29631000  0.98553000  0.10990000  1.0
  C  C20  1  0.79127000  0.16170000  0.01932000  1.0
  C  C21  1  0.20873000  0.83831000  0.98068000  1.0
  C  C22  1  0.94811000  0.24990000  0.00255000  1.0
  C  C23  1  0.05190000  0.75011000  0.99745000  1.0
  C  C24  1  0.92642000  0.05401000  0.74912000  1.0
  C  C25  1  0.07359000  0.94600000  0.25088000  1.0
  C  C26  1  0.95519000  0.45569000  0.54747000  1.0
  C  C27  1  0.04481000  0.54430000  0.45253000  1.0
  C  C28  1  0.42177000  0.42683000  0.98671000  1.0
  C  C29  1  0.57822000  0.57315000  0.01328000  1.0
  N  N30  1  0.00708000  0.19390000  0.87129000  1.0
  N  N31  1  0.99292000  0.80610000  0.12871000  1.0
  O  O32  1  0.55807000  0.69733000  0.63886000  1.0
  O  O33  1  0.44194000  0.30266000  0.36113000  1.0
  O  O34  1  0.73567000  0.77000000  0.50028000  1.0
  O  O35  1  0.26431000  0.23002000  0.49972000  1.0
  O  O36  1  0.73201000  0.21158000  0.14517000  1.0
  O  O37  1  0.26799000  0.78842000  0.85483000  1.0
  O  O38  1  0.04437000  0.45526000  0.66484000  1.0
  O  O39  1  0.95564000  0.54473000  0.33517000  1.0
  O  O40  1  0.79393000  0.39045000  0.49711000  1.0
  O  O41  1  0.20608000  0.60955000  0.50291000  1.0
  O  O42  1  0.31175000  0.38989000  0.86629000  1.0
  O  O43  1  0.68824000  0.61008000  0.13368000  1.0
  O  O44  1  0.41211000  0.35652000  0.08245000  1.0
  O  O45  1  0.58788000  0.64348000  0.91754000  1.0
  O  O46  1  0.59491000  0.32308000  0.67710000  1.0
  O  O47  1  0.40509000  0.67692000  0.32290000  1.0
