# generated using pymatgen
data_ZnH20C20S2(NO3)2
_symmetry_space_group_name_H-M   'P 1'
_cell_length_a   7.85999000
_cell_length_b   11.92860000
_cell_length_c   12.07690000
_cell_angle_alpha   64.05000000
_cell_angle_beta   89.34270000
_cell_angle_gamma   89.34580000
_symmetry_Int_Tables_number   1
_chemical_formula_structural   ZnH20C20S2(NO3)2
_chemical_formula_sum   'Zn2 H40 C40 S4 N4 O12'
_cell_volume   1018.05723658
_cell_formula_units_Z   2
loop_
 _symmetry_equiv_pos_site_id
 _symmetry_equiv_pos_as_xyz
  1  'x, y, z'
loop_
 _atom_site_type_symbol
 _atom_site_label
 _atom_site_symmetry_multiplicity
 _atom_site_fract_x
 _atom_site_fract_y
 _atom_site_fract_z
 _atom_site_occupancy
  Zn  Zn0  1  0.24884000  0.22495000  0.77469000  1.0
  Zn  Zn1  1  0.75117000  0.77504000  0.22532000  1.0
  H  H2  1  0.12352000  0.98123000  0.87287000  1.0
  H  H3  1  0.37619000  0.12762000  0.01618000  1.0
  H  H4  1  0.87648000  0.01876000  0.12713000  1.0
  H  H5  1  0.62381000  0.87238000  0.98382000  1.0
  H  H6  1  0.31652000  0.00681000  0.83507000  1.0
  H  H7  1  0.18283000  0.16466000  0.99051000  1.0
  H  H8  1  0.68348000  0.99318000  0.16492000  1.0
  H  H9  1  0.81718000  0.83534000  0.00949000  1.0
  H  H10  1  0.40482000  0.41102000  0.86581000  1.0
  H  H11  1  0.09093000  0.13152000  0.59172000  1.0
  H  H12  1  0.59519000  0.58898000  0.13419000  1.0
  H  H13  1  0.90908000  0.86848000  0.40828000  1.0
  H  H14  1  0.51414000  0.63168000  0.76697000  1.0
  H  H15  1  0.98684000  0.23012000  0.37249000  1.0
  H  H16  1  0.48586000  0.36832000  0.23303000  1.0
  H  H17  1  0.01318000  0.76987000  0.62751000  1.0
  H  H18  1  0.48457000  0.75481000  0.53680000  1.0
  H  H19  1  0.02178000  0.46238000  0.24852000  1.0
  H  H20  1  0.51542000  0.24519000  0.46320000  1.0
  H  H21  1  0.97823000  0.53762000  0.75148000  1.0
  H  H22  1  0.34586000  0.65856000  0.41852000  1.0
  H  H23  1  0.15983000  0.58290000  0.34317000  1.0
  H  H24  1  0.65413000  0.34144000  0.58149000  1.0
  H  H25  1  0.84016000  0.41710000  0.65684000  1.0
  H  H26  1  0.85535000  0.04605000  0.81773000  1.0
  H  H27  1  0.64385000  0.18114000  0.95228000  1.0
  H  H28  1  0.14465000  0.95395000  0.18226000  1.0
  H  H29  1  0.35615000  0.81886000  0.04771000  1.0
  H  H30  1  0.80378000  0.15811000  0.66631000  1.0
  H  H31  1  0.69519000  0.33506000  0.84291000  1.0
  H  H32  1  0.19621000  0.84189000  0.33369000  1.0
  H  H33  1  0.30481000  0.66494000  0.15708000  1.0
  H  H34  1  0.43139000  0.90080000  0.72389000  1.0
  H  H35  1  0.06597000  0.27304000  0.10220000  1.0
  H  H36  1  0.56861000  0.09921000  0.27611000  1.0
  H  H37  1  0.93403000  0.72696000  0.89780000  1.0
  H  H38  1  0.79900000  0.05421000  0.42800000  1.0
  H  H39  1  0.70203000  0.57410000  0.94312000  1.0
  H  H40  1  0.20100000  0.94579000  0.57199000  1.0
  H  H41  1  0.29797000  0.42591000  0.05687000  1.0
  C  C42  1  0.39239000  0.47028000  0.76729000  1.0
  C  C43  1  0.10556000  0.23091000  0.53239000  1.0
  C  C44  1  0.60761000  0.52972000  0.23272000  1.0
  C  C45  1  0.89445000  0.76908000  0.46761000  1.0
  C  C46  1  0.45270000  0.59222000  0.71177000  1.0
  C  C47  1  0.04812000  0.28632000  0.41116000  1.0
  C  C48  1  0.54730000  0.40777000  0.28823000  1.0
  C  C49  1  0.95189000  0.71368000  0.58884000  1.0
  C  C50  1  0.43494000  0.66052000  0.58472000  1.0
  C  C51  1  0.06879000  0.41452000  0.34246000  1.0
  C  C52  1  0.56506000  0.33948000  0.41528000  1.0
  C  C53  1  0.93121000  0.58548000  0.65754000  1.0
  C  C54  1  0.35441000  0.60641000  0.51816000  1.0
  C  C55  1  0.14900000  0.48227000  0.39568000  1.0
  C  C56  1  0.64558000  0.39360000  0.48185000  1.0
  C  C57  1  0.85100000  0.51773000  0.60433000  1.0
  C  C58  1  0.29409000  0.48451000  0.58048000  1.0
  C  C59  1  0.20639000  0.41991000  0.51695000  1.0
  C  C60  1  0.70590000  0.51549000  0.41953000  1.0
  C  C61  1  0.79360000  0.58009000  0.48305000  1.0
  C  C62  1  0.58589000  0.07949000  0.78519000  1.0
  C  C63  1  0.91321000  0.21468000  0.91988000  1.0
  C  C64  1  0.41411000  0.92051000  0.21481000  1.0
  C  C65  1  0.08679000  0.78532000  0.08011000  1.0
  C  C66  1  0.76581000  0.06900000  0.74155000  1.0
  C  C67  1  0.73305000  0.25832000  0.93059000  1.0
  C  C68  1  0.23418000  0.93100000  0.25845000  1.0
  C  C69  1  0.26695000  0.74169000  0.06941000  1.0
  C  C70  1  0.63041000  0.97611000  0.58626000  1.0
  C  C71  1  0.86883000  0.41320000  0.02406000  1.0
  C  C72  1  0.36959000  0.02389000  0.41374000  1.0
  C  C73  1  0.13117000  0.58681000  0.97594000  1.0
  C  C74  1  0.46148000  0.94513000  0.62590000  1.0
  C  C75  1  0.03703000  0.37235000  0.05681000  1.0
  C  C76  1  0.53852000  0.05487000  0.37409000  1.0
  C  C77  1  0.96297000  0.62765000  0.94319000  1.0
  C  C78  1  0.66800000  0.03031000  0.45977000  1.0
  C  C79  1  0.83262000  0.54145000  0.96793000  1.0
  C  C80  1  0.33200000  0.96969000  0.54022000  1.0
  C  C81  1  0.16737000  0.45855000  0.03207000  1.0
  S  S82  1  0.79642000  0.94369000  0.69532000  1.0
  S  S83  1  0.70211000  0.30335000  0.05554000  1.0
  S  S84  1  0.20358000  0.05631000  0.30467000  1.0
  S  S85  1  0.29789000  0.69665000  0.94446000  1.0
  N  N86  1  0.31618000  0.41790000  0.70291000  1.0
  N  N87  1  0.18176000  0.29639000  0.58379000  1.0
  N  N88  1  0.68382000  0.58210000  0.29710000  1.0
  N  N89  1  0.81824000  0.70361000  0.41621000  1.0
  O  O90  1  0.19928000  0.04079000  0.80625000  1.0
  O  O91  1  0.29996000  0.19372000  0.95644000  1.0
  O  O92  1  0.80072000  0.95920000  0.19375000  1.0
  O  O93  1  0.70004000  0.80627000  0.04356000  1.0
  O  O94  1  0.51354000  0.18532000  0.73259000  1.0
  O  O95  1  0.98462000  0.26714000  0.81493000  1.0
  O  O96  1  0.48646000  0.81468000  0.26741000  1.0
  O  O97  1  0.01538000  0.73285000  0.18507000  1.0
  O  O98  1  0.51786000  0.98314000  0.87004000  1.0
  O  O99  1  0.98237000  0.12987000  0.01525000  1.0
  O  O100  1  0.48214000  0.01686000  0.12996000  1.0
  O  O101  1  0.01763000  0.87013000  0.98475000  1.0
