# generated using pymatgen
data_CsH3C4S(NO)2
_symmetry_space_group_name_H-M   'P 1'
_cell_length_a   7.13535000
_cell_length_b   7.13536000
_cell_length_c   7.84043000
_cell_angle_alpha   95.19680000
_cell_angle_beta   95.19270000
_cell_angle_gamma   111.89800000
_symmetry_Int_Tables_number   1
_chemical_formula_structural   CsH3C4S(NO)2
_chemical_formula_sum   'Cs2 H6 C8 S2 N4 O4'
_cell_volume   365.50653053
_cell_formula_units_Z   2
loop_
 _symmetry_equiv_pos_site_id
 _symmetry_equiv_pos_as_xyz
  1  'x, y, z'
loop_
 _atom_site_type_symbol
 _atom_site_label
 _atom_site_symmetry_multiplicity
 _atom_site_fract_x
 _atom_site_fract_y
 _atom_site_fract_z
 _atom_site_occupancy
  Cs  Cs0  1  0.75336000  0.24665000  0.50000000  1.0
  Cs  Cs1  1  0.24665000  0.75336000  0.50000000  1.0
  H  H2  1  0.09296000  0.44221000  0.90129000  1.0
  H  H3  1  0.55778000  0.90706000  0.09873000  1.0
  H  H4  1  0.90705000  0.55780000  0.09874000  1.0
  H  H5  1  0.44222000  0.09294000  0.90126000  1.0
  H  H6  1  0.16829000  0.16829000  0.34580000  1.0
  H  H7  1  0.83173000  0.83169000  0.65418000  1.0
  C  C8  1  0.26645000  0.26650000  0.87638000  1.0
  C  C9  1  0.73353000  0.73352000  0.12364000  1.0
  C  C10  1  0.11339000  0.31978000  0.13253000  1.0
  C  C11  1  0.68024000  0.88659000  0.86747000  1.0
  C  C12  1  0.88661000  0.68023000  0.86745000  1.0
  C  C13  1  0.31978000  0.11338000  0.13254000  1.0
  C  C14  1  0.19483000  0.19484000  0.21420000  1.0
  C  C15  1  0.80520000  0.80515000  0.78580000  1.0
  S  S16  1  0.30094000  0.30093000  0.66894000  1.0
  S  S17  1  0.69906000  0.69906000  0.33107000  1.0
  N  N18  1  0.15401000  0.34923000  0.96335000  1.0
  N  N19  1  0.65079000  0.84598000  0.03662000  1.0
  N  N20  1  0.84598000  0.65081000  0.03662000  1.0
  N  N21  1  0.34918000  0.15402000  0.96341000  1.0
  O  O22  1  0.00722000  0.40870000  0.19996000  1.0
  O  O23  1  0.59129000  0.99277000  0.80004000  1.0
  O  O24  1  0.99277000  0.59128000  0.80003000  1.0
  O  O25  1  0.40873000  0.00721000  0.19997000  1.0
