# generated using pymatgen
data_ZnH16C24N2(O2F3)2
_symmetry_space_group_name_H-M   'P 1'
_cell_length_a   7.09281000
_cell_length_b   9.16791000
_cell_length_c   11.30961898
_cell_angle_alpha   92.54180126
_cell_angle_beta   108.26811814
_cell_angle_gamma   112.73910000
_symmetry_Int_Tables_number   1
_chemical_formula_structural   ZnH16C24N2(O2F3)2
_chemical_formula_sum   'Zn1 H16 C24 N2 O4 F6'
_cell_volume   632.47016778
_cell_formula_units_Z   1
loop_
 _symmetry_equiv_pos_site_id
 _symmetry_equiv_pos_as_xyz
  1  'x, y, z'
loop_
 _atom_site_type_symbol
 _atom_site_label
 _atom_site_symmetry_multiplicity
 _atom_site_fract_x
 _atom_site_fract_y
 _atom_site_fract_z
 _atom_site_occupancy
  Zn  Zn0  1  0.04061000  0.00009000  1.00000000  1.0
  H  H1  1  0.82937000  0.23865000  0.97795000  1.0
  H  H2  1  0.61286000  0.76143000  0.02211000  1.0
  H  H3  1  0.46816000  0.23854000  0.97718000  1.0
  H  H4  1  0.25263000  0.76170000  0.02288000  1.0
  H  H5  1  0.70291000  0.71344000  0.60652000  1.0
  H  H6  1  0.38300000  0.28650000  0.39355000  1.0
  H  H7  1  0.66296000  0.81180000  0.45710000  1.0
  H  H8  1  0.39387000  0.18806000  0.54287000  1.0
  H  H9  1  0.04582000  0.26882000  0.71429000  1.0
  H  H10  1  0.06276000  0.73110000  0.28560000  1.0
  H  H11  1  0.64574000  0.94952000  0.27622000  1.0
  H  H12  1  0.42004000  0.05032000  0.72373000  1.0
  H  H13  1  0.03001000  0.40841000  0.53170000  1.0
  H  H14  1  0.08998000  0.59144000  0.46819000  1.0
  H  H15  1  0.82876000  0.24994000  0.31027000  1.0
  H  H16  1  0.26867000  0.74989000  0.68964000  1.0
  C  C17  1  0.69907000  0.13271000  0.98766000  1.0
  C  C18  1  0.57880000  0.86742000  0.01238000  1.0
  C  C19  1  0.87655000  0.95649000  0.71449000  1.0
  C  C20  1  0.20561000  0.04349000  0.28549000  1.0
  C  C21  1  0.85688000  0.03125000  0.59946000  1.0
  C  C22  1  0.22625000  0.96867000  0.40049000  1.0
  C  C23  1  0.50261000  0.13268000  0.98742000  1.0
  C  C24  1  0.38264000  0.86752000  0.01261000  1.0
  C  C25  1  0.79208000  0.70179000  0.80111000  1.0
  C  C26  1  0.28895000  0.29829000  0.19899000  1.0
  C  C27  1  0.78496000  0.78542000  0.70145000  1.0
  C  C28  1  0.29808000  0.21458000  0.29861000  1.0
  C  C29  1  0.67785000  0.51614000  0.76675000  1.0
  C  C30  1  0.39457000  0.48394000  0.23335000  1.0
  C  C31  1  0.74434000  0.94247000  0.47511000  1.0
  C  C32  1  0.32675000  0.05740000  0.52484000  1.0
  C  C33  1  0.95850000  0.20016000  0.61778000  1.0
  C  C34  1  0.14069000  0.79975000  0.38213000  1.0
  C  C35  1  0.73416000  0.02070000  0.37195000  1.0
  C  C36  1  0.34160000  0.97915000  0.62800000  1.0
  C  C37  1  0.94856000  0.27756000  0.51468000  1.0
  C  C38  1  0.15649000  0.72230000  0.48522000  1.0
  C  C39  1  0.83620000  0.18855000  0.39099000  1.0
  C  C40  1  0.25684000  0.81130000  0.60892000  1.0
  N  N41  1  0.34636000  0.00012000  0.00001000  1.0
  N  N42  1  0.73515000  0.00004000  0.00001000  1.0
  O  O43  1  0.87647000  0.75279000  0.92098000  1.0
  O  O44  1  0.20244000  0.24735000  0.07911000  1.0
  O  O45  1  0.97848000  0.05374000  0.82084000  1.0
  O  O46  1  0.10402000  0.94630000  0.17913000  1.0
  F  F47  1  0.61078000  0.45569000  0.64072000  1.0
  F  F48  1  0.51390000  0.54444000  0.35938000  1.0
  F  F49  1  0.81243000  0.44928000  0.83077000  1.0
  F  F50  1  0.53198000  0.55070000  0.16932000  1.0
  F  F51  1  0.49563000  0.45792000  0.79983000  1.0
  F  F52  1  0.23754000  0.54223000  0.20024000  1.0
