# generated using pymatgen
data_ZnH10C14(N3O2)2
_symmetry_space_group_name_H-M   'P 1'
_cell_length_a   9.24467000
_cell_length_b   9.50391000
_cell_length_c   9.50391000
_cell_angle_alpha   81.77010000
_cell_angle_beta   75.89190000
_cell_angle_gamma   75.89200000
_symmetry_Int_Tables_number   1
_chemical_formula_structural   ZnH10C14(N3O2)2
_chemical_formula_sum   'Zn2 H20 C28 N12 O8'
_cell_volume   782.28786407
_cell_formula_units_Z   2
loop_
 _symmetry_equiv_pos_site_id
 _symmetry_equiv_pos_as_xyz
  1  'x, y, z'
loop_
 _atom_site_type_symbol
 _atom_site_label
 _atom_site_symmetry_multiplicity
 _atom_site_fract_x
 _atom_site_fract_y
 _atom_site_fract_z
 _atom_site_occupancy
  Zn  Zn0  1  0.74059000  0.95985000  0.70372000  1.0
  Zn  Zn1  1  0.24059000  0.70372000  0.95985000  1.0
  H  H2  1  0.38339000  0.01667000  0.61154000  1.0
  H  H3  1  0.88339000  0.61154000  0.01667000  1.0
  H  H4  1  0.59727000  0.48888000  0.78489000  1.0
  H  H5  1  0.09727000  0.78489000  0.48888000  1.0
  H  H6  1  0.87799000  0.87835000  0.17453000  1.0
  H  H7  1  0.37799000  0.17453000  0.87835000  1.0
  H  H8  1  0.07354000  0.30941000  0.24635000  1.0
  H  H9  1  0.57354000  0.24635000  0.30941000  1.0
  H  H10  1  0.58265000  0.93769000  0.07755000  1.0
  H  H11  1  0.08265000  0.07755000  0.93769000  1.0
  H  H12  1  0.96870000  0.10989000  0.40995000  1.0
  H  H13  1  0.46869000  0.40995000  0.10989000  1.0
  H  H14  1  0.79024000  0.63484000  0.53184000  1.0
  H  H15  1  0.29024000  0.53184000  0.63484000  1.0
  H  H16  1  0.20586000  0.03606000  0.44849000  1.0
  H  H17  1  0.70586000  0.44849000  0.03606000  1.0
  H  H18  1  0.30142000  0.99701000  0.18673000  1.0
  H  H19  1  0.80142000  0.18673000  0.99701000  1.0
  H  H20  1  0.98318000  0.56541000  0.30375000  1.0
  H  H21  1  0.48318000  0.30375000  0.56541000  1.0
  C  C22  1  0.42629000  0.99750000  0.49732000  1.0
  C  C23  1  0.92629000  0.49731000  0.99750000  1.0
  C  C24  1  0.44399000  0.90214000  0.86469000  1.0
  C  C25  1  0.94400000  0.86468000  0.90215000  1.0
  C  C26  1  0.54785000  0.75060000  0.83002000  1.0
  C  C27  1  0.04787000  0.83001000  0.75060000  1.0
  C  C28  1  0.98825000  0.33467000  0.34607000  1.0
  C  C29  1  0.48825000  0.34607000  0.33467000  1.0
  C  C30  1  0.53828000  0.95163000  0.19278000  1.0
  C  C31  1  0.03828000  0.19278000  0.95163000  1.0
  C  C32  1  0.82316000  0.26231000  0.56317000  1.0
  C  C33  1  0.32315000  0.56317000  0.26232000  1.0
  C  C34  1  0.93248000  0.22281000  0.43608000  1.0
  C  C35  1  0.43248000  0.43608000  0.22280000  1.0
  C  C36  1  0.82869000  0.52245000  0.50456000  1.0
  C  C37  1  0.32869000  0.50456000  0.52245000  1.0
  C  C38  1  0.77250000  0.40920000  0.59623000  1.0
  C  C39  1  0.27250000  0.59623000  0.40920000  1.0
  C  C40  1  0.63769000  0.93844000  0.28673000  1.0
  C  C41  1  0.13769000  0.28673000  0.93844000  1.0
  C  C42  1  0.32853000  0.00878000  0.40466000  1.0
  C  C43  1  0.82853000  0.40466000  0.00878000  1.0
  C  C44  1  0.38328000  0.98706000  0.25493000  1.0
  C  C45  1  0.88329000  0.25493000  0.98706000  1.0
  C  C46  1  0.93678000  0.48172000  0.37952000  1.0
  C  C47  1  0.43678000  0.37952000  0.48172000  1.0
  C  C48  1  0.58367000  0.96195000  0.43611000  1.0
  C  C49  1  0.08367000  0.43611000  0.96195000  1.0
  N  N50  1  0.83493000  0.91128000  0.39196000  1.0
  N  N51  1  0.33493000  0.39196000  0.91128000  1.0
  N  N52  1  0.65099000  0.26752000  0.76911000  1.0
  N  N53  1  0.15099000  0.76911000  0.26752000  1.0
  N  N54  1  0.71062000  0.94427000  0.49412000  1.0
  N  N55  1  0.21062000  0.49412000  0.94427000  1.0
  N  N56  1  0.66648000  0.40377000  0.72425000  1.0
  N  N57  1  0.16648000  0.72426000  0.40378000  1.0
  N  N58  1  0.74444000  0.18104000  0.67355000  1.0
  N  N59  1  0.24444000  0.67355000  0.18104000  1.0
  N  N60  1  0.79352000  0.90727000  0.26770000  1.0
  N  N61  1  0.29352000  0.26770000  0.90727000  1.0
  O  O62  1  0.48434000  0.64181000  0.86856000  1.0
  O  O63  1  0.98434000  0.86857000  0.64181000  1.0
  O  O64  1  0.50380000  0.01256000  0.82021000  1.0
  O  O65  1  0.00380000  0.82021000  0.01256000  1.0
  O  O66  1  0.30818000  0.90760000  0.93342000  1.0
  O  O67  1  0.80818000  0.93343000  0.90760000  1.0
  O  O68  1  0.68530000  0.74493000  0.76676000  1.0
  O  O69  1  0.18529000  0.76677000  0.74493000  1.0
