# generated using pymatgen
data_Zn2H18C32S(NO8)2
_symmetry_space_group_name_H-M   'P 1'
_cell_length_a   10.02000000
_cell_length_b   10.81510000
_cell_length_c   23.80650000
_cell_angle_alpha   89.57640000
_cell_angle_beta   90.13070000
_cell_angle_gamma   89.50390000
_symmetry_Int_Tables_number   1
_chemical_formula_structural   Zn2H18C32S(NO8)2
_chemical_formula_sum   'Zn4 H36 C64 S2 N4 O32'
_cell_volume   2579.67187039
_cell_formula_units_Z   2
loop_
 _symmetry_equiv_pos_site_id
 _symmetry_equiv_pos_as_xyz
  1  'x, y, z'
loop_
 _atom_site_type_symbol
 _atom_site_label
 _atom_site_symmetry_multiplicity
 _atom_site_fract_x
 _atom_site_fract_y
 _atom_site_fract_z
 _atom_site_occupancy
  Zn  Zn0  1  0.33490000  0.52511000  0.49007000  1.0
  Zn  Zn1  1  0.63670000  0.52601000  0.49527000  1.0
  Zn  Zn2  1  0.66628000  0.50537000  0.95671000  1.0
  Zn  Zn3  1  0.36666000  0.51408000  0.95384000  1.0
  H  H4  1  0.73566000  0.59723000  0.39227000  1.0
  H  H5  1  0.85656000  0.69258000  0.31220000  1.0
  H  H6  1  0.22792000  0.64985000  0.40162000  1.0
  H  H7  1  0.10289000  0.71985000  0.31739000  1.0
  H  H8  1  0.71100000  0.82057000  0.40660000  1.0
  H  H9  1  0.89011000  0.94707000  0.36706000  1.0
  H  H10  1  0.72093000  0.26989000  0.44427000  1.0
  H  H11  1  0.89477000  0.17521000  0.38583000  1.0
  H  H12  1  0.69998000  0.41960000  0.14509000  1.0
  H  H13  1  0.28715000  0.38118000  0.10310000  1.0
  H  H14  1  0.29673000  0.41820000  0.30579000  1.0
  H  H15  1  0.71128000  0.38788000  0.34782000  1.0
  H  H16  1  0.32275000  0.72626000  0.83511000  1.0
  H  H17  1  0.15338000  0.85906000  0.79045000  1.0
  H  H18  1  0.27188000  0.72938000  0.62781000  1.0
  H  H19  1  0.12644000  0.86022000  0.68576000  1.0
  H  H20  1  0.26442000  0.58953000  0.05446000  1.0
  H  H21  1  0.14059000  0.69040000  0.13207000  1.0
  H  H22  1  0.77150000  0.64207000  0.04240000  1.0
  H  H23  1  0.89411000  0.71968000  0.12511000  1.0
  H  H24  1  0.31608000  0.80639000  0.04850000  1.0
  H  H25  1  0.14424000  0.93603000  0.09253000  1.0
  H  H26  1  0.29578000  0.25508000  0.00610000  1.0
  H  H27  1  0.13223000  0.16305000  0.07047000  1.0
  H  H28  1  0.20659000  0.48848000  0.58490000  1.0
  H  H29  1  0.77332000  0.35180000  0.55129000  1.0
  H  H30  1  0.29266000  0.22834000  0.52444000  1.0
  H  H31  1  0.28836000  0.81234000  0.49463000  1.0
  H  H32  1  0.66602000  0.48064000  0.62154000  1.0
  H  H33  1  0.67808000  0.42934000  0.80870000  1.0
  H  H34  1  0.79959000  0.46688000  0.86496000  1.0
  H  H35  1  0.23940000  0.34577000  0.89547000  1.0
  H  H36  1  0.72054000  0.20837000  0.92272000  1.0
  H  H37  1  0.71533000  0.79037000  0.94115000  1.0
  H  H38  1  0.93951000  0.31693000  0.17634000  1.0
  H  H39  1  0.05872000  0.31874000  0.27542000  1.0
  C  C40  1  0.50296000  0.76119000  0.47073000  1.0
  C  C41  1  0.47257000  0.44462000  0.39161000  1.0
  C  C42  1  0.50857000  0.28635000  0.51006000  1.0
  C  C43  1  0.46218000  0.56997000  0.60152000  1.0
  C  C44  1  0.50831000  0.74381000  0.97555000  1.0
  C  C45  1  0.52464000  0.43609000  0.05832000  1.0
  C  C46  1  0.50478000  0.27130000  0.94002000  1.0
  C  C47  1  0.51386000  0.55303000  0.84508000  1.0
  C  C48  1  0.91282000  0.56721000  0.44199000  1.0
  C  C49  1  0.91625000  0.45707000  0.52672000  1.0
  C  C50  1  0.84302000  0.60998000  0.39417000  1.0
  C  C51  1  0.91091000  0.66327000  0.34978000  1.0
  C  C52  1  0.05891000  0.48223000  0.53239000  1.0
  C  C53  1  0.05401000  0.57990000  0.44435000  1.0
  C  C54  1  0.12050000  0.63786000  0.39937000  1.0
  C  C55  1  0.04995000  0.67807000  0.35255000  1.0
  C  C56  1  0.49972000  0.89812000  0.46932000  1.0
  C  C57  1  0.61095000  0.97048000  0.44935000  1.0
  C  C58  1  0.38680000  0.95812000  0.49097000  1.0
  C  C59  1  0.71301000  0.91871000  0.41556000  1.0
  C  C60  1  0.81387000  0.99016000  0.39324000  1.0
  C  C61  1  0.50525000  0.15670000  0.49116000  1.0
  C  C62  1  0.38911000  0.08897000  0.50133000  1.0
  C  C63  1  0.61437000  0.10039000  0.46062000  1.0
  C  C64  1  0.71936000  0.17094000  0.43718000  1.0
  C  C65  1  0.81692000  0.11758000  0.40402000  1.0
  C  C66  1  0.59794000  0.40534000  0.15874000  1.0
  C  C67  1  0.36460000  0.38636000  0.13498000  1.0
  C  C68  1  0.33281000  0.38292000  0.19104000  1.0
  C  C69  1  0.43041000  0.39102000  0.23441000  1.0
  C  C70  1  0.39926000  0.40544000  0.29216000  1.0
  C  C71  1  0.63352000  0.39111000  0.31596000  1.0
  C  C72  1  0.66511000  0.38601000  0.25995000  1.0
  C  C73  1  0.56705000  0.39190000  0.21661000  1.0
  C  C74  1  0.49841000  0.40532000  0.11871000  1.0
  C  C75  1  0.49910000  0.40897000  0.33202000  1.0
  C  C76  1  0.49841000  0.56816000  0.78326000  1.0
  C  C77  1  0.39549000  0.64563000  0.75793000  1.0
  C  C78  1  0.58523000  0.50173000  0.74873000  1.0
  C  C79  1  0.31143000  0.72452000  0.78977000  1.0
  C  C80  1  0.21583000  0.79940000  0.76452000  1.0
  C  C81  1  0.47142000  0.57673000  0.66360000  1.0
  C  C82  1  0.57678000  0.51150000  0.68886000  1.0
  C  C83  1  0.38021000  0.64722000  0.69778000  1.0
  C  C84  1  0.28177000  0.72577000  0.67329000  1.0
  C  C85  1  0.20049000  0.80000000  0.70584000  1.0
  C  C86  1  0.08884000  0.55647000  0.00483000  1.0
  C  C87  1  0.09076000  0.44437000  0.92136000  1.0
  C  C88  1  0.15691000  0.60202000  0.05203000  1.0
  C  C89  1  0.08732000  0.65872000  0.09497000  1.0
  C  C90  1  0.94720000  0.46623000  0.91601000  1.0
  C  C91  1  0.94724000  0.56860000  0.00193000  1.0
  C  C92  1  0.87904000  0.63030000  0.04529000  1.0
  C  C93  1  0.94819000  0.67424000  0.09127000  1.0
  C  C94  1  0.51294000  0.87997000  0.97689000  1.0
  C  C95  1  0.40650000  0.95398000  0.00078000  1.0
  C  C96  1  0.62200000  0.93847000  0.95153000  1.0
  C  C97  1  0.31144000  0.90425000  0.03845000  1.0
  C  C98  1  0.21458000  0.97750000  0.06316000  1.0
  C  C99  1  0.50679000  0.13922000  0.95651000  1.0
  C  C100  1  0.62062000  0.07005000  0.94323000  1.0
  C  C101  1  0.40104000  0.08405000  0.98896000  1.0
  C  C102  1  0.29902000  0.15621000  0.01417000  1.0
  C  C103  1  0.20768000  0.10454000  0.05073000  1.0
  S  S104  1  0.83374000  0.40156000  0.24333000  1.0
  S  S105  1  0.16367000  0.39913000  0.20707000  1.0
  N  N106  1  0.84599000  0.50776000  0.48540000  1.0
  N  N107  1  0.12450000  0.53653000  0.49093000  1.0
  N  N108  1  0.15837000  0.49629000  0.96248000  1.0
  N  N109  1  0.87856000  0.52119000  0.95615000  1.0
  O  O110  1  0.38889000  0.70440000  0.47273000  1.0
  O  O111  1  0.61439000  0.70455000  0.47222000  1.0
  O  O112  1  0.57763000  0.46035000  0.42065000  1.0
  O  O113  1  0.35374000  0.46144000  0.40848000  1.0
  O  O114  1  0.61973000  0.33884000  0.52114000  1.0
  O  O115  1  0.39557000  0.34439000  0.51477000  1.0
  O  O116  1  0.34886000  0.56463000  0.57631000  1.0
  O  O117  1  0.57368000  0.56606000  0.57487000  1.0
  O  O118  1  0.61989000  0.68567000  0.96440000  1.0
  O  O119  1  0.39924000  0.68752000  0.98296000  1.0
  O  O120  1  0.42022000  0.43866000  0.02782000  1.0
  O  O121  1  0.64205000  0.46072000  0.04211000  1.0
  O  O122  1  0.39682000  0.32697000  0.92609000  1.0
  O  O123  1  0.61955000  0.32566000  0.94065000  1.0
  O  O124  1  0.63016000  0.52093000  0.86555000  1.0
  O  O125  1  0.41263000  0.56985000  0.87616000  1.0
  O  O126  1  0.11642000  0.44828000  0.58011000  1.0
  O  O127  1  0.86217000  0.38295000  0.56467000  1.0
  O  O128  1  0.27688000  0.13699000  0.52308000  1.0
  O  O129  1  0.27375000  0.90078000  0.50569000  1.0
  O  O130  1  0.67384000  0.45125000  0.66099000  1.0
  O  O131  1  0.68094000  0.42325000  0.76739000  1.0
  O  O132  1  0.89012000  0.42875000  0.86888000  1.0
  O  O133  1  0.14729000  0.37209000  0.88354000  1.0
  O  O134  1  0.73173000  0.11692000  0.92014000  1.0
  O  O135  1  0.73059000  0.88007000  0.93200000  1.0
  O  O136  1  0.85405000  0.29722000  0.19783000  1.0
  O  O137  1  0.91250000  0.36813000  0.29308000  1.0
  O  O138  1  0.85219000  0.52207000  0.21859000  1.0
  O  O139  1  0.14451000  0.29726000  0.25432000  1.0
  O  O140  1  0.08594000  0.36332000  0.15778000  1.0
  O  O141  1  0.14286000  0.52091000  0.22963000  1.0
