# generated using pymatgen
data_PrH11C13O7
_symmetry_space_group_name_H-M   'P 1'
_cell_length_a   7.32954000
_cell_length_b   13.25780000
_cell_length_c   13.62110000
_cell_angle_alpha   99.09650000
_cell_angle_beta   90.00000000
_cell_angle_gamma   89.99980000
_symmetry_Int_Tables_number   1
_chemical_formula_structural   PrH11C13O7
_chemical_formula_sum   'Pr4 H44 C52 O28'
_cell_volume   1306.96454975
_cell_formula_units_Z   4
loop_
 _symmetry_equiv_pos_site_id
 _symmetry_equiv_pos_as_xyz
  1  'x, y, z'
loop_
 _atom_site_type_symbol
 _atom_site_label
 _atom_site_symmetry_multiplicity
 _atom_site_fract_x
 _atom_site_fract_y
 _atom_site_fract_z
 _atom_site_occupancy
  Pr  Pr0  1  0.91541000  0.81510000  0.52515000  1.0
  Pr  Pr1  1  0.41541000  0.68490000  0.47485000  1.0
  Pr  Pr2  1  0.08459000  0.18489000  0.47485000  1.0
  Pr  Pr3  1  0.58459000  0.31510000  0.52515000  1.0
  H  H4  1  0.07802000  0.01195000  0.66189000  1.0
  H  H5  1  0.57802000  0.48805000  0.33811000  1.0
  H  H6  1  0.92197000  0.98805000  0.33811000  1.0
  H  H7  1  0.42198000  0.51195000  0.66189000  1.0
  H  H8  1  0.96524000  0.93155000  0.71223000  1.0
  H  H9  1  0.46524000  0.56845000  0.28777000  1.0
  H  H10  1  0.03475000  0.06845000  0.28777000  1.0
  H  H11  1  0.53476000  0.43155000  0.71223000  1.0
  H  H12  1  0.62991000  0.84717000  0.03697000  1.0
  H  H13  1  0.12991000  0.65283000  0.96304000  1.0
  H  H14  1  0.37009000  0.15283000  0.96303000  1.0
  H  H15  1  0.87009000  0.34717000  0.03696000  1.0
  H  H16  1  0.14546000  0.90348000  0.87569000  1.0
  H  H17  1  0.64546000  0.59652000  0.12431000  1.0
  H  H18  1  0.85454000  0.09652000  0.12431000  1.0
  H  H19  1  0.35454000  0.40348000  0.87569000  1.0
  H  H20  1  0.96159000  0.90160000  0.02748000  1.0
  H  H21  1  0.46159000  0.59840000  0.97252000  1.0
  H  H22  1  0.03841000  0.09840000  0.97252000  1.0
  H  H23  1  0.53841000  0.40160000  0.02748000  1.0
  H  H24  1  0.10804000  0.86840000  0.18458000  1.0
  H  H25  1  0.60804000  0.63160000  0.81541000  1.0
  H  H26  1  0.89196000  0.13160000  0.81542000  1.0
  H  H27  1  0.39196000  0.36840000  0.18458000  1.0
  H  H28  1  0.73971000  0.88057000  0.18512000  1.0
  H  H29  1  0.23971000  0.61943000  0.81488000  1.0
  H  H30  1  0.26030000  0.11943000  0.81488000  1.0
  H  H31  1  0.76029000  0.38057000  0.18512000  1.0
  H  H32  1  0.37638000  0.81255000  0.26897000  1.0
  H  H33  1  0.87638000  0.68745000  0.73103000  1.0
  H  H34  1  0.62363000  0.18745000  0.73103000  1.0
  H  H35  1  0.12362000  0.31255000  0.26897000  1.0
  H  H36  1  0.32611000  0.87570000  0.74138000  1.0
  H  H37  1  0.82611000  0.62430000  0.25862000  1.0
  H  H38  1  0.67389000  0.12430000  0.25862000  1.0
  H  H39  1  0.17389000  0.37570000  0.74138000  1.0
  H  H40  1  0.66538000  0.86089000  0.87274000  1.0
  H  H41  1  0.16538000  0.63911000  0.12726000  1.0
  H  H42  1  0.33462000  0.13911000  0.12726000  1.0
  H  H43  1  0.83462000  0.36089000  0.87274000  1.0
  H  H44  1  0.94204000  0.55991000  0.56733000  1.0
  H  H45  1  0.44204000  0.94009000  0.43267000  1.0
  H  H46  1  0.05795000  0.44009000  0.43267000  1.0
  H  H47  1  0.55795000  0.05991000  0.56733000  1.0
  C  C48  1  0.38069000  0.85847000  0.12270000  1.0
  C  C49  1  0.88069000  0.64153000  0.87730000  1.0
  C  C50  1  0.61932000  0.14153000  0.87730000  1.0
  C  C51  1  0.11931000  0.35847000  0.12270000  1.0
  C  C52  1  0.48338000  0.86127000  0.03619000  1.0
  C  C53  1  0.98338000  0.63873000  0.96381000  1.0
  C  C54  1  0.51662000  0.13873000  0.96381000  1.0
  C  C55  1  0.01662000  0.36127000  0.03619000  1.0
  C  C56  1  0.40249000  0.87638000  0.94647000  1.0
  C  C57  1  0.90248000  0.62362000  0.05353000  1.0
  C  C58  1  0.59752000  0.12362000  0.05353000  1.0
  C  C59  1  0.09752000  0.37638000  0.94647000  1.0
  C  C60  1  0.21206000  0.89191000  0.94465000  1.0
  C  C61  1  0.71207000  0.60809000  0.05535000  1.0
  C  C62  1  0.78794000  0.10809000  0.05535000  1.0
  C  C63  1  0.28793000  0.39191000  0.94465000  1.0
  C  C64  1  0.10864000  0.89009000  0.03015000  1.0
  C  C65  1  0.60864000  0.60991000  0.96985000  1.0
  C  C66  1  0.89136000  0.10991000  0.96985000  1.0
  C  C67  1  0.39136000  0.39009000  0.03015000  1.0
  C  C68  1  0.19050000  0.87231000  0.11850000  1.0
  C  C69  1  0.69050000  0.62769000  0.88150000  1.0
  C  C70  1  0.80950000  0.12770000  0.88151000  1.0
  C  C71  1  0.30950000  0.37231000  0.11850000  1.0
  C  C72  1  0.72884000  0.83115000  0.32888000  1.0
  C  C73  1  0.22883000  0.66885000  0.67112000  1.0
  C  C74  1  0.27117000  0.16885000  0.67112000  1.0
  C  C75  1  0.77117000  0.33115000  0.32888000  1.0
  C  C76  1  0.64569000  0.85093000  0.23571000  1.0
  C  C77  1  0.14569000  0.64907000  0.76429000  1.0
  C  C78  1  0.35431000  0.14907000  0.76429000  1.0
  C  C79  1  0.85431000  0.35093000  0.23571000  1.0
  C  C80  1  0.46641000  0.83913000  0.21451000  1.0
  C  C81  1  0.96641000  0.66086000  0.78549000  1.0
  C  C82  1  0.53360000  0.16086000  0.78549000  1.0
  C  C83  1  0.03359000  0.33914000  0.21451000  1.0
  C  C84  1  0.60129000  0.84749000  0.68264000  1.0
  C  C85  1  0.10129000  0.65251000  0.31736000  1.0
  C  C86  1  0.39871000  0.15251000  0.31736000  1.0
  C  C87  1  0.89871000  0.34749000  0.68264000  1.0
  C  C88  1  0.46744000  0.86772000  0.76406000  1.0
  C  C89  1  0.96744000  0.63228000  0.23594000  1.0
  C  C90  1  0.53256000  0.13228000  0.23594000  1.0
  C  C91  1  0.03256000  0.36772000  0.76407000  1.0
  C  C92  1  0.51950000  0.86980000  0.85925000  1.0
  C  C93  1  0.01950000  0.63020000  0.14075000  1.0
  C  C94  1  0.48050000  0.13020000  0.14075000  1.0
  C  C95  1  0.98050000  0.36980000  0.85925000  1.0
  C  C96  1  0.79804000  0.56547000  0.54476000  1.0
  C  C97  1  0.29804000  0.93452000  0.45524000  1.0
  C  C98  1  0.20196000  0.43453000  0.45524000  1.0
  C  C99  1  0.70196000  0.06547000  0.54476000  1.0
  O  O100  1  0.89262000  0.86226000  0.34819000  1.0
  O  O101  1  0.39262000  0.63773000  0.65181000  1.0
  O  O102  1  0.10738000  0.13774000  0.65181000  1.0
  O  O103  1  0.60738000  0.36227000  0.34819000  1.0
  O  O104  1  0.64240000  0.78538000  0.39103000  1.0
  O  O105  1  0.14240000  0.71462000  0.60896000  1.0
  O  O106  1  0.35760000  0.21462000  0.60896000  1.0
  O  O107  1  0.85760000  0.28538000  0.39104000  1.0
  O  O108  1  0.54301000  0.83056000  0.59282000  1.0
  O  O109  1  0.04301000  0.66943000  0.40718000  1.0
  O  O110  1  0.45699000  0.16944000  0.40718000  1.0
  O  O111  1  0.95699000  0.33057000  0.59282000  1.0
  O  O112  1  0.77247000  0.84507000  0.70099000  1.0
  O  O113  1  0.27247000  0.65493000  0.29901000  1.0
  O  O114  1  0.22753000  0.15493000  0.29901000  1.0
  O  O115  1  0.72753000  0.34507000  0.70099000  1.0
  O  O116  1  0.73888000  0.65457000  0.53652000  1.0
  O  O117  1  0.23887000  0.84543000  0.46349000  1.0
  O  O118  1  0.26112000  0.34543000  0.46348000  1.0
  O  O119  1  0.76112000  0.15457000  0.53652000  1.0
  O  O120  1  0.70234000  0.48643000  0.52918000  1.0
  O  O121  1  0.20234000  0.01357000  0.47082000  1.0
  O  O122  1  0.29766000  0.51357000  0.47082000  1.0
  O  O123  1  0.79766000  0.98643000  0.52918000  1.0
  O  O124  1  0.07165000  0.93855000  0.66982000  1.0
  O  O125  1  0.57165000  0.56145000  0.33018000  1.0
  O  O126  1  0.92835000  0.06145000  0.33018000  1.0
  O  O127  1  0.42835000  0.43855000  0.66982000  1.0
