# generated using pymatgen
data_CuH4C2N5
_symmetry_space_group_name_H-M   'P 1'
_cell_length_a   4.28416000
_cell_length_b   14.13580000
_cell_length_c   14.13580000
_cell_angle_alpha   90.00000000
_cell_angle_beta   90.00040000
_cell_angle_gamma   89.99990000
_symmetry_Int_Tables_number   1
_chemical_formula_structural   CuH4C2N5
_chemical_formula_sum   'Cu8 H32 C16 N40'
_cell_volume   856.06445690
_cell_formula_units_Z   8
loop_
 _symmetry_equiv_pos_site_id
 _symmetry_equiv_pos_as_xyz
  1  'x, y, z'
loop_
 _atom_site_type_symbol
 _atom_site_label
 _atom_site_symmetry_multiplicity
 _atom_site_fract_x
 _atom_site_fract_y
 _atom_site_fract_z
 _atom_site_occupancy
  Cu  Cu0  1  0.20510000  0.39632000  0.48916000  1.0
  Cu  Cu1  1  0.70510000  0.48916000  0.10368000  1.0
  Cu  Cu2  1  0.70509000  0.01084000  0.39632000  1.0
  Cu  Cu3  1  0.20509000  0.10368000  0.01084000  1.0
  Cu  Cu4  1  0.79490000  0.60368000  0.51084000  1.0
  Cu  Cu5  1  0.29490000  0.51084000  0.89632000  1.0
  Cu  Cu6  1  0.29490000  0.98916000  0.60368000  1.0
  Cu  Cu7  1  0.79491000  0.89632000  0.98916000  1.0
  H  H8  1  0.45724000  0.66884000  0.34589000  1.0
  H  H9  1  0.95724000  0.34590000  0.83116000  1.0
  H  H10  1  0.95725000  0.15410000  0.66884000  1.0
  H  H11  1  0.45724000  0.83116000  0.15410000  1.0
  H  H12  1  0.54275000  0.33116000  0.65410000  1.0
  H  H13  1  0.04276000  0.65410000  0.16884000  1.0
  H  H14  1  0.04275000  0.84590000  0.33116000  1.0
  H  H15  1  0.54274000  0.16884000  0.84590000  1.0
  H  H16  1  0.52681000  0.66057000  0.22625000  1.0
  H  H17  1  0.02679000  0.22626000  0.83942000  1.0
  H  H18  1  0.02681000  0.27375000  0.66057000  1.0
  H  H19  1  0.52680000  0.83943000  0.27375000  1.0
  H  H20  1  0.47319000  0.33943000  0.77375000  1.0
  H  H21  1  0.97321000  0.77374000  0.16057000  1.0
  H  H22  1  0.97319000  0.72625000  0.33943000  1.0
  H  H23  1  0.47319000  0.16057000  0.72625000  1.0
  H  H24  1  0.33560000  0.33161000  0.28434000  1.0
  H  H25  1  0.83560000  0.28433000  0.16838000  1.0
  H  H26  1  0.83560000  0.21566000  0.33162000  1.0
  H  H27  1  0.33559000  0.16839000  0.21566000  1.0
  H  H28  1  0.66440000  0.66839000  0.71566000  1.0
  H  H29  1  0.16440000  0.71566000  0.83162000  1.0
  H  H30  1  0.16441000  0.78434000  0.66839000  1.0
  H  H31  1  0.66440000  0.83161000  0.78434000  1.0
  H  H32  1  0.27356000  0.38560000  0.17904000  1.0
  H  H33  1  0.77356000  0.17904000  0.11439000  1.0
  H  H34  1  0.77356000  0.32096000  0.38561000  1.0
  H  H35  1  0.27356000  0.11439000  0.32097000  1.0
  H  H36  1  0.72644000  0.61439000  0.82096000  1.0
  H  H37  1  0.22645000  0.82096000  0.88561000  1.0
  H  H38  1  0.22645000  0.67904000  0.61440000  1.0
  H  H39  1  0.72645000  0.88560000  0.67904000  1.0
  C  C40  1  0.71198000  0.55589000  0.30581000  1.0
  C  C41  1  0.21199000  0.30582000  0.94410000  1.0
  C  C42  1  0.21198000  0.19418000  0.55589000  1.0
  C  C43  1  0.71197000  0.94411000  0.19419000  1.0
  C  C44  1  0.28801000  0.44411000  0.69419000  1.0
  C  C45  1  0.78802000  0.69418000  0.05589000  1.0
  C  C46  1  0.78801000  0.80582000  0.44411000  1.0
  C  C47  1  0.28802000  0.05589000  0.80581000  1.0
  C  C48  1  0.02137000  0.43911000  0.28576000  1.0
  C  C49  1  0.52137000  0.28576000  0.06088000  1.0
  C  C50  1  0.52136000  0.21424000  0.43912000  1.0
  C  C51  1  0.02137000  0.06089000  0.21424000  1.0
  C  C52  1  0.97862000  0.56089000  0.71424000  1.0
  C  C53  1  0.47863000  0.71424000  0.93912000  1.0
  C  C54  1  0.47863000  0.78577000  0.56088000  1.0
  C  C55  1  0.97862000  0.93911000  0.78576000  1.0
  N  N56  1  0.01661000  0.45554000  0.37903000  1.0
  N  N57  1  0.51661000  0.37904000  0.04445000  1.0
  N  N58  1  0.51660000  0.12096000  0.45554000  1.0
  N  N59  1  0.01660000  0.04446000  0.12097000  1.0
  N  N60  1  0.98339000  0.54446000  0.62096000  1.0
  N  N61  1  0.48339000  0.62097000  0.95554000  1.0
  N  N62  1  0.48340000  0.87903000  0.54446000  1.0
  N  N63  1  0.98339000  0.95554000  0.87904000  1.0
  N  N64  1  0.81517000  0.53343000  0.39191000  1.0
  N  N65  1  0.31516000  0.39191000  0.96657000  1.0
  N  N66  1  0.31516000  0.10809000  0.53342000  1.0
  N  N67  1  0.81516000  0.96658000  0.10809000  1.0
  N  N68  1  0.18484000  0.46658000  0.60809000  1.0
  N  N69  1  0.68483000  0.60809000  0.03343000  1.0
  N  N70  1  0.68484000  0.89191000  0.46658000  1.0
  N  N71  1  0.18484000  0.03342000  0.89192000  1.0
  N  N72  1  0.49472000  0.62616000  0.28875000  1.0
  N  N73  1  0.99472000  0.28876000  0.87383000  1.0
  N  N74  1  0.99472000  0.21124000  0.62617000  1.0
  N  N75  1  0.49471000  0.87384000  0.21124000  1.0
  N  N76  1  0.50528000  0.37384000  0.71124000  1.0
  N  N77  1  0.00529000  0.71124000  0.12617000  1.0
  N  N78  1  0.00528000  0.78876000  0.37383000  1.0
  N  N79  1  0.50528000  0.12616000  0.78876000  1.0
  N  N80  1  0.83251000  0.49947000  0.23656000  1.0
  N  N81  1  0.33251000  0.23657000  0.00052000  1.0
  N  N82  1  0.33251000  0.26343000  0.49947000  1.0
  N  N83  1  0.83250000  0.00053000  0.26344000  1.0
  N  N84  1  0.16749000  0.50053000  0.76343000  1.0
  N  N85  1  0.66750000  0.76343000  0.99948000  1.0
  N  N86  1  0.66750000  0.73657000  0.50053000  1.0
  N  N87  1  0.16749000  0.99947000  0.73657000  1.0
  N  N88  1  0.17560000  0.36597000  0.24229000  1.0
  N  N89  1  0.67561000  0.24229000  0.13402000  1.0
  N  N90  1  0.67561000  0.25771000  0.36597000  1.0
  N  N91  1  0.17560000  0.13403000  0.25771000  1.0
  N  N92  1  0.82440000  0.63403000  0.75771000  1.0
  N  N93  1  0.32440000  0.75771000  0.86597000  1.0
  N  N94  1  0.32440000  0.74229000  0.63403000  1.0
  N  N95  1  0.82440000  0.86597000  0.74229000  1.0
