# generated using pymatgen
data_Hf3H17C60Br15N9O16
_symmetry_space_group_name_H-M   'P 1'
_cell_length_a   19.69370000
_cell_length_b   19.71100000
_cell_length_c   19.75920000
_cell_angle_alpha   91.92760000
_cell_angle_beta   92.73890000
_cell_angle_gamma   91.60510000
_symmetry_Int_Tables_number   1
_chemical_formula_structural   Hf3H17C60Br15N9O16
_chemical_formula_sum   'Hf6 H34 C120 Br30 N18 O32'
_cell_volume   7653.70804153
_cell_formula_units_Z   2
loop_
 _symmetry_equiv_pos_site_id
 _symmetry_equiv_pos_as_xyz
  1  'x, y, z'
loop_
 _atom_site_type_symbol
 _atom_site_label
 _atom_site_symmetry_multiplicity
 _atom_site_fract_x
 _atom_site_fract_y
 _atom_site_fract_z
 _atom_site_occupancy
  Hf  Hf0  1  0.80993000  0.95866000  0.86568000  1.0
  Hf  Hf1  1  0.77589000  0.85929000  0.00421000  1.0
  Hf  Hf2  1  0.97667000  0.98768000  0.93068000  1.0
  Hf  Hf3  1  0.91135000  0.82086000  0.90285000  1.0
  Hf  Hf4  1  0.83982000  0.02476000  0.03152000  1.0
  Hf  Hf5  1  0.94346000  0.88718000  0.06834000  1.0
  H  H6  1  0.77277000  0.81884000  0.86499000  1.0
  H  H7  1  0.87615000  0.08378000  0.90985000  1.0
  H  H8  1  0.03706000  0.86497000  0.96757000  1.0
  H  H9  1  0.82219000  0.92369000  0.12768000  1.0
  H  H10  1  0.26514000  0.79965000  0.79215000  1.0
  H  H11  1  0.08028000  0.95619000  0.73563000  1.0
  H  H12  1  0.42382000  0.89974000  0.84684000  1.0
  H  H13  1  0.64881000  0.85839000  0.75559000  1.0
  H  H14  1  0.32454000  0.96018000  0.09239000  1.0
  H  H15  1  0.09943000  0.00611000  0.18232000  1.0
  H  H16  1  0.53266000  0.08597000  0.21158000  1.0
  H  H17  1  0.61945000  0.86813000  0.12489000  1.0
  H  H18  1  0.46870000  0.00190000  0.42355000  1.0
  H  H19  1  0.28412000  0.86026000  0.51212000  1.0
  H  H20  1  0.55809000  0.23493000  0.95713000  1.0
  H  H21  1  0.77976000  0.20267000  0.85335000  1.0
  H  H22  1  0.72538000  0.48796000  0.86210000  1.0
  H  H23  1  0.71524000  0.67377000  0.03506000  1.0
  H  H24  1  0.08717000  0.14657000  0.06960000  1.0
  H  H25  1  0.00712000  0.36559000  0.98496000  1.0
  H  H26  1  0.01608000  0.50607000  0.01254000  1.0
  H  H27  1  0.13466000  0.73025000  0.04133000  1.0
  H  H28  1  0.43536000  0.31676000  0.93588000  1.0
  H  H29  1  0.32020000  0.52612000  0.99972000  1.0
  H  H30  1  0.73623000  0.78848000  0.22029000  1.0
  H  H31  1  0.91376000  0.63503000  0.30467000  1.0
  H  H32  1  0.74802000  0.65960000  0.61669000  1.0
  H  H33  1  0.90732000  0.86001000  0.64189000  1.0
  H  H34  1  0.92626000  0.05427000  0.41342000  1.0
  H  H35  1  0.93587000  0.14476000  0.18417000  1.0
  H  H36  1  0.86223000  0.00809000  0.67124000  1.0
  H  H37  1  0.98019000  0.23128000  0.65447000  1.0
  H  H38  1  0.81570000  0.34590000  0.54266000  1.0
  H  H39  1  0.94590000  0.50842000  0.40930000  1.0
  C  C40  1  0.92480000  0.18765000  0.53535000  1.0
  C  C41  1  0.91382000  0.28488000  0.47893000  1.0
  C  C42  1  0.93187000  0.18607000  0.42068000  1.0
  C  C43  1  0.82405000  0.65536000  0.39560000  1.0
  C  C44  1  0.82375000  0.67210000  0.50925000  1.0
  C  C45  1  0.84340000  0.56776000  0.46465000  1.0
  C  C46  1  0.14571000  0.49062000  0.02014000  1.0
  C  C47  1  0.23523000  0.42384000  0.99914000  1.0
  C  C48  1  0.13495000  0.37597000  0.02723000  1.0
  C  C49  1  0.61183000  0.35106000  0.92103000  1.0
  C  C50  1  0.52334000  0.41725000  0.94800000  1.0
  C  C51  1  0.63025000  0.46286000  0.94672000  1.0
  C  C52  1  0.44846000  0.97786000  0.23574000  1.0
  C  C53  1  0.38455000  0.95663000  0.32500000  1.0
  C  C54  1  0.33384000  0.98208000  0.22374000  1.0
  C  C55  1  0.30038000  0.88308000  0.69784000  1.0
  C  C56  1  0.41526000  0.88311000  0.71363000  1.0
  C  C57  1  0.36703000  0.90637000  0.61074000  1.0
  C  C58  1  0.91751000  0.04726000  0.78835000  1.0
  C  C59  1  0.66312000  0.89212000  0.88311000  1.0
  C  C60  1  0.84048000  0.83761000  0.75633000  1.0
  C  C61  1  0.74278000  0.09515000  0.92265000  1.0
  C  C62  1  0.84117000  0.79020000  0.14176000  1.0
  C  C63  1  0.08641000  0.96306000  0.05548000  1.0
  C  C64  1  0.79147000  0.71168000  0.93976000  1.0
  C  C65  1  0.69941000  0.96723000  0.09327000  1.0
  C  C66  1  0.96501000  0.13181000  0.00676000  1.0
  C  C67  1  0.04872000  0.87990000  0.83693000  1.0
  C  C68  1  0.00081000  0.74286000  0.01115000  1.0
  C  C69  1  0.91677000  0.01398000  0.17578000  1.0
  C  C70  1  0.22311000  0.83188000  0.77801000  1.0
  C  C71  1  0.23258000  0.87890000  0.72712000  1.0
  C  C72  1  0.17891000  0.92199000  0.71008000  1.0
  C  C73  1  0.11951000  0.91937000  0.74544000  1.0
  C  C74  1  0.11030000  0.87221000  0.79584000  1.0
  C  C75  1  0.16233000  0.82726000  0.81090000  1.0
  C  C76  1  0.47345000  0.88905000  0.82760000  1.0
  C  C77  1  0.47738000  0.87560000  0.75753000  1.0
  C  C78  1  0.54145000  0.86055000  0.73264000  1.0
  C  C79  1  0.59912000  0.86625000  0.77585000  1.0
  C  C80  1  0.59543000  0.88211000  0.84528000  1.0
  C  C81  1  0.53117000  0.89083000  0.87137000  1.0
  C  C82  1  0.27495000  0.97188000  0.11112000  1.0
  C  C83  1  0.27116000  0.98896000  0.18051000  1.0
  C  C84  1  0.20721000  0.00512000  0.20504000  1.0
  C  C85  1  0.14919000  0.99764000  0.16224000  1.0
  C  C86  1  0.15298000  0.97766000  0.09382000  1.0
  C  C87  1  0.21701000  0.96709000  0.06789000  1.0
  C  C88  1  0.55206000  0.03779000  0.19346000  1.0
  C  C89  1  0.51539000  0.97764000  0.20342000  1.0
  C  C90  1  0.54125000  0.91615000  0.17985000  1.0
  C  C91  1  0.60062000  0.91563000  0.14512000  1.0
  C  C92  1  0.63775000  0.97599000  0.13400000  1.0
  C  C93  1  0.61334000  0.03751000  0.16032000  1.0
  C  C94  1  0.42831000  0.97058000  0.44339000  1.0
  C  C95  1  0.37904000  0.94066000  0.39720000  1.0
  C  C96  1  0.32676000  0.90002000  0.42275000  1.0
  C  C97  1  0.32442000  0.89159000  0.49216000  1.0
  C  C98  1  0.37352000  0.92179000  0.53845000  1.0
  C  C99  1  0.42588000  0.96231000  0.51288000  1.0
  C  C100  1  0.60696000  0.22726000  0.93492000  1.0
  C  C101  1  0.64016000  0.28352000  0.90766000  1.0
  C  C102  1  0.70129000  0.27290000  0.87501000  1.0
  C  C103  1  0.73154000  0.20997000  0.87708000  1.0
  C  C104  1  0.70133000  0.15646000  0.91038000  1.0
  C  C105  1  0.63681000  0.16428000  0.93574000  1.0
  C  C106  1  0.72307000  0.52951000  0.89960000  1.0
  C  C107  1  0.67724000  0.52299000  0.95131000  1.0
  C  C108  1  0.67708000  0.57446000  0.00225000  1.0
  C  C109  1  0.71671000  0.63297000  0.99675000  1.0
  C  C110  1  0.75915000  0.64207000  0.94213000  1.0
  C  C111  1  0.76439000  0.58765000  0.89485000  1.0
  C  C112  1  0.06903000  0.19498000  0.05199000  1.0
  C  C113  1  0.00367000  0.19787000  0.02119000  1.0
  C  C114  1  0.98067000  0.26043000  0.99938000  1.0
  C  C115  1  0.02389000  0.31758000  0.00462000  1.0
  C  C116  1  0.09058000  0.31451000  0.03284000  1.0
  C  C117  1  0.11164000  0.25261000  0.05931000  1.0
  C  C118  1  0.04181000  0.55565000  0.01737000  1.0
  C  C119  1  0.11324000  0.55761000  0.02452000  1.0
  C  C120  1  0.14621000  0.62192000  0.03420000  1.0
  C  C121  1  0.10845000  0.68096000  0.03360000  1.0
  C  C122  1  0.03775000  0.67816000  0.02228000  1.0
  C  C123  1  0.00457000  0.61415000  0.01579000  1.0
  C  C124  1  0.40969000  0.36270000  0.95076000  1.0
  C  C125  1  0.44948000  0.42322000  0.95808000  1.0
  C  C126  1  0.41530000  0.48339000  0.97437000  1.0
  C  C127  1  0.34626000  0.47996000  0.98620000  1.0
  C  C128  1  0.30724000  0.41907000  0.98135000  1.0
  C  C129  1  0.34037000  0.35965000  0.96091000  1.0
  C  C130  1  0.77600000  0.75602000  0.23983000  1.0
  C  C131  1  0.83373000  0.74681000  0.20203000  1.0
  C  C132  1  0.88355000  0.70249000  0.22601000  1.0
  C  C133  1  0.87568000  0.67005000  0.28665000  1.0
  C  C134  1  0.82082000  0.68360000  0.32707000  1.0
  C  C135  1  0.77010000  0.72632000  0.30233000  1.0
  C  C136  1  0.78174000  0.70441000  0.62195000  1.0
  C  C137  1  0.82439000  0.71941000  0.56924000  1.0
  C  C138  1  0.86781000  0.77731000  0.57609000  1.0
  C  C139  1  0.87081000  0.81742000  0.63572000  1.0
  C  C140  1  0.82909000  0.80158000  0.68843000  1.0
  C  C141  1  0.78307000  0.74620000  0.68003000  1.0
  C  C142  1  0.93026000  0.07357000  0.36274000  1.0
  C  C143  1  0.93590000  0.14466000  0.35683000  1.0
  C  C144  1  0.94046000  0.16965000  0.29087000  1.0
  C  C145  1  0.93572000  0.12474000  0.23488000  1.0
  C  C146  1  0.92877000  0.05433000  0.24122000  1.0
  C  C147  1  0.92739000  0.02890000  0.30661000  1.0
  C  C148  1  0.89090000  0.05558000  0.66641000  1.0
  C  C149  1  0.92519000  0.08507000  0.72446000  1.0
  C  C150  1  0.95867000  0.14840000  0.71950000  1.0
  C  C151  1  0.95654000  0.18098000  0.65789000  1.0
  C  C152  1  0.92405000  0.15049000  0.59935000  1.0
  C  C153  1  0.89114000  0.08665000  0.60442000  1.0
  C  C154  1  0.84462000  0.38190000  0.51390000  1.0
  C  C155  1  0.90007000  0.35866000  0.47857000  1.0
  C  C156  1  0.93763000  0.40583000  0.44252000  1.0
  C  C157  1  0.91719000  0.47257000  0.43840000  1.0
  C  C158  1  0.86075000  0.49547000  0.47232000  1.0
  C  C159  1  0.82530000  0.44929000  0.51130000  1.0
  Br  Br160  1  0.15456000  0.76333000  0.88046000  1.0
  Br  Br161  1  0.18480000  0.99124000  0.64576000  1.0
  Br  Br162  1  0.52023000  0.91001000  0.96520000  1.0
  Br  Br163  1  0.55559000  0.82842000  0.64274000  1.0
  Br  Br164  1  0.22665000  0.93908000  0.97592000  1.0
  Br  Br165  1  0.19413000  0.04016000  0.29403000  1.0
  Br  Br166  1  0.65829000  0.12316000  0.15363000  1.0
  Br  Br167  1  0.49437000  0.83224000  0.19267000  1.0
  Br  Br168  1  0.49211000  0.01262000  0.56852000  1.0
  Br  Br169  1  0.26059000  0.84996000  0.36680000  1.0
  Br  Br170  1  0.58964000  0.08789000  0.96900000  1.0
  Br  Br171  1  0.74539000  0.33868000  0.82267000  1.0
  Br  Br172  1  0.82459000  0.58812000  0.82281000  1.0
  Br  Br173  1  0.62790000  0.56566000  0.08197000  1.0
  Br  Br174  1  0.19567000  0.24352000  0.10889000  1.0
  Br  Br175  1  0.89247000  0.26833000  0.95715000  1.0
  Br  Br176  1  0.90863000  0.60387000  0.00761000  1.0
  Br  Br177  1  0.24143000  0.63557000  0.05219000  1.0
  Br  Br178  1  0.29657000  0.27362000  0.94121000  1.0
  Br  Br179  1  0.45444000  0.57282000  0.98042000  1.0
  Br  Br180  1  0.69039000  0.74293000  0.34987000  1.0
  Br  Br181  1  0.96276000  0.68247000  0.17940000  1.0
  Br  Br182  1  0.72129000  0.72770000  0.74893000  1.0
  Br  Br183  1  0.92948000  0.80083000  0.50898000  1.0
  Br  Br184  1  0.91465000  0.93456000  0.32140000  1.0
  Br  Br185  1  0.95314000  0.26217000  0.26970000  1.0
  Br  Br186  1  0.83897000  0.04192000  0.53165000  1.0
  Br  Br187  1  0.00275000  0.19492000  0.79587000  1.0
  Br  Br188  1  0.74676000  0.47411000  0.55755000  1.0
  Br  Br189  1  0.02063000  0.38339000  0.40345000  1.0
  N  N190  1  0.91400000  0.25487000  0.53900000  1.0
  N  N191  1  0.92081000  0.25290000  0.41865000  1.0
  N  N192  1  0.93612000  0.15182000  0.47867000  1.0
  N  N193  1  0.81447000  0.69850000  0.44800000  1.0
  N  N194  1  0.83420000  0.60627000  0.52071000  1.0
  N  N195  1  0.84209000  0.59044000  0.40117000  1.0
  N  N196  1  0.20988000  0.48683000  0.00159000  1.0
  N  N197  1  0.20014000  0.36714000  0.01273000  1.0
  N  N198  1  0.10554000  0.43620000  0.03243000  1.0
  N  N199  1  0.54497000  0.35514000  0.92967000  1.0
  N  N200  1  0.56452000  0.47238000  0.95803000  1.0
  N  N201  1  0.65673000  0.40375000  0.92813000  1.0
  N  N202  1  0.44752000  0.96396000  0.30163000  1.0
  N  N203  1  0.32680000  0.96431000  0.28791000  1.0
  N  N204  1  0.39414000  0.98903000  0.19467000  1.0
  N  N205  1  0.35439000  0.87436000  0.74073000  1.0
  N  N206  1  0.42389000  0.90212000  0.64997000  1.0
  N  N207  1  0.30373000  0.89549000  0.63176000  1.0
  O  O208  1  0.96704000  0.04309000  0.83129000  1.0
  O  O209  1  0.67584000  0.86465000  0.93912000  1.0
  O  O210  1  0.81276000  0.89376000  0.76798000  1.0
  O  O211  1  0.75078000  0.05363000  0.87355000  1.0
  O  O212  1  0.76978000  0.09344000  0.98259000  1.0
  O  O213  1  0.87900000  0.80543000  0.79711000  1.0
  O  O214  1  0.70500000  0.92791000  0.85040000  1.0
  O  O215  1  0.85790000  0.02058000  0.79292000  1.0
  O  O216  1  0.79200000  0.95354000  0.96697000  1.0
  O  O217  1  0.90556000  0.92233000  0.88292000  1.0
  O  O218  1  0.80189000  0.84961000  0.89376000  1.0
  O  O219  1  0.87547000  0.03783000  0.92600000  1.0
  O  O220  1  0.78976000  0.79789000  0.10168000  1.0
  O  O221  1  0.07346000  0.98933000  0.99885000  1.0
  O  O222  1  0.84405000  0.72393000  0.90732000  1.0
  O  O223  1  0.74165000  0.01601000  0.08663000  1.0
  O  O224  1  0.90866000  0.12037000  0.03335000  1.0
  O  O225  1  0.00734000  0.83043000  0.84320000  1.0
  O  O226  1  0.00126000  0.78812000  0.05825000  1.0
  O  O227  1  0.94550000  0.95824000  0.16478000  1.0
  O  O228  1  0.97337000  0.74654000  0.95147000  1.0
  O  O229  1  0.87585000  0.04318000  0.13434000  1.0
  O  O230  1  0.75925000  0.75630000  0.97361000  1.0
  O  O231  1  0.04482000  0.93993000  0.86299000  1.0
  O  O232  1  0.99553000  0.09160000  0.96708000  1.0
  O  O233  1  0.70513000  0.90696000  0.06760000  1.0
  O  O234  1  0.89967000  0.81944000  0.13832000  1.0
  O  O235  1  0.04678000  0.92356000  0.08673000  1.0
  O  O236  1  0.93110000  0.97767000  0.02131000  1.0
  O  O237  1  0.87739000  0.83849000  0.99801000  1.0
  O  O238  1  0.99117000  0.88176000  0.96710000  1.0
  O  O239  1  0.83782000  0.92339000  0.08187000  1.0
