# generated using pymatgen
data_HoAgH8C14(NO4)2
_symmetry_space_group_name_H-M   'P 1'
_cell_length_a   9.44819000
_cell_length_b   11.99682581
_cell_length_c   16.63650000
_cell_angle_alpha   96.74150650
_cell_angle_beta   90.00240000
_cell_angle_gamma   113.17218614
_symmetry_Int_Tables_number   1
_chemical_formula_structural   HoAgH8C14(NO4)2
_chemical_formula_sum   'Ho4 Ag4 H32 C56 N8 O32'
_cell_volume   1719.39592494
_cell_formula_units_Z   4
loop_
 _symmetry_equiv_pos_site_id
 _symmetry_equiv_pos_as_xyz
  1  'x, y, z'
loop_
 _atom_site_type_symbol
 _atom_site_label
 _atom_site_symmetry_multiplicity
 _atom_site_fract_x
 _atom_site_fract_y
 _atom_site_fract_z
 _atom_site_occupancy
  Ho  Ho0  1  0.69821000  0.99019000  0.56724000  1.0
  Ho  Ho1  1  0.70800000  0.00982000  0.93278000  1.0
  Ho  Ho2  1  0.30180000  0.00981000  0.43276000  1.0
  Ho  Ho3  1  0.29199000  0.99018000  0.06722000  1.0
  Ag  Ag4  1  0.27821000  0.32213000  0.58469000  1.0
  Ag  Ag5  1  0.95605000  0.67787000  0.91538000  1.0
  Ag  Ag6  1  0.72177000  0.67787000  0.41531000  1.0
  Ag  Ag7  1  0.04395000  0.32213000  0.08462000  1.0
  H  H8  1  0.87241000  0.35705000  0.62282000  1.0
  H  H9  1  0.51548000  0.64294000  0.87722000  1.0
  H  H10  1  0.12760000  0.64296000  0.37718000  1.0
  H  H11  1  0.48452000  0.35706000  0.12278000  1.0
  H  H12  1  0.59649000  0.18999000  0.27976000  1.0
  H  H13  1  0.40671000  0.81023000  0.22021000  1.0
  H  H14  1  0.40350000  0.81000000  0.72024000  1.0
  H  H15  1  0.59329000  0.18977000  0.77978000  1.0
  H  H16  1  0.97335000  0.08939000  0.33508000  1.0
  H  H17  1  0.88406000  0.91070000  0.16484000  1.0
  H  H18  1  0.02667000  0.91062000  0.66492000  1.0
  H  H19  1  0.11594000  0.08930000  0.83516000  1.0
  H  H20  1  0.57150000  0.40960000  0.45134000  1.0
  H  H21  1  0.16202000  0.59027000  0.04865000  1.0
  H  H22  1  0.42849000  0.59040000  0.54867000  1.0
  H  H23  1  0.83798000  0.40974000  0.95135000  1.0
  H  H24  1  0.03078000  0.58684000  0.63809000  1.0
  H  H25  1  0.44417000  0.41311000  0.86182000  1.0
  H  H26  1  0.96922000  0.41317000  0.36191000  1.0
  H  H27  1  0.55582000  0.58689000  0.13818000  1.0
  H  H28  1  0.11246000  0.20139000  0.22226000  1.0
  H  H29  1  0.91123000  0.79860000  0.27760000  1.0
  H  H30  1  0.88754000  0.79861000  0.77773000  1.0
  H  H31  1  0.08877000  0.20140000  0.72240000  1.0
  H  H32  1  0.95200000  0.71319000  0.55243000  1.0
  H  H33  1  0.23916000  0.28670000  0.94755000  1.0
  H  H34  1  0.04799000  0.28681000  0.44757000  1.0
  H  H35  1  0.76084000  0.71330000  0.05245000  1.0
  H  H36  1  0.75355000  0.30480000  0.17304000  1.0
  H  H37  1  0.44904000  0.69541000  0.32688000  1.0
  H  H38  1  0.24645000  0.69520000  0.82696000  1.0
  H  H39  1  0.55095000  0.30459000  0.67312000  1.0
  C  C40  1  0.84150000  0.41823000  0.58961000  1.0
  C  C41  1  0.42347000  0.58170000  0.91043000  1.0
  C  C42  1  0.15850000  0.58177000  0.41039000  1.0
  C  C43  1  0.57653000  0.41830000  0.08957000  1.0
  C  C44  1  0.71118000  0.19192000  0.26961000  1.0
  C  C45  1  0.51951000  0.80835000  0.23035000  1.0
  C  C46  1  0.28882000  0.80808000  0.73039000  1.0
  C  C47  1  0.48049000  0.19165000  0.76964000  1.0
  C  C48  1  0.70986000  0.36905000  0.53709000  1.0
  C  C49  1  0.34105000  0.63088000  0.96299000  1.0
  C  C50  1  0.29014000  0.63095000  0.46291000  1.0
  C  C51  1  0.65896000  0.36913000  0.03700000  1.0
  C  C52  1  0.92022000  0.13499000  0.29983000  1.0
  C  C53  1  0.78540000  0.86514000  0.20010000  1.0
  C  C54  1  0.07979000  0.86502000  0.70017000  1.0
  C  C55  1  0.21460000  0.13485000  0.79990000  1.0
  C  C56  1  0.03488000  0.06989000  0.51120000  1.0
  C  C57  1  0.96509000  0.93013000  0.98872000  1.0
  C  C58  1  0.96513000  0.93009000  0.48880000  1.0
  C  C59  1  0.03491000  0.06989000  0.01127000  1.0
  C  C60  1  0.67298000  0.44669000  0.49293000  1.0
  C  C61  1  0.22649000  0.55322000  0.00708000  1.0
  C  C62  1  0.32702000  0.55331000  0.50707000  1.0
  C  C63  1  0.77351000  0.44679000  0.99292000  1.0
  C  C64  1  0.92853000  0.54380000  0.59719000  1.0
  C  C65  1  0.38497000  0.45612000  0.90279000  1.0
  C  C66  1  0.07148000  0.45621000  0.40281000  1.0
  C  C67  1  0.61502000  0.54387000  0.09720000  1.0
  C  C68  1  0.61150000  0.23426000  0.52487000  1.0
  C  C69  1  0.37765000  0.76570000  0.97529000  1.0
  C  C70  1  0.38850000  0.76574000  0.47513000  1.0
  C  C71  1  0.62236000  0.23430000  0.02470000  1.0
  C  C72  1  0.67589000  0.05413000  0.37801000  1.0
  C  C73  1  0.62207000  0.94623000  0.12199000  1.0
  C  C74  1  0.32410000  0.94586000  0.62198000  1.0
  C  C75  1  0.37794000  0.05377000  0.87800000  1.0
  C  C76  1  0.99898000  0.19827000  0.23775000  1.0
  C  C77  1  0.80089000  0.80181000  0.26215000  1.0
  C  C78  1  0.00103000  0.80174000  0.76225000  1.0
  C  C79  1  0.19910000  0.19818000  0.73784000  1.0
  C  C80  1  0.88568000  0.61520000  0.55005000  1.0
  C  C81  1  0.27078000  0.38471000  0.94995000  1.0
  C  C82  1  0.11432000  0.38481000  0.44995000  1.0
  C  C83  1  0.72922000  0.61529000  0.05005000  1.0
  C  C84  1  0.77875000  0.07094000  0.75553000  1.0
  C  C85  1  0.70803000  0.92924000  0.74455000  1.0
  C  C86  1  0.22125000  0.92905000  0.24448000  1.0
  C  C87  1  0.29196000  0.07075000  0.25545000  1.0
  C  C88  1  0.79792000  0.25516000  0.20972000  1.0
  C  C89  1  0.54303000  0.74505000  0.29022000  1.0
  C  C90  1  0.20208000  0.74484000  0.79029000  1.0
  C  C91  1  0.45696000  0.25495000  0.70977000  1.0
  C  C92  1  0.77164000  0.12840000  0.31509000  1.0
  C  C93  1  0.64347000  0.87187000  0.18488000  1.0
  C  C94  1  0.22835000  0.87159000  0.68491000  1.0
  C  C95  1  0.35653000  0.12813000  0.81511000  1.0
  N  N96  1  0.76074000  0.56727000  0.49799000  1.0
  N  N97  1  0.19371000  0.43262000  0.00198000  1.0
  N  N98  1  0.23926000  0.43273000  0.50201000  1.0
  N  N99  1  0.80629000  0.56738000  0.99802000  1.0
  N  N100  1  0.93821000  0.25671000  0.19243000  1.0
  N  N101  1  0.68174000  0.74343000  0.30749000  1.0
  N  N102  1  0.06178000  0.74329000  0.80757000  1.0
  N  N103  1  0.31824000  0.25656000  0.69250000  1.0
  O  O104  1  0.96361000  0.11629000  0.55936000  1.0
  O  O105  1  0.84758000  0.88381000  0.94048000  1.0
  O  O106  1  0.03640000  0.88370000  0.44065000  1.0
  O  O107  1  0.15244000  0.11621000  0.05952000  1.0
  O  O108  1  0.78867000  0.12154000  0.69200000  1.0
  O  O109  1  0.66732000  0.87860000  0.80804000  1.0
  O  O110  1  0.21132000  0.87845000  0.30800000  1.0
  O  O111  1  0.33266000  0.12139000  0.19195000  1.0
  O  O112  1  0.74264000  0.01372000  0.42610000  1.0
  O  O113  1  0.72921000  0.98649000  0.07389000  1.0
  O  O114  1  0.25735000  0.98627000  0.57390000  1.0
  O  O115  1  0.27080000  0.01351000  0.92611000  1.0
  O  O116  1  0.67390000  0.16531000  0.54498000  1.0
  O  O117  1  0.50902000  0.83454000  0.95522000  1.0
  O  O118  1  0.32612000  0.83469000  0.45502000  1.0
  O  O119  1  0.49099000  0.16546000  0.04478000  1.0
  O  O120  1  0.53554000  0.03909000  0.37739000  1.0
  O  O121  1  0.49691000  0.96153000  0.12264000  1.0
  O  O122  1  0.46447000  0.96091000  0.62261000  1.0
  O  O123  1  0.50310000  0.03847000  0.87735000  1.0
  O  O124  1  0.47557000  0.20128000  0.49485000  1.0
  O  O125  1  0.27479000  0.79878000  0.00536000  1.0
  O  O126  1  0.52443000  0.79871000  0.50516000  1.0
  O  O127  1  0.72521000  0.20123000  0.99463000  1.0
  O  O128  1  0.82045000  0.12439000  0.82717000  1.0
  O  O129  1  0.69650000  0.87581000  0.67291000  1.0
  O  O130  1  0.17955000  0.87560000  0.17283000  1.0
  O  O131  1  0.30350000  0.12418000  0.32709000  1.0
  O  O132  1  0.16044000  0.12841000  0.47956000  1.0
  O  O133  1  0.03211000  0.87156000  0.02037000  1.0
  O  O134  1  0.83956000  0.87158000  0.52044000  1.0
  O  O135  1  0.96789000  0.12846000  0.97963000  1.0
