# generated using pymatgen
data_ZnH11C13N4O5
_symmetry_space_group_name_H-M   'P 1'
_cell_length_a   7.36249000
_cell_length_b   9.93816000
_cell_length_c   10.67300000
_cell_angle_alpha   113.50500000
_cell_angle_beta   101.86600000
_cell_angle_gamma   92.97690000
_symmetry_Int_Tables_number   1
_chemical_formula_structural   ZnH11C13N4O5
_chemical_formula_sum   'Zn2 H22 C26 N8 O10'
_cell_volume   692.98806380
_cell_formula_units_Z   2
loop_
 _symmetry_equiv_pos_site_id
 _symmetry_equiv_pos_as_xyz
  1  'x, y, z'
loop_
 _atom_site_type_symbol
 _atom_site_label
 _atom_site_symmetry_multiplicity
 _atom_site_fract_x
 _atom_site_fract_y
 _atom_site_fract_z
 _atom_site_occupancy
  Zn  Zn0  1  0.93292000  0.28438000  0.62989000  1.0
  Zn  Zn1  1  0.06708000  0.71563000  0.37012000  1.0
  H  H2  1  0.19602000  0.12165000  0.64074000  1.0
  H  H3  1  0.80398000  0.87835000  0.35926000  1.0
  H  H4  1  0.01630000  0.03958000  0.66415000  1.0
  H  H5  1  0.98369000  0.96042000  0.33585000  1.0
  H  H6  1  0.18096000  0.89015000  0.15149000  1.0
  H  H7  1  0.81904000  0.10985000  0.84851000  1.0
  H  H8  1  0.04066000  0.89154000  0.99466000  1.0
  H  H9  1  0.95934000  0.10846000  0.00534000  1.0
  H  H10  1  0.90397000  0.64801000  0.79728000  1.0
  H  H11  1  0.09602000  0.35199000  0.20272000  1.0
  H  H12  1  0.38513000  0.65712000  0.09845000  1.0
  H  H13  1  0.61487000  0.34288000  0.90155000  1.0
  H  H14  1  0.25925000  0.36468000  0.89584000  1.0
  H  H15  1  0.74074000  0.63532000  0.10416000  1.0
  H  H16  1  0.55568000  0.41822000  0.23107000  1.0
  H  H17  1  0.44431000  0.58179000  0.76893000  1.0
  H  H18  1  0.19024000  0.94986000  0.83084000  1.0
  H  H19  1  0.80976000  0.05014000  0.16916000  1.0
  H  H20  1  0.52866000  0.93614000  0.20563000  1.0
  H  H21  1  0.47134000  0.06386000  0.79437000  1.0
  H  H22  1  0.85359000  0.39286000  0.38255000  1.0
  H  H23  1  0.14641000  0.60714000  0.61745000  1.0
  C  C24  1  0.17072000  0.86044000  0.03956000  1.0
  C  C25  1  0.82928000  0.13957000  0.96044000  1.0
  C  C26  1  0.37394000  0.26589000  0.40810000  1.0
  C  C27  1  0.62606000  0.73411000  0.59190000  1.0
  C  C28  1  0.53879000  0.24868000  0.48994000  1.0
  C  C29  1  0.46122000  0.75132000  0.51006000  1.0
  C  C30  1  0.34049000  0.93505000  0.02030000  1.0
  C  C31  1  0.65951000  0.06495000  0.97970000  1.0
  C  C32  1  0.02026000  0.60906000  0.84825000  1.0
  C  C33  1  0.97974000  0.39094000  0.15175000  1.0
  C  C34  1  0.27163000  0.61017000  0.00405000  1.0
  C  C35  1  0.72836000  0.38982000  0.99595000  1.0
  C  C36  1  0.18036000  0.22418000  0.42181000  1.0
  C  C37  1  0.81964000  0.77581000  0.57819000  1.0
  C  C38  1  0.20769000  0.46745000  0.90453000  1.0
  C  C39  1  0.79231000  0.53255000  0.09547000  1.0
  C  C40  1  0.54384000  0.18216000  0.59578000  1.0
  C  C41  1  0.45616000  0.81783000  0.40422000  1.0
  C  C42  1  0.54994000  0.36903000  0.30542000  1.0
  C  C43  1  0.45005000  0.63097000  0.69458000  1.0
  C  C44  1  0.32607000  0.97234000  0.90550000  1.0
  C  C45  1  0.67394000  0.02766000  0.09449000  1.0
  C  C46  1  0.51573000  0.96341000  0.11491000  1.0
  C  C47  1  0.48428000  0.03659000  0.88508000  1.0
  C  C48  1  0.71544000  0.35501000  0.38782000  1.0
  C  C49  1  0.28455000  0.64499000  0.61218000  1.0
  N  N50  1  0.70721000  0.29612000  0.47957000  1.0
  N  N51  1  0.29278000  0.70388000  0.52043000  1.0
  N  N52  1  0.38069000  0.32643000  0.31613000  1.0
  N  N53  1  0.61931000  0.67357000  0.68387000  1.0
  N  N54  1  0.15174000  0.69781000  0.96694000  1.0
  N  N55  1  0.84826000  0.30220000  0.03306000  1.0
  N  N56  1  0.05071000  0.46824000  0.80788000  1.0
  N  N57  1  0.94928000  0.53176000  0.19212000  1.0
  O  O58  1  0.70451000  0.19748000  0.67668000  1.0
  O  O59  1  0.29548000  0.80252000  0.32331000  1.0
  O  O60  1  0.13299000  0.32047000  0.52646000  1.0
  O  O61  1  0.86702000  0.67953000  0.47355000  1.0
  O  O62  1  0.08408000  0.10601000  0.32735000  1.0
  O  O63  1  0.91592000  0.89399000  0.67265000  1.0
  O  O64  1  0.07951000  0.13646000  0.67509000  1.0
  O  O65  1  0.92049000  0.86354000  0.32492000  1.0
  O  O66  1  0.39334000  0.11770000  0.59661000  1.0
  O  O67  1  0.60666000  0.88230000  0.40339000  1.0
