# generated using pymatgen
data_MnH16C18(NO3)2
_symmetry_space_group_name_H-M   'P 1'
_cell_length_a   7.06232000
_cell_length_b   9.96683000
_cell_length_c   11.86990000
_cell_angle_alpha   88.86190000
_cell_angle_beta   77.27050000
_cell_angle_gamma   89.27180000
_symmetry_Int_Tables_number   1
_chemical_formula_structural   MnH16C18(NO3)2
_chemical_formula_sum   'Mn2 H32 C36 N4 O12'
_cell_volume   814.78338882
_cell_formula_units_Z   2
loop_
 _symmetry_equiv_pos_site_id
 _symmetry_equiv_pos_as_xyz
  1  'x, y, z'
loop_
 _atom_site_type_symbol
 _atom_site_label
 _atom_site_symmetry_multiplicity
 _atom_site_fract_x
 _atom_site_fract_y
 _atom_site_fract_z
 _atom_site_occupancy
  Mn  Mn0  1  0.31851000  0.02184000  0.73801000  1.0
  Mn  Mn1  1  0.68149000  0.97816000  0.26200000  1.0
  H  H2  1  0.17240000  0.27951000  0.88414000  1.0
  H  H3  1  0.82760000  0.72049000  0.11586000  1.0
  H  H4  1  0.12106000  0.35755000  0.09057000  1.0
  H  H5  1  0.87893000  0.64245000  0.90944000  1.0
  H  H6  1  0.17861000  0.19066000  0.24178000  1.0
  H  H7  1  0.82139000  0.80934000  0.75822000  1.0
  H  H8  1  0.26697000  0.95696000  0.18586000  1.0
  H  H9  1  0.73304000  0.04304000  0.81414000  1.0
  H  H10  1  0.28722000  0.76074000  0.13370000  1.0
  H  H11  1  0.71279000  0.23926000  0.86630000  1.0
  H  H12  1  0.32830000  0.53139000  0.05524000  1.0
  H  H13  1  0.67170000  0.46861000  0.94476000  1.0
  H  H14  1  0.37337000  0.50124000  0.83978000  1.0
  H  H15  1  0.62662000  0.49875000  0.16022000  1.0
  H  H16  1  0.37190000  0.70689000  0.71478000  1.0
  H  H17  1  0.62810000  0.29311000  0.28522000  1.0
  H  H18  1  0.16588000  0.41402000  0.68159000  1.0
  H  H19  1  0.83412000  0.58599000  0.31841000  1.0
  H  H20  1  0.05849000  0.65219000  0.65888000  1.0
  H  H21  1  0.94151000  0.34782000  0.34112000  1.0
  H  H22  1  0.73653000  0.69736000  0.61222000  1.0
  H  H23  1  0.26347000  0.30263000  0.38777000  1.0
  H  H24  1  0.52290000  0.50840000  0.59156000  1.0
  H  H25  1  0.47710000  0.49160000  0.40844000  1.0
  H  H26  1  0.06941000  0.96255000  0.61020000  1.0
  H  H27  1  0.93059000  0.03745000  0.38980000  1.0
  H  H28  1  0.24608000  0.85566000  0.56849000  1.0
  H  H29  1  0.75393000  0.14434000  0.43151000  1.0
  H  H30  1  0.57170000  0.88608000  0.55405000  1.0
  H  H31  1  0.42830000  0.11392000  0.44595000  1.0
  H  H32  1  0.70303000  0.98784000  0.60734000  1.0
  H  H33  1  0.29697000  0.01216000  0.39267000  1.0
  C  C34  1  0.19064000  0.21221000  0.95464000  1.0
  C  C35  1  0.80935000  0.78779000  0.04536000  1.0
  C  C36  1  0.16457000  0.25450000  0.06829000  1.0
  C  C37  1  0.83543000  0.74550000  0.93171000  1.0
  C  C38  1  0.19378000  0.16194000  0.15245000  1.0
  C  C39  1  0.80622000  0.83806000  0.84755000  1.0
  C  C40  1  0.24243000  0.03003000  0.12120000  1.0
  C  C41  1  0.75757000  0.96997000  0.87880000  1.0
  C  C42  1  0.25942000  0.99397000  0.00620000  1.0
  C  C43  1  0.74058000  0.00603000  0.99380000  1.0
  C  C44  1  0.29785000  0.85481000  0.96601000  1.0
  C  C45  1  0.70214000  0.14518000  0.03399000  1.0
  C  C46  1  0.30199000  0.74585000  0.04166000  1.0
  C  C47  1  0.69801000  0.25414000  0.95834000  1.0
  C  C48  1  0.32644000  0.61717000  0.99717000  1.0
  C  C49  1  0.67356000  0.38283000  0.00283000  1.0
  C  C50  1  0.35076000  0.60007000  0.87839000  1.0
  C  C51  1  0.64924000  0.39992000  0.12161000  1.0
  C  C52  1  0.34980000  0.71391000  0.80836000  1.0
  C  C53  1  0.65020000  0.28609000  0.19164000  1.0
  C  C54  1  0.72275000  0.35539000  0.62581000  1.0
  C  C55  1  0.27725000  0.64461000  0.37418000  1.0
  C  C56  1  0.90579000  0.32891000  0.65017000  1.0
  C  C57  1  0.09421000  0.67109000  0.34983000  1.0
  C  C58  1  0.02387000  0.43677000  0.66375000  1.0
  C  C59  1  0.97613000  0.56324000  0.33624000  1.0
  C  C60  1  0.96405000  0.56880000  0.65101000  1.0
  C  C61  1  0.03596000  0.43121000  0.34899000  1.0
  C  C62  1  0.78367000  0.59449000  0.62449000  1.0
  C  C63  1  0.21633000  0.40551000  0.37551000  1.0
  C  C64  1  0.66365000  0.48812000  0.61239000  1.0
  C  C65  1  0.33635000  0.51188000  0.38761000  1.0
  C  C66  1  0.58480000  0.24366000  0.62023000  1.0
  C  C67  1  0.41520000  0.75633000  0.37977000  1.0
  C  C68  1  0.98225000  0.18840000  0.65705000  1.0
  C  C69  1  0.01775000  0.81160000  0.34295000  1.0
  N  N70  1  0.23710000  0.08511000  0.92423000  1.0
  N  N71  1  0.76290000  0.91489000  0.07577000  1.0
  N  N72  1  0.32283000  0.83797000  0.85090000  1.0
  N  N73  1  0.67717000  0.16203000  0.14910000  1.0
  O  O74  1  0.51340000  0.18540000  0.71661000  1.0
  O  O75  1  0.48660000  0.81461000  0.28339000  1.0
  O  O76  1  0.54623000  0.21849000  0.52341000  1.0
  O  O77  1  0.45377000  0.78150000  0.47659000  1.0
  O  O78  1  0.91823000  0.09472000  0.60406000  1.0
  O  O79  1  0.08176000  0.90528000  0.39594000  1.0
  O  O80  1  0.11180000  0.17259000  0.71585000  1.0
  O  O81  1  0.88820000  0.82741000  0.28415000  1.0
  O  O82  1  0.16609000  0.90115000  0.63631000  1.0
  O  O83  1  0.83392000  0.09885000  0.36369000  1.0
  O  O84  1  0.59350000  0.92498000  0.62652000  1.0
  O  O85  1  0.40650000  0.07502000  0.37348000  1.0
