# generated using pymatgen
data_FeH8(C3N)4
_symmetry_space_group_name_H-M   'P 1'
_cell_length_a   6.55238000
_cell_length_b   6.89464000
_cell_length_c   13.02698424
_cell_angle_alpha   74.65866371
_cell_angle_beta   88.23431596
_cell_angle_gamma   90.02110000
_symmetry_Int_Tables_number   1
_chemical_formula_structural   FeH8(C3N)4
_chemical_formula_sum   'Fe2 H16 C24 N8'
_cell_volume   567.24879963
_cell_formula_units_Z   2
loop_
 _symmetry_equiv_pos_site_id
 _symmetry_equiv_pos_as_xyz
  1  'x, y, z'
loop_
 _atom_site_type_symbol
 _atom_site_label
 _atom_site_symmetry_multiplicity
 _atom_site_fract_x
 _atom_site_fract_y
 _atom_site_fract_z
 _atom_site_occupancy
  Fe  Fe0  1  0.25058000  0.54699000  0.00013000  1.0
  Fe  Fe1  1  0.74942000  0.45301000  0.99987000  1.0
  H  H2  1  0.33377000  0.53574000  0.75686000  1.0
  H  H3  1  0.16655000  0.29199000  0.24306000  1.0
  H  H4  1  0.66622000  0.46425000  0.24315000  1.0
  H  H5  1  0.83344000  0.70801000  0.75693000  1.0
  H  H6  1  0.73496000  0.25345000  0.79797000  1.0
  H  H7  1  0.76525000  0.05078000  0.20186000  1.0
  H  H8  1  0.26505000  0.74654000  0.20203000  1.0
  H  H9  1  0.23475000  0.94923000  0.79814000  1.0
  H  H10  1  0.21718000  0.77352000  0.38692000  1.0
  H  H11  1  0.28179000  0.15963000  0.61294000  1.0
  H  H12  1  0.78283000  0.22647000  0.61308000  1.0
  H  H13  1  0.71822000  0.84036000  0.38706000  1.0
  H  H14  1  0.25519000  0.67782000  0.57926000  1.0
  H  H15  1  0.24429000  0.25630000  0.42068000  1.0
  H  H16  1  0.74483000  0.32217000  0.42075000  1.0
  H  H17  1  0.75571000  0.74370000  0.57931000  1.0
  C  C18  1  0.18704000  0.46576000  0.78522000  1.0
  C  C19  1  0.31320000  0.25028000  0.21469000  1.0
  C  C20  1  0.81295000  0.53425000  0.21478000  1.0
  C  C21  1  0.68679000  0.74973000  0.78530000  1.0
  C  C22  1  0.88244000  0.31891000  0.80631000  1.0
  C  C23  1  0.61788000  0.12468000  0.19361000  1.0
  C  C24  1  0.11755000  0.68109000  0.19369000  1.0
  C  C25  1  0.38212000  0.87531000  0.80638000  1.0
  C  C26  1  0.03512000  0.39932000  0.72802000  1.0
  C  C27  1  0.46536000  0.12711000  0.27197000  1.0
  C  C28  1  0.96487000  0.60070000  0.27198000  1.0
  C  C29  1  0.53463000  0.87289000  0.72803000  1.0
  C  C30  1  0.02242000  0.44340000  0.61229000  1.0
  C  C31  1  0.47792000  0.05580000  0.38766000  1.0
  C  C32  1  0.97758000  0.55660000  0.38771000  1.0
  C  C33  1  0.52208000  0.94419000  0.61234000  1.0
  C  C34  1  0.12207000  0.65221000  0.43569000  1.0
  C  C35  1  0.37723000  0.08721000  0.56426000  1.0
  C  C36  1  0.87795000  0.34778000  0.56432000  1.0
  C  C37  1  0.62277000  0.91278000  0.43574000  1.0
  C  C38  1  0.14421000  0.59689000  0.54532000  1.0
  C  C39  1  0.35541000  0.14165000  0.45463000  1.0
  C  C40  1  0.85581000  0.40311000  0.45468000  1.0
  C  C41  1  0.64459000  0.85835000  0.54536000  1.0
  N  N42  1  0.12544000  0.43556000  0.88802000  1.0
  N  N43  1  0.37449000  0.32229000  0.11183000  1.0
  N  N44  1  0.87454000  0.56445000  0.11199000  1.0
  N  N45  1  0.62551000  0.67774000  0.88816000  1.0
  N  N46  1  0.93512000  0.34582000  0.90126000  1.0
  N  N47  1  0.56496000  0.24603000  0.09860000  1.0
  N  N48  1  0.06486000  0.65418000  0.09874000  1.0
  N  N49  1  0.43504000  0.75398000  0.90140000  1.0
