# generated using pymatgen
data_Zn4CoH27C42(N3O)6
_symmetry_space_group_name_H-M   'P 1'
_cell_length_a   17.60045000
_cell_length_b   17.60040000
_cell_length_c   19.57220000
_cell_angle_alpha   90.00020000
_cell_angle_beta   90.00030000
_cell_angle_gamma   119.99971808
_symmetry_Int_Tables_number   1
_chemical_formula_structural   Zn4CoH27C42(N3O)6
_chemical_formula_sum   'Zn8 Co2 H54 C84 N36 O12'
_cell_volume   5250.70743263
_cell_formula_units_Z   2
loop_
 _symmetry_equiv_pos_site_id
 _symmetry_equiv_pos_as_xyz
  1  'x, y, z'
loop_
 _atom_site_type_symbol
 _atom_site_label
 _atom_site_symmetry_multiplicity
 _atom_site_fract_x
 _atom_site_fract_y
 _atom_site_fract_z
 _atom_site_occupancy
  Zn  Zn0  1  0.12607000  0.63217000  0.67564000  1.0
  Zn  Zn1  1  0.36784000  0.49391000  0.67563000  1.0
  Zn  Zn2  1  0.50609000  0.87393000  0.67564000  1.0
  Zn  Zn3  1  0.63216000  0.12606000  0.32437000  1.0
  Zn  Zn4  1  0.49390000  0.36784000  0.32437000  1.0
  Zn  Zn5  1  0.87393000  0.50609000  0.32437000  1.0
  Zn  Zn6  1  0.33333333  0.66666667  0.74043000  1.0
  Zn  Zn7  1  0.66666667  0.33333333  0.25957000  1.0
  Co  Co8  1  0.33333333  0.66666667  0.91068000  1.0
  Co  Co9  1  0.66666667  0.33333333  0.08933000  1.0
  H  H10  1  0.86754000  0.51002000  0.56684000  1.0
  H  H11  1  0.90140000  0.61946000  0.54676000  1.0
  H  H12  1  0.85404000  0.57581000  0.62967000  1.0
  H  H13  1  0.45600000  0.98373000  0.55938000  1.0
  H  H14  1  0.19599000  0.92200000  0.49500000  1.0
  H  H15  1  0.12635000  0.78827000  0.56857000  1.0
  H  H16  1  0.14673000  0.61529000  0.00391000  1.0
  H  H17  1  0.96732000  0.59491000  0.79566000  1.0
  H  H18  1  0.90425000  0.57242000  0.91313000  1.0
  H  H19  1  0.48998000  0.35753000  0.56685000  1.0
  H  H20  1  0.38053000  0.28193000  0.54676000  1.0
  H  H21  1  0.42419000  0.27823000  0.62967000  1.0
  H  H22  1  0.01627000  0.47227000  0.55939000  1.0
  H  H23  1  0.07800000  0.27399000  0.49500000  1.0
  H  H24  1  0.21173000  0.33808000  0.56857000  1.0
  H  H25  1  0.38471000  0.53144000  0.00391000  1.0
  H  H26  1  0.40508000  0.37240000  0.79566000  1.0
  H  H27  1  0.42757000  0.33182000  0.91313000  1.0
  H  H28  1  0.64247000  0.13245000  0.56685000  1.0
  H  H29  1  0.71806000  0.09860000  0.54676000  1.0
  H  H30  1  0.72177000  0.14596000  0.62967000  1.0
  H  H31  1  0.52774000  0.54401000  0.55939000  1.0
  H  H32  1  0.72601000  0.80401000  0.49500000  1.0
  H  H33  1  0.66192000  0.87365000  0.56857000  1.0
  H  H34  1  0.46856000  0.85326000  0.00391000  1.0
  H  H35  1  0.62760000  0.03269000  0.79566000  1.0
  H  H36  1  0.66818000  0.09575000  0.91313000  1.0
  H  H37  1  0.51002000  0.86754000  0.43315000  1.0
  H  H38  1  0.61947000  0.90140000  0.45324000  1.0
  H  H39  1  0.57581000  0.85403000  0.37033000  1.0
  H  H40  1  0.98373000  0.45599000  0.44061000  1.0
  H  H41  1  0.92200000  0.19599000  0.50500000  1.0
  H  H42  1  0.78828000  0.12635000  0.43143000  1.0
  H  H43  1  0.61529000  0.14672000  0.99609000  1.0
  H  H44  1  0.59491000  0.96731000  0.20434000  1.0
  H  H45  1  0.57243000  0.90425000  0.08687000  1.0
  H  H46  1  0.35752000  0.48998000  0.43315000  1.0
  H  H47  1  0.28194000  0.38054000  0.45323000  1.0
  H  H48  1  0.27822000  0.42419000  0.37032000  1.0
  H  H49  1  0.47227000  0.01627000  0.44061000  1.0
  H  H50  1  0.27399000  0.07800000  0.50500000  1.0
  H  H51  1  0.33807000  0.21172000  0.43143000  1.0
  H  H52  1  0.53144000  0.38471000  0.99609000  1.0
  H  H53  1  0.37240000  0.40509000  0.20434000  1.0
  H  H54  1  0.33182000  0.42758000  0.08687000  1.0
  H  H55  1  0.13246000  0.64248000  0.43315000  1.0
  H  H56  1  0.09860000  0.71806000  0.45324000  1.0
  H  H57  1  0.14596000  0.72176000  0.37032000  1.0
  H  H58  1  0.54401000  0.52774000  0.44061000  1.0
  H  H59  1  0.80401000  0.72602000  0.50500000  1.0
  H  H60  1  0.87365000  0.66193000  0.43143000  1.0
  H  H61  1  0.85327000  0.46856000  0.99609000  1.0
  H  H62  1  0.03269000  0.62760000  0.20434000  1.0
  H  H63  1  0.09575000  0.66817000  0.08687000  1.0
  C  C64  1  0.98671000  0.60201000  0.61533000  1.0
  C  C65  1  0.89674000  0.57632000  0.58876000  1.0
  C  C66  1  0.34517000  0.86837000  0.60383000  1.0
  C  C67  1  0.25294000  0.81328000  0.60668000  1.0
  C  C68  1  0.38492000  0.94294000  0.56190000  1.0
  C  C69  1  0.23682000  0.90635000  0.52731000  1.0
  C  C70  1  0.19708000  0.83218000  0.56792000  1.0
  C  C71  1  0.32991000  0.96169000  0.52326000  1.0
  C  C72  1  0.09336000  0.61982000  0.83483000  1.0
  C  C73  1  0.14370000  0.62707000  0.89351000  1.0
  C  C74  1  0.10842000  0.61332000  0.95950000  1.0
  C  C75  1  0.02114000  0.59218000  0.96602000  1.0
  C  C76  1  0.00558000  0.59995000  0.84094000  1.0
  C  C77  1  0.97166000  0.58683000  0.90633000  1.0
  C  C78  1  0.39799000  0.38470000  0.61533000  1.0
  C  C79  1  0.42368000  0.32042000  0.58876000  1.0
  C  C80  1  0.13163000  0.47680000  0.60383000  1.0
  C  C81  1  0.18672000  0.43966000  0.60668000  1.0
  C  C82  1  0.05706000  0.44198000  0.56190000  1.0
  C  C83  1  0.09366000  0.33047000  0.52731000  1.0
  C  C84  1  0.16782000  0.36490000  0.56792000  1.0
  C  C85  1  0.03830000  0.36821000  0.52326000  1.0
  C  C86  1  0.38017000  0.47354000  0.83483000  1.0
  C  C87  1  0.37293000  0.51663000  0.89351000  1.0
  C  C88  1  0.38668000  0.49510000  0.95950000  1.0
  C  C89  1  0.40782000  0.42896000  0.96601000  1.0
  C  C90  1  0.40004000  0.40563000  0.84094000  1.0
  C  C91  1  0.41317000  0.38484000  0.90633000  1.0
  C  C92  1  0.61529000  0.01329000  0.61533000  1.0
  C  C93  1  0.67958000  0.10326000  0.58876000  1.0
  C  C94  1  0.52321000  0.65484000  0.60383000  1.0
  C  C95  1  0.56034000  0.74706000  0.60668000  1.0
  C  C96  1  0.55803000  0.61509000  0.56190000  1.0
  C  C97  1  0.66953000  0.76319000  0.52731000  1.0
  C  C98  1  0.63511000  0.80293000  0.56792000  1.0
  C  C99  1  0.63179000  0.67010000  0.52326000  1.0
  C  C100  1  0.52646000  0.90663000  0.83483000  1.0
  C  C101  1  0.48337000  0.85630000  0.89351000  1.0
  C  C102  1  0.50491000  0.89158000  0.95950000  1.0
  C  C103  1  0.57105000  0.97886000  0.96602000  1.0
  C  C104  1  0.59437000  0.99441000  0.84094000  1.0
  C  C105  1  0.61517000  0.02833000  0.90633000  1.0
  C  C106  1  0.60200000  0.98670000  0.38467000  1.0
  C  C107  1  0.57632000  0.89674000  0.41124000  1.0
  C  C108  1  0.86837000  0.34516000  0.39616000  1.0
  C  C109  1  0.81328000  0.25293000  0.39332000  1.0
  C  C110  1  0.94294000  0.38491000  0.43810000  1.0
  C  C111  1  0.90634000  0.23681000  0.47269000  1.0
  C  C112  1  0.83218000  0.19707000  0.43208000  1.0
  C  C113  1  0.96170000  0.32991000  0.47674000  1.0
  C  C114  1  0.61983000  0.09337000  0.16518000  1.0
  C  C115  1  0.62707000  0.14370000  0.10649000  1.0
  C  C116  1  0.61333000  0.10842000  0.04050000  1.0
  C  C117  1  0.59219000  0.02114000  0.03399000  1.0
  C  C118  1  0.59996000  0.00558000  0.15907000  1.0
  C  C119  1  0.58683000  0.97166000  0.09367000  1.0
  C  C120  1  0.38470000  0.39800000  0.38466000  1.0
  C  C121  1  0.32042000  0.42368000  0.41123000  1.0
  C  C122  1  0.47679000  0.13163000  0.39616000  1.0
  C  C123  1  0.43966000  0.18672000  0.39332000  1.0
  C  C124  1  0.44197000  0.05705000  0.43810000  1.0
  C  C125  1  0.33047000  0.09366000  0.47269000  1.0
  C  C126  1  0.36489000  0.16781000  0.43208000  1.0
  C  C127  1  0.36821000  0.03830000  0.47674000  1.0
  C  C128  1  0.47353000  0.38017000  0.16518000  1.0
  C  C129  1  0.51663000  0.37294000  0.10649000  1.0
  C  C130  1  0.49509000  0.38668000  0.04050000  1.0
  C  C131  1  0.42895000  0.40782000  0.03399000  1.0
  C  C132  1  0.40562000  0.40004000  0.15906000  1.0
  C  C133  1  0.38483000  0.41317000  0.09367000  1.0
  C  C134  1  0.01330000  0.61530000  0.38467000  1.0
  C  C135  1  0.10326000  0.67958000  0.41124000  1.0
  C  C136  1  0.65484000  0.52321000  0.39617000  1.0
  C  C137  1  0.74706000  0.56034000  0.39332000  1.0
  C  C138  1  0.61509000  0.55803000  0.43810000  1.0
  C  C139  1  0.76319000  0.66954000  0.47269000  1.0
  C  C140  1  0.80293000  0.63512000  0.43208000  1.0
  C  C141  1  0.67009000  0.63179000  0.47674000  1.0
  C  C142  1  0.90664000  0.52647000  0.16518000  1.0
  C  C143  1  0.85630000  0.48336000  0.10649000  1.0
  C  C144  1  0.89158000  0.50490000  0.04050000  1.0
  C  C145  1  0.97886000  0.57104000  0.03399000  1.0
  C  C146  1  0.99442000  0.59437000  0.15907000  1.0
  C  C147  1  0.02834000  0.61517000  0.09367000  1.0
  N  N148  1  0.23694000  0.74657000  0.65063000  1.0
  N  N149  1  0.31407000  0.75975000  0.67338000  1.0
  N  N150  1  0.38013000  0.83261000  0.64673000  1.0
  N  N151  1  0.14594000  0.63418000  0.77949000  1.0
  N  N152  1  0.22372000  0.64911000  0.80258000  1.0
  N  N153  1  0.22488000  0.64554000  0.87091000  1.0
  N  N154  1  0.25344000  0.49038000  0.65063000  1.0
  N  N155  1  0.24025000  0.55432000  0.67339000  1.0
  N  N156  1  0.16738000  0.54751000  0.64673000  1.0
  N  N157  1  0.36582000  0.51176000  0.77949000  1.0
  N  N158  1  0.35090000  0.57462000  0.80258000  1.0
  N  N159  1  0.35447000  0.57935000  0.87091000  1.0
  N  N160  1  0.50963000  0.76307000  0.65063000  1.0
  N  N161  1  0.44568000  0.68593000  0.67339000  1.0
  N  N162  1  0.45249000  0.61987000  0.64673000  1.0
  N  N163  1  0.48823000  0.85405000  0.77949000  1.0
  N  N164  1  0.42538000  0.77628000  0.80258000  1.0
  N  N165  1  0.42065000  0.77512000  0.87091000  1.0
  N  N166  1  0.74656000  0.23693000  0.34936000  1.0
  N  N167  1  0.75975000  0.31407000  0.32662000  1.0
  N  N168  1  0.83262000  0.38013000  0.35327000  1.0
  N  N169  1  0.63417000  0.14593000  0.22051000  1.0
  N  N170  1  0.64910000  0.22372000  0.19743000  1.0
  N  N171  1  0.64553000  0.22487000  0.12910000  1.0
  N  N172  1  0.49037000  0.25343000  0.34937000  1.0
  N  N173  1  0.55432000  0.24025000  0.32662000  1.0
  N  N174  1  0.54752000  0.16739000  0.35327000  1.0
  N  N175  1  0.51176000  0.36583000  0.22051000  1.0
  N  N176  1  0.57461000  0.35090000  0.19743000  1.0
  N  N177  1  0.57934000  0.35447000  0.12910000  1.0
  N  N178  1  0.76307000  0.50963000  0.34937000  1.0
  N  N179  1  0.68593000  0.44568000  0.32662000  1.0
  N  N180  1  0.61987000  0.45249000  0.35327000  1.0
  N  N181  1  0.85406000  0.48824000  0.22051000  1.0
  N  N182  1  0.77628000  0.42538000  0.19743000  1.0
  N  N183  1  0.77513000  0.42066000  0.12910000  1.0
  O  O184  1  0.05216000  0.63052000  0.57571000  1.0
  O  O185  1  0.99610000  0.59253000  0.67990000  1.0
  O  O186  1  0.36946000  0.42162000  0.57572000  1.0
  O  O187  1  0.40750000  0.40359000  0.67990000  1.0
  O  O188  1  0.57836000  0.94784000  0.57571000  1.0
  O  O189  1  0.59642000  0.00389000  0.67990000  1.0
  O  O190  1  0.63054000  0.05216000  0.42428000  1.0
  O  O191  1  0.59250000  0.99608000  0.32010000  1.0
  O  O192  1  0.42163000  0.36948000  0.42427000  1.0
  O  O193  1  0.40357000  0.40749000  0.32009000  1.0
  O  O194  1  0.94784000  0.57839000  0.42428000  1.0
  O  O195  1  0.00392000  0.59641000  0.32010000  1.0
