# generated using pymatgen
data_Zn2H3C22N8(ClF)7
_symmetry_space_group_name_H-M   'P 1'
_cell_length_a   14.90660000
_cell_length_b   15.03030000
_cell_length_c   15.09510000
_cell_angle_alpha   110.09000000
_cell_angle_beta   109.22200000
_cell_angle_gamma   108.51600000
_symmetry_Int_Tables_number   1
_chemical_formula_structural   Zn2H3C22N8(ClF)7
_chemical_formula_sum   'Zn4 H6 C44 N16 Cl14 F14'
_cell_volume   2621.79210059
_cell_formula_units_Z   2
loop_
 _symmetry_equiv_pos_site_id
 _symmetry_equiv_pos_as_xyz
  1  'x, y, z'
loop_
 _atom_site_type_symbol
 _atom_site_label
 _atom_site_symmetry_multiplicity
 _atom_site_fract_x
 _atom_site_fract_y
 _atom_site_fract_z
 _atom_site_occupancy
  Zn  Zn0  1  0.36477000  0.50371000  0.88571000  1.0
  Zn  Zn1  1  0.47739000  0.33544000  0.83167000  1.0
  Zn  Zn2  1  0.62886000  0.48528000  0.07439000  1.0
  Zn  Zn3  1  0.49631000  0.63400000  0.16328000  1.0
  H  H4  1  0.24347000  0.94575000  0.85082000  1.0
  H  H5  1  0.22253000  0.90550000  0.01512000  1.0
  H  H6  1  0.56832000  0.09248000  0.03042000  1.0
  H  H7  1  0.40161000  0.87632000  0.86981000  1.0
  H  H8  1  0.68232000  0.85812000  0.23402000  1.0
  H  H9  1  0.67048000  0.52500000  0.40171000  1.0
  C  C10  1  0.55950000  0.62832000  0.87860000  1.0
  C  C11  1  0.19883000  0.34814000  0.00837000  1.0
  C  C12  1  0.76451000  0.30320000  0.93729000  1.0
  C  C13  1  0.38295000  0.80914000  0.03036000  1.0
  C  C14  1  0.41862000  0.18540000  0.00377000  1.0
  C  C15  1  0.47867000  0.02711000  0.11547000  1.0
  C  C16  1  0.39059000  0.06511000  0.10482000  1.0
  C  C17  1  0.29530000  0.24505000  0.61284000  1.0
  C  C18  1  0.49093000  0.04914000  0.02569000  1.0
  C  C19  1  0.29892000  0.94659000  0.01724000  1.0
  C  C20  1  0.40308000  0.08920000  0.01445000  1.0
  C  C21  1  0.38676000  0.90670000  0.02783000  1.0
  C  C22  1  0.31112000  0.96903000  0.92675000  1.0
  C  C23  1  0.39857000  0.93108000  0.93724000  1.0
  C  C24  1  0.00957000  0.12537000  0.42603000  1.0
  C  C25  1  0.66534000  0.58923000  0.69946000  1.0
  C  C26  1  0.11400000  0.17464000  0.44824000  1.0
  C  C27  1  0.68779000  0.65753000  0.79970000  1.0
  C  C28  1  0.92215000  0.02114000  0.33270000  1.0
  C  C29  1  0.67872000  0.61555000  0.61910000  1.0
  C  C30  1  0.80693000  0.71464000  0.20371000  1.0
  C  C31  1  0.56116000  0.68272000  0.39952000  1.0
  C  C32  1  0.91685000  0.92405000  0.31414000  1.0
  C  C33  1  0.81864000  0.81975000  0.24451000  1.0
  C  C34  1  0.61694000  0.64558000  0.55967000  1.0
  C  C35  1  0.93350000  0.29110000  0.02146000  1.0
  C  C36  1  0.04809000  0.34061000  0.05005000  1.0
  C  C37  1  0.86065000  0.29606000  0.94383000  1.0
  C  C38  1  0.09452000  0.29401000  0.00043000  1.0
  C  C39  1  0.60789000  0.63949000  0.45937000  1.0
  C  C40  1  0.66522000  0.27141000  0.84926000  1.0
  C  C41  1  0.21598000  0.34703000  0.92147000  1.0
  C  C42  1  0.43493000  0.79356000  0.11542000  1.0
  C  C43  1  0.49152000  0.29534000  0.08125000  1.0
  C  C44  1  0.76184000  0.37237000  0.02578000  1.0
  C  C45  1  0.29964000  0.43269000  0.09841000  1.0
  C  C46  1  0.33616000  0.70550000  0.94187000  1.0
  C  C47  1  0.38214000  0.19184000  0.90924000  1.0
  C  C48  1  0.71112000  0.79975000  0.21658000  1.0
  C  C49  1  0.63393000  0.57455000  0.38891000  1.0
  C  C50  1  0.65431000  0.54519000  0.89340000  1.0
  C  C51  1  0.22448000  0.35175000  0.63693000  1.0
  C  C52  1  0.64428000  0.61912000  0.86101000  1.0
  C  C53  1  0.20621000  0.25540000  0.55638000  1.0
  N  N54  1  0.52156000  0.56388000  0.91540000  1.0
  N  N55  1  0.31576000  0.42528000  0.95805000  1.0
  N  N56  1  0.61038000  0.31706000  0.88427000  1.0
  N  N57  1  0.42193000  0.69357000  0.08155000  1.0
  N  N58  1  0.49689000  0.35991000  0.03801000  1.0
  N  N59  1  0.67281000  0.38177000  0.99599000  1.0
  N  N60  1  0.36863000  0.47933000  0.06958000  1.0
  N  N61  1  0.35789000  0.32667000  0.71590000  1.0
  N  N62  1  0.35848000  0.63662000  0.96941000  1.0
  N  N63  1  0.42703000  0.29304000  0.92712000  1.0
  N  N64  1  0.64308000  0.69322000  0.16613000  1.0
  N  N65  1  0.60530000  0.57801000  0.29735000  1.0
  N  N66  1  0.58005000  0.50822000  0.92352000  1.0
  N  N67  1  0.31285000  0.39418000  0.73147000  1.0
  N  N68  1  0.70239000  0.64077000  0.15928000  1.0
  N  N69  1  0.56065000  0.64563000  0.30463000  1.0
  Cl  Cl70  1  0.50393000  0.70443000  0.85073000  1.0
  Cl  Cl71  1  0.75750000  0.79605000  0.85375000  1.0
  Cl  Cl72  1  0.14529000  0.13011000  0.34644000  1.0
  Cl  Cl73  1  0.03242000  0.92477000  0.39189000  1.0
  Cl  Cl74  1  0.53245000  0.68137000  0.60198000  1.0
  Cl  Cl75  1  0.89886000  0.24849000  0.10416000  1.0
  Cl  Cl76  1  0.12090000  0.47786000  0.14620000  1.0
  Cl  Cl77  1  0.32876000  0.14640000  0.57061000  1.0
  Cl  Cl78  1  0.89841000  0.67153000  0.19797000  1.0
  Cl  Cl79  1  0.51158000  0.77049000  0.42916000  1.0
  Cl  Cl80  1  0.61487000  0.18873000  0.71548000  1.0
  Cl  Cl81  1  0.12690000  0.26389000  0.78675000  1.0
  Cl  Cl82  1  0.97276000  0.17491000  0.52282000  1.0
  Cl  Cl83  1  0.60178000  0.44906000  0.65011000  1.0
  F  F84  1  0.56462000  0.05835000  0.21084000  1.0
  F  F85  1  0.03204000  0.18671000  0.92329000  1.0
  F  F86  1  0.88990000  0.31832000  0.87360000  1.0
  F  F87  1  0.49362000  0.86513000  0.22189000  1.0
  F  F88  1  0.55454000  0.33663000  0.18718000  1.0
  F  F89  1  0.83737000  0.42848000  0.13006000  1.0
  F  F90  1  0.33039000  0.46623000  0.20272000  1.0
  F  F91  1  0.38549000  0.13184000  0.18938000  1.0
  F  F92  1  0.27618000  0.67225000  0.83680000  1.0
  F  F93  1  0.31195000  0.10972000  0.80703000  1.0
  F  F94  1  0.72707000  0.51114000  0.89708000  1.0
  F  F95  1  0.16655000  0.40317000  0.62864000  1.0
  F  F96  1  0.83008000  0.02167000  0.27392000  1.0
  F  F97  1  0.74540000  0.58453000  0.58719000  1.0
