# generated using pymatgen
data_Zr3H25C25O16
_symmetry_space_group_name_H-M   'P 1'
_cell_length_a   15.43950000
_cell_length_b   17.41120000
_cell_length_c   25.57110000
_cell_angle_alpha   88.71450000
_cell_angle_beta   89.82850000
_cell_angle_gamma   64.74400000
_symmetry_Int_Tables_number   1
_chemical_formula_structural   Zr3H25C25O16
_chemical_formula_sum   'Zr12 H100 C100 O64'
_cell_volume   6215.21440692
_cell_formula_units_Z   4
loop_
 _symmetry_equiv_pos_site_id
 _symmetry_equiv_pos_as_xyz
  1  'x, y, z'
loop_
 _atom_site_type_symbol
 _atom_site_label
 _atom_site_symmetry_multiplicity
 _atom_site_fract_x
 _atom_site_fract_y
 _atom_site_fract_z
 _atom_site_occupancy
  Zr  Zr0  1  0.95263000  0.10190000  0.96634000  1.0
  Zr  Zr1  1  0.08869000  0.81591000  0.04604000  1.0
  Zr  Zr2  1  0.85636000  0.95519000  0.99988000  1.0
  Zr  Zr3  1  0.18631000  0.96145000  0.01283000  1.0
  Zr  Zr4  1  0.98042000  0.02422000  0.09678000  1.0
  Zr  Zr5  1  0.06351000  0.89366000  0.91766000  1.0
  Zr  Zr6  1  0.09964000  0.80058000  0.46525000  1.0
  Zr  Zr7  1  0.96283000  0.07877000  0.54675000  1.0
  Zr  Zr8  1  0.19889000  0.93810000  0.50866000  1.0
  Zr  Zr9  1  0.86308000  0.94233000  0.50197000  1.0
  Zr  Zr10  1  0.05725000  0.86733000  0.59631000  1.0
  Zr  Zr11  1  0.00109000  0.01343000  0.41765000  1.0
  H  H12  1  0.06073000  0.12571000  0.04838000  1.0
  H  H13  1  0.92252000  0.89047000  0.11098000  1.0
  H  H14  1  0.23685000  0.79548000  0.97351000  1.0
  H  H15  1  0.87527000  0.01537000  0.89769000  1.0
  H  H16  1  0.79051000  0.12011000  0.12479000  1.0
  H  H17  1  0.75231000  0.94560000  0.91749000  1.0
  H  H18  1  0.98341000  0.79503000  0.87420000  1.0
  H  H19  1  0.10147000  0.02864000  0.16947000  1.0
  H  H20  1  0.24905000  0.06006000  0.06451000  1.0
  H  H21  1  0.30910000  0.95724000  0.93967000  1.0
  H  H22  1  0.24775000  0.88738000  0.90862000  1.0
  H  H23  1  0.94636000  0.98101000  0.19268000  1.0
  H  H24  1  0.17779000  0.71948000  0.13137000  1.0
  H  H25  1  0.89473000  0.14876000  0.86019000  1.0
  H  H26  1  0.00272000  0.95121000  0.81901000  1.0
  H  H27  1  0.15876000  0.03695000  0.11602000  1.0
  H  H28  1  0.07782000  0.71367000  0.12509000  1.0
  H  H29  1  0.73338000  0.95444000  0.07290000  1.0
  H  H30  1  0.78579000  0.03784000  0.09831000  1.0
  H  H31  1  0.18771000  0.90559000  0.85222000  1.0
  H  H32  1  0.89060000  0.87564000  0.89787000  1.0
  H  H33  1  0.99107000  0.05954000  0.85886000  1.0
  H  H34  1  0.97934000  0.77388000  0.54062000  1.0
  H  H35  1  0.12159000  0.99433000  0.61766000  1.0
  H  H36  1  0.82407000  0.10956000  0.46704000  1.0
  H  H37  1  0.18826000  0.88987000  0.40357000  1.0
  H  H38  1  0.23969000  0.76566000  0.63544000  1.0
  H  H39  1  0.31593000  0.95401000  0.43284000  1.0
  H  H40  1  0.08969000  0.11300000  0.38381000  1.0
  H  H41  1  0.92703000  0.86083000  0.66210000  1.0
  H  H42  1  0.78270000  0.85146000  0.55034000  1.0
  H  H43  1  0.70533000  0.03844000  0.44628000  1.0
  H  H44  1  0.88215000  0.01122000  0.34533000  1.0
  H  H45  1  0.08094000  0.90355000  0.69387000  1.0
  H  H46  1  0.86736000  0.17141000  0.62963000  1.0
  H  H47  1  0.16798000  0.76150000  0.36065000  1.0
  H  H48  1  0.06919000  0.96422000  0.31940000  1.0
  H  H49  1  0.87475000  0.86091000  0.60546000  1.0
  H  H50  1  0.96840000  0.17684000  0.62666000  1.0
  H  H51  1  0.35688000  0.83799000  0.55803000  1.0
  H  H52  1  0.25316000  0.84598000  0.60860000  1.0
  H  H53  1  0.81500000  0.02532000  0.39833000  1.0
  H  H54  1  0.17863000  0.02732000  0.40765000  1.0
  H  H55  1  0.07470000  0.85296000  0.35746000  1.0
  H  H56  1  0.58815000  0.72593000  0.34989000  1.0
  H  H57  1  0.60078000  0.50094000  0.42956000  1.0
  H  H58  1  0.43385000  0.58131000  0.45931000  1.0
  H  H59  1  0.42671000  0.80854000  0.38554000  1.0
  H  H60  1  0.74710000  0.50624000  0.47266000  1.0
  H  H61  1  0.80288000  0.41664000  0.31504000  1.0
  H  H62  1  0.88548000  0.26865000  0.34939000  1.0
  H  H63  1  0.82867000  0.35712000  0.50661000  1.0
  H  H64  1  0.90398000  0.52951000  0.35957000  1.0
  H  H65  1  0.65583000  0.69788000  0.44367000  1.0
  H  H66  1  0.74417000  0.77852000  0.47189000  1.0
  H  H67  1  0.99385000  0.60966000  0.39032000  1.0
  H  H68  1  0.61544000  0.51308000  0.20995000  1.0
  H  H69  1  0.78784000  0.65258000  0.20785000  1.0
  H  H70  1  0.79180000  0.64881000  0.30322000  1.0
  H  H71  1  0.61993000  0.50879000  0.30598000  1.0
  H  H72  1  0.98298000  0.61653000  0.11420000  1.0
  H  H73  1  0.73124000  0.78420000  0.02926000  1.0
  H  H74  1  0.64215000  0.70690000  0.06546000  1.0
  H  H75  1  0.89401000  0.53863000  0.15110000  1.0
  H  H76  1  0.57919000  0.51767000  0.09123000  1.0
  H  H77  1  0.58627000  0.73633000  0.16289000  1.0
  H  H78  1  0.42012000  0.82473000  0.13153000  1.0
  H  H79  1  0.40879000  0.60370000  0.06651000  1.0
  H  H80  1  0.86611000  0.27548000  0.16467000  1.0
  H  H81  1  0.79475000  0.37431000  0.00763000  1.0
  H  H82  1  0.72276000  0.52159000  0.04085000  1.0
  H  H83  1  0.79556000  0.42172000  0.19826000  1.0
  H  H84  1  0.38611000  0.38565000  0.55013000  1.0
  H  H85  1  0.20413000  0.45386000  0.68544000  1.0
  H  H86  1  0.12947000  0.60387000  0.65346000  1.0
  H  H87  1  0.30352000  0.53387000  0.51588000  1.0
  H  H88  1  0.40568000  0.14494000  0.64150000  1.0
  H  H89  1  0.16110000  0.37818000  0.60118000  1.0
  H  H90  1  0.07476000  0.29532000  0.57084000  1.0
  H  H91  1  0.32193000  0.06274000  0.60656000  1.0
  H  H92  1  0.40370000  0.24452000  0.54696000  1.0
  H  H93  1  0.52528000  0.27655000  0.69166000  1.0
  H  H94  1  0.68685000  0.20119000  0.65570000  1.0
  H  H95  1  0.56632000  0.16179000  0.51320000  1.0
  H  H96  1  0.26850000  0.24849000  0.80979000  1.0
  H  H97  1  0.41037000  0.41413000  0.80046000  1.0
  H  H98  1  0.41158000  0.40658000  0.70485000  1.0
  H  H99  1  0.27742000  0.23499000  0.71508000  1.0
  H  H100  1  0.24352000  0.49485000  0.81407000  1.0
  H  H101  1  0.31237000  0.39654000  0.97202000  1.0
  H  H102  1  0.23433000  0.54385000  0.00488000  1.0
  H  H103  1  0.16838000  0.64102000  0.84720000  1.0
  H  H104  1  0.39649000  0.21056000  0.94815000  1.0
  H  H105  1  0.14677000  0.37677000  0.86008000  1.0
  H  H106  1  0.05845000  0.29572000  0.89440000  1.0
  H  H107  1  0.30899000  0.13011000  0.98096000  1.0
  H  H108  1  0.45686000  0.18199000  0.85095000  1.0
  H  H109  1  0.45771000  0.40157000  0.92464000  1.0
  H  H110  1  0.62766000  0.31725000  0.95062000  1.0
  H  H111  1  0.62171000  0.09582000  0.88277000  1.0
  C  C112  1  0.33593000  0.34217000  0.87261000  1.0
  C  C113  1  0.34765000  0.31587000  0.64206000  1.0
  C  C114  1  0.70360000  0.57515000  0.14100000  1.0
  C  C115  1  0.71439000  0.56564000  0.37246000  1.0
  C  C116  1  0.87467000  0.22691000  0.06495000  1.0
  C  C117  1  0.13412000  0.14879000  0.95579000  1.0
  C  C118  1  0.73124000  0.14425000  0.94222000  1.0
  C  C119  1  0.90746000  0.76405000  0.05282000  1.0
  C  C120  1  0.15309000  0.69029000  0.94746000  1.0
  C  C121  1  0.30907000  0.77577000  0.07382000  1.0
  C  C122  1  0.16692000  0.66822000  0.56418000  1.0
  C  C123  1  0.91896000  0.75750000  0.44748000  1.0
  C  C124  1  0.32552000  0.75408000  0.45000000  1.0
  C  C125  1  0.14767000  0.12181000  0.56395000  1.0
  C  C126  1  0.90870000  0.21389000  0.44970000  1.0
  C  C127  1  0.73454000  0.12337000  0.56096000  1.0
  C  C128  1  0.55548000  0.69434000  0.37505000  1.0
  C  C129  1  0.60863000  0.60836000  0.38956000  1.0
  C  C130  1  0.56280000  0.56813000  0.41901000  1.0
  C  C131  1  0.46866000  0.61344000  0.43622000  1.0
  C  C132  1  0.42046000  0.70073000  0.42614000  1.0
  C  C133  1  0.46432000  0.74062000  0.39449000  1.0
  C  C134  1  0.77596000  0.45407000  0.44541000  1.0
  C  C135  1  0.76587000  0.47223000  0.39126000  1.0
  C  C136  1  0.80737000  0.40455000  0.35710000  1.0
  C  C137  1  0.85448000  0.32121000  0.37615000  1.0
  C  C138  1  0.86163000  0.30355000  0.42998000  1.0
  C  C139  1  0.82227000  0.37104000  0.46466000  1.0
  C  C140  1  0.86850000  0.58445000  0.38420000  1.0
  C  C141  1  0.77123000  0.61081000  0.39664000  1.0
  C  C142  1  0.72926000  0.67817000  0.43087000  1.0
  C  C143  1  0.77918000  0.72330000  0.44756000  1.0
  C  C144  1  0.87360000  0.70087000  0.43191000  1.0
  C  C145  1  0.91937000  0.62888000  0.40141000  1.0
  C  C146  1  0.65655000  0.54113000  0.23030000  1.0
  C  C147  1  0.70672000  0.57838000  0.20108000  1.0
  C  C148  1  0.75251000  0.61878000  0.22865000  1.0
  C  C149  1  0.75479000  0.61661000  0.28344000  1.0
  C  C150  1  0.71147000  0.57386000  0.31232000  1.0
  C  C151  1  0.65900000  0.53876000  0.28453000  1.0
  C  C152  1  0.90765000  0.63698000  0.10416000  1.0
  C  C153  1  0.86136000  0.70825000  0.07103000  1.0
  C  C154  1  0.76616000  0.73074000  0.05650000  1.0
  C  C155  1  0.71635000  0.68693000  0.07728000  1.0
  C  C156  1  0.75938000  0.62026000  0.11392000  1.0
  C  C157  1  0.85735000  0.59345000  0.12498000  1.0
  C  C158  1  0.54445000  0.58443000  0.10132000  1.0
  C  C159  1  0.59619000  0.62161000  0.12695000  1.0
  C  C160  1  0.54808000  0.70740000  0.14076000  1.0
  C  C161  1  0.45485000  0.75677000  0.12428000  1.0
  C  C162  1  0.40472000  0.71969000  0.09659000  1.0
  C  C163  1  0.44853000  0.63273000  0.08717000  1.0
  C  C164  1  0.83318000  0.32990000  0.13784000  1.0
  C  C165  1  0.83231000  0.31561000  0.08430000  1.0
  C  C166  1  0.79296000  0.38561000  0.04946000  1.0
  C  C167  1  0.75269000  0.46772000  0.06834000  1.0
  C  C168  1  0.75000000  0.48268000  0.12231000  1.0
  C  C169  1  0.79321000  0.41241000  0.15645000  1.0
  C  C170  1  0.32868000  0.43240000  0.57272000  1.0
  C  C171  1  0.30163000  0.40847000  0.62050000  1.0
  C  C172  1  0.22767000  0.47108000  0.64863000  1.0
  C  C173  1  0.18508000  0.55512000  0.63084000  1.0
  C  C174  1  0.21272000  0.57808000  0.58298000  1.0
  C  C175  1  0.28348000  0.51584000  0.55354000  1.0
  C  C176  1  0.33325000  0.17838000  0.62574000  1.0
  C  C177  1  0.29001000  0.26773000  0.62320000  1.0
  C  C178  1  0.19635000  0.30905000  0.60370000  1.0
  C  C179  1  0.14751000  0.26268000  0.58635000  1.0
  C  C180  1  0.19327000  0.17400000  0.58647000  1.0
  C  C181  1  0.28667000  0.13196000  0.60665000  1.0
  C  C182  1  0.46539000  0.23631000  0.57095000  1.0
  C  C183  1  0.45122000  0.26882000  0.62175000  1.0
  C  C184  1  0.53263000  0.25509000  0.65158000  1.0
  C  C185  1  0.62462000  0.21169000  0.63146000  1.0
  C  C186  1  0.63759000  0.17751000  0.58165000  1.0
  C  C187  1  0.55667000  0.18999000  0.55163000  1.0
  C  C188  1  0.30087000  0.28328000  0.78744000  1.0
  C  C189  1  0.33562000  0.33465000  0.81277000  1.0
  C  C190  1  0.37908000  0.37599000  0.78184000  1.0
  C  C191  1  0.38212000  0.36984000  0.72778000  1.0
  C  C192  1  0.34599000  0.31880000  0.70214000  1.0
  C  C193  1  0.30641000  0.27518000  0.73308000  1.0
  C  C194  1  0.24361000  0.50450000  0.85596000  1.0
  C  C195  1  0.28727000  0.43478000  0.89041000  1.0
  C  C196  1  0.28200000  0.45017000  0.94440000  1.0
  C  C197  1  0.23805000  0.53223000  0.96306000  1.0
  C  C198  1  0.19756000  0.60182000  0.92802000  1.0
  C  C199  1  0.20017000  0.58703000  0.87441000  1.0
  C  C200  1  0.32282000  0.22985000  0.93551000  1.0
  C  C201  1  0.27997000  0.29680000  0.89918000  1.0
  C  C202  1  0.18275000  0.32233000  0.88660000  1.0
  C  C203  1  0.13277000  0.27741000  0.90578000  1.0
  C  C204  1  0.17924000  0.20582000  0.93859000  1.0
  C  C205  1  0.27355000  0.18446000  0.95445000  1.0
  C  C206  1  0.49319000  0.21164000  0.87390000  1.0
  C  C207  1  0.44321000  0.29719000  0.88781000  1.0
  C  C208  1  0.49345000  0.33488000  0.91445000  1.0
  C  C209  1  0.58931000  0.28747000  0.92942000  1.0
  C  C210  1  0.63495000  0.20062000  0.91979000  1.0
  C  C211  1  0.58624000  0.16340000  0.89100000  1.0
  O  O212  1  0.95859000  0.11942000  0.87528000  1.0
  O  O213  1  0.88566000  0.21703000  0.01573000  1.0
  O  O214  1  0.79799000  0.16962000  0.94024000  1.0
  O  O215  1  0.19239000  0.07751000  0.97583000  1.0
  O  O216  1  0.73855000  0.07370000  0.96115000  1.0
  O  O217  1  0.04428000  0.17292000  0.94973000  1.0
  O  O218  1  0.89784000  0.16674000  0.09940000  1.0
  O  O219  1  0.90560000  0.04392000  0.02318000  1.0
  O  O220  1  0.04946000  0.07808000  0.03678000  1.0
  O  O221  1  0.91750000  0.00035000  0.92790000  1.0
  O  O222  1  0.07634000  0.99390000  0.95367000  1.0
  O  O223  1  0.28906000  0.91424000  0.95221000  1.0
  O  O224  1  0.82219000  0.05832000  0.12494000  1.0
  O  O225  1  0.10223000  0.92402000  0.06506000  1.0
  O  O226  1  0.95200000  0.90892000  0.08284000  1.0
  O  O227  1  0.99850000  0.86842000  0.98485000  1.0
  O  O228  1  0.17564000  0.84134000  0.98218000  1.0
  O  O229  1  0.74976000  0.99790000  0.05738000  1.0
  O  O230  1  0.85236000  0.83389000  0.03080000  1.0
  O  O231  1  0.99696000  0.74058000  0.06204000  1.0
  O  O232  1  0.04104000  0.96440000  0.84429000  1.0
  O  O233  1  0.14892000  0.69981000  0.99686000  1.0
  O  O234  1  0.81218000  0.90701000  0.93391000  1.0
  O  O235  1  0.95430000  0.85686000  0.87480000  1.0
  O  O236  1  0.20897000  0.86669000  0.88259000  1.0
  O  O237  1  0.12318000  0.75091000  0.91311000  1.0
  O  O238  1  0.10790000  0.75224000  0.13123000  1.0
  O  O239  1  0.23778000  0.01075000  0.07392000  1.0
  O  O240  1  0.24385000  0.74789000  0.07370000  1.0
  O  O241  1  0.30038000  0.84640000  0.05528000  1.0
  O  O242  1  0.09468000  0.05884000  0.13598000  1.0
  O  O243  1  0.99729000  0.98780000  0.17379000  1.0
  O  O244  1  0.10325000  0.79175000  0.37378000  1.0
  O  O245  1  0.16249000  0.68223000  0.51493000  1.0
  O  O246  1  0.25696000  0.73232000  0.44386000  1.0
  O  O247  1  0.86064000  0.82864000  0.46517000  1.0
  O  O248  1  0.32104000  0.81905000  0.47390000  1.0
  O  O249  1  0.00931000  0.73269000  0.44281000  1.0
  O  O250  1  0.13527000  0.72470000  0.59930000  1.0
  O  O251  1  0.14061000  0.85199000  0.52613000  1.0
  O  O252  1  0.99481000  0.82080000  0.53119000  1.0
  O  O253  1  0.14420000  0.90260000  0.43261000  1.0
  O  O254  1  0.97930000  0.91172000  0.44850000  1.0
  O  O255  1  0.76742000  0.99420000  0.43717000  1.0
  O  O256  1  0.21081000  0.82745000  0.63330000  1.0
  O  O257  1  0.94131000  0.97191000  0.56114000  1.0
  O  O258  1  0.09427000  0.97965000  0.58747000  1.0
  O  O259  1  0.05946000  0.02932000  0.48916000  1.0
  O  O260  1  0.88386000  0.06255000  0.47745000  1.0
  O  O261  1  0.29813000  0.88342000  0.57042000  1.0
  O  O262  1  0.20413000  0.05248000  0.54419000  1.0
  O  O263  1  0.05627000  0.14918000  0.56687000  1.0
  O  O264  1  0.02990000  0.94967000  0.34383000  1.0
  O  O265  1  0.90767000  0.20030000  0.49892000  1.0
  O  O266  1  0.25297000  0.98887000  0.44656000  1.0
  O  O267  1  0.11696000  0.05126000  0.38247000  1.0
  O  O268  1  0.85848000  0.04719000  0.37580000  1.0
  O  O269  1  0.94550000  0.15622000  0.41550000  1.0
  O  O270  1  0.93716000  0.13847000  0.63112000  1.0
  O  O271  1  0.80077000  0.89593000  0.56080000  1.0
  O  O272  1  0.80434000  0.14206000  0.57217000  1.0
  O  O273  1  0.74021000  0.06234000  0.53300000  1.0
  O  O274  1  0.93632000  0.83364000  0.62819000  1.0
  O  O275  1  0.03068000  0.89961000  0.67301000  1.0
