# generated using pymatgen
data_LuH24C24(NO2)6
_symmetry_space_group_name_H-M   'P 1'
_cell_length_a   15.76930000
_cell_length_b   15.76930000
_cell_length_c   16.84660000
_cell_angle_alpha   90.00000000
_cell_angle_beta   90.00000000
_cell_angle_gamma   120.00000000
_symmetry_Int_Tables_number   1
_chemical_formula_structural   LuH24C24(NO2)6
_chemical_formula_sum   'Lu4 H96 C96 N24 O48'
_cell_volume   3628.00374549
_cell_formula_units_Z   4
loop_
 _symmetry_equiv_pos_site_id
 _symmetry_equiv_pos_as_xyz
  1  'x, y, z'
loop_
 _atom_site_type_symbol
 _atom_site_label
 _atom_site_symmetry_multiplicity
 _atom_site_fract_x
 _atom_site_fract_y
 _atom_site_fract_z
 _atom_site_occupancy
  Lu  Lu0  1  0.33333333  0.66666667  0.67144000  1.0
  Lu  Lu1  1  0.66666667  0.33333333  0.82856000  1.0
  Lu  Lu2  1  0.66666667  0.33333333  0.32856000  1.0
  Lu  Lu3  1  0.33333333  0.66666667  0.17144000  1.0
  H  H4  1  0.26256000  0.74920000  0.49454000  1.0
  H  H5  1  0.48664000  0.73744000  0.49454000  1.0
  H  H6  1  0.25080000  0.51336000  0.49454000  1.0
  H  H7  1  0.51336000  0.25080000  0.00546000  1.0
  H  H8  1  0.74920000  0.26256000  0.00546000  1.0
  H  H9  1  0.73744000  0.48664000  0.00546000  1.0
  H  H10  1  0.73744000  0.25080000  0.50546000  1.0
  H  H11  1  0.51336000  0.26256000  0.50546000  1.0
  H  H12  1  0.74920000  0.48664000  0.50546000  1.0
  H  H13  1  0.48664000  0.74920000  0.99454000  1.0
  H  H14  1  0.25080000  0.73744000  0.99454000  1.0
  H  H15  1  0.26256000  0.51336000  0.99454000  1.0
  H  H16  1  0.15776000  0.80813000  0.43332000  1.0
  H  H17  1  0.65037000  0.84224000  0.43332000  1.0
  H  H18  1  0.19187000  0.34964000  0.43332000  1.0
  H  H19  1  0.34964000  0.19188000  0.06668000  1.0
  H  H20  1  0.80813000  0.15776000  0.06668000  1.0
  H  H21  1  0.84224000  0.65037000  0.06668000  1.0
  H  H22  1  0.84224000  0.19187000  0.56668000  1.0
  H  H23  1  0.34963000  0.15776000  0.56668000  1.0
  H  H24  1  0.80813000  0.65037000  0.56668000  1.0
  H  H25  1  0.65036000  0.80812000  0.93332000  1.0
  H  H26  1  0.19187000  0.84224000  0.93332000  1.0
  H  H27  1  0.15776000  0.34963000  0.93332000  1.0
  H  H28  1  0.97963000  0.72862000  0.46645000  1.0
  H  H29  1  0.74900000  0.02038000  0.46645000  1.0
  H  H30  1  0.27138000  0.25101000  0.46645000  1.0
  H  H31  1  0.25101000  0.27138000  0.03355000  1.0
  H  H32  1  0.72862000  0.97962000  0.03355000  1.0
  H  H33  1  0.02037000  0.74899000  0.03355000  1.0
  H  H34  1  0.02037000  0.27137000  0.53355000  1.0
  H  H35  1  0.25100000  0.97962000  0.53355000  1.0
  H  H36  1  0.72862000  0.74899000  0.53355000  1.0
  H  H37  1  0.74900000  0.72863000  0.96645000  1.0
  H  H38  1  0.27138000  0.02038000  0.96645000  1.0
  H  H39  1  0.97963000  0.25101000  0.96645000  1.0
  H  H40  1  0.90657000  0.58470000  0.55745000  1.0
  H  H41  1  0.67813000  0.09343000  0.55745000  1.0
  H  H42  1  0.41530000  0.32187000  0.55745000  1.0
  H  H43  1  0.32187000  0.41530000  0.94255000  1.0
  H  H44  1  0.58470000  0.90657000  0.94255000  1.0
  H  H45  1  0.09343000  0.67813000  0.94255000  1.0
  H  H46  1  0.09343000  0.41530000  0.44255000  1.0
  H  H47  1  0.32187000  0.90657000  0.44255000  1.0
  H  H48  1  0.58470000  0.67813000  0.44255000  1.0
  H  H49  1  0.67813000  0.58470000  0.05745000  1.0
  H  H50  1  0.41530000  0.09343000  0.05745000  1.0
  H  H51  1  0.90657000  0.32187000  0.05745000  1.0
  H  H52  1  0.91439000  0.46708000  0.63415000  1.0
  H  H53  1  0.55269000  0.08562000  0.63415000  1.0
  H  H54  1  0.53293000  0.44731000  0.63415000  1.0
  H  H55  1  0.44731000  0.53292000  0.86585000  1.0
  H  H56  1  0.46707000  0.91438000  0.86585000  1.0
  H  H57  1  0.08562000  0.55269000  0.86585000  1.0
  H  H58  1  0.08561000  0.53292000  0.36585000  1.0
  H  H59  1  0.44731000  0.91438000  0.36585000  1.0
  H  H60  1  0.46707000  0.55269000  0.36585000  1.0
  H  H61  1  0.55269000  0.46707000  0.13415000  1.0
  H  H62  1  0.53293000  0.08562000  0.13415000  1.0
  H  H63  1  0.91438000  0.44731000  0.13415000  1.0
  H  H64  1  0.01114000  0.31988000  0.68076000  1.0
  H  H65  1  0.30874000  0.98886000  0.68076000  1.0
  H  H66  1  0.68012000  0.69126000  0.68075000  1.0
  H  H67  1  0.69126000  0.68012000  0.81924000  1.0
  H  H68  1  0.31988000  0.01114000  0.81924000  1.0
  H  H69  1  0.98886000  0.30874000  0.81924000  1.0
  H  H70  1  0.98886000  0.68012000  0.31924000  1.0
  H  H71  1  0.69126000  0.01114000  0.31925000  1.0
  H  H72  1  0.31988000  0.30874000  0.31924000  1.0
  H  H73  1  0.30874000  0.31988000  0.18076000  1.0
  H  H74  1  0.68012000  0.98886000  0.18076000  1.0
  H  H75  1  0.01114000  0.69126000  0.18076000  1.0
  H  H76  1  0.90857000  0.33571000  0.69668000  1.0
  H  H77  1  0.42714000  0.09143000  0.69669000  1.0
  H  H78  1  0.66429000  0.57286000  0.69668000  1.0
  H  H79  1  0.57286000  0.66429000  0.80332000  1.0
  H  H80  1  0.33571000  0.90857000  0.80331000  1.0
  H  H81  1  0.09143000  0.42714000  0.80332000  1.0
  H  H82  1  0.09143000  0.66429000  0.30331000  1.0
  H  H83  1  0.57286000  0.90857000  0.30331000  1.0
  H  H84  1  0.33571000  0.42714000  0.30332000  1.0
  H  H85  1  0.42714000  0.33571000  0.19668000  1.0
  H  H86  1  0.66429000  0.09143000  0.19669000  1.0
  H  H87  1  0.90857000  0.57286000  0.19668000  1.0
  H  H88  1  0.11253000  0.49501000  0.65490000  1.0
  H  H89  1  0.38248000  0.88747000  0.65490000  1.0
  H  H90  1  0.50500000  0.61753000  0.65490000  1.0
  H  H91  1  0.61752000  0.50499000  0.84510000  1.0
  H  H92  1  0.49501000  0.11253000  0.84510000  1.0
  H  H93  1  0.88748000  0.38249000  0.84510000  1.0
  H  H94  1  0.88747000  0.50499000  0.34510000  1.0
  H  H95  1  0.61752000  0.11253000  0.34510000  1.0
  H  H96  1  0.49500000  0.38248000  0.34510000  1.0
  H  H97  1  0.38248000  0.49501000  0.15490000  1.0
  H  H98  1  0.50499000  0.88747000  0.15490000  1.0
  H  H99  1  0.11253000  0.61752000  0.15490000  1.0
  C  C100  1  0.14588000  0.63466000  0.56210000  1.0
  C  C101  1  0.48878000  0.85411000  0.56210000  1.0
  C  C102  1  0.36534000  0.51122000  0.56210000  1.0
  C  C103  1  0.51122000  0.36534000  0.93790000  1.0
  C  C104  1  0.63467000  0.14589000  0.93790000  1.0
  C  C105  1  0.85412000  0.48878000  0.93790000  1.0
  C  C106  1  0.85412000  0.36534000  0.43790000  1.0
  C  C107  1  0.51122000  0.14588000  0.43790000  1.0
  C  C108  1  0.63466000  0.48878000  0.43790000  1.0
  C  C109  1  0.48878000  0.63466000  0.06210000  1.0
  C  C110  1  0.36533000  0.85411000  0.06210000  1.0
  C  C111  1  0.14588000  0.51122000  0.06210000  1.0
  C  C112  1  0.18456000  0.71396000  0.50768000  1.0
  C  C113  1  0.52940000  0.81544000  0.50768000  1.0
  C  C114  1  0.28604000  0.47060000  0.50768000  1.0
  C  C115  1  0.47060000  0.28604000  0.99232000  1.0
  C  C116  1  0.71396000  0.18456000  0.99232000  1.0
  C  C117  1  0.81544000  0.52940000  0.99232000  1.0
  C  C118  1  0.81544000  0.28604000  0.49232000  1.0
  C  C119  1  0.47060000  0.18456000  0.49232000  1.0
  C  C120  1  0.71396000  0.52940000  0.49232000  1.0
  C  C121  1  0.52940000  0.71396000  0.00768000  1.0
  C  C122  1  0.28604000  0.81544000  0.00768000  1.0
  C  C123  1  0.18456000  0.47060000  0.00768000  1.0
  C  C124  1  0.12560000  0.74663000  0.47463000  1.0
  C  C125  1  0.62103000  0.87440000  0.47463000  1.0
  C  C126  1  0.25337000  0.37897000  0.47463000  1.0
  C  C127  1  0.37897000  0.25337000  0.02537000  1.0
  C  C128  1  0.74663000  0.12560000  0.02537000  1.0
  C  C129  1  0.87440000  0.62103000  0.02537000  1.0
  C  C130  1  0.87440000  0.25337000  0.52537000  1.0
  C  C131  1  0.37897000  0.12560000  0.52537000  1.0
  C  C132  1  0.74663000  0.62103000  0.52537000  1.0
  C  C133  1  0.62103000  0.74663000  0.97463000  1.0
  C  C134  1  0.25337000  0.87440000  0.97463000  1.0
  C  C135  1  0.12560000  0.37897000  0.97463000  1.0
  C  C136  1  0.02486000  0.70160000  0.49253000  1.0
  C  C137  1  0.67674000  0.97514000  0.49253000  1.0
  C  C138  1  0.29840000  0.32326000  0.49253000  1.0
  C  C139  1  0.32326000  0.29840000  0.00747000  1.0
  C  C140  1  0.70160000  0.02486000  0.00747000  1.0
  C  C141  1  0.97514000  0.67674000  0.00747000  1.0
  C  C142  1  0.97514000  0.29840000  0.50747000  1.0
  C  C143  1  0.32326000  0.02486000  0.50747000  1.0
  C  C144  1  0.70160000  0.67674000  0.50747000  1.0
  C  C145  1  0.67674000  0.70160000  0.99253000  1.0
  C  C146  1  0.29840000  0.97514000  0.99253000  1.0
  C  C147  1  0.02486000  0.32326000  0.99253000  1.0
  C  C148  1  0.98418000  0.62203000  0.54284000  1.0
  C  C149  1  0.63785000  0.01582000  0.54284000  1.0
  C  C150  1  0.37797000  0.36215000  0.54284000  1.0
  C  C151  1  0.36215000  0.37797000  0.95716000  1.0
  C  C152  1  0.62203000  0.98418000  0.95716000  1.0
  C  C153  1  0.01582000  0.63785000  0.95716000  1.0
  C  C154  1  0.01582000  0.37797000  0.45716000  1.0
  C  C155  1  0.36215000  0.98418000  0.45716000  1.0
  C  C156  1  0.62203000  0.63785000  0.45716000  1.0
  C  C157  1  0.63785000  0.62203000  0.04284000  1.0
  C  C158  1  0.37797000  0.01582000  0.04284000  1.0
  C  C159  1  0.98418000  0.36215000  0.04284000  1.0
  C  C160  1  0.04223000  0.58676000  0.57807000  1.0
  C  C161  1  0.54453000  0.95776000  0.57807000  1.0
  C  C162  1  0.41324000  0.45547000  0.57807000  1.0
  C  C163  1  0.45547000  0.41324000  0.92193000  1.0
  C  C164  1  0.58677000  0.04224000  0.92193000  1.0
  C  C165  1  0.95777000  0.54453000  0.92193000  1.0
  C  C166  1  0.95777000  0.41324000  0.42193000  1.0
  C  C167  1  0.45547000  0.04223000  0.42193000  1.0
  C  C168  1  0.58676000  0.54453000  0.42193000  1.0
  C  C169  1  0.54453000  0.58676000  0.07807000  1.0
  C  C170  1  0.41323000  0.95776000  0.07807000  1.0
  C  C171  1  0.04223000  0.45546000  0.07807000  1.0
  C  C172  1  0.99369000  0.50199000  0.62635000  1.0
  C  C173  1  0.50830000  0.00631000  0.62635000  1.0
  C  C174  1  0.49801000  0.49170000  0.62635000  1.0
  C  C175  1  0.49170000  0.49801000  0.87365000  1.0
  C  C176  1  0.50199000  0.99369000  0.87365000  1.0
  C  C177  1  0.00631000  0.50830000  0.87365000  1.0
  C  C178  1  0.00631000  0.49801000  0.37365000  1.0
  C  C179  1  0.49170000  0.99369000  0.37365000  1.0
  C  C180  1  0.50199000  0.50830000  0.37365000  1.0
  C  C181  1  0.50830000  0.50199000  0.12635000  1.0
  C  C182  1  0.49801000  0.00631000  0.12635000  1.0
  C  C183  1  0.99369000  0.49170000  0.12635000  1.0
  C  C184  1  0.98772000  0.36924000  0.70570000  1.0
  C  C185  1  0.38152000  0.01228000  0.70570000  1.0
  C  C186  1  0.63077000  0.61849000  0.70570000  1.0
  C  C187  1  0.61848000  0.63076000  0.79430000  1.0
  C  C188  1  0.36924000  0.98772000  0.79430000  1.0
  C  C189  1  0.01228000  0.38151000  0.79430000  1.0
  C  C190  1  0.01228000  0.63076000  0.29430000  1.0
  C  C191  1  0.61848000  0.98772000  0.29430000  1.0
  C  C192  1  0.36923000  0.38151000  0.29430000  1.0
  C  C193  1  0.38152000  0.36924000  0.20570000  1.0
  C  C194  1  0.63076000  0.01228000  0.20570000  1.0
  C  C195  1  0.98772000  0.61848000  0.20570000  1.0
  N  N196  1  0.03748000  0.46073000  0.66229000  1.0
  N  N197  1  0.42325000  0.96252000  0.66229000  1.0
  N  N198  1  0.53927000  0.57675000  0.66229000  1.0
  N  N199  1  0.57675000  0.53927000  0.83771000  1.0
  N  N200  1  0.46073000  0.03748000  0.83771000  1.0
  N  N201  1  0.96252000  0.42325000  0.83771000  1.0
  N  N202  1  0.96252000  0.53927000  0.33771000  1.0
  N  N203  1  0.57675000  0.03748000  0.33771000  1.0
  N  N204  1  0.46073000  0.42325000  0.33771000  1.0
  N  N205  1  0.42325000  0.46073000  0.16229000  1.0
  N  N206  1  0.53927000  0.96252000  0.16229000  1.0
  N  N207  1  0.03748000  0.57675000  0.16229000  1.0
  N  N208  1  0.20873000  0.71562000  0.76195000  1.0
  N  N209  1  0.50689000  0.79126000  0.76195000  1.0
  N  N210  1  0.28437000  0.49310000  0.76195000  1.0
  N  N211  1  0.49311000  0.28438000  0.73805000  1.0
  N  N212  1  0.71563000  0.20874000  0.73805000  1.0
  N  N213  1  0.79127000  0.50689000  0.73805000  1.0
  N  N214  1  0.79127000  0.28438000  0.23805000  1.0
  N  N215  1  0.49311000  0.20874000  0.23805000  1.0
  N  N216  1  0.71563000  0.50690000  0.23805000  1.0
  N  N217  1  0.50689000  0.71562000  0.26195000  1.0
  N  N218  1  0.28437000  0.79126000  0.26195000  1.0
  N  N219  1  0.20873000  0.49311000  0.26195000  1.0
  O  O220  1  0.20104000  0.60493000  0.59618000  1.0
  O  O221  1  0.40389000  0.79896000  0.59618000  1.0
  O  O222  1  0.39507000  0.59611000  0.59618000  1.0
  O  O223  1  0.59611000  0.39507000  0.90382000  1.0
  O  O224  1  0.60493000  0.20104000  0.90382000  1.0
  O  O225  1  0.79896000  0.40389000  0.90382000  1.0
  O  O226  1  0.79896000  0.39507000  0.40382000  1.0
  O  O227  1  0.59611000  0.20104000  0.40382000  1.0
  O  O228  1  0.60493000  0.40389000  0.40382000  1.0
  O  O229  1  0.40389000  0.60493000  0.09618000  1.0
  O  O230  1  0.39507000  0.79896000  0.09618000  1.0
  O  O231  1  0.20104000  0.59611000  0.09618000  1.0
  O  O232  1  0.21554000  0.63878000  0.77533000  1.0
  O  O233  1  0.42324000  0.78446000  0.77533000  1.0
  O  O234  1  0.36122000  0.57676000  0.77534000  1.0
  O  O235  1  0.57676000  0.36122000  0.72467000  1.0
  O  O236  1  0.63877000  0.21553000  0.72467000  1.0
  O  O237  1  0.78446000  0.42323000  0.72467000  1.0
  O  O238  1  0.78446000  0.36122000  0.22467000  1.0
  O  O239  1  0.57676000  0.21553000  0.22467000  1.0
  O  O240  1  0.63877000  0.42323000  0.22467000  1.0
  O  O241  1  0.42323000  0.63877000  0.27533000  1.0
  O  O242  1  0.36122000  0.78446000  0.27533000  1.0
  O  O243  1  0.21553000  0.57676000  0.27533000  1.0
  O  O244  1  0.15984000  0.73862000  0.80480000  1.0
  O  O245  1  0.57878000  0.84015000  0.80480000  1.0
  O  O246  1  0.26137000  0.42122000  0.80480000  1.0
  O  O247  1  0.42122000  0.26138000  0.69520000  1.0
  O  O248  1  0.73863000  0.15985000  0.69520000  1.0
  O  O249  1  0.84016000  0.57879000  0.69520000  1.0
  O  O250  1  0.84015000  0.26137000  0.19520000  1.0
  O  O251  1  0.42122000  0.15985000  0.19520000  1.0
  O  O252  1  0.73863000  0.57878000  0.19520000  1.0
  O  O253  1  0.57878000  0.73862000  0.30480000  1.0
  O  O254  1  0.26137000  0.84015000  0.30480000  1.0
  O  O255  1  0.15985000  0.42122000  0.30480000  1.0
  O  O256  1  0.25628000  0.76656000  0.70147000  1.0
  O  O257  1  0.51029000  0.74373000  0.70147000  1.0
  O  O258  1  0.23344000  0.48971000  0.70147000  1.0
  O  O259  1  0.48972000  0.23344000  0.79853000  1.0
  O  O260  1  0.76656000  0.25627000  0.79853000  1.0
  O  O261  1  0.74372000  0.51028000  0.79853000  1.0
  O  O262  1  0.74373000  0.23345000  0.29853000  1.0
  O  O263  1  0.48972000  0.25628000  0.29853000  1.0
  O  O264  1  0.76656000  0.51029000  0.29853000  1.0
  O  O265  1  0.51028000  0.76656000  0.20147000  1.0
  O  O266  1  0.23344000  0.74373000  0.20147000  1.0
  O  O267  1  0.25627000  0.48971000  0.20147000  1.0
