# generated using pymatgen
data_CaH2C6SO4
_symmetry_space_group_name_H-M   'P 1'
_cell_length_a   5.30719000
_cell_length_b   6.94767000
_cell_length_c   18.24310000
_cell_angle_alpha   90.00030000
_cell_angle_beta   90.00050000
_cell_angle_gamma   89.99910000
_symmetry_Int_Tables_number   1
_chemical_formula_structural   CaH2C6SO4
_chemical_formula_sum   'Ca4 H8 C24 S4 O16'
_cell_volume   672.67061555
_cell_formula_units_Z   4
loop_
 _symmetry_equiv_pos_site_id
 _symmetry_equiv_pos_as_xyz
  1  'x, y, z'
loop_
 _atom_site_type_symbol
 _atom_site_label
 _atom_site_symmetry_multiplicity
 _atom_site_fract_x
 _atom_site_fract_y
 _atom_site_fract_z
 _atom_site_occupancy
  Ca  Ca0  1  0.15271000  0.25000000  0.00000000  1.0
  Ca  Ca1  1  0.84729000  0.75000000  0.50000000  1.0
  Ca  Ca2  1  0.84729000  0.75000000  0.00000000  1.0
  Ca  Ca3  1  0.15271000  0.25001000  0.50000000  1.0
  H  H4  1  0.09537000  0.94605000  0.82270000  1.0
  H  H5  1  0.90463000  0.05395000  0.32270000  1.0
  H  H6  1  0.09537000  0.55395000  0.17730000  1.0
  H  H7  1  0.90462000  0.44603000  0.67730000  1.0
  H  H8  1  0.90462000  0.05394000  0.17730000  1.0
  H  H9  1  0.09539000  0.94606000  0.67730000  1.0
  H  H10  1  0.90465000  0.44605000  0.82269000  1.0
  H  H11  1  0.09536000  0.55395000  0.32270000  1.0
  C  C12  1  0.72616000  0.08095000  0.81750000  1.0
  C  C13  1  0.27385000  0.91904000  0.31750000  1.0
  C  C14  1  0.72616000  0.41905000  0.18249000  1.0
  C  C15  1  0.27384000  0.58094000  0.68249000  1.0
  C  C16  1  0.27383000  0.91904000  0.18250000  1.0
  C  C17  1  0.72616000  0.08096000  0.68250000  1.0
  C  C18  1  0.27383000  0.58095000  0.81749000  1.0
  C  C19  1  0.72617000  0.41905000  0.31750000  1.0
  C  C20  1  0.65907000  0.10466000  0.89551000  1.0
  C  C21  1  0.34093000  0.89534000  0.39551000  1.0
  C  C22  1  0.65906000  0.39534000  0.10449000  1.0
  C  C23  1  0.34091000  0.60466000  0.60449000  1.0
  C  C24  1  0.34094000  0.89535000  0.10451000  1.0
  C  C25  1  0.65906000  0.10468000  0.60451000  1.0
  C  C26  1  0.34093000  0.60464000  0.89550000  1.0
  C  C27  1  0.65908000  0.39535000  0.39551000  1.0
  C  C28  1  0.94372000  0.00036000  0.78855000  1.0
  C  C29  1  0.05629000  0.99963000  0.28855000  1.0
  C  C30  1  0.94372000  0.49963000  0.21145000  1.0
  C  C31  1  0.05628000  0.50037000  0.71146000  1.0
  C  C32  1  0.05629000  0.99963000  0.21146000  1.0
  C  C33  1  0.94372000  0.00038000  0.71146000  1.0
  C  C34  1  0.05628000  0.50036000  0.78855000  1.0
  C  C35  1  0.94371000  0.49963000  0.28855000  1.0
  S  S36  1  0.52327000  0.15668000  0.75000000  1.0
  S  S37  1  0.47674000  0.84332000  0.25000000  1.0
  S  S38  1  0.52328000  0.34333000  0.25000000  1.0
  S  S39  1  0.47671000  0.65667000  0.75000000  1.0
  O  O40  1  0.44205000  0.16632000  0.91110000  1.0
  O  O41  1  0.55794000  0.83368000  0.41110000  1.0
  O  O42  1  0.44205000  0.33369000  0.08889000  1.0
  O  O43  1  0.55792000  0.66632000  0.58889000  1.0
  O  O44  1  0.55795000  0.83368000  0.08889000  1.0
  O  O45  1  0.44205000  0.16633000  0.58889000  1.0
  O  O46  1  0.55794000  0.66631000  0.91110000  1.0
  O  O47  1  0.44206000  0.33370000  0.41110000  1.0
  O  O48  1  0.82974000  0.05956000  0.94324000  1.0
  O  O49  1  0.17028000  0.94043000  0.44324000  1.0
  O  O50  1  0.82978000  0.44045000  0.05676000  1.0
  O  O51  1  0.17021000  0.55955000  0.55676000  1.0
  O  O52  1  0.17023000  0.94044000  0.05675000  1.0
  O  O53  1  0.82977000  0.05956000  0.55676000  1.0
  O  O54  1  0.17024000  0.55956000  0.94323000  1.0
  O  O55  1  0.82978000  0.44045000  0.44323000  1.0
