# generated using pymatgen
data_CuH3(CN)6
_symmetry_space_group_name_H-M   'P 1'
_cell_length_a   28.10830000
_cell_length_b   29.08970000
_cell_length_c   32.53680000
_cell_angle_alpha   96.87940000
_cell_angle_beta   89.52980000
_cell_angle_gamma   89.70150000
_symmetry_Int_Tables_number   1
_chemical_formula_structural   CuH3(CN)6
_chemical_formula_sum   'Cu12 H36 C72 N72'
_cell_volume   26411.16515859
_cell_formula_units_Z   12
loop_
 _symmetry_equiv_pos_site_id
 _symmetry_equiv_pos_as_xyz
  1  'x, y, z'
loop_
 _atom_site_type_symbol
 _atom_site_label
 _atom_site_symmetry_multiplicity
 _atom_site_fract_x
 _atom_site_fract_y
 _atom_site_fract_z
 _atom_site_occupancy
  Cu  Cu0  1  0.07120000  0.04555000  0.84140000  1.0
  Cu  Cu1  1  0.10611000  0.09210000  0.92726000  1.0
  Cu  Cu2  1  0.06583000  0.15518000  0.86246000  1.0
  Cu  Cu3  1  0.91777000  0.40425000  0.34582000  1.0
  Cu  Cu4  1  0.86575000  0.37699000  0.42517000  1.0
  Cu  Cu5  1  0.96156000  0.32251000  0.38853000  1.0
  Cu  Cu6  1  0.57413000  0.95606000  0.65967000  1.0
  Cu  Cu7  1  0.60960000  0.90871000  0.57310000  1.0
  Cu  Cu8  1  0.56654000  0.84699000  0.63801000  1.0
  Cu  Cu9  1  0.42422000  0.59068000  0.14913000  1.0
  Cu  Cu10  1  0.36881000  0.62137000  0.07328000  1.0
  Cu  Cu11  1  0.46066000  0.67875000  0.11200000  1.0
  H  H12  1  0.13385000  0.95131000  0.83310000  1.0
  H  H13  1  0.16591000  0.01053000  0.95860000  1.0
  H  H14  1  0.99885000  0.18083000  0.78988000  1.0
  H  H15  1  0.99082000  0.03077000  0.77259000  1.0
  H  H16  1  0.12480000  0.16813000  0.00392000  1.0
  H  H17  1  0.09412000  0.25553000  0.90803000  1.0
  H  H18  1  0.84566000  0.47757000  0.31731000  1.0
  H  H19  1  0.77348000  0.44469000  0.42852000  1.0
  H  H20  1  0.04104000  0.28467000  0.31972000  1.0
  H  H21  1  0.98668000  0.40576000  0.26897000  1.0
  H  H22  1  0.84666000  0.32493000  0.50324000  1.0
  H  H23  1  0.97810000  0.25701000  0.45835000  1.0
  H  H24  1  0.63707000  0.04905000  0.66735000  1.0
  H  H25  1  0.67075000  0.98928000  0.54171000  1.0
  H  H26  1  0.49834000  0.82272000  0.71096000  1.0
  H  H27  1  0.49428000  0.97297000  0.73037000  1.0
  H  H28  1  0.62716000  0.83189000  0.49603000  1.0
  H  H29  1  0.59207000  0.74583000  0.59210000  1.0
  H  H30  1  0.35687000  0.51296000  0.17565000  1.0
  H  H31  1  0.27805000  0.55281000  0.07118000  1.0
  H  H32  1  0.53336000  0.71917000  0.18454000  1.0
  H  H33  1  0.49265000  0.58796000  0.22514000  1.0
  H  H34  1  0.34862000  0.67534000  0.99662000  1.0
  H  H35  1  0.47528000  0.74721000  0.04417000  1.0
  H  H36  1  0.24604000  0.93560000  0.85208000  1.0
  H  H37  1  0.73773000  0.54467000  0.41766000  1.0
  H  H38  1  0.74770000  0.06622000  0.64923000  1.0
  H  H39  1  0.24317000  0.45193000  0.08006000  1.0
  H  H40  1  0.96319000  0.15994000  0.70073000  1.0
  H  H41  1  0.58907000  0.60342000  0.26210000  1.0
  H  H42  1  0.08944000  0.39652000  0.23690000  1.0
  H  H43  1  0.46355000  0.84277000  0.80034000  1.0
  H  H44  1  0.10591000  0.25218000  0.05471000  1.0
  H  H45  1  0.60302000  0.74733000  0.44568000  1.0
  H  H46  1  0.33889000  0.77429000  0.97123000  1.0
  H  H47  1  0.84059000  0.22646000  0.52945000  1.0
  C  C48  1  0.67047000  0.59555000  0.36660000  1.0
  C  C49  1  0.62009000  0.64860000  0.34536000  1.0
  C  C50  1  0.64340000  0.65483000  0.41217000  1.0
  C  C51  1  0.30639000  0.86714000  0.88871000  1.0
  C  C52  1  0.37117000  0.86746000  0.84697000  1.0
  C  C53  1  0.37096000  0.82384000  0.89996000  1.0
  C  C54  1  0.17762000  0.40098000  0.13299000  1.0
  C  C55  1  0.12634000  0.34947000  0.15518000  1.0
  C  C56  1  0.14856000  0.34313000  0.08775000  1.0
  C  C57  1  0.80791000  0.13472000  0.61247000  1.0
  C  C58  1  0.87170000  0.17902000  0.60187000  1.0
  C  C59  1  0.87099000  0.13618000  0.65540000  1.0
  C  C60  1  0.13625000  0.97230000  0.86290000  1.0
  C  C61  1  0.16311000  0.96538000  0.89764000  1.0
  C  C62  1  0.15238000  0.00269000  0.92746000  1.0
  C  C63  1  0.00343000  0.14387000  0.79055000  1.0
  C  C64  1  0.98053000  0.10660000  0.76800000  1.0
  C  C65  1  0.99940000  0.06677000  0.78192000  1.0
  C  C66  1  0.11475000  0.18256000  0.97597000  1.0
  C  C67  1  0.11412000  0.22855000  0.96753000  1.0
  C  C68  1  0.09918000  0.22732000  0.92655000  1.0
  C  C69  1  0.83500000  0.46437000  0.34576000  1.0
  C  C70  1  0.79413000  0.47430000  0.37000000  1.0
  C  C71  1  0.79778000  0.44772000  0.40293000  1.0
  C  C72  1  0.02252000  0.31588000  0.31359000  1.0
  C  C73  1  0.02746000  0.34167000  0.28021000  1.0
  C  C74  1  0.99482000  0.37820000  0.28757000  1.0
  C  C75  1  0.87857000  0.31276000  0.48625000  1.0
  C  C76  1  0.91188000  0.27940000  0.49467000  1.0
  C  C77  1  0.94616000  0.27808000  0.46321000  1.0
  C  C78  1  0.63989000  0.02796000  0.63757000  1.0
  C  C79  1  0.66719000  0.03453000  0.60266000  1.0
  C  C80  1  0.65685000  0.99728000  0.57294000  1.0
  C  C81  1  0.50392000  0.85956000  0.71070000  1.0
  C  C82  1  0.48208000  0.89733000  0.73419000  1.0
  C  C83  1  0.50192000  0.93676000  0.72043000  1.0
  C  C84  1  0.61631000  0.81790000  0.52408000  1.0
  C  C85  1  0.61385000  0.77194000  0.53245000  1.0
  C  C86  1  0.59843000  0.77382000  0.57357000  1.0
  C  C87  1  0.34446000  0.52795000  0.14870000  1.0
  C  C88  1  0.30240000  0.51955000  0.12657000  1.0
  C  C89  1  0.30379000  0.54825000  0.09503000  1.0
  C  C90  1  0.51857000  0.68550000  0.18802000  1.0
  C  C91  1  0.52570000  0.65729000  0.21936000  1.0
  C  C92  1  0.49794000  0.61799000  0.20884000  1.0
  C  C93  1  0.37939000  0.68835000  0.01418000  1.0
  C  C94  1  0.41130000  0.72315000  0.00675000  1.0
  C  C95  1  0.44456000  0.72502000  0.03858000  1.0
  C  C96  1  0.25941000  0.88669000  0.89958000  1.0
  C  C97  1  0.23619000  0.91939000  0.87918000  1.0
  C  C98  1  0.70271000  0.55614000  0.35748000  1.0
  C  C99  1  0.73241000  0.53664000  0.38465000  1.0
  C  C100  1  0.76201000  0.11406000  0.60092000  1.0
  C  C101  1  0.73870000  0.08155000  0.62154000  1.0
  C  C102  1  0.21107000  0.43902000  0.14147000  1.0
  C  C103  1  0.23970000  0.45876000  0.11341000  1.0
  C  C104  1  0.89483000  0.11994000  0.69066000  1.0
  C  C105  1  0.93780000  0.13433000  0.70837000  1.0
  C  C106  1  0.59185000  0.66415000  0.31214000  1.0
  C  C107  1  0.57980000  0.63838000  0.27508000  1.0
  C  C108  1  0.09789000  0.33430000  0.18878000  1.0
  C  C109  1  0.08292000  0.36078000  0.22487000  1.0
  C  C110  1  0.39581000  0.88445000  0.81221000  1.0
  C  C111  1  0.43867000  0.86941000  0.79373000  1.0
  C  C112  1  0.14398000  0.31852000  0.04620000  1.0
  C  C113  1  0.12303000  0.27566000  0.03586000  1.0
  C  C114  1  0.64021000  0.68011000  0.45364000  1.0
  C  C115  1  0.62031000  0.72371000  0.46422000  1.0
  C  C116  1  0.39455000  0.79318000  0.92585000  1.0
  C  C117  1  0.37459000  0.77293000  0.95837000  1.0
  C  C118  1  0.89517000  0.21004000  0.57614000  1.0
  C  C119  1  0.87566000  0.22921000  0.54301000  1.0
  N  N120  1  0.64508000  0.60910000  0.33542000  1.0
  N  N121  1  0.61872000  0.67351000  0.38279000  1.0
  N  N122  1  0.67008000  0.61622000  0.40600000  1.0
  N  N123  1  0.32709000  0.88345000  0.85590000  1.0
  N  N124  1  0.39514000  0.83750000  0.86786000  1.0
  N  N125  1  0.32622000  0.83702000  0.91168000  1.0
  N  N126  1  0.15219000  0.38809000  0.16473000  1.0
  N  N127  1  0.12405000  0.32488000  0.11768000  1.0
  N  N128  1  0.17617000  0.38077000  0.09348000  1.0
  N  N129  1  0.82784000  0.16482000  0.58947000  1.0
  N  N130  1  0.89503000  0.16615000  0.63449000  1.0
  N  N131  1  0.82766000  0.11943000  0.64597000  1.0
  N  N132  1  0.12094000  0.03058000  0.91137000  1.0
  N  N133  1  0.11103000  0.01193000  0.87154000  1.0
  N  N134  1  0.03196000  0.07957000  0.81115000  1.0
  N  N135  1  0.03457000  0.12708000  0.81650000  1.0
  N  N136  1  0.09132000  0.18284000  0.91135000  1.0
  N  N137  1  0.10074000  0.15526000  0.94179000  1.0
  N  N138  1  0.83891000  0.42330000  0.39853000  1.0
  N  N139  1  0.86167000  0.43361000  0.36330000  1.0
  N  N140  1  0.97177000  0.37451000  0.32349000  1.0
  N  N141  1  0.98873000  0.33607000  0.33950000  1.0
  N  N142  1  0.93385000  0.30893000  0.43729000  1.0
  N  N143  1  0.89213000  0.33026000  0.45145000  1.0
  N  N144  1  0.62519000  0.96977000  0.58924000  1.0
  N  N145  1  0.61478000  0.98859000  0.62911000  1.0
  N  N146  1  0.53407000  0.92323000  0.69043000  1.0
  N  N147  1  0.53543000  0.87566000  0.68442000  1.0
  N  N148  1  0.59204000  0.81859000  0.58891000  1.0
  N  N149  1  0.60289000  0.84578000  0.55842000  1.0
  N  N150  1  0.34477000  0.57245000  0.09822000  1.0
  N  N151  1  0.36967000  0.55989000  0.13130000  1.0
  N  N152  1  0.47553000  0.62242000  0.17304000  1.0
  N  N153  1  0.48814000  0.66404000  0.16025000  1.0
  N  N154  1  0.43302000  0.69310000  0.06375000  1.0
  N  N155  1  0.39279000  0.67052000  0.04875000  1.0
  N  N156  1  0.19486000  0.90516000  0.93569000  1.0
  N  N157  1  0.23280000  0.87920000  0.93369000  1.0
  N  N158  1  0.19644000  0.93021000  0.90203000  1.0
  N  N159  1  0.74351000  0.50276000  0.31944000  1.0
  N  N160  1  0.71093000  0.53429000  0.31826000  1.0
  N  N161  1  0.75726000  0.50372000  0.36038000  1.0
  N  N162  1  0.69959000  0.09369000  0.56377000  1.0
  N  N163  1  0.73678000  0.12025000  0.56605000  1.0
  N  N164  1  0.70027000  0.06955000  0.59803000  1.0
  N  N165  1  0.25460000  0.48973000  0.17868000  1.0
  N  N166  1  0.22162000  0.45906000  0.18067000  1.0
  N  N167  1  0.26622000  0.49005000  0.13717000  1.0
  N  N168  1  0.90622000  0.07714000  0.74040000  1.0
  N  N169  1  0.87720000  0.08504000  0.71123000  1.0
  N  N170  1  0.94394000  0.10743000  0.73913000  1.0
  N  N171  1  0.54771000  0.70980000  0.27957000  1.0
  N  N172  1  0.57158000  0.70735000  0.31326000  1.0
  N  N173  1  0.55227000  0.66720000  0.25561000  1.0
  N  N174  1  0.05528000  0.28810000  0.22218000  1.0
  N  N175  1  0.08022000  0.29037000  0.18872000  1.0
  N  N176  1  0.05632000  0.33160000  0.24484000  1.0
  N  N177  1  0.40832000  0.92861000  0.76358000  1.0
  N  N178  1  0.37893000  0.92055000  0.79278000  1.0
  N  N179  1  0.44549000  0.89714000  0.76364000  1.0
  N  N180  1  0.14956000  0.30456000  0.97893000  1.0
  N  N181  1  0.15942000  0.33467000  0.01049000  1.0
  N  N182  1  0.12718000  0.26774000  0.99418000  1.0
  N  N183  1  0.64780000  0.69488000  0.52060000  1.0
  N  N184  1  0.65631000  0.66405000  0.48903000  1.0
  N  N185  1  0.62568000  0.73212000  0.50570000  1.0
  N  N186  1  0.45260000  0.75592000  0.95165000  1.0
  N  N187  1  0.44205000  0.78180000  0.92312000  1.0
  N  N188  1  0.41113000  0.75001000  0.97373000  1.0
  N  N189  1  0.95256000  0.24889000  0.55104000  1.0
  N  N190  1  0.94201000  0.22303000  0.57967000  1.0
  N  N191  1  0.91176000  0.25311000  0.52809000  1.0
