# generated using pymatgen
data_Cu2H10C14SI2N2O
_symmetry_space_group_name_H-M   'P 1'
_cell_length_a   4.05518000
_cell_length_b   12.55050000
_cell_length_c   15.80090000
_cell_angle_alpha   79.72400000
_cell_angle_beta   89.99990000
_cell_angle_gamma   89.99950000
_symmetry_Int_Tables_number   1
_chemical_formula_structural   Cu2H10C14SI2N2O
_chemical_formula_sum   'Cu4 H20 C28 S2 I4 N4 O2'
_cell_volume   791.28032212
_cell_formula_units_Z   2
loop_
 _symmetry_equiv_pos_site_id
 _symmetry_equiv_pos_as_xyz
  1  'x, y, z'
loop_
 _atom_site_type_symbol
 _atom_site_label
 _atom_site_symmetry_multiplicity
 _atom_site_fract_x
 _atom_site_fract_y
 _atom_site_fract_z
 _atom_site_occupancy
  Cu  Cu0  1  0.34338000  0.94441000  0.54327000  1.0
  Cu  Cu1  1  0.84338000  0.05558000  0.45673000  1.0
  Cu  Cu2  1  0.01816000  0.81609000  0.66151000  1.0
  Cu  Cu3  1  0.51816000  0.18390000  0.33849000  1.0
  H  H4  1  0.79033000  0.61962000  0.71876000  1.0
  H  H5  1  0.29032000  0.38039000  0.28124000  1.0
  H  H6  1  0.33619000  0.96585000  0.76144000  1.0
  H  H7  1  0.83617000  0.03414000  0.23856000  1.0
  H  H8  1  0.54149000  0.73529000  0.04988000  1.0
  H  H9  1  0.04151000  0.26472000  0.95012000  1.0
  H  H10  1  0.24470000  0.17644000  0.76031000  1.0
  H  H11  1  0.74470000  0.82356000  0.23969000  1.0
  H  H12  1  0.65066000  0.03957000  0.87380000  1.0
  H  H13  1  0.15064000  0.96043000  0.12619000  1.0
  H  H14  1  0.30102000  0.22846000  0.60136000  1.0
  H  H15  1  0.80102000  0.77153000  0.39864000  1.0
  H  H16  1  0.49250000  0.29448000  0.85601000  1.0
  H  H17  1  0.99250000  0.70552000  0.14400000  1.0
  H  H18  1  0.74698000  0.92688000  0.01720000  1.0
  H  H19  1  0.24700000  0.07313000  0.98280000  1.0
  H  H20  1  0.60438000  0.39499000  0.53813000  1.0
  H  H21  1  0.10437000  0.60500000  0.46187000  1.0
  H  H22  1  0.85129000  0.51142000  0.63233000  1.0
  H  H23  1  0.35129000  0.48858000  0.36767000  1.0
  C  C24  1  0.03530000  0.65470000  0.82288000  1.0
  C  C25  1  0.53530000  0.34531000  0.17712000  1.0
  C  C26  1  0.38038000  0.91675000  0.82446000  1.0
  C  C27  1  0.88036000  0.08325000  0.17554000  1.0
  C  C28  1  0.32711000  0.74548000  0.92374000  1.0
  C  C29  1  0.82712000  0.25452000  0.07626000  1.0
  C  C30  1  0.49744000  0.78672000  0.98780000  1.0
  C  C31  1  0.99744000  0.21328000  0.01220000  1.0
  C  C32  1  0.37858000  0.24987000  0.73277000  1.0
  C  C33  1  0.87856000  0.75013000  0.26723000  1.0
  C  C34  1  0.82584000  0.47658000  0.81031000  1.0
  C  C35  1  0.32584000  0.52342000  0.18970000  1.0
  C  C36  1  0.55392000  0.95715000  0.88770000  1.0
  C  C37  1  0.05391000  0.04284000  0.11230000  1.0
  C  C38  1  0.40870000  0.27916000  0.64347000  1.0
  C  C39  1  0.90870000  0.72084000  0.35653000  1.0
  C  C40  1  0.26540000  0.80995000  0.84237000  1.0
  C  C41  1  0.76539000  0.19005000  0.15763000  1.0
  C  C42  1  0.67773000  0.41153000  0.75049000  1.0
  C  C43  1  0.17774000  0.58848000  0.24951000  1.0
  C  C44  1  0.51394000  0.31532000  0.78625000  1.0
  C  C45  1  0.01394000  0.68468000  0.21375000  1.0
  C  C46  1  0.61030000  0.89307000  0.96886000  1.0
  C  C47  1  0.11029000  0.10693000  0.03114000  1.0
  C  C48  1  0.57519000  0.37386000  0.60770000  1.0
  C  C49  1  0.07520000  0.62615000  0.39230000  1.0
  C  C50  1  0.71018000  0.43998000  0.66083000  1.0
  C  C51  1  0.21019000  0.56002000  0.33917000  1.0
  S  S52  1  0.17064000  0.61518000  0.92813000  1.0
  S  S53  1  0.67067000  0.38482000  0.07187000  1.0
  I  I54  1  0.85894000  0.02372000  0.62422000  1.0
  I  I55  1  0.35895000  0.97627000  0.37578000  1.0
  I  I56  1  0.50779000  0.73495000  0.58367000  1.0
  I  I57  1  0.00778000  0.26505000  0.41633000  1.0
  N  N58  1  0.87851000  0.58502000  0.77840000  1.0
  N  N59  1  0.37850000  0.41499000  0.22159000  1.0
  N  N60  1  0.09615000  0.75618000  0.78578000  1.0
  N  N61  1  0.59614000  0.24382000  0.21422000  1.0
  O  O62  1  0.90462000  0.43790000  0.88533000  1.0
  O  O63  1  0.40461000  0.56211000  0.11466000  1.0
