# generated using pymatgen
data_CoH6C6(N2O)2
_symmetry_space_group_name_H-M   'P 1'
_cell_length_a   12.00120000
_cell_length_b   12.00120000
_cell_length_c   12.00110000
_cell_angle_alpha   95.93270000
_cell_angle_beta   95.93140000
_cell_angle_gamma   95.93150000
_symmetry_Int_Tables_number   1
_chemical_formula_structural   CoH6C6(N2O)2
_chemical_formula_sum   'Co6 H36 C36 N24 O12'
_cell_volume   1698.64678304
_cell_formula_units_Z   6
loop_
 _symmetry_equiv_pos_site_id
 _symmetry_equiv_pos_as_xyz
  1  'x, y, z'
loop_
 _atom_site_type_symbol
 _atom_site_label
 _atom_site_symmetry_multiplicity
 _atom_site_fract_x
 _atom_site_fract_y
 _atom_site_fract_z
 _atom_site_occupancy
  Co  Co0  1  0.45147000  0.17061000  0.73986000  1.0
  Co  Co1  1  0.17062000  0.73986000  0.45148000  1.0
  Co  Co2  1  0.73988000  0.45147000  0.17061000  1.0
  Co  Co3  1  0.54853000  0.82940000  0.26011000  1.0
  Co  Co4  1  0.82938000  0.26012000  0.54853000  1.0
  Co  Co5  1  0.26012000  0.54852000  0.82938000  1.0
  H  H6  1  0.36962000  0.80531000  0.87480000  1.0
  H  H7  1  0.80532000  0.87480000  0.36962000  1.0
  H  H8  1  0.87480000  0.36962000  0.80532000  1.0
  H  H9  1  0.63037000  0.19467000  0.12521000  1.0
  H  H10  1  0.19466000  0.12521000  0.63037000  1.0
  H  H11  1  0.12521000  0.63037000  0.19468000  1.0
  H  H12  1  0.44589000  0.90174000  0.98900000  1.0
  H  H13  1  0.90175000  0.98900000  0.44589000  1.0
  H  H14  1  0.98900000  0.44589000  0.90175000  1.0
  H  H15  1  0.55410000  0.09823000  0.01101000  1.0
  H  H16  1  0.09822000  0.01101000  0.55409000  1.0
  H  H17  1  0.01101000  0.55409000  0.09823000  1.0
  H  H18  1  0.19163000  0.58345000  0.59877000  1.0
  H  H19  1  0.58346000  0.59877000  0.19163000  1.0
  H  H20  1  0.59878000  0.19163000  0.58344000  1.0
  H  H21  1  0.80837000  0.41654000  0.40125000  1.0
  H  H22  1  0.41653000  0.40123000  0.80837000  1.0
  H  H23  1  0.40125000  0.80838000  0.41653000  1.0
  H  H24  1  0.33373000  0.13147000  0.47298000  1.0
  H  H25  1  0.13148000  0.47297000  0.33374000  1.0
  H  H26  1  0.47298000  0.33374000  0.13148000  1.0
  H  H27  1  0.66626000  0.86852000  0.52704000  1.0
  H  H28  1  0.86850000  0.52705000  0.66625000  1.0
  H  H29  1  0.52704000  0.66626000  0.86850000  1.0
  H  H30  1  0.26372000  0.00964000  0.38505000  1.0
  H  H31  1  0.00964000  0.38504000  0.26373000  1.0
  H  H32  1  0.38505000  0.26373000  0.00965000  1.0
  H  H33  1  0.73627000  0.99036000  0.61497000  1.0
  H  H34  1  0.99035000  0.61497000  0.73627000  1.0
  H  H35  1  0.61497000  0.73627000  0.99035000  1.0
  H  H36  1  0.41326000  0.03440000  0.40319000  1.0
  H  H37  1  0.03440000  0.40318000  0.41327000  1.0
  H  H38  1  0.40319000  0.41326000  0.03440000  1.0
  H  H39  1  0.58673000  0.96559000  0.59683000  1.0
  H  H40  1  0.96559000  0.59683000  0.58672000  1.0
  H  H41  1  0.59683000  0.58673000  0.96559000  1.0
  C  C42  1  0.33937000  0.97683000  0.54542000  1.0
  C  C43  1  0.97683000  0.54542000  0.33938000  1.0
  C  C44  1  0.54543000  0.33938000  0.97684000  1.0
  C  C45  1  0.66061000  0.02316000  0.45458000  1.0
  C  C46  1  0.02316000  0.45459000  0.66061000  1.0
  C  C47  1  0.45459000  0.66062000  0.02317000  1.0
  C  C48  1  0.41735000  0.96213000  0.83625000  1.0
  C  C49  1  0.96215000  0.83624000  0.41736000  1.0
  C  C50  1  0.83624000  0.41735000  0.96215000  1.0
  C  C51  1  0.58265000  0.03784000  0.16377000  1.0
  C  C52  1  0.03784000  0.16378000  0.58265000  1.0
  C  C53  1  0.16377000  0.58265000  0.03785000  1.0
  C  C54  1  0.37361000  0.93436000  0.71750000  1.0
  C  C55  1  0.93437000  0.71749000  0.37362000  1.0
  C  C56  1  0.71750000  0.37361000  0.93437000  1.0
  C  C57  1  0.62639000  0.06562000  0.28252000  1.0
  C  C58  1  0.06561000  0.28252000  0.62639000  1.0
  C  C59  1  0.28252000  0.62639000  0.06563000  1.0
  C  C60  1  0.31849000  0.83886000  0.64944000  1.0
  C  C61  1  0.83887000  0.64945000  0.31848000  1.0
  C  C62  1  0.64944000  0.31849000  0.83887000  1.0
  C  C63  1  0.68151000  0.16113000  0.35056000  1.0
  C  C64  1  0.16112000  0.35057000  0.68151000  1.0
  C  C65  1  0.35058000  0.68153000  0.16113000  1.0
  C  C66  1  0.27734000  0.72468000  0.66956000  1.0
  C  C67  1  0.72468000  0.66957000  0.27733000  1.0
  C  C68  1  0.66957000  0.27735000  0.72469000  1.0
  C  C69  1  0.72266000  0.27532000  0.33044000  1.0
  C  C70  1  0.27529000  0.33044000  0.72266000  1.0
  C  C71  1  0.33045000  0.72267000  0.27531000  1.0
  C  C72  1  0.33720000  0.04180000  0.44620000  1.0
  C  C73  1  0.04180000  0.44620000  0.33721000  1.0
  C  C74  1  0.44621000  0.33721000  0.04181000  1.0
  C  C75  1  0.66279000  0.95819000  0.55381000  1.0
  C  C76  1  0.95818000  0.55382000  0.66279000  1.0
  C  C77  1  0.55382000  0.66279000  0.95818000  1.0
  N  N78  1  0.29702000  0.86693000  0.54159000  1.0
  N  N79  1  0.86694000  0.54159000  0.29701000  1.0
  N  N80  1  0.54159000  0.29703000  0.86694000  1.0
  N  N81  1  0.70297000  0.13306000  0.45842000  1.0
  N  N82  1  0.13306000  0.45843000  0.70298000  1.0
  N  N83  1  0.45843000  0.70299000  0.13306000  1.0
  N  N84  1  0.38597000  0.02011000  0.65036000  1.0
  N  N85  1  0.02011000  0.65035000  0.38597000  1.0
  N  N86  1  0.65036000  0.38596000  0.02011000  1.0
  N  N87  1  0.61404000  0.97988000  0.34965000  1.0
  N  N88  1  0.97987000  0.34966000  0.61404000  1.0
  N  N89  1  0.34966000  0.61404000  0.97988000  1.0
  N  N90  1  0.40818000  0.88453000  0.90708000  1.0
  N  N91  1  0.88455000  0.90708000  0.40819000  1.0
  N  N92  1  0.90708000  0.40819000  0.88455000  1.0
  N  N93  1  0.59180000  0.11544000  0.09293000  1.0
  N  N94  1  0.11544000  0.09293000  0.59180000  1.0
  N  N95  1  0.09293000  0.59179000  0.11545000  1.0
  N  N96  1  0.21974000  0.66259000  0.58100000  1.0
  N  N97  1  0.66260000  0.58101000  0.21973000  1.0
  N  N98  1  0.58100000  0.21974000  0.66259000  1.0
  N  N99  1  0.78026000  0.33741000  0.41901000  1.0
  N  N100  1  0.33740000  0.41900000  0.78027000  1.0
  N  N101  1  0.41901000  0.78028000  0.33740000  1.0
  O  O102  1  0.46423000  0.06324000  0.86866000  1.0
  O  O103  1  0.06324000  0.86865000  0.46424000  1.0
  O  O104  1  0.86864000  0.46422000  0.06325000  1.0
  O  O105  1  0.53578000  0.93674000  0.13136000  1.0
  O  O106  1  0.93674000  0.13136000  0.53577000  1.0
  O  O107  1  0.13135000  0.53576000  0.93675000  1.0
  O  O108  1  0.29815000  0.69378000  0.76960000  1.0
  O  O109  1  0.69377000  0.76959000  0.29813000  1.0
  O  O110  1  0.76960000  0.29814000  0.69378000  1.0
  O  O111  1  0.70186000  0.30623000  0.23040000  1.0
  O  O112  1  0.30620000  0.23040000  0.70185000  1.0
  O  O113  1  0.23042000  0.70187000  0.30622000  1.0
