# generated using pymatgen
data_ZnH12C18S2(NO2)2
_symmetry_space_group_name_H-M   'P 1'
_cell_length_a   9.63351000
_cell_length_b   11.46470000
_cell_length_c   11.52260000
_cell_angle_alpha   67.77940000
_cell_angle_beta   82.30650000
_cell_angle_gamma   69.49560000
_symmetry_Int_Tables_number   1
_chemical_formula_structural   ZnH12C18S2(NO2)2
_chemical_formula_sum   'Zn2 H24 C36 S4 N4 O8'
_cell_volume   1103.46572550
_cell_formula_units_Z   2
loop_
 _symmetry_equiv_pos_site_id
 _symmetry_equiv_pos_as_xyz
  1  'x, y, z'
loop_
 _atom_site_type_symbol
 _atom_site_label
 _atom_site_symmetry_multiplicity
 _atom_site_fract_x
 _atom_site_fract_y
 _atom_site_fract_z
 _atom_site_occupancy
  Zn  Zn0  1  0.44769000  0.20227000  0.27796000  1.0
  Zn  Zn1  1  0.55230000  0.79772000  0.72204000  1.0
  H  H2  1  0.56195000  0.91284000  0.40297000  1.0
  H  H3  1  0.43805000  0.08716000  0.59703000  1.0
  H  H4  1  0.49130000  0.71267000  0.44121000  1.0
  H  H5  1  0.50870000  0.28733000  0.55880000  1.0
  H  H6  1  0.10053000  0.97396000  0.21520000  1.0
  H  H7  1  0.89947000  0.02603000  0.78480000  1.0
  H  H8  1  0.18488000  0.16580000  0.19144000  1.0
  H  H9  1  0.81512000  0.83419000  0.80855000  1.0
  H  H10  1  0.29995000  0.83272000  0.88124000  1.0
  H  H11  1  0.70005000  0.16728000  0.11877000  1.0
  H  H12  1  0.23397000  0.75531000  0.10880000  1.0
  H  H13  1  0.76603000  0.24469000  0.89120000  1.0
  H  H14  1  0.68046000  0.47671000  0.17968000  1.0
  H  H15  1  0.31955000  0.52329000  0.82032000  1.0
  H  H16  1  0.72888000  0.57032000  0.94778000  1.0
  H  H17  1  0.27112000  0.42968000  0.05222000  1.0
  H  H18  1  0.83571000  0.88834000  0.46921000  1.0
  H  H19  1  0.16428000  0.11168000  0.53079000  1.0
  H  H20  1  0.93024000  0.24715000  0.40452000  1.0
  H  H21  1  0.06976000  0.75286000  0.59547000  1.0
  H  H22  1  0.24333000  0.33438000  0.58696000  1.0
  H  H23  1  0.75667000  0.66562000  0.41304000  1.0
  H  H24  1  0.92958000  0.53858000  0.28518000  1.0
  H  H25  1  0.07042000  0.46142000  0.71482000  1.0
  C  C26  1  0.46184000  0.92161000  0.36158000  1.0
  C  C27  1  0.53816000  0.07839000  0.63841000  1.0
  C  C28  1  0.42253000  0.81024000  0.38161000  1.0
  C  C29  1  0.57747000  0.18976000  0.61840000  1.0
  C  C30  1  0.29188000  0.82725000  0.32765000  1.0
  C  C31  1  0.70812000  0.17274000  0.67235000  1.0
  C  C32  1  0.20429000  0.95629000  0.25705000  1.0
  C  C33  1  0.79571000  0.04370000  0.74295000  1.0
  C  C34  1  0.25068000  0.06301000  0.24292000  1.0
  C  C35  1  0.74932000  0.93699000  0.75707000  1.0
  C  C36  1  0.38102000  0.75501000  0.95110000  1.0
  C  C37  1  0.61897000  0.24499000  0.04890000  1.0
  C  C38  1  0.34501000  0.71174000  0.07710000  1.0
  C  C39  1  0.65499000  0.28826000  0.92291000  1.0
  C  C40  1  0.45361000  0.61194000  0.16285000  1.0
  C  C41  1  0.54640000  0.38805000  0.83715000  1.0
  C  C42  1  0.59440000  0.55751000  0.11669000  1.0
  C  C43  1  0.40560000  0.44249000  0.88331000  1.0
  C  C44  1  0.62121000  0.60727000  0.98880000  1.0
  C  C45  1  0.37880000  0.39273000  0.01120000  1.0
  C  C46  1  0.90902000  0.93610000  0.48256000  1.0
  C  C47  1  0.09097000  0.06392000  0.51743000  1.0
  C  C48  1  0.87006000  0.07543000  0.42931000  1.0
  C  C49  1  0.12994000  0.92458000  0.57068000  1.0
  C  C50  1  0.96203000  0.13889000  0.44680000  1.0
  C  C51  1  0.03797000  0.86112000  0.55319000  1.0
  C  C52  1  0.72701000  0.15798000  0.35932000  1.0
  C  C53  1  0.27298000  0.84203000  0.64068000  1.0
  C  C54  1  0.13636000  0.40702000  0.54981000  1.0
  C  C55  1  0.86364000  0.59298000  0.45018000  1.0
  C  C56  1  0.09622000  0.42938000  0.42855000  1.0
  C  C57  1  0.90378000  0.57062000  0.57145000  1.0
  C  C58  1  0.95897000  0.52277000  0.37937000  1.0
  C  C59  1  0.04103000  0.47722000  0.62063000  1.0
  C  C60  1  0.19979000  0.35741000  0.34971000  1.0
  C  C61  1  0.80021000  0.64259000  0.65029000  1.0
  S  S62  1  0.23077000  0.69078000  0.35098000  1.0
  S  S63  1  0.76924000  0.30921000  0.64903000  1.0
  S  S64  1  0.42405000  0.55207000  0.32645000  1.0
  S  S65  1  0.57596000  0.44792000  0.67355000  1.0
  N  N66  1  0.37814000  0.04602000  0.29268000  1.0
  N  N67  1  0.62186000  0.95397000  0.70732000  1.0
  N  N68  1  0.51713000  0.70558000  0.90680000  1.0
  N  N69  1  0.48287000  0.29442000  0.09321000  1.0
  O  O70  1  0.64934000  0.09060000  0.34675000  1.0
  O  O71  1  0.35066000  0.90940000  0.65324000  1.0
  O  O72  1  0.68792000  0.28255000  0.31912000  1.0
  O  O73  1  0.31207000  0.71746000  0.68088000  1.0
  O  O74  1  0.32772000  0.27784000  0.40006000  1.0
  O  O75  1  0.67228000  0.72215000  0.59995000  1.0
  O  O76  1  0.16294000  0.37586000  0.24217000  1.0
  O  O77  1  0.83706000  0.62414000  0.75783000  1.0
