# generated using pymatgen
data_Zn2H16C33BrN3O8
_symmetry_space_group_name_H-M   'P 1'
_cell_length_a   9.98605000
_cell_length_b   10.95130000
_cell_length_c   10.98950000
_cell_angle_alpha   92.86570000
_cell_angle_beta   91.40830000
_cell_angle_gamma   90.23010000
_symmetry_Int_Tables_number   1
_chemical_formula_structural   Zn2H16C33BrN3O8
_chemical_formula_sum   'Zn2 H16 C33 Br1 N3 O8'
_cell_volume   1199.93220946
_cell_formula_units_Z   1
loop_
 _symmetry_equiv_pos_site_id
 _symmetry_equiv_pos_as_xyz
  1  'x, y, z'
loop_
 _atom_site_type_symbol
 _atom_site_label
 _atom_site_symmetry_multiplicity
 _atom_site_fract_x
 _atom_site_fract_y
 _atom_site_fract_z
 _atom_site_occupancy
  Zn  Zn0  1  0.64028000  0.50322000  0.50084000  1.0
  Zn  Zn1  1  0.35573000  0.49801000  0.49597000  1.0
  H  H2  1  0.55498000  0.89839000  0.68552000  1.0
  H  H3  1  0.76015000  0.47925000  0.79084000  1.0
  H  H4  1  0.43626000  0.76420000  0.27459000  1.0
  H  H5  1  0.40228000  0.86669000  0.08161000  1.0
  H  H6  1  0.96730000  0.51936000  0.91262000  1.0
  H  H7  1  0.42463000  0.09426000  0.07711000  1.0
  H  H8  1  0.95399000  0.58998000  0.13251000  1.0
  H  H9  1  0.28968000  0.48467000  0.87742000  1.0
  H  H10  1  0.47684000  0.21793000  0.26612000  1.0
  H  H11  1  0.73599000  0.58869000  0.23353000  1.0
  H  H12  1  0.57018000  0.12574000  0.68275000  1.0
  H  H13  1  0.28456000  0.48847000  0.10594000  1.0
  H  H14  1  0.25341000  0.64742000  0.66895000  1.0
  H  H15  1  0.13442000  0.79538000  0.80395000  1.0
  H  H16  1  0.88573000  0.81451000  0.78829000  1.0
  H  H17  1  0.75489000  0.68031000  0.64138000  1.0
  C  C18  1  0.49398000  0.50217000  0.73490000  1.0
  C  C19  1  0.37890000  0.49876000  0.05955000  1.0
  C  C20  1  0.54407000  0.07199000  0.59921000  1.0
  C  C21  1  0.51838000  0.13092000  0.49279000  1.0
  C  C22  1  0.49543000  0.51592000  0.12953000  1.0
  C  C23  1  0.14512000  0.65407000  0.66330000  1.0
  C  C24  1  0.07766000  0.73704000  0.73778000  1.0
  C  C25  1  0.50305000  0.73792000  0.49759000  1.0
  C  C26  1  0.93690000  0.74790000  0.72913000  1.0
  C  C27  1  0.86319000  0.67357000  0.64764000  1.0
  C  C28  1  0.92889000  0.58563000  0.57194000  1.0
  C  C29  1  0.07281000  0.57788000  0.57752000  1.0
  C  C30  1  0.06528000  0.42457000  0.42447000  1.0
  C  C31  1  0.48568000  0.50789000  0.26486000  1.0
  C  C32  1  0.52075000  0.26768000  0.49777000  1.0
  C  C33  1  0.92120000  0.42651000  0.42414000  1.0
  C  C34  1  0.44545000  0.86338000  0.27315000  1.0
  C  C35  1  0.75471000  0.50332000  0.88750000  1.0
  C  C36  1  0.42568000  0.92093000  0.16548000  1.0
  C  C37  1  0.87028000  0.52677000  0.95591000  1.0
  C  C38  1  0.43725000  0.04961000  0.16319000  1.0
  C  C39  1  0.86312000  0.56326000  0.08052000  1.0
  C  C40  1  0.46600000  0.11908000  0.26885000  1.0
  C  C41  1  0.53527000  0.94367000  0.60070000  1.0
  C  C42  1  0.74155000  0.56314000  0.13706000  1.0
  C  C43  1  0.48561000  0.06290000  0.38179000  1.0
  C  C44  1  0.62123000  0.52985000  0.07134000  1.0
  C  C45  1  0.47734000  0.93200000  0.38335000  1.0
  C  C46  1  0.62628000  0.51114000  0.94070000  1.0
  C  C47  1  0.38219000  0.49399000  0.93183000  1.0
  C  C48  1  0.50291000  0.87481000  0.49523000  1.0
  C  C49  1  0.50235000  0.49954000  0.87145000  1.0
  C  C50  1  0.84945000  0.33999000  0.34538000  1.0
  Br  Br51  1  0.14741000  0.31374000  0.31480000  1.0
  N  N52  1  0.13819000  0.49712000  0.49956000  1.0
  N  N53  1  0.85600000  0.50673000  0.49571000  1.0
  N  N54  1  0.79756000  0.26688000  0.27899000  1.0
  O  O55  1  0.59660000  0.53901000  0.67994000  1.0
  O  O56  1  0.62977000  0.32144000  0.53175000  1.0
  O  O57  1  0.58967000  0.47255000  0.32226000  1.0
  O  O58  1  0.37313000  0.53177000  0.31308000  1.0
  O  O59  1  0.41157000  0.31984000  0.46902000  1.0
  O  O60  1  0.61383000  0.68627000  0.47288000  1.0
  O  O61  1  0.38255000  0.47260000  0.68183000  1.0
  O  O62  1  0.39528000  0.68455000  0.52461000  1.0
