# generated using pymatgen
data_DyAgH20C28N2O11
_symmetry_space_group_name_H-M   'P 1'
_cell_length_a   10.62550000
_cell_length_b   10.63840000
_cell_length_c   12.92420000
_cell_angle_alpha   104.53600000
_cell_angle_beta   103.02800000
_cell_angle_gamma   94.34320000
_symmetry_Int_Tables_number   1
_chemical_formula_structural   DyAgH20C28N2O11
_chemical_formula_sum   'Dy2 Ag2 H40 C56 N4 O22'
_cell_volume   1364.13830291
_cell_formula_units_Z   2
loop_
 _symmetry_equiv_pos_site_id
 _symmetry_equiv_pos_as_xyz
  1  'x, y, z'
loop_
 _atom_site_type_symbol
 _atom_site_label
 _atom_site_symmetry_multiplicity
 _atom_site_fract_x
 _atom_site_fract_y
 _atom_site_fract_z
 _atom_site_occupancy
  Dy  Dy0  1  0.67581000  0.89684000  0.59014000  1.0
  Dy  Dy1  1  0.32419000  0.10316000  0.40986000  1.0
  Ag  Ag2  1  0.14452000  0.51922000  0.48621000  1.0
  Ag  Ag3  1  0.85548000  0.48078000  0.51378000  1.0
  H  H4  1  0.98324000  0.95697000  0.36269000  1.0
  H  H5  1  0.01676000  0.04303000  0.63731000  1.0
  H  H6  1  0.86322000  0.88688000  0.00822000  1.0
  H  H7  1  0.13678000  0.11312000  0.99177000  1.0
  H  H8  1  0.58865000  0.78786000  0.18720000  1.0
  H  H9  1  0.41134000  0.21214000  0.81280000  1.0
  H  H10  1  0.45180000  0.79179000  0.03414000  1.0
  H  H11  1  0.54820000  0.20821000  0.96586000  1.0
  H  H12  1  0.51600000  0.63916000  0.01679000  1.0
  H  H13  1  0.48400000  0.36084000  0.98321000  1.0
  H  H14  1  0.46589000  0.47902000  0.83513000  1.0
  H  H15  1  0.53411000  0.52098000  0.16487000  1.0
  H  H16  1  0.33162000  0.41199000  0.64015000  1.0
  H  H17  1  0.66838000  0.58801000  0.35984000  1.0
  H  H18  1  0.22500000  0.78427000  0.66686000  1.0
  H  H19  1  0.77500000  0.21573000  0.33314000  1.0
  H  H20  1  0.35721000  0.86702000  0.86181000  1.0
  H  H21  1  0.64279000  0.13298000  0.13819000  1.0
  H  H22  1  0.58977000  0.41840000  0.52416000  1.0
  H  H23  1  0.41023000  0.58159000  0.47584000  1.0
  H  H24  1  0.73637000  0.65637000  0.86093000  1.0
  H  H25  1  0.26363000  0.34363000  0.13907000  1.0
  H  H26  1  0.74822000  0.23698000  0.77668000  1.0
  H  H27  1  0.25177000  0.76301000  0.22332000  1.0
  H  H28  1  0.91574000  0.31645000  0.93002000  1.0
  H  H29  1  0.08426000  0.68355000  0.06998000  1.0
  H  H30  1  0.76390000  0.27510000  0.95484000  1.0
  H  H31  1  0.23610000  0.72490000  0.04517000  1.0
  H  H32  1  0.87596000  0.59980000  0.12915000  1.0
  H  H33  1  0.12404000  0.40020000  0.87085000  1.0
  H  H34  1  0.98574000  0.65160000  0.32946000  1.0
  H  H35  1  0.01426000  0.34840000  0.67054000  1.0
  H  H36  1  0.05966000  0.26656000  0.29900000  1.0
  H  H37  1  0.94034000  0.73344000  0.70100000  1.0
  H  H38  1  0.95400000  0.20083000  0.09622000  1.0
  H  H39  1  0.04599000  0.79917000  0.90378000  1.0
  H  H40  1  0.49228000  0.06405000  0.68673000  1.0
  H  H41  1  0.50772000  0.93594000  0.31327000  1.0
  H  H42  1  0.54077000  0.96249000  0.75323000  1.0
  H  H43  1  0.45923000  0.03751000  0.24677000  1.0
  C  C44  1  0.78275000  0.87005000  0.28399000  1.0
  C  C45  1  0.21725000  0.12996000  0.71601000  1.0
  C  C46  1  0.90853000  0.92031000  0.28495000  1.0
  C  C47  1  0.09147000  0.07970000  0.71505000  1.0
  C  C48  1  0.93734000  0.92495000  0.18490000  1.0
  C  C49  1  0.06267000  0.07505000  0.81510000  1.0
  C  C50  1  0.84107000  0.88021000  0.08527000  1.0
  C  C51  1  0.15893000  0.11979000  0.91472000  1.0
  C  C52  1  0.71513000  0.83045000  0.08539000  1.0
  C  C53  1  0.28487000  0.16956000  0.91461000  1.0
  C  C54  1  0.68563000  0.82494000  0.18422000  1.0
  C  C55  1  0.31436000  0.17507000  0.81578000  1.0
  C  C56  1  0.74605000  0.86611000  0.38836000  1.0
  C  C57  1  0.25395000  0.13389000  0.61164000  1.0
  C  C58  1  0.07380000  0.97614000  0.18306000  1.0
  C  C59  1  0.92620000  0.02386000  0.81694000  1.0
  C  C60  1  0.50163000  0.72388000  0.98275000  1.0
  C  C61  1  0.49837000  0.27612000  0.01725000  1.0
  C  C62  1  0.42215000  0.67893000  0.86497000  1.0
  C  C63  1  0.57785000  0.32107000  0.13503000  1.0
  C  C64  1  0.41372000  0.54996000  0.80143000  1.0
  C  C65  1  0.58629000  0.45004000  0.19857000  1.0
  C  C66  1  0.33845000  0.51110000  0.69297000  1.0
  C  C67  1  0.66155000  0.48890000  0.30703000  1.0
  C  C68  1  0.28031000  0.71993000  0.70717000  1.0
  C  C69  1  0.71969000  0.28007000  0.29283000  1.0
  C  C70  1  0.35466000  0.76535000  0.81570000  1.0
  C  C71  1  0.64534000  0.23465000  0.18430000  1.0
  C  C72  1  0.66588000  0.31645000  0.64384000  1.0
  C  C73  1  0.33413000  0.68355000  0.35616000  1.0
  C  C74  1  0.63548000  0.42740000  0.61040000  1.0
  C  C75  1  0.36452000  0.57259000  0.38960000  1.0
  C  C76  1  0.66461000  0.54978000  0.68892000  1.0
  C  C77  1  0.33539000  0.45022000  0.31107000  1.0
  C  C78  1  0.71689000  0.56084000  0.80032000  1.0
  C  C79  1  0.28312000  0.43916000  0.19968000  1.0
  C  C80  1  0.74667000  0.44826000  0.83294000  1.0
  C  C81  1  0.25334000  0.55174000  0.16706000  1.0
  C  C82  1  0.72410000  0.32601000  0.75472000  1.0
  C  C83  1  0.27590000  0.67399000  0.24529000  1.0
  C  C84  1  0.64098000  0.18603000  0.56040000  1.0
  C  C85  1  0.35903000  0.81397000  0.43960000  1.0
  C  C86  1  0.65220000  0.67010000  0.65127000  1.0
  C  C87  1  0.34780000  0.32989000  0.34873000  1.0
  C  C88  1  0.84477000  0.35599000  0.97561000  1.0
  C  C89  1  0.15523000  0.64400000  0.02439000  1.0
  C  C90  1  0.90707000  0.39569000  0.09694000  1.0
  C  C91  1  0.09293000  0.60431000  0.90306000  1.0
  C  C92  1  0.91587000  0.52343000  0.16350000  1.0
  C  C93  1  0.08414000  0.47657000  0.83651000  1.0
  C  C94  1  0.97682000  0.55273000  0.27542000  1.0
  C  C95  1  0.02319000  0.44727000  0.72458000  1.0
  C  C96  1  0.01781000  0.33777000  0.25853000  1.0
  C  C97  1  0.98219000  0.66223000  0.74147000  1.0
  C  C98  1  0.95915000  0.30141000  0.14615000  1.0
  C  C99  1  0.04084000  0.69859000  0.85385000  1.0
  N  N100  1  0.27097000  0.59433000  0.64697000  1.0
  N  N101  1  0.72904000  0.40567000  0.35302000  1.0
  N  N102  1  0.02694000  0.46176000  0.32258000  1.0
  N  N103  1  0.97306000  0.53824000  0.67742000  1.0
  O  O104  1  0.62413000  0.86115000  0.38842000  1.0
  O  O105  1  0.37587000  0.13884000  0.61158000  1.0
  O  O106  1  0.57146000  0.03301000  0.72533000  1.0
  O  O107  1  0.42854000  0.96699000  0.27467000  1.0
  O  O108  1  0.83178000  0.86798000  0.47500000  1.0
  O  O109  1  0.16822000  0.13203000  0.52500000  1.0
  O  O110  1  0.14197000  0.05693000  0.27490000  1.0
  O  O111  1  0.85804000  0.94307000  0.72510000  1.0
  O  O112  1  0.11095000  0.93849000  0.09683000  1.0
  O  O113  1  0.88904000  0.06151000  0.90317000  1.0
  O  O114  1  0.62565000  0.78885000  0.98427000  1.0
  O  O115  1  0.37434000  0.21115000  0.01573000  1.0
  O  O116  1  0.71806000  0.10440000  0.58032000  1.0
  O  O117  1  0.28194000  0.89560000  0.41968000  1.0
  O  O118  1  0.54658000  0.16339000  0.47531000  1.0
  O  O119  1  0.45342000  0.83660000  0.52469000  1.0
  O  O120  1  0.68528000  0.67023000  0.56087000  1.0
  O  O121  1  0.31472000  0.32977000  0.43913000  1.0
  O  O122  1  0.61683000  0.76987000  0.70834000  1.0
  O  O123  1  0.38317000  0.23013000  0.29166000  1.0
  O  O124  1  0.79975000  0.46714000  0.94356000  1.0
  O  O125  1  0.20025000  0.53286000  0.05644000  1.0
