# generated using pymatgen
data_AgHCN4
_symmetry_space_group_name_H-M   'P 1'
_cell_length_a   5.77235000
_cell_length_b   8.24722000
_cell_length_c   14.74450000
_cell_angle_alpha   89.99960000
_cell_angle_beta   89.99980000
_cell_angle_gamma   85.75420000
_symmetry_Int_Tables_number   1
_chemical_formula_structural   AgHCN4
_chemical_formula_sum   'Ag8 H8 C8 N32'
_cell_volume   699.99796261
_cell_formula_units_Z   8
loop_
 _symmetry_equiv_pos_site_id
 _symmetry_equiv_pos_as_xyz
  1  'x, y, z'
loop_
 _atom_site_type_symbol
 _atom_site_label
 _atom_site_symmetry_multiplicity
 _atom_site_fract_x
 _atom_site_fract_y
 _atom_site_fract_z
 _atom_site_occupancy
  Ag  Ag0  1  0.09327000  0.36238000  0.39028000  1.0
  Ag  Ag1  1  0.59327000  0.86238000  0.10972000  1.0
  Ag  Ag2  1  0.90673000  0.63762000  0.60972000  1.0
  Ag  Ag3  1  0.40674000  0.13762000  0.89028000  1.0
  Ag  Ag4  1  0.76046000  0.95696000  0.41325000  1.0
  Ag  Ag5  1  0.26047000  0.45695000  0.08675000  1.0
  Ag  Ag6  1  0.23954000  0.04304000  0.58674000  1.0
  Ag  Ag7  1  0.73952000  0.54305000  0.91326000  1.0
  H  H8  1  0.10136000  0.76964000  0.24866000  1.0
  H  H9  1  0.60137000  0.26964000  0.25135000  1.0
  H  H10  1  0.89864000  0.23036000  0.75134000  1.0
  H  H11  1  0.39863000  0.73036000  0.74865000  1.0
  H  H12  1  0.42414000  0.40925000  0.65202000  1.0
  H  H13  1  0.92414000  0.90925000  0.84798000  1.0
  H  H14  1  0.57586000  0.59075000  0.34798000  1.0
  H  H15  1  0.07586000  0.09075000  0.15202000  1.0
  C  C16  1  0.17264000  0.88189000  0.27069000  1.0
  C  C17  1  0.67264000  0.38189000  0.22931000  1.0
  C  C18  1  0.82736000  0.11812000  0.72931000  1.0
  C  C19  1  0.32735000  0.61812000  0.77069000  1.0
  C  C20  1  0.53193000  0.35729000  0.59793000  1.0
  C  C21  1  0.03193000  0.85730000  0.90207000  1.0
  C  C22  1  0.46807000  0.64270000  0.40207000  1.0
  C  C23  1  0.96807000  0.14270000  0.09793000  1.0
  N  N24  1  0.07253000  0.98248000  0.33323000  1.0
  N  N25  1  0.57253000  0.48247000  0.16677000  1.0
  N  N26  1  0.92747000  0.01752000  0.66677000  1.0
  N  N27  1  0.42747000  0.51752000  0.83322000  1.0
  N  N28  1  0.21188000  0.10694000  0.34018000  1.0
  N  N29  1  0.71188000  0.60694000  0.15982000  1.0
  N  N30  1  0.78812000  0.89306000  0.65982000  1.0
  N  N31  1  0.28812000  0.39306000  0.84018000  1.0
  N  N32  1  0.38842000  0.08190000  0.28403000  1.0
  N  N33  1  0.88842000  0.58191000  0.21597000  1.0
  N  N34  1  0.61158000  0.91810000  0.71597000  1.0
  N  N35  1  0.11157000  0.41810000  0.78403000  1.0
  N  N36  1  0.36719000  0.94115000  0.23904000  1.0
  N  N37  1  0.86719000  0.44115000  0.26096000  1.0
  N  N38  1  0.63282000  0.05885000  0.76096000  1.0
  N  N39  1  0.13281000  0.55885000  0.73904000  1.0
  N  N40  1  0.49371000  0.21903000  0.55473000  1.0
  N  N41  1  0.99371000  0.71903000  0.94527000  1.0
  N  N42  1  0.50629000  0.78097000  0.44526000  1.0
  N  N43  1  0.00629000  0.28097000  0.05473000  1.0
  N  N44  1  0.66290000  0.19912000  0.49190000  1.0
  N  N45  1  0.16289000  0.69912000  0.00810000  1.0
  N  N46  1  0.33710000  0.80088000  0.50810000  1.0
  N  N47  1  0.83711000  0.30088000  0.99190000  1.0
  N  N48  1  0.79715000  0.32105000  0.49734000  1.0
  N  N49  1  0.29715000  0.82105000  0.00266000  1.0
  N  N50  1  0.20285000  0.67894000  0.50266000  1.0
  N  N51  1  0.70285000  0.17895000  0.99734000  1.0
  N  N52  1  0.71829000  0.42303000  0.56386000  1.0
  N  N53  1  0.21829000  0.92303000  0.93615000  1.0
  N  N54  1  0.28171000  0.57697000  0.43614000  1.0
  N  N55  1  0.78171000  0.07697000  0.06386000  1.0
