# generated using pymatgen
data_ZnH7C12N5O8
_symmetry_space_group_name_H-M   'P 1'
_cell_length_a   9.59985000
_cell_length_b   10.98370000
_cell_length_c   11.05100000
_cell_angle_alpha   84.39260000
_cell_angle_beta   89.86850000
_cell_angle_gamma   84.45010000
_symmetry_Int_Tables_number   1
_chemical_formula_structural   ZnH7C12N5O8
_chemical_formula_sum   'Zn2 H14 C24 N10 O16'
_cell_volume   1154.19601716
_cell_formula_units_Z   2
loop_
 _symmetry_equiv_pos_site_id
 _symmetry_equiv_pos_as_xyz
  1  'x, y, z'
loop_
 _atom_site_type_symbol
 _atom_site_label
 _atom_site_symmetry_multiplicity
 _atom_site_fract_x
 _atom_site_fract_y
 _atom_site_fract_z
 _atom_site_occupancy
  Zn  Zn0  1  0.63984000  0.48909000  0.50592000  1.0
  Zn  Zn1  1  0.34973000  0.51652000  0.50173000  1.0
  H  H2  1  0.28751000  0.13763000  0.50501000  1.0
  H  H3  1  0.28638000  0.90365000  0.50958000  1.0
  H  H4  1  0.14865000  0.39352000  0.65974000  1.0
  H  H5  1  0.10415000  0.62960000  0.34093000  1.0
  H  H6  1  0.88790000  0.36661000  0.65412000  1.0
  H  H7  1  0.84124000  0.61152000  0.34219000  1.0
  H  H8  1  0.02854000  0.12858000  0.40346000  1.0
  H  H9  1  0.10081000  0.97885000  0.44604000  1.0
  H  H10  1  0.01891000  0.76896000  0.67161000  1.0
  H  H11  1  0.09352000  0.90499000  0.63274000  1.0
  H  H12  1  0.82582000  0.47308000  0.93658000  1.0
  H  H13  1  0.73958000  0.45938000  0.80137000  1.0
  H  H14  1  0.73240000  0.44727000  0.22429000  1.0
  H  H15  1  0.79515000  0.37613000  0.10112000  1.0
  C  C16  1  0.48599000  0.53276000  0.26502000  1.0
  C  C17  1  0.48658000  0.48426000  0.74354000  1.0
  C  C18  1  0.50792000  0.26440000  0.49430000  1.0
  C  C19  1  0.49899000  0.73724000  0.52449000  1.0
  C  C20  1  0.77198000  0.08784000  0.45943000  1.0
  C  C21  1  0.76308000  0.85785000  0.59117000  1.0
  C  C22  1  0.89755000  0.01818000  0.49339000  1.0
  C  C23  1  0.89300000  0.90389000  0.57220000  1.0
  C  C24  1  0.63491000  0.92377000  0.54240000  1.0
  C  C25  1  0.63802000  0.04926000  0.49812000  1.0
  C  C26  1  0.51011000  0.12761000  0.49387000  1.0
  C  C27  1  0.50510000  0.87167000  0.53458000  1.0
  C  C28  1  0.38355000  0.07606000  0.50589000  1.0
  C  C29  1  0.38210000  0.94851000  0.51568000  1.0
  C  C30  1  0.36950000  0.56651000  0.05762000  1.0
  C  C31  1  0.36515000  0.53989000  0.93779000  1.0
  C  C32  1  0.48764000  0.49714000  0.87666000  1.0
  C  C33  1  0.49202000  0.53440000  0.13022000  1.0
  C  C34  1  0.61451000  0.47851000  0.94391000  1.0
  C  C35  1  0.61416000  0.48697000  0.07339000  1.0
  C  C36  1  0.07933000  0.43965000  0.58803000  1.0
  C  C37  1  0.05440000  0.57332000  0.41213000  1.0
  C  C38  1  0.93685000  0.42653000  0.58559000  1.0
  C  C39  1  0.91121000  0.56213000  0.41182000  1.0
  N  N40  1  0.85411000  0.48864000  0.49842000  1.0
  N  N41  1  0.13644000  0.51281000  0.50108000  1.0
  N  N42  1  0.77527000  0.18326000  0.35974000  1.0
  N  N43  1  0.75465000  0.75569000  0.68373000  1.0
  N  N44  1  0.02729000  0.04910000  0.45957000  1.0
  N  N45  1  0.01799000  0.84965000  0.61727000  1.0
  N  N46  1  0.24881000  0.63800000  0.10667000  1.0
  N  N47  1  0.23007000  0.56850000  0.87036000  1.0
  N  N48  1  0.74121000  0.44698000  0.89420000  1.0
  N  N49  1  0.73855000  0.44981000  0.13198000  1.0
  O  O50  1  0.60318000  0.51627000  0.32271000  1.0
  O  O51  1  0.60531000  0.47468000  0.69014000  1.0
  O  O52  1  0.36736000  0.54249000  0.31623000  1.0
  O  O53  1  0.36986000  0.48462000  0.68954000  1.0
  O  O54  1  0.62500000  0.30675000  0.51060000  1.0
  O  O55  1  0.61500000  0.67500000  0.50722000  1.0
  O  O56  1  0.39001000  0.32805000  0.48499000  1.0
  O  O57  1  0.37929000  0.69644000  0.52569000  1.0
  O  O58  1  0.88214000  0.24159000  0.34676000  1.0
  O  O59  1  0.67625000  0.19972000  0.28637000  1.0
  O  O60  1  0.85918000  0.67758000  0.70011000  1.0
  O  O61  1  0.64800000  0.75237000  0.74687000  1.0
  O  O62  1  0.27123000  0.73477000  0.14894000  1.0
  O  O63  1  0.13175000  0.59902000  0.10060000  1.0
  O  O64  1  0.15547000  0.48371000  0.86573000  1.0
  O  O65  1  0.20072000  0.67612000  0.82683000  1.0
