# generated using pymatgen
data_CdH8C8S2(N2O)2
_symmetry_space_group_name_H-M   'P 1'
_cell_length_a   8.70115000
_cell_length_b   8.70113000
_cell_length_c   8.92139000
_cell_angle_alpha   96.74230000
_cell_angle_beta   96.74230000
_cell_angle_gamma   113.07000000
_symmetry_Int_Tables_number   1
_chemical_formula_structural   CdH8C8S2(N2O)2
_chemical_formula_sum   'Cd2 H16 C16 S4 N8 O4'
_cell_volume   607.17221184
_cell_formula_units_Z   2
loop_
 _symmetry_equiv_pos_site_id
 _symmetry_equiv_pos_as_xyz
  1  'x, y, z'
loop_
 _atom_site_type_symbol
 _atom_site_label
 _atom_site_symmetry_multiplicity
 _atom_site_fract_x
 _atom_site_fract_y
 _atom_site_fract_z
 _atom_site_occupancy
  Cd  Cd0  1  0.22713000  0.77286000  0.25000000  1.0
  Cd  Cd1  1  0.77286000  0.22714000  0.75000000  1.0
  H  H2  1  0.14394000  0.97034000  0.89316000  1.0
  H  H3  1  0.02964000  0.85604000  0.60684000  1.0
  H  H4  1  0.85605000  0.02965000  0.10684000  1.0
  H  H5  1  0.97035000  0.14395000  0.39316000  1.0
  H  H6  1  0.60103000  0.75919000  0.89565000  1.0
  H  H7  1  0.24083000  0.39898000  0.60434000  1.0
  H  H8  1  0.39898000  0.24082000  0.10435000  1.0
  H  H9  1  0.75918000  0.60103000  0.39565000  1.0
  H  H10  1  0.45231000  0.54459000  0.87660000  1.0
  H  H11  1  0.45541000  0.54769000  0.62339000  1.0
  H  H12  1  0.54769000  0.45541000  0.12340000  1.0
  H  H13  1  0.54459000  0.45231000  0.37660000  1.0
  H  H14  1  0.47331000  0.69978000  0.03816000  1.0
  H  H15  1  0.30023000  0.52670000  0.46185000  1.0
  H  H16  1  0.52669000  0.30022000  0.96185000  1.0
  H  H17  1  0.69978000  0.47331000  0.53816000  1.0
  C  C18  1  0.17996000  0.88108000  0.82649000  1.0
  C  C19  1  0.11891000  0.82003000  0.67351000  1.0
  C  C20  1  0.82004000  0.11892000  0.17352000  1.0
  C  C21  1  0.88109000  0.17997000  0.32649000  1.0
  C  C22  1  0.34524000  0.72017000  0.82784000  1.0
  C  C23  1  0.27984000  0.65476000  0.67215000  1.0
  C  C24  1  0.65476000  0.27984000  0.17216000  1.0
  C  C25  1  0.72017000  0.34524000  0.32785000  1.0
  C  C26  1  0.86904000  0.60352000  0.97464000  1.0
  C  C27  1  0.39649000  0.13094000  0.52537000  1.0
  C  C28  1  0.13095000  0.39649000  0.02537000  1.0
  C  C29  1  0.60352000  0.86905000  0.47463000  1.0
  C  C30  1  0.47436000  0.67684000  0.91518000  1.0
  C  C31  1  0.32317000  0.52565000  0.58482000  1.0
  C  C32  1  0.52565000  0.32317000  0.08482000  1.0
  C  C33  1  0.67683000  0.47436000  0.41518000  1.0
  S  S34  1  0.91633000  0.75128000  0.12451000  1.0
  S  S35  1  0.24870000  0.08365000  0.37549000  1.0
  S  S36  1  0.08366000  0.24871000  0.87548000  1.0
  S  S37  1  0.75128000  0.91634000  0.62449000  1.0
  N  N38  1  0.29220000  0.83201000  0.90428000  1.0
  N  N39  1  0.16799000  0.70780000  0.59572000  1.0
  N  N40  1  0.70780000  0.16799000  0.09573000  1.0
  N  N41  1  0.83202000  0.29220000  0.40428000  1.0
  N  N42  1  0.83254000  0.49664000  0.86550000  1.0
  N  N43  1  0.50336000  0.16744000  0.63451000  1.0
  N  N44  1  0.16745000  0.50336000  0.13451000  1.0
  N  N45  1  0.49664000  0.83255000  0.36549000  1.0
  O  O46  1  0.35032000  0.89526000  0.04987000  1.0
  O  O47  1  0.10474000  0.64968000  0.45012000  1.0
  O  O48  1  0.64968000  0.10474000  0.95013000  1.0
  O  O49  1  0.89526000  0.35032000  0.54988000  1.0
