# generated using pymatgen
data_Tb2H11C11NO16
_symmetry_space_group_name_H-M   'P 1'
_cell_length_a   7.58201000
_cell_length_b   10.83100000
_cell_length_c   12.77950000
_cell_angle_alpha   94.99040000
_cell_angle_beta   103.51500000
_cell_angle_gamma   107.57500000
_symmetry_Int_Tables_number   1
_chemical_formula_structural   Tb2H11C11NO16
_chemical_formula_sum   'Tb4 H22 C22 N2 O32'
_cell_volume   958.61577640
_cell_formula_units_Z   2
loop_
 _symmetry_equiv_pos_site_id
 _symmetry_equiv_pos_as_xyz
  1  'x, y, z'
loop_
 _atom_site_type_symbol
 _atom_site_label
 _atom_site_symmetry_multiplicity
 _atom_site_fract_x
 _atom_site_fract_y
 _atom_site_fract_z
 _atom_site_occupancy
  Tb  Tb0  1  0.82482000  0.53687000  0.19256000  1.0
  Tb  Tb1  1  0.17517000  0.46313000  0.80743000  1.0
  Tb  Tb2  1  0.27670000  0.17894000  0.39900000  1.0
  Tb  Tb3  1  0.72329000  0.82106000  0.60101000  1.0
  H  H4  1  0.46138000  0.59401000  0.08495000  1.0
  H  H5  1  0.53861000  0.40599000  0.91503000  1.0
  H  H6  1  0.55764000  0.67431000  0.20335000  1.0
  H  H7  1  0.44235000  0.32569000  0.79663000  1.0
  H  H8  1  0.58683000  0.47091000  0.33318000  1.0
  H  H9  1  0.41317000  0.52909000  0.66682000  1.0
  H  H10  1  0.76098000  0.58396000  0.41978000  1.0
  H  H11  1  0.23903000  0.41605000  0.58021000  1.0
  H  H12  1  0.89933000  0.12188000  0.43753000  1.0
  H  H13  1  0.10066000  0.87811000  0.56248000  1.0
  H  H14  1  0.01118000  0.12447000  0.55699000  1.0
  H  H15  1  0.98882000  0.87553000  0.44302000  1.0
  H  H16  1  0.59813000  0.42840000  0.53615000  1.0
  H  H17  1  0.40187000  0.57160000  0.46385000  1.0
  H  H18  1  0.66177000  0.31237000  0.56830000  1.0
  H  H19  1  0.33823000  0.68764000  0.43170000  1.0
  H  H20  1  0.06041000  0.78094000  0.04262000  1.0
  H  H21  1  0.93961000  0.21906000  0.95739000  1.0
  H  H22  1  0.21090000  0.91534000  0.91631000  1.0
  H  H23  1  0.78913000  0.08465000  0.08371000  1.0
  H  H24  1  0.38601000  0.16036000  0.98370000  1.0
  H  H25  1  0.61401000  0.83963000  0.01631000  1.0
  C  C26  1  0.55490000  0.00816000  0.45524000  1.0
  C  C27  1  0.44509000  0.99184000  0.54476000  1.0
  C  C28  1  0.97554000  0.30275000  0.26408000  1.0
  C  C29  1  0.02447000  0.69725000  0.73591000  1.0
  C  C30  1  0.10154000  0.42151000  0.35558000  1.0
  C  C31  1  0.89847000  0.57850000  0.64442000  1.0
  C  C32  1  0.10212000  0.52181000  0.04039000  1.0
  C  C33  1  0.89786000  0.47819000  0.95959000  1.0
  C  C34  1  0.06530000  0.87782000  0.25387000  1.0
  C  C35  1  0.93468000  0.12219000  0.74613000  1.0
  C  C36  1  0.15145000  0.94750000  0.17150000  1.0
  C  C37  1  0.84855000  0.05250000  0.82850000  1.0
  C  C38  1  0.13742000  0.88586000  0.06767000  1.0
  C  C39  1  0.86259000  0.11414000  0.93234000  1.0
  C  C40  1  0.22233000  0.96148000  0.99809000  1.0
  C  C41  1  0.77769000  0.03852000  0.00191000  1.0
  C  C42  1  0.31871000  0.09597000  0.03457000  1.0
  C  C43  1  0.68130000  0.90403000  0.96544000  1.0
  C  C44  1  0.32748000  0.14907000  0.14012000  1.0
  C  C45  1  0.67252000  0.85093000  0.85989000  1.0
  C  C46  1  0.43450000  0.29044000  0.19105000  1.0
  C  C47  1  0.56550000  0.70955000  0.80896000  1.0
  N  N48  1  0.24525000  0.07607000  0.20622000  1.0
  N  N49  1  0.75474000  0.92393000  0.79378000  1.0
  O  O50  1  0.53347000  0.09280000  0.39544000  1.0
  O  O51  1  0.46652000  0.90720000  0.60455000  1.0
  O  O52  1  0.34111000  0.06312000  0.54982000  1.0
  O  O53  1  0.65889000  0.93688000  0.45019000  1.0
  O  O54  1  0.00099000  0.19374000  0.27220000  1.0
  O  O55  1  0.99902000  0.80627000  0.72780000  1.0
  O  O56  1  0.85714000  0.32571000  0.18707000  1.0
  O  O57  1  0.14289000  0.67430000  0.81293000  1.0
  O  O58  1  0.23673000  0.40473000  0.42760000  1.0
  O  O59  1  0.76327000  0.59528000  0.57240000  1.0
  O  O60  1  0.06436000  0.52730000  0.35053000  1.0
  O  O61  1  0.93566000  0.47271000  0.64947000  1.0
  O  O62  1  0.12003000  0.56279000  0.13846000  1.0
  O  O63  1  0.87995000  0.43721000  0.86152000  1.0
  O  O64  1  0.23664000  0.51229000  0.99915000  1.0
  O  O65  1  0.76334000  0.48770000  0.00083000  1.0
  O  O66  1  0.98495000  0.75492000  0.23206000  1.0
  O  O67  1  0.01504000  0.24509000  0.76794000  1.0
  O  O68  1  0.08145000  0.94910000  0.34270000  1.0
  O  O69  1  0.91854000  0.05090000  0.65730000  1.0
  O  O70  1  0.43551000  0.32197000  0.29059000  1.0
  O  O71  1  0.56449000  0.67803000  0.70941000  1.0
  O  O72  1  0.51848000  0.36842000  0.13679000  1.0
  O  O73  1  0.48153000  0.63157000  0.86322000  1.0
  O  O74  1  0.58835000  0.64789000  0.13670000  1.0
  O  O75  1  0.41163000  0.35210000  0.86328000  1.0
  O  O76  1  0.69566000  0.55557000  0.34157000  1.0
  O  O77  1  0.30434000  0.44442000  0.65842000  1.0
  O  O78  1  0.02628000  0.16194000  0.48969000  1.0
  O  O79  1  0.97372000  0.83805000  0.51032000  1.0
  O  O80  1  0.54693000  0.33203000  0.53296000  1.0
  O  O81  1  0.45307000  0.66797000  0.46704000  1.0
