# generated using pymatgen
data_SmH8C11N3O7
_symmetry_space_group_name_H-M   'P 1'
_cell_length_a   6.84947000
_cell_length_b   10.06350000
_cell_length_c   18.46090000
_cell_angle_alpha   90.00000000
_cell_angle_beta   93.59530000
_cell_angle_gamma   89.99990000
_symmetry_Int_Tables_number   1
_chemical_formula_structural   SmH8C11N3O7
_chemical_formula_sum   'Sm4 H32 C44 N12 O28'
_cell_volume   1269.99877154
_cell_formula_units_Z   4
loop_
 _symmetry_equiv_pos_site_id
 _symmetry_equiv_pos_as_xyz
  1  'x, y, z'
loop_
 _atom_site_type_symbol
 _atom_site_label
 _atom_site_symmetry_multiplicity
 _atom_site_fract_x
 _atom_site_fract_y
 _atom_site_fract_z
 _atom_site_occupancy
  Sm  Sm0  1  0.89003000  0.99714000  0.62447000  1.0
  Sm  Sm1  1  0.10997000  0.49714000  0.87553000  1.0
  Sm  Sm2  1  0.10997000  0.00286000  0.37553000  1.0
  Sm  Sm3  1  0.89003000  0.50286000  0.12447000  1.0
  H  H4  1  0.14353000  0.57232000  0.62311000  1.0
  H  H5  1  0.85647000  0.07232000  0.87689000  1.0
  H  H6  1  0.85647000  0.42767000  0.37689000  1.0
  H  H7  1  0.14353000  0.92768000  0.12311000  1.0
  H  H8  1  0.25573000  0.65722000  0.40080000  1.0
  H  H9  1  0.74427000  0.15722000  0.09920000  1.0
  H  H10  1  0.74427000  0.34278000  0.59920000  1.0
  H  H11  1  0.25573000  0.84278000  0.90080000  1.0
  H  H12  1  0.34816000  0.41714000  0.38714000  1.0
  H  H13  1  0.65184000  0.91714000  0.11286000  1.0
  H  H14  1  0.65184000  0.58286000  0.61286000  1.0
  H  H15  1  0.34816000  0.08286000  0.88714000  1.0
  H  H16  1  0.24010000  0.33565000  0.60056000  1.0
  H  H17  1  0.75990000  0.83565000  0.89944000  1.0
  H  H18  1  0.75990000  0.66435000  0.39944000  1.0
  H  H19  1  0.24010000  0.16435000  0.10056000  1.0
  H  H20  1  0.30801000  0.70421000  0.75933000  1.0
  H  H21  1  0.69199000  0.20421000  0.74068000  1.0
  H  H22  1  0.69199000  0.29579000  0.24067000  1.0
  H  H23  1  0.30801000  0.79579000  0.25932000  1.0
  H  H24  1  0.37571000  0.84803000  0.64835000  1.0
  H  H25  1  0.62429000  0.34804000  0.85166000  1.0
  H  H26  1  0.62428000  0.15196000  0.35166000  1.0
  H  H27  1  0.37571000  0.65196000  0.14834000  1.0
  H  H28  1  0.68734000  0.93572000  0.47880000  1.0
  H  H29  1  0.31266000  0.43572000  0.02120000  1.0
  H  H30  1  0.31265000  0.06428000  0.52119000  1.0
  H  H31  1  0.68734000  0.56428000  0.97880000  1.0
  H  H32  1  0.68339000  0.79783000  0.52031000  1.0
  H  H33  1  0.31661000  0.29783000  0.97969000  1.0
  H  H34  1  0.31661000  0.20217000  0.47969000  1.0
  H  H35  1  0.68338000  0.70217000  0.02031000  1.0
  C  C36  1  0.19293000  0.63241000  0.51338000  1.0
  C  C37  1  0.80707000  0.13241000  0.98663000  1.0
  C  C38  1  0.80707000  0.36758000  0.48663000  1.0
  C  C39  1  0.19293000  0.86759000  0.01338000  1.0
  C  C40  1  0.12101000  0.77230000  0.52292000  1.0
  C  C41  1  0.87900000  0.27230000  0.97708000  1.0
  C  C42  1  0.87900000  0.22770000  0.47708000  1.0
  C  C43  1  0.12101000  0.72770000  0.02292000  1.0
  C  C44  1  0.19142000  0.54146000  0.57053000  1.0
  C  C45  1  0.80859000  0.04146000  0.92947000  1.0
  C  C46  1  0.80859000  0.45853000  0.42947000  1.0
  C  C47  1  0.19142000  0.95854000  0.07053000  1.0
  C  C48  1  0.25270000  0.58863000  0.44635000  1.0
  C  C49  1  0.74730000  0.08864000  0.05365000  1.0
  C  C50  1  0.74731000  0.41136000  0.55365000  1.0
  C  C51  1  0.25270000  0.91137000  0.94635000  1.0
  C  C52  1  0.30381000  0.45575000  0.43888000  1.0
  C  C53  1  0.69619000  0.95575000  0.06112000  1.0
  C  C54  1  0.69619000  0.54425000  0.56112000  1.0
  C  C55  1  0.30381000  0.04425000  0.93888000  1.0
  C  C56  1  0.24484000  0.41050000  0.55797000  1.0
  C  C57  1  0.75515000  0.91050000  0.94203000  1.0
  C  C58  1  0.75516000  0.58950000  0.44203000  1.0
  C  C59  1  0.24484000  0.08951000  0.05797000  1.0
  C  C60  1  0.48687000  0.80633000  0.68609000  1.0
  C  C61  1  0.51313000  0.30634000  0.81391000  1.0
  C  C62  1  0.51313000  0.19366000  0.31391000  1.0
  C  C63  1  0.48687000  0.69367000  0.18608000  1.0
  C  C64  1  0.61886000  0.68867000  0.77820000  1.0
  C  C65  1  0.38114000  0.18867000  0.72180000  1.0
  C  C66  1  0.38114000  0.31133000  0.22180000  1.0
  C  C67  1  0.61886000  0.81133000  0.27820000  1.0
  C  C68  1  0.76451000  0.75507000  0.74311000  1.0
  C  C69  1  0.23549000  0.25507000  0.75689000  1.0
  C  C70  1  0.23549000  0.24493000  0.25689000  1.0
  C  C71  1  0.76451000  0.74493000  0.24311000  1.0
  C  C72  1  0.97812000  0.77225000  0.75686000  1.0
  C  C73  1  0.02188000  0.27226000  0.74315000  1.0
  C  C74  1  0.02188000  0.22774000  0.24314000  1.0
  C  C75  1  0.97812000  0.72774000  0.25685000  1.0
  C  C76  1  0.60886000  0.60905000  0.84535000  1.0
  C  C77  1  0.39115000  0.10905000  0.65465000  1.0
  C  C78  1  0.39115000  0.39095000  0.15465000  1.0
  C  C79  1  0.60885000  0.89095000  0.34535000  1.0
  N  N80  1  0.67894000  0.82814000  0.68635000  1.0
  N  N81  1  0.32106000  0.32815000  0.81365000  1.0
  N  N82  1  0.32106000  0.17185000  0.31365000  1.0
  N  N83  1  0.67894000  0.67185000  0.18635000  1.0
  N  N84  1  0.29904000  0.36759000  0.49336000  1.0
  N  N85  1  0.70096000  0.86760000  0.00664000  1.0
  N  N86  1  0.70097000  0.63240000  0.50664000  1.0
  N  N87  1  0.29904000  0.13241000  0.99336000  1.0
  N  N88  1  0.44638000  0.72445000  0.74087000  1.0
  N  N89  1  0.55362000  0.22445000  0.75913000  1.0
  N  N90  1  0.55362000  0.27555000  0.25913000  1.0
  N  N91  1  0.44637000  0.77555000  0.24087000  1.0
  O  O92  1  0.04931000  0.87768000  0.73154000  1.0
  O  O93  1  0.95069000  0.37769000  0.76846000  1.0
  O  O94  1  0.95069000  0.12232000  0.26846000  1.0
  O  O95  1  0.04931000  0.62232000  0.23154000  1.0
  O  O96  1  0.06892000  0.80512000  0.58516000  1.0
  O  O97  1  0.93110000  0.30512000  0.91484000  1.0
  O  O98  1  0.93109000  0.19488000  0.41484000  1.0
  O  O99  1  0.06891000  0.69488000  0.08516000  1.0
  O  O100  1  0.08118000  0.68291000  0.79077000  1.0
  O  O101  1  0.91882000  0.18291000  0.70923000  1.0
  O  O102  1  0.91882000  0.31709000  0.20923000  1.0
  O  O103  1  0.08118000  0.81709000  0.29077000  1.0
  O  O104  1  0.68372000  0.89767000  0.52781000  1.0
  O  O105  1  0.31628000  0.39767000  0.97219000  1.0
  O  O106  1  0.31628000  0.10233000  0.47219000  1.0
  O  O107  1  0.68372000  0.60233000  0.02781000  1.0
  O  O108  1  0.76642000  0.56867000  0.87888000  1.0
  O  O109  1  0.23358000  0.06868000  0.62112000  1.0
  O  O110  1  0.23358000  0.43133000  0.12113000  1.0
  O  O111  1  0.76642000  0.93132000  0.37887000  1.0
  O  O112  1  0.43861000  0.58935000  0.86620000  1.0
  O  O113  1  0.56140000  0.08935000  0.63380000  1.0
  O  O114  1  0.56140000  0.41065000  0.13380000  1.0
  O  O115  1  0.43860000  0.91065000  0.36620000  1.0
  O  O116  1  0.11274000  0.84760000  0.46781000  1.0
  O  O117  1  0.88726000  0.34760000  0.03219000  1.0
  O  O118  1  0.88727000  0.15240000  0.53219000  1.0
  O  O119  1  0.11274000  0.65240000  0.96781000  1.0
