# generated using pymatgen
data_Ca2H17C21NO9
_symmetry_space_group_name_H-M   'P 1'
_cell_length_a   10.00280000
_cell_length_b   10.93570000
_cell_length_c   22.63670000
_cell_angle_alpha   95.31610000
_cell_angle_beta   90.00000000
_cell_angle_gamma   90.00000000
_symmetry_Int_Tables_number   1
_chemical_formula_structural   Ca2H17C21NO9
_chemical_formula_sum   'Ca8 H68 C84 N4 O36'
_cell_volume   2465.52397359
_cell_formula_units_Z   4
loop_
 _symmetry_equiv_pos_site_id
 _symmetry_equiv_pos_as_xyz
  1  'x, y, z'
loop_
 _atom_site_type_symbol
 _atom_site_label
 _atom_site_symmetry_multiplicity
 _atom_site_fract_x
 _atom_site_fract_y
 _atom_site_fract_z
 _atom_site_occupancy
  Ca  Ca0  1  0.98119000  0.05075000  0.66218000  1.0
  Ca  Ca1  1  0.98118000  0.44925000  0.83782000  1.0
  Ca  Ca2  1  0.01881000  0.94925000  0.33782000  1.0
  Ca  Ca3  1  0.01882000  0.55075000  0.16218000  1.0
  Ca  Ca4  1  0.00000000  0.00000000  0.50000000  1.0
  Ca  Ca5  1  0.00000000  0.50000000  0.00000000  1.0
  Ca  Ca6  1  0.19539000  0.25000000  0.75000000  1.0
  Ca  Ca7  1  0.80461000  0.75000000  0.25000000  1.0
  H  H8  1  0.26532000  0.16557000  0.49869000  1.0
  H  H9  1  0.26532000  0.33442000  0.00131000  1.0
  H  H10  1  0.73468000  0.83442000  0.50131000  1.0
  H  H11  1  0.73468000  0.66557000  0.99869000  1.0
  H  H12  1  0.47632000  0.19875000  0.44416000  1.0
  H  H13  1  0.47632000  0.30125000  0.05584000  1.0
  H  H14  1  0.52368000  0.80125000  0.55584000  1.0
  H  H15  1  0.52368000  0.69875000  0.94416000  1.0
  H  H16  1  0.69674000  0.16354000  0.49204000  1.0
  H  H17  1  0.69674000  0.33646000  0.00795000  1.0
  H  H18  1  0.30326000  0.83646000  0.50796000  1.0
  H  H19  1  0.30327000  0.66354000  0.99204000  1.0
  H  H20  1  0.49415000  0.08671000  0.65207000  1.0
  H  H21  1  0.49415000  0.41329000  0.84793000  1.0
  H  H22  1  0.50585000  0.91328000  0.34793000  1.0
  H  H23  1  0.50585000  0.58671000  0.15207000  1.0
  H  H24  1  0.98857000  0.62911000  0.68193000  1.0
  H  H25  1  0.98857000  0.87089000  0.81807000  1.0
  H  H26  1  0.01143000  0.37089000  0.31807000  1.0
  H  H27  1  0.01143000  0.12911000  0.18193000  1.0
  H  H28  1  0.85006000  0.62918000  0.50239000  1.0
  H  H29  1  0.85006000  0.87082000  0.99761000  1.0
  H  H30  1  0.14994000  0.37082000  0.49761000  1.0
  H  H31  1  0.14994000  0.12918000  0.00239000  1.0
  H  H32  1  0.82738000  0.40013000  0.49515000  1.0
  H  H33  1  0.82738000  0.09987000  0.00485000  1.0
  H  H34  1  0.17262000  0.59987000  0.50485000  1.0
  H  H35  1  0.17262000  0.90013000  0.99515000  1.0
  H  H36  1  0.89959000  0.28642000  0.57959000  1.0
  H  H37  1  0.89959000  0.21358000  0.92041000  1.0
  H  H38  1  0.10041000  0.71358000  0.42042000  1.0
  H  H39  1  0.10041000  0.78642000  0.07959000  1.0
  H  H40  1  0.24443000  0.39198000  0.59257000  1.0
  H  H41  1  0.24443000  0.10802000  0.90743000  1.0
  H  H42  1  0.75557000  0.60802000  0.40743000  1.0
  H  H43  1  0.75557000  0.89198000  0.09257000  1.0
  H  H44  1  0.24135000  0.54106000  0.62930000  1.0
  H  H45  1  0.24135000  0.95894000  0.87070000  1.0
  H  H46  1  0.75865000  0.45894000  0.37070000  1.0
  H  H47  1  0.75864000  0.04106000  0.12930000  1.0
  H  H48  1  0.40330000  0.60372000  0.56050000  1.0
  H  H49  1  0.40330000  0.89628000  0.93950000  1.0
  H  H50  1  0.59670000  0.39628000  0.43950000  1.0
  H  H51  1  0.59670000  0.10372000  0.06050000  1.0
  H  H52  1  0.40809000  0.45255000  0.52584000  1.0
  H  H53  1  0.40809000  0.04745000  0.97416000  1.0
  H  H54  1  0.59192000  0.54745000  0.47416000  1.0
  H  H55  1  0.59191000  0.95255000  0.02584000  1.0
  H  H56  1  0.61310000  0.41808000  0.57169000  1.0
  H  H57  1  0.61310000  0.08192000  0.92831000  1.0
  H  H58  1  0.38691000  0.58192000  0.42831000  1.0
  H  H59  1  0.38690000  0.91808000  0.07169000  1.0
  H  H60  1  0.61158000  0.56975000  0.60653000  1.0
  H  H61  1  0.61158000  0.93025000  0.89347000  1.0
  H  H62  1  0.38842000  0.43025000  0.39347000  1.0
  H  H63  1  0.38842000  0.06975000  0.10653000  1.0
  H  H64  1  0.57095000  0.37981000  0.73627000  1.0
  H  H65  1  0.57095000  0.12019000  0.76373000  1.0
  H  H66  1  0.42905000  0.62018000  0.26373000  1.0
  H  H67  1  0.42905000  0.87981000  0.23627000  1.0
  H  H68  1  0.68780000  0.48163000  0.70650000  1.0
  H  H69  1  0.68780000  0.01836000  0.79350000  1.0
  H  H70  1  0.31219000  0.51836000  0.29350000  1.0
  H  H71  1  0.31219000  0.98163000  0.20650000  1.0
  H  H72  1  0.67786000  0.32478000  0.67645000  1.0
  H  H73  1  0.67786000  0.17522000  0.82355000  1.0
  H  H74  1  0.32214000  0.67522000  0.32355000  1.0
  H  H75  1  0.32214000  0.82478000  0.17645000  1.0
  C  C76  1  0.24086000  0.09413000  0.61030000  1.0
  C  C77  1  0.24086000  0.40588000  0.88970000  1.0
  C  C78  1  0.75914000  0.90587000  0.38970000  1.0
  C  C79  1  0.75914000  0.59413000  0.11030000  1.0
  C  C80  1  0.74008000  0.09708000  0.60331000  1.0
  C  C81  1  0.74008000  0.40292000  0.89669000  1.0
  C  C82  1  0.25992000  0.90292000  0.39669000  1.0
  C  C83  1  0.25992000  0.59708000  0.10331000  1.0
  C  C84  1  0.36661000  0.12378000  0.57883000  1.0
  C  C85  1  0.36661000  0.37622000  0.92117000  1.0
  C  C86  1  0.63339000  0.87621000  0.42118000  1.0
  C  C87  1  0.63339000  0.62378000  0.07882000  1.0
  C  C88  1  0.36187000  0.15616000  0.52027000  1.0
  C  C89  1  0.36188000  0.34384000  0.97973000  1.0
  C  C90  1  0.63812000  0.84384000  0.47973000  1.0
  C  C91  1  0.63813000  0.65615000  0.02027000  1.0
  C  C92  1  0.48044000  0.17442000  0.48980000  1.0
  C  C93  1  0.48044000  0.32558000  0.01020000  1.0
  C  C94  1  0.51955000  0.82558000  0.51020000  1.0
  C  C95  1  0.51956000  0.67442000  0.98980000  1.0
  C  C96  1  0.60364000  0.15575000  0.51648000  1.0
  C  C97  1  0.60364000  0.34425000  0.98352000  1.0
  C  C98  1  0.39636000  0.84425000  0.48352000  1.0
  C  C99  1  0.39636000  0.65575000  0.01648000  1.0
  C  C100  1  0.60904000  0.12377000  0.57504000  1.0
  C  C101  1  0.60904000  0.37623000  0.92496000  1.0
  C  C102  1  0.39096000  0.87623000  0.42496000  1.0
  C  C103  1  0.39097000  0.62377000  0.07504000  1.0
  C  C104  1  0.49017000  0.11128000  0.60653000  1.0
  C  C105  1  0.49017000  0.38872000  0.89347000  1.0
  C  C106  1  0.50982000  0.88872000  0.39347000  1.0
  C  C107  1  0.50983000  0.61128000  0.10653000  1.0
  C  C108  1  0.99294000  0.38141000  0.68653000  1.0
  C  C109  1  0.99295000  0.11860000  0.81348000  1.0
  C  C110  1  0.00705000  0.61859000  0.31348000  1.0
  C  C111  1  0.00705000  0.88140000  0.18653000  1.0
  C  C112  1  0.94676000  0.77850000  0.59299000  1.0
  C  C113  1  0.94676000  0.72151000  0.90702000  1.0
  C  C114  1  0.05324000  0.22151000  0.40702000  1.0
  C  C115  1  0.05324000  0.27849000  0.09299000  1.0
  C  C116  1  0.94578000  0.45049000  0.63651000  1.0
  C  C117  1  0.94578000  0.04951000  0.86349000  1.0
  C  C118  1  0.05422000  0.54951000  0.36349000  1.0
  C  C119  1  0.05421000  0.95049000  0.13651000  1.0
  C  C120  1  0.95320000  0.57898000  0.64105000  1.0
  C  C121  1  0.95320000  0.92103000  0.85895000  1.0
  C  C122  1  0.04680000  0.42103000  0.35895000  1.0
  C  C123  1  0.04680000  0.07898000  0.14105000  1.0
  C  C124  1  0.92096000  0.64274000  0.59216000  1.0
  C  C125  1  0.92096000  0.85726000  0.90784000  1.0
  C  C126  1  0.07904000  0.35726000  0.40784000  1.0
  C  C127  1  0.07904000  0.14274000  0.09216000  1.0
  C  C128  1  0.87302000  0.57785000  0.54012000  1.0
  C  C129  1  0.87302000  0.92215000  0.95988000  1.0
  C  C130  1  0.12698000  0.42215000  0.45988000  1.0
  C  C131  1  0.12698000  0.07785000  0.04012000  1.0
  C  C132  1  0.86183000  0.45040000  0.53617000  1.0
  C  C133  1  0.86183000  0.04960000  0.96383000  1.0
  C  C134  1  0.13817000  0.54960000  0.46383000  1.0
  C  C135  1  0.13817000  0.95039000  0.03617000  1.0
  C  C136  1  0.90150000  0.38633000  0.58358000  1.0
  C  C137  1  0.90150000  0.11367000  0.91642000  1.0
  C  C138  1  0.09850000  0.61367000  0.41642000  1.0
  C  C139  1  0.09850000  0.88633000  0.08358000  1.0
  C  C140  1  0.38633000  0.42169000  0.66286000  1.0
  C  C141  1  0.38633000  0.07831000  0.83714000  1.0
  C  C142  1  0.61367000  0.57831000  0.33714000  1.0
  C  C143  1  0.61367000  0.92169000  0.16285000  1.0
  C  C144  1  0.30860000  0.46680000  0.61192000  1.0
  C  C145  1  0.30860000  0.03320000  0.88808000  1.0
  C  C146  1  0.69140000  0.53319000  0.38808000  1.0
  C  C147  1  0.69140000  0.96680000  0.11192000  1.0
  C  C148  1  0.41502000  0.50714000  0.56878000  1.0
  C  C149  1  0.41502000  0.99286000  0.93122000  1.0
  C  C150  1  0.58498000  0.49286000  0.43122000  1.0
  C  C151  1  0.58498000  0.00714000  0.06877000  1.0
  C  C152  1  0.55140000  0.48555000  0.59838000  1.0
  C  C153  1  0.55140000  0.01445000  0.90162000  1.0
  C  C154  1  0.44860000  0.51445000  0.40162000  1.0
  C  C155  1  0.44860000  0.98554000  0.09838000  1.0
  C  C156  1  0.61964000  0.40403000  0.69565000  1.0
  C  C157  1  0.61964000  0.09597000  0.80435000  1.0
  C  C158  1  0.38036000  0.59596000  0.30435000  1.0
  C  C159  1  0.38036000  0.90403000  0.19565000  1.0
  N  N160  1  0.51781000  0.43771000  0.65453000  1.0
  N  N161  1  0.51781000  0.06229000  0.84548000  1.0
  N  N162  1  0.48219000  0.56229000  0.34548000  1.0
  N  N163  1  0.48218000  0.93771000  0.15452000  1.0
  O  O164  1  0.14020000  0.05572000  0.57894000  1.0
  O  O165  1  0.14020000  0.44428000  0.92106000  1.0
  O  O166  1  0.85980000  0.94428000  0.42106000  1.0
  O  O167  1  0.85981000  0.55572000  0.07894000  1.0
  O  O168  1  0.23606000  0.10418000  0.66666667  1.0
  O  O169  1  0.23606000  0.39582000  0.83338000  1.0
  O  O170  1  0.76394000  0.89581000  0.33338000  1.0
  O  O171  1  0.76394000  0.60418000  0.16662000  1.0
  O  O172  1  0.84494000  0.08585000  0.57020000  1.0
  O  O173  1  0.84494000  0.41415000  0.92980000  1.0
  O  O174  1  0.15506000  0.91415000  0.42980000  1.0
  O  O175  1  0.15506000  0.58586000  0.07020000  1.0
  O  O176  1  0.74463000  0.08672000  0.65860000  1.0
  O  O177  1  0.74463000  0.41329000  0.84140000  1.0
  O  O178  1  0.25537000  0.91328000  0.34140000  1.0
  O  O179  1  0.25537000  0.58672000  0.15860000  1.0
  O  O180  1  0.01227000  0.26569000  0.67667000  1.0
  O  O181  1  0.01227000  0.23432000  0.82333000  1.0
  O  O182  1  0.98773000  0.73432000  0.32334000  1.0
  O  O183  1  0.98773000  0.76568000  0.17667000  1.0
  O  O184  1  0.01922000  0.43964000  0.73653000  1.0
  O  O185  1  0.01923000  0.06036000  0.76347000  1.0
  O  O186  1  0.98078000  0.56036000  0.26347000  1.0
  O  O187  1  0.98077000  0.93964000  0.23653000  1.0
  O  O188  1  0.95038000  0.82190000  0.54261000  1.0
  O  O189  1  0.95038000  0.67810000  0.95739000  1.0
  O  O190  1  0.04962000  0.17810000  0.45739000  1.0
  O  O191  1  0.04962000  0.32190000  0.04261000  1.0
  O  O192  1  0.96582000  0.84000000  0.64270000  1.0
  O  O193  1  0.96583000  0.66000000  0.85730000  1.0
  O  O194  1  0.03418000  0.16000000  0.35730000  1.0
  O  O195  1  0.03418000  0.34000000  0.14270000  1.0
  O  O196  1  0.33693000  0.37635000  0.70657000  1.0
  O  O197  1  0.33693000  0.12365000  0.79343000  1.0
  O  O198  1  0.66306000  0.62364000  0.29343000  1.0
  O  O199  1  0.66306000  0.87635000  0.20657000  1.0
