# generated using pymatgen
data_Zn4H12C27N12O13
_symmetry_space_group_name_H-M   'P 1'
_cell_length_a   17.38200000
_cell_length_b   18.09234415
_cell_length_c   18.46761733
_cell_angle_alpha   63.18541515
_cell_angle_beta   62.43531297
_cell_angle_gamma   61.67970759
_symmetry_Int_Tables_number   1
_chemical_formula_structural   Zn4H12C27N12O13
_chemical_formula_sum   'Zn8 H24 C54 N24 O26'
_cell_volume   4328.10346397
_cell_formula_units_Z   2
loop_
 _symmetry_equiv_pos_site_id
 _symmetry_equiv_pos_as_xyz
  1  'x, y, z'
loop_
 _atom_site_type_symbol
 _atom_site_label
 _atom_site_symmetry_multiplicity
 _atom_site_fract_x
 _atom_site_fract_y
 _atom_site_fract_z
 _atom_site_occupancy
  Zn  Zn0  1  0.00918000  0.96839000  0.90799000  1.0
  Zn  Zn1  1  0.19481000  0.96361000  0.91707000  1.0
  Zn  Zn2  1  0.01024000  0.97282000  0.07712000  1.0
  Zn  Zn3  1  0.01714000  0.13858000  0.91676000  1.0
  Zn  Zn4  1  0.60885000  0.55986000  0.49069000  1.0
  Zn  Zn5  1  0.41979000  0.55316000  0.50133000  1.0
  Zn  Zn6  1  0.60257000  0.38447000  0.48943000  1.0
  Zn  Zn7  1  0.59227000  0.54784000  0.32954000  1.0
  H  H8  1  0.38078000  0.77083000  0.78790000  1.0
  H  H9  1  0.47619000  0.68225000  0.68423000  1.0
  H  H10  1  0.14780000  0.85937000  0.70709000  1.0
  H  H11  1  0.11720000  0.72954000  0.67450000  1.0
  H  H12  1  0.80676000  0.86811000  0.24534000  1.0
  H  H13  1  0.72224000  0.76126000  0.34633000  1.0
  H  H14  1  0.88538000  0.76631000  0.04176000  1.0
  H  H15  1  0.70474000  0.72428000  0.06536000  1.0
  H  H16  1  0.90876000  0.31867000  0.71504000  1.0
  H  H17  1  0.80947000  0.41751000  0.62002000  1.0
  H  H18  1  0.79795000  0.11664000  0.79419000  1.0
  H  H19  1  0.76118000  0.10763000  0.64221000  1.0
  H  H20  1  0.15429000  0.74405000  0.23652000  1.0
  H  H21  1  0.24265000  0.64972000  0.34122000  1.0
  H  H22  1  0.33765000  0.89402000  0.09552000  1.0
  H  H23  1  0.51111000  0.84645000  0.06410000  1.0
  H  H24  1  0.16629000  0.30744000  0.81295000  1.0
  H  H25  1  0.25629000  0.40839000  0.70460000  1.0
  H  H26  1  0.36352000  0.10437000  0.69335000  1.0
  H  H27  1  0.56894000  0.09648000  0.62440000  1.0
  H  H28  1  0.81612000  0.31978000  0.05420000  1.0
  H  H29  1  0.72161000  0.41341000  0.15317000  1.0
  H  H30  1  0.92141000  0.10667000  0.25356000  1.0
  H  H31  1  0.75899000  0.10122000  0.44384000  1.0
  C  C32  1  0.19897000  0.87072000  0.81809000  1.0
  C  C33  1  0.25773000  0.81810000  0.75588000  1.0
  C  C34  1  0.35093000  0.76984000  0.74801000  1.0
  C  C35  1  0.40389000  0.72091000  0.69023000  1.0
  C  C36  1  0.36553000  0.71868000  0.63943000  1.0
  C  C37  1  0.42281000  0.65722000  0.58529000  1.0
  C  C38  1  0.27265000  0.77021000  0.64559000  1.0
  C  C39  1  0.21925000  0.81901000  0.70345000  1.0
  C  C40  1  0.15762000  0.75631000  0.60996000  1.0
  C  C41  1  0.90434000  0.88532000  0.07876000  1.0
  C  C42  1  0.85046000  0.82432000  0.13743000  1.0
  C  C43  1  0.80484000  0.82253000  0.22341000  1.0
  C  C44  1  0.75836000  0.76298000  0.27949000  1.0
  C  C45  1  0.75566000  0.70451000  0.25129000  1.0
  C  C46  1  0.69998000  0.64525000  0.31296000  1.0
  C  C47  1  0.80182000  0.70693000  0.16470000  1.0
  C  C48  1  0.84871000  0.76620000  0.10818000  1.0
  C  C49  1  0.75431000  0.66108000  0.08633000  1.0
  C  C50  1  0.92011000  0.15119000  0.81518000  1.0
  C  C51  1  0.86106000  0.21104000  0.75856000  1.0
  C  C52  1  0.86305000  0.29647000  0.71087000  1.0
  C  C53  1  0.80755000  0.35142000  0.65866000  1.0
  C  C54  1  0.74839000  0.32311000  0.65356000  1.0
  C  C55  1  0.69561000  0.38168000  0.59114000  1.0
  C  C56  1  0.74490000  0.23794000  0.70403000  1.0
  C  C57  1  0.80138000  0.18219000  0.75521000  1.0
  C  C58  1  0.69496000  0.14326000  0.67992000  1.0
  C  C59  1  0.19312000  0.87429000  0.09395000  1.0
  C  C60  1  0.24369000  0.82150000  0.15789000  1.0
  C  C61  1  0.21437000  0.75512000  0.22880000  1.0
  C  C62  1  0.26310000  0.70319000  0.28704000  1.0
  C  C63  1  0.34104000  0.71692000  0.27583000  1.0
  C  C64  1  0.40103000  0.65021000  0.33045000  1.0
  C  C65  1  0.36601000  0.78770000  0.20779000  1.0
  C  C66  1  0.31852000  0.83918000  0.14839000  1.0
  C  C67  1  0.50612000  0.83458000  0.12888000  1.0
  C  C68  1  0.20689000  0.13971000  0.82533000  1.0
  C  C69  1  0.26107000  0.19927000  0.76119000  1.0
  C  C70  1  0.22942000  0.28555000  0.76332000  1.0
  C  C71  1  0.27881000  0.34164000  0.70289000  1.0
  C  C72  1  0.35973000  0.31332000  0.63895000  1.0
  C  C73  1  0.41530000  0.37314000  0.58149000  1.0
  C  C74  1  0.38875000  0.22767000  0.63532000  1.0
  C  C75  1  0.34071000  0.17054000  0.69661000  1.0
  C  C76  1  0.54793000  0.13486000  0.56736000  1.0
  C  C77  1  0.92611000  0.14963000  0.09146000  1.0
  C  C78  1  0.87197000  0.20689000  0.14877000  1.0
  C  C79  1  0.81732000  0.29388000  0.11967000  1.0
  C  C80  1  0.76495000  0.34579000  0.17448000  1.0
  C  C81  1  0.76625000  0.31238000  0.25886000  1.0
  C  C82  1  0.70192000  0.36904000  0.31664000  1.0
  C  C83  1  0.82499000  0.22606000  0.28609000  1.0
  C  C84  1  0.87657000  0.17345000  0.23188000  1.0
  C  C85  1  0.80459000  0.12986000  0.43878000  1.0
  N  N86  1  0.23176000  0.77651000  0.59087000  1.0
  N  N87  1  0.14512000  0.77275000  0.53805000  1.0
  N  N88  1  0.21343000  0.80419000  0.47382000  1.0
  N  N89  1  0.26622000  0.80671000  0.50379000  1.0
  N  N90  1  0.80386000  0.64736000  0.13260000  1.0
  N  N91  1  0.77486000  0.58599000  0.07467000  1.0
  N  N92  1  0.83857000  0.52536000  0.11533000  1.0
  N  N93  1  0.85663000  0.56047000  0.15084000  1.0
  N  N94  1  0.68074000  0.20720000  0.70804000  1.0
  N  N95  1  0.61402000  0.13744000  0.69942000  1.0
  N  N96  1  0.54981000  0.19943000  0.74006000  1.0
  N  N97  1  0.58810000  0.24226000  0.74579000  1.0
  N  N98  1  0.43991000  0.80781000  0.19959000  1.0
  N  N99  1  0.56263000  0.84248000  0.15212000  1.0
  N  N100  1  0.52909000  0.82044000  0.23962000  1.0
  N  N101  1  0.45603000  0.79967000  0.26904000  1.0
  N  N102  1  0.46557000  0.19886000  0.56680000  1.0
  N  N103  1  0.59866000  0.13396000  0.48755000  1.0
  N  N104  1  0.54527000  0.19920000  0.43782000  1.0
  N  N105  1  0.46544000  0.23914000  0.48384000  1.0
  N  N106  1  0.83643000  0.19036000  0.36834000  1.0
  N  N107  1  0.83242000  0.11793000  0.50023000  1.0
  N  N108  1  0.88199000  0.17280000  0.46572000  1.0
  N  N109  1  0.88519000  0.21699000  0.38682000  1.0
  O  O110  1  0.05964000  0.00990000  0.95211000  1.0
  O  O111  1  0.23995000  0.87798000  0.85554000  1.0
  O  O112  1  0.11277000  0.90364000  0.82804000  1.0
  O  O113  1  0.37970000  0.62221000  0.57729000  1.0
  O  O114  1  0.50918000  0.64302000  0.55570000  1.0
  O  O115  1  0.91177000  0.92761000  0.11358000  1.0
  O  O116  1  0.93949000  0.88990000  0.99947000  1.0
  O  O117  1  0.66800000  0.62165000  0.28062000  1.0
  O  O118  1  0.68813000  0.62530000  0.39222000  1.0
  O  O119  1  0.95871000  0.18658000  0.82867000  1.0
  O  O120  1  0.92642000  0.07035000  0.84545000  1.0
  O  O121  1  0.67526000  0.34269000  0.56353000  1.0
  O  O122  1  0.67834000  0.46426000  0.56949000  1.0
  O  O123  1  0.11022000  0.87648000  0.12040000  1.0
  O  O124  1  0.23639000  0.91207000  0.01831000  1.0
  O  O125  1  0.48571000  0.62017000  0.28885000  1.0
  O  O126  1  0.36220000  0.62660000  0.41062000  1.0
  O  O127  1  0.12439000  0.17644000  0.86727000  1.0
  O  O128  1  0.24674000  0.05765000  0.83262000  1.0
  O  O129  1  0.50192000  0.33649000  0.55352000  1.0
  O  O130  1  0.37100000  0.45533000  0.56879000  1.0
  O  O131  1  0.93011000  0.18637000  0.01292000  1.0
  O  O132  1  0.96408000  0.06797000  0.12563000  1.0
  O  O133  1  0.68495000  0.33159000  0.39689000  1.0
  O  O134  1  0.66688000  0.45035000  0.28039000  1.0
  O  O135  1  0.55484000  0.51332000  0.45462000  1.0
