# generated using pymatgen
data_YH2(CO3)2
_symmetry_space_group_name_H-M   'P 1'
_cell_length_a   7.77752000
_cell_length_b   8.47793176
_cell_length_c   9.56798000
_cell_angle_alpha   90.00009174
_cell_angle_beta   90.00010000
_cell_angle_gamma   62.71324580
_symmetry_Int_Tables_number   1
_chemical_formula_structural   YH2(CO3)2
_chemical_formula_sum   'Y4 H8 C8 O24'
_cell_volume   560.68359534
_cell_formula_units_Z   4
loop_
 _symmetry_equiv_pos_site_id
 _symmetry_equiv_pos_as_xyz
  1  'x, y, z'
loop_
 _atom_site_type_symbol
 _atom_site_label
 _atom_site_symmetry_multiplicity
 _atom_site_fract_x
 _atom_site_fract_y
 _atom_site_fract_z
 _atom_site_occupancy
  Y  Y0  1  0.70767000  0.58462000  0.25011000  1.0
  Y  Y1  1  0.29233000  0.41538000  0.75011000  1.0
  Y  Y2  1  0.29208000  0.41587000  0.24992000  1.0
  Y  Y3  1  0.70792000  0.58413000  0.74992000  1.0
  H  H4  1  0.20652000  0.79901000  0.25548000  1.0
  H  H5  1  0.79348000  0.20099000  0.75548000  1.0
  H  H6  1  0.00537000  0.20097000  0.74448000  1.0
  H  H7  1  0.99463000  0.79903000  0.24448000  1.0
  H  H8  1  0.00509000  0.20151000  0.25543000  1.0
  H  H9  1  0.99491000  0.79849000  0.75543000  1.0
  H  H10  1  0.20680000  0.79850000  0.74456000  1.0
  H  H11  1  0.79320000  0.20150000  0.24456000  1.0
  C  C12  1  0.40065000  0.00025000  0.25763000  1.0
  C  C13  1  0.59935000  0.99975000  0.75763000  1.0
  C  C14  1  0.40095000  0.99973000  0.74234000  1.0
  C  C15  1  0.59907000  0.00026000  0.24234000  1.0
  C  C16  1  0.46964000  0.44709000  0.50002000  1.0
  C  C17  1  0.53036000  0.55291000  0.00002000  1.0
  C  C18  1  0.91712000  0.55280000  0.50000000  1.0
  C  C19  1  0.08287000  0.44720000  0.00000000  1.0
  O  O20  1  0.40267000  0.85035000  0.26328000  1.0
  O  O21  1  0.59733000  0.14965000  0.76328000  1.0
  O  O22  1  0.25308000  0.14963000  0.73687000  1.0
  O  O23  1  0.74692000  0.85037000  0.23687000  1.0
  O  O24  1  0.25277000  0.15012000  0.26315000  1.0
  O  O25  1  0.74724000  0.84987000  0.76315000  1.0
  O  O26  1  0.40294000  0.84984000  0.73665000  1.0
  O  O27  1  0.59706000  0.15016000  0.23665000  1.0
  O  O28  1  0.50773000  0.49387000  0.38083000  1.0
  O  O29  1  0.49228000  0.50612000  0.88083000  1.0
  O  O30  1  0.00192000  0.50634000  0.61920000  1.0
  O  O31  1  0.99808000  0.49366000  0.11920000  1.0
  O  O32  1  0.37524000  0.35362000  0.49996000  1.0
  O  O33  1  0.62476000  0.64638000  0.99996000  1.0
  O  O34  1  0.72920000  0.64587000  0.50006000  1.0
  O  O35  1  0.27080000  0.35413000  0.00006000  1.0
  O  O36  1  0.50810000  0.49335000  0.61930000  1.0
  O  O37  1  0.49189000  0.50665000  0.11930000  1.0
  O  O38  1  0.00181000  0.50677000  0.38073000  1.0
  O  O39  1  0.99819000  0.49323000  0.88074000  1.0
  O  O40  1  0.86304000  0.27373000  0.25017000  1.0
  O  O41  1  0.13696000  0.72627000  0.75017000  1.0
  O  O42  1  0.13665000  0.72682000  0.24982000  1.0
  O  O43  1  0.86335000  0.27318000  0.74982000  1.0
