# generated using pymatgen
data_Zn2H28C42N7O11
_symmetry_space_group_name_H-M   'P 1'
_cell_length_a   16.47960000
_cell_length_b   17.82960000
_cell_length_c   28.97960000
_cell_angle_alpha   89.79980000
_cell_angle_beta   89.57930000
_cell_angle_gamma   89.99270000
_symmetry_Int_Tables_number   1
_chemical_formula_structural   Zn2H28C42N7O11
_chemical_formula_sum   'Zn4 H56 C84 N14 O22'
_cell_volume   8514.64002818
_cell_formula_units_Z   2
loop_
 _symmetry_equiv_pos_site_id
 _symmetry_equiv_pos_as_xyz
  1  'x, y, z'
loop_
 _atom_site_type_symbol
 _atom_site_label
 _atom_site_symmetry_multiplicity
 _atom_site_fract_x
 _atom_site_fract_y
 _atom_site_fract_z
 _atom_site_occupancy
  Zn  Zn0  1  0.41244000  0.50633000  0.50289000  1.0
  Zn  Zn1  1  0.58121000  0.50879000  0.50021000  1.0
  Zn  Zn2  1  0.58093000  0.50777000  0.11945000  1.0
  Zn  Zn3  1  0.41213000  0.51070000  0.11815000  1.0
  H  H4  1  0.71181000  0.59259000  0.44658000  1.0
  H  H5  1  0.86421000  0.59107000  0.44351000  1.0
  H  H6  1  0.70605000  0.42447000  0.54551000  1.0
  H  H7  1  0.28483000  0.58585000  0.45206000  1.0
  H  H8  1  0.28445000  0.42010000  0.55239000  1.0
  H  H9  1  0.13167000  0.41345000  0.55291000  1.0
  H  H10  1  0.36371000  0.74681000  0.49588000  1.0
  H  H11  1  0.36750000  0.88724000  0.49476000  1.0
  H  H12  1  0.62386000  0.74108000  0.50093000  1.0
  H  H13  1  0.37362000  0.26754000  0.50059000  1.0
  H  H14  1  0.63344000  0.27387000  0.49137000  1.0
  H  H15  1  0.63763000  0.13336000  0.49026000  1.0
  H  H16  1  0.63258000  0.50380000  0.97515000  1.0
  H  H17  1  0.63985000  0.50530000  0.88869000  1.0
  H  H18  1  0.37269000  0.51106000  0.96948000  1.0
  H  H19  1  0.63307000  0.50084000  0.64639000  1.0
  H  H20  1  0.37303000  0.51048000  0.64963000  1.0
  H  H21  1  0.37521000  0.51122000  0.73612000  1.0
  H  H22  1  0.28384000  0.58914000  0.17308000  1.0
  H  H23  1  0.13106000  0.58828000  0.17766000  1.0
  H  H24  1  0.28520000  0.42792000  0.07071000  1.0
  H  H25  1  0.70981000  0.58847000  0.17074000  1.0
  H  H26  1  0.70745000  0.42021000  0.07265000  1.0
  H  H27  1  0.86020000  0.41294000  0.07142000  1.0
  H  H28  1  0.63331000  0.74436000  0.12046000  1.0
  H  H29  1  0.63502000  0.88478000  0.12269000  1.0
  H  H30  1  0.37291000  0.74679000  0.12374000  1.0
  H  H31  1  0.62336000  0.27332000  0.12767000  1.0
  H  H32  1  0.36323000  0.27126000  0.12312000  1.0
  H  H33  1  0.36441000  0.13067000  0.12519000  1.0
  H  H34  1  0.92800000  0.40453000  0.55539000  1.0
  H  H35  1  0.83437000  0.37304000  0.57553000  1.0
  H  H36  1  0.06356000  0.58897000  0.43619000  1.0
  H  H37  1  0.15520000  0.62345000  0.41648000  1.0
  H  H38  1  0.64370000  0.94548000  0.50502000  1.0
  H  H39  1  0.69437000  0.86184000  0.50954000  1.0
  H  H40  1  0.36444000  0.06211000  0.50278000  1.0
  H  H41  1  0.30880000  0.14357000  0.50696000  1.0
  H  H42  1  0.36812000  0.50099000  0.84315000  1.0
  H  H43  1  0.31048000  0.49784000  0.89260000  1.0
  H  H44  1  0.65101000  0.49416000  0.77238000  1.0
  H  H45  1  0.70284000  0.48762000  0.72107000  1.0
  H  H46  1  0.06292000  0.41125000  0.06209000  1.0
  H  H47  1  0.15524000  0.38117000  0.04003000  1.0
  H  H48  1  0.93068000  0.58979000  0.18618000  1.0
  H  H49  1  0.83933000  0.62358000  0.20649000  1.0
  H  H50  1  0.36085000  0.95205000  0.11959000  1.0
  H  H51  1  0.30638000  0.87030000  0.11597000  1.0
  H  H52  1  0.64087000  0.06855000  0.12364000  1.0
  H  H53  1  0.69344000  0.15173000  0.12209000  1.0
  H  H54  1  0.61545000  0.53264000  0.38837000  1.0
  H  H55  1  0.61601000  0.53194000  0.23103000  1.0
  H  H56  1  0.39635000  0.40638000  0.42140000  1.0
  H  H57  1  0.30458000  0.28286000  0.39143000  1.0
  H  H58  1  0.30119000  0.28711000  0.23025000  1.0
  H  H59  1  0.39359000  0.41131000  0.20015000  1.0
  C  C60  1  0.49369000  0.65248000  0.49881000  1.0
  C  C61  1  0.49368000  0.49158000  0.40845000  1.0
  C  C62  1  0.50000000  0.36159000  0.49925000  1.0
  C  C63  1  0.50248000  0.50493000  0.59172000  1.0
  C  C64  1  0.50116000  0.65421000  0.12146000  1.0
  C  C65  1  0.49380000  0.49307000  0.21211000  1.0
  C  C66  1  0.49428000  0.36326000  0.12188000  1.0
  C  C67  1  0.49772000  0.50683000  0.02854000  1.0
  C  C68  1  0.74728000  0.55461000  0.46794000  1.0
  C  C69  1  0.83123000  0.55340000  0.46660000  1.0
  C  C70  1  0.87434000  0.50369000  0.49525000  1.0
  C  C71  1  0.82926000  0.45467000  0.52479000  1.0
  C  C72  1  0.74418000  0.46007000  0.52359000  1.0
  C  C73  1  0.95974000  0.50185000  0.49594000  1.0
  C  C74  1  0.03371000  0.49825000  0.49905000  1.0
  C  C75  1  0.11911000  0.49919000  0.50036000  1.0
  C  C76  1  0.16273000  0.54931000  0.47080000  1.0
  C  C77  1  0.24791000  0.54859000  0.47358000  1.0
  C  C78  1  0.24749000  0.45555000  0.53023000  1.0
  C  C79  1  0.16361000  0.45231000  0.53010000  1.0
  C  C80  1  0.49408000  0.73637000  0.49812000  1.0
  C  C81  1  0.42107000  0.77701000  0.49643000  1.0
  C  C82  1  0.42351000  0.85474000  0.49587000  1.0
  C  C83  1  0.49789000  0.89401000  0.49666000  1.0
  C  C84  1  0.57195000  0.85260000  0.49844000  1.0
  C  C85  1  0.56825000  0.77413000  0.49934000  1.0
  C  C86  1  0.50076000  0.97304000  0.49602000  1.0
  C  C87  1  0.50823000  0.04149000  0.49522000  1.0
  C  C88  1  0.50781000  0.12056000  0.49495000  1.0
  C  C89  1  0.43151000  0.15852000  0.49723000  1.0
  C  C90  1  0.43092000  0.23706000  0.49880000  1.0
  C  C91  1  0.50300000  0.27792000  0.49725000  1.0
  C  C92  1  0.57806000  0.24079000  0.49363000  1.0
  C  C93  1  0.57995000  0.16310000  0.49277000  1.0
  C  C94  1  0.49966000  0.46981000  0.26098000  1.0
  C  C95  1  0.44033000  0.42373000  0.28538000  1.0
  C  C96  1  0.56610000  0.49893000  0.28529000  1.0
  C  C97  1  0.38742000  0.37341000  0.26262000  1.0
  C  C98  1  0.33595000  0.32438000  0.28677000  1.0
  C  C99  1  0.49988000  0.46894000  0.35956000  1.0
  C  C100  1  0.56601000  0.49890000  0.33466000  1.0
  C  C101  1  0.44086000  0.42285000  0.33557000  1.0
  C  C102  1  0.38903000  0.37119000  0.35864000  1.0
  C  C103  1  0.33691000  0.32314000  0.33483000  1.0
  C  C104  1  0.50193000  0.50666000  0.97685000  1.0
  C  C105  1  0.57783000  0.50513000  0.95439000  1.0
  C  C106  1  0.58144000  0.50595000  0.90662000  1.0
  C  C107  1  0.51017000  0.50764000  0.87992000  1.0
  C  C108  1  0.43308000  0.50917000  0.90278000  1.0
  C  C109  1  0.43071000  0.50887000  0.95114000  1.0
  C  C110  1  0.51250000  0.50742000  0.83127000  1.0
  C  C111  1  0.50715000  0.50725000  0.78908000  1.0
  C  C112  1  0.50554000  0.50692000  0.74043000  1.0
  C  C113  1  0.58001000  0.50427000  0.71503000  1.0
  C  C114  1  0.57710000  0.50276000  0.66666667  1.0
  C  C115  1  0.50327000  0.50495000  0.64345000  1.0
  C  C116  1  0.42992000  0.50825000  0.66841000  1.0
  C  C117  1  0.43153000  0.50891000  0.71621000  1.0
  C  C118  1  0.24714000  0.55327000  0.15121000  1.0
  C  C119  1  0.16323000  0.55218000  0.15345000  1.0
  C  C120  1  0.11897000  0.50443000  0.12435000  1.0
  C  C121  1  0.16282000  0.45726000  0.09332000  1.0
  C  C122  1  0.24794000  0.46256000  0.09352000  1.0
  C  C123  1  0.03353000  0.50264000  0.12489000  1.0
  C  C124  1  0.95943000  0.49908000  0.12309000  1.0
  C  C125  1  0.87399000  0.49979000  0.12279000  1.0
  C  C126  1  0.83107000  0.55026000  0.15224000  1.0
  C  C127  1  0.74587000  0.55000000  0.14971000  1.0
  C  C128  1  0.74495000  0.45568000  0.09433000  1.0
  C  C129  1  0.82882000  0.45228000  0.09397000  1.0
  C  C130  1  0.50264000  0.73806000  0.12226000  1.0
  C  C131  1  0.57719000  0.77645000  0.12180000  1.0
  C  C132  1  0.57776000  0.85415000  0.12288000  1.0
  C  C133  1  0.50485000  0.89566000  0.12405000  1.0
  C  C134  1  0.42916000  0.85659000  0.12411000  1.0
  C  C135  1  0.42983000  0.77799000  0.12338000  1.0
  C  C136  1  0.50425000  0.97470000  0.12483000  1.0
  C  C137  1  0.49668000  0.04313000  0.12574000  1.0
  C  C138  1  0.49477000  0.12214000  0.12626000  1.0
  C  C139  1  0.56957000  0.16245000  0.12743000  1.0
  C  C140  1  0.56723000  0.24101000  0.12642000  1.0
  C  C141  1  0.49370000  0.27956000  0.12406000  1.0
  C  C142  1  0.41994000  0.24001000  0.12379000  1.0
  C  C143  1  0.42098000  0.16235000  0.12510000  1.0
  N  N144  1  0.70529000  0.50845000  0.49631000  1.0
  N  N145  1  0.28816000  0.50336000  0.50224000  1.0
  N  N146  1  0.28794000  0.50905000  0.12132000  1.0
  N  N147  1  0.70499000  0.50440000  0.12183000  1.0
  N  N148  1  0.86683000  0.40418000  0.55282000  1.0
  N  N149  1  0.12336000  0.59776000  0.44200000  1.0
  N  N150  1  0.64532000  0.88988000  0.49768000  1.0
  N  N151  1  0.36049000  0.11798000  0.49654000  1.0
  N  N152  1  0.36298000  0.51380000  0.87714000  1.0
  N  N153  1  0.65296000  0.50610000  0.73813000  1.0
  N  N154  1  0.12395000  0.40789000  0.06519000  1.0
  N  N155  1  0.87084000  0.59884000  0.18057000  1.0
  N  N156  1  0.35748000  0.89630000  0.12656000  1.0
  N  N157  1  0.64193000  0.12417000  0.13089000  1.0
  O  O158  1  0.42613000  0.61906000  0.49285000  1.0
  O  O159  1  0.56176000  0.62009000  0.50543000  1.0
  O  O160  1  0.55743000  0.51858000  0.42827000  1.0
  O  O161  1  0.42547000  0.48801000  0.43031000  1.0
  O  O162  1  0.56638000  0.39659000  0.49175000  1.0
  O  O163  1  0.43182000  0.39249000  0.50821000  1.0
  O  O164  1  0.43419000  0.51581000  0.57237000  1.0
  O  O165  1  0.56999000  0.49456000  0.57087000  1.0
  O  O166  1  0.56886000  0.62081000  0.11549000  1.0
  O  O167  1  0.43254000  0.62186000  0.12670000  1.0
  O  O168  1  0.42542000  0.49192000  0.19100000  1.0
  O  O169  1  0.55842000  0.51821000  0.19161000  1.0
  O  O170  1  0.42743000  0.39645000  0.11320000  1.0
  O  O171  1  0.56195000  0.39603000  0.12881000  1.0
  O  O172  1  0.56425000  0.49607000  0.04979000  1.0
  O  O173  1  0.42863000  0.51791000  0.04746000  1.0
  O  O174  1  0.62877000  0.53472000  0.35403000  1.0
  O  O175  1  0.62932000  0.53429000  0.26526000  1.0
  O  O176  1  0.38807000  0.35717000  0.40535000  1.0
  O  O177  1  0.28982000  0.27361000  0.35911000  1.0
  O  O178  1  0.28771000  0.27624000  0.26274000  1.0
  O  O179  1  0.38457000  0.36161000  0.21580000  1.0
