# generated using pymatgen
data_CuH8C10S2IN2
_symmetry_space_group_name_H-M   'P 1'
_cell_length_a   8.89714000
_cell_length_b   8.91443000
_cell_length_c   9.81932000
_cell_angle_alpha   93.15050000
_cell_angle_beta   98.88400000
_cell_angle_gamma   104.25800000
_symmetry_Int_Tables_number   1
_chemical_formula_structural   CuH8C10S2IN2
_chemical_formula_sum   'Cu2 H16 C20 S4 I2 N4'
_cell_volume   742.22886303
_cell_formula_units_Z   2
loop_
 _symmetry_equiv_pos_site_id
 _symmetry_equiv_pos_as_xyz
  1  'x, y, z'
loop_
 _atom_site_type_symbol
 _atom_site_label
 _atom_site_symmetry_multiplicity
 _atom_site_fract_x
 _atom_site_fract_y
 _atom_site_fract_z
 _atom_site_occupancy
  Cu  Cu0  1  0.44443000  0.03116000  0.88092000  1.0
  Cu  Cu1  1  0.55557000  0.96884000  0.11909000  1.0
  H  H2  1  0.24751000  0.70901000  0.79795000  1.0
  H  H3  1  0.75248000  0.29099000  0.20206000  1.0
  H  H4  1  0.98428000  0.58055000  0.65525000  1.0
  H  H5  1  0.01571000  0.41945000  0.34476000  1.0
  H  H6  1  0.90323000  0.03867000  0.63015000  1.0
  H  H7  1  0.09678000  0.96133000  0.36983000  1.0
  H  H8  1  0.16764000  0.14570000  0.77619000  1.0
  H  H9  1  0.83236000  0.85430000  0.22379000  1.0
  H  H10  1  0.59817000  0.00665000  0.63924000  1.0
  H  H11  1  0.40183000  0.99336000  0.36076000  1.0
  H  H12  1  0.69281000  0.17941000  0.46136000  1.0
  H  H13  1  0.30718000  0.82059000  0.53864000  1.0
  H  H14  1  0.64577000  0.56613000  0.72493000  1.0
  H  H15  1  0.35423000  0.43386000  0.27507000  1.0
  H  H16  1  0.54806000  0.37597000  0.88704000  1.0
  H  H17  1  0.45196000  0.62403000  0.11296000  1.0
  C  C18  1  0.16645000  0.77706000  0.75838000  1.0
  C  C19  1  0.83355000  0.22294000  0.24163000  1.0
  C  C20  1  0.02007000  0.70629000  0.67913000  1.0
  C  C21  1  0.97992000  0.29371000  0.32088000  1.0
  C  C22  1  0.92309000  0.79959000  0.62797000  1.0
  C  C23  1  0.07690000  0.20041000  0.37203000  1.0
  C  C24  1  0.97515000  0.96067000  0.66482000  1.0
  C  C25  1  0.02485000  0.03933000  0.33516000  1.0
  C  C26  1  0.12300000  0.02112000  0.74551000  1.0
  C  C27  1  0.87701000  0.97888000  0.25449000  1.0
  C  C28  1  0.60922000  0.13163000  0.65265000  1.0
  C  C29  1  0.39078000  0.86837000  0.34735000  1.0
  C  C30  1  0.66390000  0.22849000  0.55496000  1.0
  C  C31  1  0.33609000  0.77151000  0.44505000  1.0
  C  C32  1  0.67640000  0.38843000  0.57818000  1.0
  C  C33  1  0.32360000  0.61156000  0.42183000  1.0
  C  C34  1  0.63787000  0.44321000  0.70079000  1.0
  C  C35  1  0.36214000  0.55680000  0.29921000  1.0
  C  C36  1  0.58243000  0.33744000  0.79161000  1.0
  C  C37  1  0.41758000  0.66256000  0.20840000  1.0
  S  S38  1  0.73732000  0.72673000  0.52063000  1.0
  S  S39  1  0.26268000  0.27327000  0.47937000  1.0
  S  S40  1  0.73646000  0.50824000  0.44818000  1.0
  S  S41  1  0.26353000  0.49175000  0.55183000  1.0
  I  I42  1  0.59325000  0.80671000  0.89672000  1.0
  I  I43  1  0.40678000  0.19333000  0.10329000  1.0
  N  N44  1  0.22045000  0.93233000  0.78950000  1.0
  N  N45  1  0.77955000  0.06767000  0.21050000  1.0
  N  N46  1  0.56524000  0.18292000  0.76852000  1.0
  N  N47  1  0.43476000  0.81708000  0.23148000  1.0
