# generated using pymatgen
data_CdH28C32S4(NO2)2
_symmetry_space_group_name_H-M   'P 1'
_cell_length_a   8.08899000
_cell_length_b   12.82610000
_cell_length_c   15.78220182
_cell_angle_alpha   66.04300678
_cell_angle_beta   88.42185763
_cell_angle_gamma   89.99980000
_symmetry_Int_Tables_number   1
_chemical_formula_structural   CdH28C32S4(NO2)2
_chemical_formula_sum   'Cd2 H56 C64 S8 N4 O8'
_cell_volume   1495.66517656
_cell_formula_units_Z   2
loop_
 _symmetry_equiv_pos_site_id
 _symmetry_equiv_pos_as_xyz
  1  'x, y, z'
loop_
 _atom_site_type_symbol
 _atom_site_label
 _atom_site_symmetry_multiplicity
 _atom_site_fract_x
 _atom_site_fract_y
 _atom_site_fract_z
 _atom_site_occupancy
  Cd  Cd0  1  0.74990000  0.48523000  0.00007000  1.0
  Cd  Cd1  1  0.25009000  0.51477000  0.99993000  1.0
  H  H2  1  0.27211000  0.36501000  0.88207000  1.0
  H  H3  1  0.22771000  0.24684000  0.11788000  1.0
  H  H4  1  0.72789000  0.63499000  0.11793000  1.0
  H  H5  1  0.77228000  0.75317000  0.88212000  1.0
  H  H6  1  0.33075000  0.43595000  0.76246000  1.0
  H  H7  1  0.16909000  0.19810000  0.23749000  1.0
  H  H8  1  0.66924000  0.56404000  0.23754000  1.0
  H  H9  1  0.83090000  0.80190000  0.76251000  1.0
  H  H10  1  0.40616000  0.32907000  0.68009000  1.0
  H  H11  1  0.09354000  0.00891000  0.31962000  1.0
  H  H12  1  0.59383000  0.67093000  0.31991000  1.0
  H  H13  1  0.90647000  0.99108000  0.68039000  1.0
  H  H14  1  0.42606000  0.14330000  0.66268000  1.0
  H  H15  1  0.07364000  0.80584000  0.33688000  1.0
  H  H16  1  0.57394000  0.85671000  0.33731000  1.0
  H  H17  1  0.92635000  0.19416000  0.66312000  1.0
  H  H18  1  0.07081000  0.83597000  0.86291000  1.0
  H  H19  1  0.42960000  0.69880000  0.13683000  1.0
  H  H20  1  0.92920000  0.16402000  0.13709000  1.0
  H  H21  1  0.57038000  0.30120000  0.86317000  1.0
  H  H22  1  0.26171000  0.82194000  0.92423000  1.0
  H  H23  1  0.23893000  0.74609000  0.07525000  1.0
  H  H24  1  0.73829000  0.17805000  0.07577000  1.0
  H  H25  1  0.76105000  0.25390000  0.92475000  1.0
  H  H26  1  0.09960000  0.16975000  0.92957000  1.0
  H  H27  1  0.40066000  0.09908000  0.07032000  1.0
  H  H28  1  0.90040000  0.83024000  0.07043000  1.0
  H  H29  1  0.59932000  0.90092000  0.92968000  1.0
  H  H30  1  0.89508000  0.48022000  0.69410000  1.0
  H  H31  1  0.60472000  0.17404000  0.30588000  1.0
  H  H32  1  0.10492000  0.51978000  0.30590000  1.0
  H  H33  1  0.39528000  0.82596000  0.69412000  1.0
  H  H34  1  0.04460000  0.38721000  0.67914000  1.0
  H  H35  1  0.45518000  0.06611000  0.32079000  1.0
  H  H36  1  0.95540000  0.61278000  0.32087000  1.0
  H  H37  1  0.54481000  0.93390000  0.67921000  1.0
  H  H38  1  0.21506000  0.46949000  0.54762000  1.0
  H  H39  1  0.28446000  0.01695000  0.45222000  1.0
  H  H40  1  0.78495000  0.53050000  0.45238000  1.0
  H  H41  1  0.71556000  0.98305000  0.54779000  1.0
  H  H42  1  0.36676000  0.63680000  0.42919000  1.0
  H  H43  1  0.13291000  0.06575000  0.57075000  1.0
  H  H44  1  0.63324000  0.36319000  0.57081000  1.0
  H  H45  1  0.86711000  0.93427000  0.42926000  1.0
  H  H46  1  0.36429000  0.82324000  0.44303000  1.0
  H  H47  1  0.13553000  0.26596000  0.55715000  1.0
  H  H48  1  0.63572000  0.17674000  0.55698000  1.0
  H  H49  1  0.86449000  0.73406000  0.44285000  1.0
  H  H50  1  0.20431000  0.84333000  0.57261000  1.0
  H  H51  1  0.29527000  0.41564000  0.42749000  1.0
  H  H52  1  0.79570000  0.15666000  0.42739000  1.0
  H  H53  1  0.70474000  0.58438000  0.57250000  1.0
  H  H54  1  0.04926000  0.67721000  0.68841000  1.0
  H  H55  1  0.45038000  0.36535000  0.31169000  1.0
  H  H56  1  0.95074000  0.32278000  0.31159000  1.0
  H  H57  1  0.54962000  0.63465000  0.68831000  1.0
  C  C58  1  0.98174000  0.44247000  0.85665000  1.0
  C  C59  1  0.51804000  0.29889000  0.14338000  1.0
  C  C60  1  0.01826000  0.55753000  0.14335000  1.0
  C  C61  1  0.48196000  0.70111000  0.85662000  1.0
  C  C62  1  0.24237000  0.37446000  0.81197000  1.0
  C  C63  1  0.25751000  0.18615000  0.18796000  1.0
  C  C64  1  0.75762000  0.62554000  0.18803000  1.0
  C  C65  1  0.74249000  0.81385000  0.81205000  1.0
  C  C66  1  0.25186000  0.26160000  0.80398000  1.0
  C  C67  1  0.24809000  0.06538000  0.19579000  1.0
  C  C68  1  0.74813000  0.73840000  0.19601000  1.0
  C  C69  1  0.75191000  0.93463000  0.80421000  1.0
  C  C70  1  0.34285000  0.25323000  0.73049000  1.0
  C  C71  1  0.15702000  0.98351000  0.26923000  1.0
  C  C72  1  0.65714000  0.74677000  0.26951000  1.0
  C  C73  1  0.84298000  0.01650000  0.73077000  1.0
  C  C74  1  0.35610000  0.14960000  0.72019000  1.0
  C  C75  1  0.14385000  0.86961000  0.27947000  1.0
  C  C76  1  0.64389000  0.85040000  0.27980000  1.0
  C  C77  1  0.85615000  0.13039000  0.72053000  1.0
  C  C78  1  0.27361000  0.05670000  0.78601000  1.0
  C  C79  1  0.22651000  0.84255000  0.21365000  1.0
  C  C80  1  0.72638000  0.94331000  0.21398000  1.0
  C  C81  1  0.77348000  0.15746000  0.78634000  1.0
  C  C82  1  0.17479000  0.88156000  0.87610000  1.0
  C  C83  1  0.32560000  0.75757000  0.12351000  1.0
  C  C84  1  0.82522000  0.11844000  0.12389000  1.0
  C  C85  1  0.67439000  0.24243000  0.87649000  1.0
  C  C86  1  0.18359000  0.06383000  0.86038000  1.0
  C  C87  1  0.31669000  0.92401000  0.13939000  1.0
  C  C88  1  0.81640000  0.93617000  0.13961000  1.0
  C  C89  1  0.68330000  0.07600000  0.86061000  1.0
  C  C90  1  0.16988000  0.16481000  0.87145000  1.0
  C  C91  1  0.33031000  0.03605000  0.12837000  1.0
  C  C92  1  0.83011000  0.83517000  0.12856000  1.0
  C  C93  1  0.66969000  0.96396000  0.87163000  1.0
  C  C94  1  0.02778000  0.46216000  0.69557000  1.0
  C  C95  1  0.47201000  0.15748000  0.30438000  1.0
  C  C96  1  0.97223000  0.53783000  0.30444000  1.0
  C  C97  1  0.52799000  0.84252000  0.69562000  1.0
  C  C98  1  0.12395000  0.56250000  0.62610000  1.0
  C  C99  1  0.37583000  0.18834000  0.37389000  1.0
  C  C100  1  0.87606000  0.43748000  0.37391000  1.0
  C  C101  1  0.62417000  0.81167000  0.62611000  1.0
  C  C102  1  0.21323000  0.55191000  0.55270000  1.0
  C  C103  1  0.28649000  0.10438000  0.44726000  1.0
  C  C104  1  0.78679000  0.44808000  0.44730000  1.0
  C  C105  1  0.71352000  0.89563000  0.55274000  1.0
  C  C106  1  0.29855000  0.64550000  0.48653000  1.0
  C  C107  1  0.20122000  0.13178000  0.51349000  1.0
  C  C108  1  0.70147000  0.35449000  0.51347000  1.0
  C  C109  1  0.79880000  0.86823000  0.48652000  1.0
  C  C110  1  0.29656000  0.75030000  0.49403000  1.0
  C  C111  1  0.20329000  0.24404000  0.50613000  1.0
  C  C112  1  0.70345000  0.24969000  0.50597000  1.0
  C  C113  1  0.79672000  0.75599000  0.49386000  1.0
  C  C114  1  0.20745000  0.76146000  0.56682000  1.0
  C  C115  1  0.29225000  0.32797000  0.43329000  1.0
  C  C116  1  0.79255000  0.23853000  0.43318000  1.0
  C  C117  1  0.70776000  0.67204000  0.56670000  1.0
  C  C118  1  0.12119000  0.66829000  0.63236000  1.0
  C  C119  1  0.37849000  0.30038000  0.36770000  1.0
  C  C120  1  0.87882000  0.33170000  0.36764000  1.0
  C  C121  1  0.62150000  0.69964000  0.63229000  1.0
  S  S122  1  0.81105000  0.52731000  0.82572000  1.0
  S  S123  1  0.68868000  0.35276000  0.17436000  1.0
  S  S124  1  0.18896000  0.47269000  0.17429000  1.0
  S  S125  1  0.31131000  0.64724000  0.82564000  1.0
  S  S126  1  0.02563000  0.37165000  0.97353000  1.0
  S  S127  1  0.47420000  0.34508000  0.02647000  1.0
  S  S128  1  0.97436000  0.62833000  0.02648000  1.0
  S  S129  1  0.52579000  0.65492000  0.97353000  1.0
  N  N130  1  0.07845000  0.42767000  0.79188000  1.0
  N  N131  1  0.42138000  0.21927000  0.20809000  1.0
  N  N132  1  0.92156000  0.57232000  0.20813000  1.0
  N  N133  1  0.57861000  0.78073000  0.79191000  1.0
  O  O134  1  0.26166000  0.94808000  0.78959000  1.0
  O  O135  1  0.23837000  0.73757000  0.20996000  1.0
  O  O136  1  0.73834000  0.05191000  0.21041000  1.0
  O  O137  1  0.76161000  0.26243000  0.79004000  1.0
  O  O138  1  0.11313000  0.95949000  0.91424000  1.0
  O  O139  1  0.38727000  0.87359000  0.08550000  1.0
  O  O140  1  0.88687000  0.04050000  0.08576000  1.0
  O  O141  1  0.61271000  0.12641000  0.91450000  1.0
