# generated using pymatgen
data_BaH12C14(NO5)2
_symmetry_space_group_name_H-M   'P 1'
_cell_length_a   7.16312000
_cell_length_b   10.46790000
_cell_length_c   11.14080000
_cell_angle_alpha   89.92770000
_cell_angle_beta   85.02720000
_cell_angle_gamma   82.55080000
_symmetry_Int_Tables_number   1
_chemical_formula_structural   BaH12C14(NO5)2
_chemical_formula_sum   'Ba2 H24 C28 N4 O20'
_cell_volume   825.15839324
_cell_formula_units_Z   2
loop_
 _symmetry_equiv_pos_site_id
 _symmetry_equiv_pos_as_xyz
  1  'x, y, z'
loop_
 _atom_site_type_symbol
 _atom_site_label
 _atom_site_symmetry_multiplicity
 _atom_site_fract_x
 _atom_site_fract_y
 _atom_site_fract_z
 _atom_site_occupancy
  Ba  Ba0  1  0.26522000  0.95418000  0.75287000  1.0
  Ba  Ba1  1  0.73477000  0.04582000  0.24713000  1.0
  H  H2  1  0.30921000  0.02573000  0.44434000  1.0
  H  H3  1  0.69079000  0.97427000  0.55566000  1.0
  H  H4  1  0.16677000  0.05952000  0.05203000  1.0
  H  H5  1  0.83324000  0.94048000  0.94797000  1.0
  H  H6  1  0.00851000  0.72566000  0.69048000  1.0
  H  H7  1  0.99150000  0.27435000  0.30952000  1.0
  H  H8  1  0.97985000  0.72264000  0.83169000  1.0
  H  H9  1  0.02015000  0.27736000  0.16830000  1.0
  H  H10  1  0.64598000  0.74675000  0.82523000  1.0
  H  H11  1  0.35402000  0.25325000  0.17477000  1.0
  H  H12  1  0.67808000  0.75824000  0.68414000  1.0
  H  H13  1  0.32191000  0.24177000  0.31586000  1.0
  H  H14  1  0.97474000  0.46897000  0.58252000  1.0
  H  H15  1  0.02525000  0.53104000  0.41749000  1.0
  H  H16  1  0.79163000  0.54698000  0.77546000  1.0
  H  H17  1  0.20838000  0.45302000  0.22455000  1.0
  H  H18  1  0.71457000  0.38491000  0.93265000  1.0
  H  H19  1  0.28544000  0.61509000  0.06735000  1.0
  H  H20  1  0.23754000  0.50558000  0.89169000  1.0
  H  H21  1  0.76246000  0.49442000  0.10830000  1.0
  H  H22  1  0.37534000  0.58420000  0.69546000  1.0
  H  H23  1  0.62466000  0.41580000  0.30453000  1.0
  H  H24  1  0.54613000  0.41706000  0.54402000  1.0
  H  H25  1  0.45386000  0.58293000  0.45596000  1.0
  C  C26  1  0.12120000  0.21551000  0.52618000  1.0
  C  C27  1  0.87879000  0.78449000  0.47382000  1.0
  C  C28  1  0.00261000  0.26958000  0.63799000  1.0
  C  C29  1  0.99738000  0.73042000  0.36201000  1.0
  C  C30  1  0.94114000  0.40138000  0.65268000  1.0
  C  C31  1  0.05884000  0.59862000  0.34732000  1.0
  C  C32  1  0.83926000  0.44506000  0.76022000  1.0
  C  C33  1  0.16074000  0.55493000  0.23978000  1.0
  C  C34  1  0.79645000  0.35611000  0.84800000  1.0
  C  C35  1  0.20354000  0.64389000  0.15201000  1.0
  C  C36  1  0.85898000  0.22589000  0.82413000  1.0
  C  C37  1  0.14102000  0.77411000  0.17587000  1.0
  C  C38  1  0.81155000  0.12617000  0.91443000  1.0
  C  C39  1  0.18845000  0.87383000  0.08557000  1.0
  C  C40  1  0.24237000  0.24987000  0.95917000  1.0
  C  C41  1  0.75763000  0.75013000  0.04083000  1.0
  C  C42  1  0.32360000  0.30530000  0.84373000  1.0
  C  C43  1  0.67639000  0.69470000  0.15627000  1.0
  C  C44  1  0.30985000  0.43811000  0.82341000  1.0
  C  C45  1  0.69016000  0.56189000  0.17659000  1.0
  C  C46  1  0.38594000  0.48124000  0.71349000  1.0
  C  C47  1  0.61407000  0.51876000  0.28650000  1.0
  C  C48  1  0.47831000  0.39030000  0.62981000  1.0
  C  C49  1  0.52170000  0.60970000  0.37019000  1.0
  C  C50  1  0.48801000  0.25980000  0.65845000  1.0
  C  C51  1  0.51199000  0.74020000  0.34154000  1.0
  C  C52  1  0.59271000  0.15902000  0.57316000  1.0
  C  C53  1  0.40730000  0.84098000  0.42684000  1.0
  N  N54  1  0.96393000  0.18357000  0.72297000  1.0
  N  N55  1  0.03607000  0.81643000  0.27703000  1.0
  N  N56  1  0.40845000  0.21782000  0.76190000  1.0
  N  N57  1  0.59155000  0.78218000  0.23809000  1.0
  O  O58  1  0.20159000  0.09978000  0.53575000  1.0
  O  O59  1  0.79842000  0.90023000  0.46425000  1.0
  O  O60  1  0.13616000  0.28567000  0.43447000  1.0
  O  O61  1  0.86383000  0.71434000  0.56553000  1.0
  O  O62  1  0.87520000  0.00676000  0.87955000  1.0
  O  O63  1  0.12480000  0.99324000  0.12045000  1.0
  O  O64  1  0.72107000  0.15691000  0.01236000  1.0
  O  O65  1  0.27894000  0.84309000  0.98765000  1.0
  O  O66  1  0.22069000  0.13044000  0.95274000  1.0
  O  O67  1  0.77931000  0.86956000  0.04727000  1.0
  O  O68  1  0.20250000  0.32084000  0.05159000  1.0
  O  O69  1  0.79749000  0.67916000  0.94841000  1.0
  O  O70  1  0.60402000  0.04121000  0.61697000  1.0
  O  O71  1  0.39599000  0.95879000  0.38303000  1.0
  O  O72  1  0.66204000  0.18751000  0.47236000  1.0
  O  O73  1  0.33797000  0.81249000  0.52763000  1.0
  O  O74  1  0.07147000  0.73957000  0.76374000  1.0
  O  O75  1  0.92853000  0.26043000  0.23626000  1.0
  O  O76  1  0.58024000  0.77201000  0.75325000  1.0
  O  O77  1  0.41975000  0.22799000  0.24675000  1.0
