# generated using pymatgen
data_V2CoH4C4(NO3)2
_symmetry_space_group_name_H-M   'P 1'
_cell_length_a   7.31346000
_cell_length_b   10.16770000
_cell_length_c   11.23980000
_cell_angle_alpha   90.00020000
_cell_angle_beta   89.99910000
_cell_angle_gamma   89.98810000
_symmetry_Int_Tables_number   1
_chemical_formula_structural   V2CoH4C4(NO3)2
_chemical_formula_sum   'V8 Co4 H16 C16 N8 O24'
_cell_volume   835.80350545
_cell_formula_units_Z   4
loop_
 _symmetry_equiv_pos_site_id
 _symmetry_equiv_pos_as_xyz
  1  'x, y, z'
loop_
 _atom_site_type_symbol
 _atom_site_label
 _atom_site_symmetry_multiplicity
 _atom_site_fract_x
 _atom_site_fract_y
 _atom_site_fract_z
 _atom_site_occupancy
  V  V0  1  0.09200000  0.76602000  0.14857000  1.0
  V  V1  1  0.09196000  0.73403000  0.85129000  1.0
  V  V2  1  0.40802000  0.73398000  0.64858000  1.0
  V  V3  1  0.40805000  0.76597000  0.35129000  1.0
  V  V4  1  0.90810000  0.23398000  0.85134000  1.0
  V  V5  1  0.90797000  0.26601000  0.14866000  1.0
  V  V6  1  0.59189000  0.26602000  0.35134000  1.0
  V  V7  1  0.59203000  0.23399000  0.64866000  1.0
  Co  Co8  1  0.24994000  0.05681000  0.25002000  1.0
  Co  Co9  1  0.25005000  0.44318000  0.75002000  1.0
  Co  Co10  1  0.74997000  0.94325000  0.75001000  1.0
  Co  Co11  1  0.75003000  0.55676000  0.25001000  1.0
  H  H12  1  0.86888000  0.95995000  0.30574000  1.0
  H  H13  1  0.86909000  0.54037000  0.69428000  1.0
  H  H14  1  0.63110000  0.54007000  0.80574000  1.0
  H  H15  1  0.63091000  0.95965000  0.19429000  1.0
  H  H16  1  0.13127000  0.04051000  0.69412000  1.0
  H  H17  1  0.13126000  0.45934000  0.30592000  1.0
  H  H18  1  0.36874000  0.45946000  0.19412000  1.0
  H  H19  1  0.36874000  0.04066000  0.80592000  1.0
  H  H20  1  0.29848000  0.10350000  0.50904000  1.0
  H  H21  1  0.29848000  0.39635000  0.49099000  1.0
  H  H22  1  0.20154000  0.39645000  0.00904000  1.0
  H  H23  1  0.20151000  0.10364000  0.99099000  1.0
  H  H24  1  0.70167000  0.89687000  0.49080000  1.0
  H  H25  1  0.70187000  0.60349000  0.50924000  1.0
  H  H26  1  0.79830000  0.60316000  0.99080000  1.0
  H  H27  1  0.79814000  0.89654000  0.00924000  1.0
  C  C28  1  0.16477000  0.05752000  0.50421000  1.0
  C  C29  1  0.16481000  0.44243000  0.49583000  1.0
  C  C30  1  0.33524000  0.44245000  0.00421000  1.0
  C  C31  1  0.33518000  0.05756000  0.99583000  1.0
  C  C32  1  0.83537000  0.94286000  0.49568000  1.0
  C  C33  1  0.83551000  0.55736000  0.50434000  1.0
  C  C34  1  0.66461000  0.55716000  0.99568000  1.0
  C  C35  1  0.66450000  0.94266000  0.00434000  1.0
  C  C36  1  0.92768000  0.97909000  0.39245000  1.0
  C  C37  1  0.92783000  0.52112000  0.60757000  1.0
  C  C38  1  0.57231000  0.52092000  0.89245000  1.0
  C  C39  1  0.57217000  0.97889000  0.10758000  1.0
  C  C40  1  0.07243000  0.02132000  0.60743000  1.0
  C  C41  1  0.07245000  0.47863000  0.39260000  1.0
  C  C42  1  0.42757000  0.47866000  0.10743000  1.0
  C  C43  1  0.42755000  0.02137000  0.89260000  1.0
  N  N44  1  0.09401000  0.03663000  0.39506000  1.0
  N  N45  1  0.09410000  0.46344000  0.60498000  1.0
  N  N46  1  0.40600000  0.46335000  0.89506000  1.0
  N  N47  1  0.40589000  0.03656000  0.10498000  1.0
  N  N48  1  0.90614000  0.96368000  0.60484000  1.0
  N  N49  1  0.90621000  0.53638000  0.39519000  1.0
  N  N50  1  0.59384000  0.53632000  0.10484000  1.0
  N  N51  1  0.59380000  0.96363000  0.89518000  1.0
  O  O52  1  0.08580000  0.92806000  0.17904000  1.0
  O  O53  1  0.08599000  0.57193000  0.82103000  1.0
  O  O54  1  0.41421000  0.57194000  0.67904000  1.0
  O  O55  1  0.41400000  0.92808000  0.32102000  1.0
  O  O56  1  0.91420000  0.07192000  0.82104000  1.0
  O  O57  1  0.91410000  0.42805000  0.17909000  1.0
  O  O58  1  0.58579000  0.42808000  0.32105000  1.0
  O  O59  1  0.58589000  0.07195000  0.67909000  1.0
  O  O60  1  0.17618000  0.75017000  0.99990000  1.0
  O  O61  1  0.32385000  0.74983000  0.49990000  1.0
  O  O62  1  0.82394000  0.25010000  0.99998000  1.0
  O  O63  1  0.67605000  0.24990000  0.49998000  1.0
  O  O64  1  0.25006000  0.69320000  0.24993000  1.0
  O  O65  1  0.24994000  0.80681000  0.74993000  1.0
  O  O66  1  0.75012000  0.30680000  0.74993000  1.0
  O  O67  1  0.74987000  0.19320000  0.24993000  1.0
  O  O68  1  0.88556000  0.69913000  0.16942000  1.0
  O  O69  1  0.88539000  0.80082000  0.83038000  1.0
  O  O70  1  0.61446000  0.80086000  0.66943000  1.0
  O  O71  1  0.61462000  0.69919000  0.33037000  1.0
  O  O72  1  0.11461000  0.30076000  0.83042000  1.0
  O  O73  1  0.11444000  0.19912000  0.16962000  1.0
  O  O74  1  0.38538000  0.19924000  0.33043000  1.0
  O  O75  1  0.38555000  0.30087000  0.66961000  1.0
