# generated using pymatgen
data_AgH3C5N5O3
_symmetry_space_group_name_H-M   'P 1'
_cell_length_a   7.14875000
_cell_length_b   7.14876000
_cell_length_c   15.84470000
_cell_angle_alpha   79.26290000
_cell_angle_beta   79.26300000
_cell_angle_gamma   78.51940000
_symmetry_Int_Tables_number   1
_chemical_formula_structural   AgH3C5N5O3
_chemical_formula_sum   'Ag4 H12 C20 N20 O12'
_cell_volume   770.22455186
_cell_formula_units_Z   4
loop_
 _symmetry_equiv_pos_site_id
 _symmetry_equiv_pos_as_xyz
  1  'x, y, z'
loop_
 _atom_site_type_symbol
 _atom_site_label
 _atom_site_symmetry_multiplicity
 _atom_site_fract_x
 _atom_site_fract_y
 _atom_site_fract_z
 _atom_site_occupancy
  Ag  Ag0  1  0.37213000  0.07967000  0.62964000  1.0
  Ag  Ag1  1  0.92033000  0.62788000  0.87036000  1.0
  Ag  Ag2  1  0.62788000  0.92032000  0.37036000  1.0
  Ag  Ag3  1  0.07967000  0.37212000  0.12964000  1.0
  H  H4  1  0.15473000  0.47799000  0.55463000  1.0
  H  H5  1  0.52201000  0.84527000  0.94538000  1.0
  H  H6  1  0.84527000  0.52200000  0.44538000  1.0
  H  H7  1  0.47799000  0.15474000  0.05462000  1.0
  H  H8  1  0.66891000  0.33254000  0.65775000  1.0
  H  H9  1  0.66745000  0.33109000  0.84225000  1.0
  H  H10  1  0.33109000  0.66746000  0.34225000  1.0
  H  H11  1  0.33254000  0.66892000  0.15774000  1.0
  H  H12  1  0.67453000  0.68669000  0.65363000  1.0
  H  H13  1  0.31331000  0.32548000  0.84638000  1.0
  H  H14  1  0.32547000  0.31331000  0.34637000  1.0
  H  H15  1  0.68669000  0.67453000  0.15362000  1.0
  C  C16  1  0.27534000  0.72078000  0.57273000  1.0
  C  C17  1  0.27922000  0.72466000  0.92727000  1.0
  C  C18  1  0.72466000  0.27922000  0.42728000  1.0
  C  C19  1  0.72078000  0.27535000  0.07272000  1.0
  C  C20  1  0.27132000  0.52446000  0.57646000  1.0
  C  C21  1  0.47553000  0.72868000  0.92354000  1.0
  C  C22  1  0.72868000  0.47553000  0.42353000  1.0
  C  C23  1  0.52447000  0.27132000  0.07646000  1.0
  C  C24  1  0.55479000  0.44527000  0.63444000  1.0
  C  C25  1  0.55473000  0.44521000  0.86557000  1.0
  C  C26  1  0.44520000  0.55473000  0.36556000  1.0
  C  C27  1  0.44527000  0.55480000  0.13443000  1.0
  C  C28  1  0.55690000  0.64045000  0.63222000  1.0
  C  C29  1  0.35954000  0.44311000  0.86778000  1.0
  C  C30  1  0.44310000  0.35954000  0.36778000  1.0
  C  C31  1  0.64045000  0.55690000  0.13222000  1.0
  C  C32  1  0.12680000  0.86963000  0.53463000  1.0
  C  C33  1  0.13037000  0.87320000  0.96537000  1.0
  C  C34  1  0.87320000  0.13037000  0.46537000  1.0
  C  C35  1  0.86963000  0.12680000  0.03463000  1.0
  N  N36  1  0.41807000  0.77844000  0.60151000  1.0
  N  N37  1  0.22156000  0.58193000  0.89850000  1.0
  N  N38  1  0.58192000  0.22156000  0.39850000  1.0
  N  N39  1  0.77843000  0.41808000  0.10150000  1.0
  N  N40  1  0.41128000  0.38784000  0.60664000  1.0
  N  N41  1  0.61216000  0.58872000  0.89336000  1.0
  N  N42  1  0.58872000  0.61216000  0.39336000  1.0
  N  N43  1  0.38783000  0.41128000  0.10663000  1.0
  N  N44  1  0.13265000  0.05651000  0.53620000  1.0
  N  N45  1  0.94349000  0.86736000  0.96380000  1.0
  N  N46  1  0.86735000  0.94349000  0.46380000  1.0
  N  N47  1  0.05651000  0.13265000  0.03620000  1.0
  N  N48  1  0.99656000  0.80957000  0.49889000  1.0
  N  N49  1  0.19043000  0.00344000  0.00111000  1.0
  N  N50  1  0.00343000  0.19044000  0.50111000  1.0
  N  N51  1  0.80956000  0.99657000  0.99889000  1.0
  N  N52  1  0.06545000  0.21121000  0.77756000  1.0
  N  N53  1  0.78879000  0.93455000  0.72244000  1.0
  N  N54  1  0.93456000  0.78879000  0.22244000  1.0
  N  N55  1  0.21121000  0.06545000  0.27756000  1.0
  O  O56  1  0.21934000  0.08175000  0.77762000  1.0
  O  O57  1  0.91825000  0.78066000  0.72238000  1.0
  O  O58  1  0.78066000  0.91824000  0.22238000  1.0
  O  O59  1  0.08175000  0.21934000  0.27762000  1.0
  O  O60  1  0.00165000  0.28497000  0.70806000  1.0
  O  O61  1  0.71502000  0.99836000  0.79194000  1.0
  O  O62  1  0.99836000  0.71502000  0.29194000  1.0
  O  O63  1  0.28498000  0.00165000  0.20806000  1.0
  O  O64  1  0.98361000  0.26305000  0.84973000  1.0
  O  O65  1  0.73694000  0.01639000  0.65027000  1.0
  O  O66  1  0.01640000  0.73695000  0.15027000  1.0
  O  O67  1  0.26306000  0.98361000  0.34973000  1.0
