# generated using pymatgen
data_InH4C8O5
_symmetry_space_group_name_H-M   'P 1'
_cell_length_a   12.44810000
_cell_length_b   12.68640000
_cell_length_c   12.68635361
_cell_angle_alpha   76.07363972
_cell_angle_beta   60.61957213
_cell_angle_gamma   60.61850000
_symmetry_Int_Tables_number   1
_chemical_formula_structural   InH4C8O5
_chemical_formula_sum   'In4 H16 C32 O20'
_cell_volume   1521.21405192
_cell_formula_units_Z   4
loop_
 _symmetry_equiv_pos_site_id
 _symmetry_equiv_pos_as_xyz
  1  'x, y, z'
loop_
 _atom_site_type_symbol
 _atom_site_label
 _atom_site_symmetry_multiplicity
 _atom_site_fract_x
 _atom_site_fract_y
 _atom_site_fract_z
 _atom_site_occupancy
  In  In0  1  0.18598000  0.00000000  0.62805000  1.0
  In  In1  1  0.93598000  0.12803000  0.50000000  1.0
  In  In2  1  0.81403000  0.99999000  0.37194000  1.0
  In  In3  1  0.56403000  0.87195000  0.49999000  1.0
  H  H4  1  0.19042000  0.93458000  0.43459000  1.0
  H  H5  1  0.87490000  0.93463000  0.56548000  1.0
  H  H6  1  0.55957000  0.06543000  0.56543000  1.0
  H  H7  1  0.37499000  0.06548000  0.43463000  1.0
  H  H8  1  0.87430000  0.00000000  0.00000000  1.0
  H  H9  1  0.62431000  0.50000000  0.50000000  1.0
  H  H10  1  0.87569000  0.50001000  0.50000000  1.0
  H  H11  1  0.12570000  0.00000000  0.00000000  1.0
  H  H12  1  0.64018000  0.05894000  0.81327000  1.0
  H  H13  1  0.44912000  0.31327000  0.44106000  1.0
  H  H14  1  0.51239000  0.94107000  0.18674000  1.0
  H  H15  1  0.20345000  0.68674000  0.55894000  1.0
  H  H16  1  0.23760000  0.31328000  0.55894000  1.0
  H  H17  1  0.30087000  0.05894000  0.18674000  1.0
  H  H18  1  0.10980000  0.68673000  0.44106000  1.0
  H  H19  1  0.54655000  0.94106000  0.81327000  1.0
  C  C20  1  0.87449000  0.05177000  0.77948000  1.0
  C  C21  1  0.67625000  0.27947000  0.44824000  1.0
  C  C22  1  0.70575000  0.94823000  0.22052000  1.0
  C  C23  1  0.40397000  0.72053000  0.55177000  1.0
  C  C24  1  0.04427000  0.27947000  0.55177000  1.0
  C  C25  1  0.07374000  0.05177000  0.22052000  1.0
  C  C26  1  0.87551000  0.72052000  0.44822000  1.0
  C  C27  1  0.34603000  0.94824000  0.77948000  1.0
  C  C28  1  0.76904000  0.02779000  0.89451000  1.0
  C  C29  1  0.54682000  0.39451000  0.47222000  1.0
  C  C30  1  0.69134000  0.97221000  0.10549000  1.0
  C  C31  1  0.41355000  0.60549000  0.52778000  1.0
  C  C32  1  0.05865000  0.39451000  0.52779000  1.0
  C  C33  1  0.20317000  0.02779000  0.10549000  1.0
  C  C34  1  0.98096000  0.60549000  0.47221000  1.0
  C  C35  1  0.33646000  0.97221000  0.89451000  1.0
  C  C36  1  0.78685000  0.00000000  0.00000000  1.0
  C  C37  1  0.53685000  0.50000000  0.50000000  1.0
  C  C38  1  0.96314000  0.50000000  0.50000000  1.0
  C  C39  1  0.21315000  0.00000000  0.00000000  1.0
  C  C40  1  0.65446000  0.03097000  0.89555000  1.0
  C  C41  1  0.43542000  0.39556000  0.46904000  1.0
  C  C42  1  0.58097000  0.96904000  0.10445000  1.0
  C  C43  1  0.30001000  0.60445000  0.53096000  1.0
  C  C44  1  0.16901000  0.39556000  0.53097000  1.0
  C  C45  1  0.31458000  0.03096000  0.10445000  1.0
  C  C46  1  0.09553000  0.60445000  0.46904000  1.0
  C  C47  1  0.44999000  0.96904000  0.89556000  1.0
  C  C48  1  0.55957000  0.00000000  0.00000000  1.0
  C  C49  1  0.30956000  0.50001000  0.50000000  1.0
  C  C50  1  0.19042000  0.50000000  0.50000000  1.0
  C  C51  1  0.44043000  0.00000000  0.00001000  1.0
  O  O52  1  0.12841000  0.99659000  0.49659000  1.0
  O  O53  1  0.87512000  0.99650000  0.50335000  1.0
  O  O54  1  0.62158000  0.00342000  0.50342000  1.0
  O  O55  1  0.37502000  0.00335000  0.49651000  1.0
  O  O56  1  0.99498000  0.00453000  0.77270000  1.0
  O  O57  1  0.74949000  0.27267000  0.49551000  1.0
  O  O58  1  0.77219000  0.99551000  0.22730000  1.0
  O  O59  1  0.51768000  0.72731000  0.50452000  1.0
  O  O60  1  0.97779000  0.27269000  0.50453000  1.0
  O  O61  1  0.00050000  0.00451000  0.22731000  1.0
  O  O62  1  0.75500000  0.72731000  0.49550000  1.0
  O  O63  1  0.23232000  0.99551000  0.77269000  1.0
  O  O64  1  0.83589000  0.11454000  0.69913000  1.0
  O  O65  1  0.70046000  0.19914000  0.38543000  1.0
  O  O66  1  0.64964000  0.88542000  0.30085000  1.0
  O  O67  1  0.28503000  0.80086000  0.61458000  1.0
  O  O68  1  0.10042000  0.19914000  0.61456000  1.0
  O  O69  1  0.04953000  0.11458000  0.30086000  1.0
  O  O70  1  0.91410000  0.80084000  0.38541000  1.0
  O  O71  1  0.46497000  0.88543000  0.69914000  1.0
