# generated using pymatgen
data_CdH20C19S2N3
_symmetry_space_group_name_H-M   'P 1'
_cell_length_a   11.34600000
_cell_length_b   12.71350000
_cell_length_c   16.52330000
_cell_angle_alpha   86.02460000
_cell_angle_beta   85.33410000
_cell_angle_gamma   75.97600000
_symmetry_Int_Tables_number   1
_chemical_formula_structural   CdH20C19S2N3
_chemical_formula_sum   'Cd4 H80 C76 S8 N12'
_cell_volume   2301.70318278
_cell_formula_units_Z   4
loop_
 _symmetry_equiv_pos_site_id
 _symmetry_equiv_pos_as_xyz
  1  'x, y, z'
loop_
 _atom_site_type_symbol
 _atom_site_label
 _atom_site_symmetry_multiplicity
 _atom_site_fract_x
 _atom_site_fract_y
 _atom_site_fract_z
 _atom_site_occupancy
  Cd  Cd0  1  0.51930000  0.25245000  0.81009000  1.0
  Cd  Cd1  1  0.47659000  0.75225000  0.19011000  1.0
  Cd  Cd2  1  0.58754000  0.18555000  0.16281000  1.0
  Cd  Cd3  1  0.40810000  0.81848000  0.83617000  1.0
  H  H4  1  0.27135000  0.34414000  0.79517000  1.0
  H  H5  1  0.06675000  0.44655000  0.76281000  1.0
  H  H6  1  0.85783000  0.54618000  0.80770000  1.0
  H  H7  1  0.70879000  0.62561000  0.91717000  1.0
  H  H8  1  0.75833000  0.27879000  0.84766000  1.0
  H  H9  1  0.90372000  0.32078000  0.93531000  1.0
  H  H10  1  0.05689000  0.26214000  0.03897000  1.0
  H  H11  1  0.18186000  0.11556000  0.12355000  1.0
  H  H12  1  0.82092000  0.39853000  0.73892000  1.0
  H  H13  1  0.91827000  0.46660000  0.61296000  1.0
  H  H14  1  0.90078000  0.57660000  0.48255000  1.0
  H  H15  1  0.77248000  0.69145000  0.37998000  1.0
  H  H16  1  0.34228000  0.81750000  0.35355000  1.0
  H  H17  1  0.24581000  0.73755000  0.47421000  1.0
  H  H18  1  0.26337000  0.62415000  0.60323000  1.0
  H  H19  1  0.39177000  0.51421000  0.70823000  1.0
  H  H20  1  0.72570000  0.66189000  0.20458000  1.0
  H  H21  1  0.93035000  0.55981000  0.23688000  1.0
  H  H22  1  0.13951000  0.46055000  0.19198000  1.0
  H  H23  1  0.28812000  0.37990000  0.08254000  1.0
  H  H24  1  0.23636000  0.72751000  0.15356000  1.0
  H  H25  1  0.09055000  0.68571000  0.06632000  1.0
  H  H26  1  0.93942000  0.74393000  0.96134000  1.0
  H  H27  1  0.81491000  0.89035000  0.87648000  1.0
  H  H28  1  0.17167000  0.61341000  0.26545000  1.0
  H  H29  1  0.07569000  0.55001000  0.39371000  1.0
  H  H30  1  0.09440000  0.44195000  0.52499000  1.0
  H  H31  1  0.22365000  0.32269000  0.62511000  1.0
  H  H32  1  0.65393000  0.18872000  0.64617000  1.0
  H  H33  1  0.74962000  0.27201000  0.52672000  1.0
  H  H34  1  0.73081000  0.38779000  0.39863000  1.0
  H  H35  1  0.60141000  0.49706000  0.29376000  1.0
  H  H36  1  0.57993000  0.17275000  0.34323000  1.0
  H  H37  1  0.51740000  0.29707000  0.31346000  1.0
  H  H38  1  0.33499000  0.21813000  0.12457000  1.0
  H  H39  1  0.35798000  0.10210000  0.17884000  1.0
  H  H40  1  0.76660000  0.99177000  0.22515000  1.0
  H  H41  1  0.63505000  0.96063000  0.23319000  1.0
  H  H42  1  0.52395000  0.12763000  0.01062000  1.0
  H  H43  1  0.67162000  0.11006000  0.99611000  1.0
  H  H44  1  0.82949000  0.22427000  0.19890000  1.0
  H  H45  1  0.83464000  0.19989000  0.10297000  1.0
  H  H46  1  0.48925000  0.35554000  0.04842000  1.0
  H  H47  1  0.49286000  0.41969000  0.13246000  1.0
  H  H48  1  0.35307000  0.23369000  0.37597000  1.0
  H  H49  1  0.41045000  0.10721000  0.32994000  1.0
  H  H50  1  0.22651000  0.22891000  0.26620000  1.0
  H  H51  1  0.31527000  0.32409000  0.23653000  1.0
  H  H52  1  0.73882000  0.85360000  0.12832000  1.0
  H  H53  1  0.80670000  0.96041000  0.09057000  1.0
  H  H54  1  0.64570000  0.93096000  0.00568000  1.0
  H  H55  1  0.53551000  0.96648000  0.08819000  1.0
  H  H56  1  0.83241000  0.38587000  0.10361000  1.0
  H  H57  1  0.71503000  0.40145000  0.18256000  1.0
  H  H58  1  0.64010000  0.47548000  0.04801000  1.0
  H  H59  1  0.68904000  0.34458000  0.00857000  1.0
  H  H60  1  0.42154000  0.83467000  0.65626000  1.0
  H  H61  1  0.49062000  0.71185000  0.68538000  1.0
  H  H62  1  0.65819000  0.78950000  0.87915000  1.0
  H  H63  1  0.63360000  0.90853000  0.82876000  1.0
  H  H64  1  0.22614000  0.00944000  0.77134000  1.0
  H  H65  1  0.35669000  0.04254000  0.76300000  1.0
  H  H66  1  0.46375000  0.88041000  0.98938000  1.0
  H  H67  1  0.31600000  0.89771000  0.00108000  1.0
  H  H68  1  0.16951000  0.77348000  0.79930000  1.0
  H  H69  1  0.15912000  0.80589000  0.89385000  1.0
  H  H70  1  0.50903000  0.65130000  0.95169000  1.0
  H  H71  1  0.50132000  0.58490000  0.86945000  1.0
  H  H72  1  0.64861000  0.78784000  0.62586000  1.0
  H  H73  1  0.58277000  0.91014000  0.67586000  1.0
  H  H74  1  0.77020000  0.79351000  0.73834000  1.0
  H  H75  1  0.68956000  0.69089000  0.76294000  1.0
  H  H76  1  0.25225000  0.15134000  0.86617000  1.0
  H  H77  1  0.18361000  0.04535000  0.90484000  1.0
  H  H78  1  0.34308000  0.07696000  0.99024000  1.0
  H  H79  1  0.45457000  0.03933000  0.90888000  1.0
  H  H80  1  0.16332000  0.62013000  0.90336000  1.0
  H  H81  1  0.28006000  0.59795000  0.82412000  1.0
  H  H82  1  0.35568000  0.53450000  0.96024000  1.0
  H  H83  1  0.30824000  0.66868000  0.99371000  1.0
  C  C84  1  0.24608000  0.37049000  0.92408000  1.0
  C  C85  1  0.20843000  0.38232000  0.84410000  1.0
  C  C86  1  0.09248000  0.43960000  0.82563000  1.0
  C  C87  1  0.00641000  0.48789000  0.88649000  1.0
  C  C88  1  0.04159000  0.47865000  0.96841000  1.0
  C  C89  1  0.16243000  0.42137000  0.98716000  1.0
  C  C90  1  0.88487000  0.54290000  0.86988000  1.0
  C  C91  1  0.80247000  0.58788000  0.93039000  1.0
  C  C92  1  0.80268000  0.10598000  0.87701000  1.0
  C  C93  1  0.81582000  0.21274000  0.88259000  1.0
  C  C94  1  0.89686000  0.23692000  0.93272000  1.0
  C  C95  1  0.96965000  0.15523000  0.98132000  1.0
  C  C96  1  0.96092000  0.04535000  0.97613000  1.0
  C  C97  1  0.05072000  0.17822000  0.03573000  1.0
  C  C98  1  0.12066000  0.09713000  0.08209000  1.0
  C  C99  1  0.11668000  0.98606000  0.07796000  1.0
  C  C100  1  0.63738000  0.47059000  0.70792000  1.0
  C  C101  1  0.76469000  0.44714000  0.69295000  1.0
  C  C102  1  0.81908000  0.48558000  0.62238000  1.0
  C  C103  1  0.74847000  0.55068000  0.56312000  1.0
  C  C104  1  0.80159000  0.59476000  0.49133000  1.0
  C  C105  1  0.73124000  0.65853000  0.43483000  1.0
  C  C106  1  0.60112000  0.68363000  0.44488000  1.0
  C  C107  1  0.52642000  0.74922000  0.38629000  1.0
  C  C108  1  0.39895000  0.76798000  0.39904000  1.0
  C  C109  1  0.34480000  0.72379000  0.46707000  1.0
  C  C110  1  0.41532000  0.65952000  0.52682000  1.0
  C  C111  1  0.36224000  0.61222000  0.59714000  1.0
  C  C112  1  0.43255000  0.55105000  0.65502000  1.0
  C  C113  1  0.56267000  0.53082000  0.64703000  1.0
  C  C114  1  0.61865000  0.57327000  0.57517000  1.0
  C  C115  1  0.54508000  0.63923000  0.51571000  1.0
  C  C116  1  0.75084000  0.63523000  0.07569000  1.0
  C  C117  1  0.78858000  0.62375000  0.15562000  1.0
  C  C118  1  0.90458000  0.56665000  0.17409000  1.0
  C  C119  1  0.99060000  0.51808000  0.11330000  1.0
  C  C120  1  0.95532000  0.52698000  0.03141000  1.0
  C  C121  1  0.83444000  0.58417000  0.01263000  1.0
  C  C122  1  0.11222000  0.46320000  0.12989000  1.0
  C  C123  1  0.19442000  0.41782000  0.06941000  1.0
  C  C124  1  0.19300000  0.90023000  0.12369000  1.0
  C  C125  1  0.17907000  0.79364000  0.11860000  1.0
  C  C126  1  0.09786000  0.76951000  0.06860000  1.0
  C  C127  1  0.02567000  0.85105000  0.01960000  1.0
  C  C128  1  0.03445000  0.96087000  0.02479000  1.0
  C  C129  1  0.94522000  0.82791000  0.96480000  1.0
  C  C130  1  0.87553000  0.90893000  0.91827000  1.0
  C  C131  1  0.87898000  0.02011000  0.92275000  1.0
  C  C132  1  0.35557000  0.53992000  0.29521000  1.0
  C  C133  1  0.22847000  0.56544000  0.31142000  1.0
  C  C134  1  0.17474000  0.52952000  0.38320000  1.0
  C  C135  1  0.24588000  0.46429000  0.44213000  1.0
  C  C136  1  0.19349000  0.42138000  0.51471000  1.0
  C  C137  1  0.26432000  0.35546000  0.56997000  1.0
  C  C138  1  0.39428000  0.32793000  0.55829000  1.0
  C  C139  1  0.46950000  0.25926000  0.61513000  1.0
  C  C140  1  0.59692000  0.24021000  0.60171000  1.0
  C  C141  1  0.65059000  0.28624000  0.53433000  1.0
  C  C142  1  0.57947000  0.35205000  0.47551000  1.0
  C  C143  1  0.63197000  0.39970000  0.40509000  1.0
  C  C144  1  0.56110000  0.46047000  0.34730000  1.0
  C  C145  1  0.43098000  0.48081000  0.35608000  1.0
  C  C146  1  0.37562000  0.43983000  0.42877000  1.0
  C  C147  1  0.44975000  0.37304000  0.48754000  1.0
  C  C148  1  0.39900000  0.19555000  0.32037000  1.0
  C  C149  1  0.31997000  0.23702000  0.24904000  1.0
  C  C150  1  0.72195000  0.94229000  0.11809000  1.0
  C  C151  1  0.62174000  0.98052000  0.05927000  1.0
  C  C152  1  0.75083000  0.35841000  0.12704000  1.0
  C  C153  1  0.65539000  0.38801000  0.06425000  1.0
  C  C154  1  0.59975000  0.82106000  0.68232000  1.0
  C  C155  1  0.67877000  0.77920000  0.75365000  1.0
  C  C156  1  0.26886000  0.06281000  0.87760000  1.0
  C  C157  1  0.36787000  0.02599000  0.93746000  1.0
  C  C158  1  0.24502000  0.64562000  0.87760000  1.0
  C  C159  1  0.34100000  0.62077000  0.94002000  1.0
  S  S160  1  0.39128000  0.29382000  0.94707000  1.0
  S  S161  1  0.69392000  0.08082000  0.81583000  1.0
  S  S162  1  0.57522000  0.43385000  0.80352000  1.0
  S  S163  1  0.59357000  0.80439000  0.29892000  1.0
  S  S164  1  0.60540000  0.71191000  0.05301000  1.0
  S  S165  1  0.30309000  0.92505000  0.18392000  1.0
  S  S166  1  0.41674000  0.57249000  0.19817000  1.0
  S  S167  1  0.40330000  0.20007000  0.70108000  1.0
  N  N168  1  0.52106000  0.21758000  0.30329000  1.0
  N  N169  1  0.37345000  0.17906000  0.17567000  1.0
  N  N170  1  0.68982000  0.99904000  0.19497000  1.0
  N  N171  1  0.60401000  0.09735000  0.03790000  1.0
  N  N172  1  0.77966000  0.24040000  0.14888000  1.0
  N  N173  1  0.54162000  0.35893000  0.09591000  1.0
  N  N174  1  0.48095000  0.79193000  0.69670000  1.0
  N  N175  1  0.62057000  0.83092000  0.82852000  1.0
  N  N176  1  0.30242000  0.00417000  0.80161000  1.0
  N  N177  1  0.38515000  0.90954000  0.96029000  1.0
  N  N178  1  0.21652000  0.76204000  0.85053000  1.0
  N  N179  1  0.45473000  0.64722000  0.90543000  1.0
