# generated using pymatgen
data_DyH20C21N4O9
_symmetry_space_group_name_H-M   'P 1'
_cell_length_a   9.87364000
_cell_length_b   11.47570000
_cell_length_c   13.49660000
_cell_angle_alpha   67.09740000
_cell_angle_beta   86.18200000
_cell_angle_gamma   76.30020000
_symmetry_Int_Tables_number   1
_chemical_formula_structural   DyH20C21N4O9
_chemical_formula_sum   'Dy2 H40 C42 N8 O18'
_cell_volume   1368.06656423
_cell_formula_units_Z   2
loop_
 _symmetry_equiv_pos_site_id
 _symmetry_equiv_pos_as_xyz
  1  'x, y, z'
loop_
 _atom_site_type_symbol
 _atom_site_label
 _atom_site_symmetry_multiplicity
 _atom_site_fract_x
 _atom_site_fract_y
 _atom_site_fract_z
 _atom_site_occupancy
  Dy  Dy0  1  0.23732000  0.02721000  0.00276000  1.0
  Dy  Dy1  1  0.76268000  0.97279000  0.99724000  1.0
  H  H2  1  0.99337000  0.63023000  0.45655000  1.0
  H  H3  1  0.00665000  0.36978000  0.54345000  1.0
  H  H4  1  0.03543000  0.75024000  0.26320000  1.0
  H  H5  1  0.96457000  0.24977000  0.73680000  1.0
  H  H6  1  0.45125000  0.50637000  0.31457000  1.0
  H  H7  1  0.54875000  0.49363000  0.68541000  1.0
  H  H8  1  0.29390000  0.33690000  0.66682000  1.0
  H  H9  1  0.70611000  0.66312000  0.33317000  1.0
  H  H10  1  0.70379000  0.08382000  0.70654000  1.0
  H  H11  1  0.29621000  0.91617000  0.29346000  1.0
  H  H12  1  0.73058000  0.19181000  0.50718000  1.0
  H  H13  1  0.26944000  0.80819000  0.49283000  1.0
  H  H14  1  0.32570000  0.10872000  0.54257000  1.0
  H  H15  1  0.67429000  0.89130000  0.45743000  1.0
  H  H16  1  0.25709000  0.06872000  0.73360000  1.0
  H  H17  1  0.74291000  0.93128000  0.26641000  1.0
  H  H18  1  0.89910000  0.95393000  0.66717000  1.0
  H  H19  1  0.10092000  0.04604000  0.33284000  1.0
  H  H20  1  0.22103000  0.14695000  0.20241000  1.0
  H  H21  1  0.77894000  0.85306000  0.79760000  1.0
  H  H22  1  0.50379000  0.36350000  0.11333000  1.0
  H  H23  1  0.49620000  0.63649000  0.88667000  1.0
  H  H24  1  0.34725000  0.48668000  0.08508000  1.0
  H  H25  1  0.65275000  0.51331000  0.91492000  1.0
  H  H26  1  0.38810000  0.38592000  0.00758000  1.0
  H  H27  1  0.61189000  0.61407000  0.99243000  1.0
  H  H28  1  0.23512000  0.38779000  0.26840000  1.0
  H  H29  1  0.76487000  0.61221000  0.73160000  1.0
  H  H30  1  0.40479000  0.28556000  0.30694000  1.0
  H  H31  1  0.59520000  0.71444000  0.69306000  1.0
  H  H32  1  0.25696000  0.21502000  0.32276000  1.0
  H  H33  1  0.74302000  0.78499000  0.67725000  1.0
  H  H34  1  0.04686000  0.27768000  0.96501000  1.0
  H  H35  1  0.95314000  0.72231000  0.03498000  1.0
  H  H36  1  0.96142000  0.20789000  0.91737000  1.0
  H  H37  1  0.03858000  0.79210000  0.08263000  1.0
  H  H38  1  0.49224000  0.88888000  0.93787000  1.0
  H  H39  1  0.50776000  0.11113000  0.06212000  1.0
  H  H40  1  0.40678000  0.78552000  0.00793000  1.0
  H  H41  1  0.59322000  0.21449000  0.99207000  1.0
  C  C42  1  0.28352000  0.70988000  0.15930000  1.0
  C  C43  1  0.71647000  0.29012000  0.84070000  1.0
  C  C44  1  0.09450000  0.60544000  0.42275000  1.0
  C  C45  1  0.90551000  0.39456000  0.57725000  1.0
  C  C46  1  0.11762000  0.67294000  0.31450000  1.0
  C  C47  1  0.88239000  0.32706000  0.68550000  1.0
  C  C48  1  0.24807000  0.63786000  0.27378000  1.0
  C  C49  1  0.75193000  0.36214000  0.72621000  1.0
  C  C50  1  0.34829000  0.53591000  0.34305000  1.0
  C  C51  1  0.65171000  0.46409000  0.65694000  1.0
  C  C52  1  0.31487000  0.47208000  0.45022000  1.0
  C  C53  1  0.68514000  0.52792000  0.54977000  1.0
  C  C54  1  0.41842000  0.36090000  0.52488000  1.0
  C  C55  1  0.58159000  0.63911000  0.47512000  1.0
  C  C56  1  0.39225000  0.30226000  0.63467000  1.0
  C  C57  1  0.60776000  0.69775000  0.36532000  1.0
  C  C58  1  0.49502000  0.19995000  0.70112000  1.0
  C  C59  1  0.50498000  0.80005000  0.29888000  1.0
  C  C60  1  0.62028000  0.16046000  0.65584000  1.0
  C  C61  1  0.37972000  0.83954000  0.34416000  1.0
  C  C62  1  0.63534000  0.22229000  0.54540000  1.0
  C  C63  1  0.36467000  0.77771000  0.45460000  1.0
  C  C64  1  0.47302000  0.12991000  0.81878000  1.0
  C  C65  1  0.52698000  0.87010000  0.18121000  1.0
  C  C66  1  0.02133000  0.98817000  0.82682000  1.0
  C  C67  1  0.97867000  0.01182000  0.17319000  1.0
  C  C68  1  0.23162000  0.07333000  0.57332000  1.0
  C  C69  1  0.76838000  0.92667000  0.42668000  1.0
  C  C70  1  0.19454000  0.05109000  0.67973000  1.0
  C  C71  1  0.80546000  0.94891000  0.32027000  1.0
  C  C72  1  0.07227000  0.00782000  0.71524000  1.0
  C  C73  1  0.92774000  0.99217000  0.28477000  1.0
  C  C74  1  0.99490000  0.98727000  0.64349000  1.0
  C  C75  1  0.00512000  0.01271000  0.35652000  1.0
  C  C76  1  0.04057000  0.01100000  0.53864000  1.0
  C  C77  1  0.95943000  0.98899000  0.46137000  1.0
  C  C78  1  0.27294000  0.21235000  0.13695000  1.0
  C  C79  1  0.72704000  0.78765000  0.86306000  1.0
  C  C80  1  0.39386000  0.38883000  0.08724000  1.0
  C  C81  1  0.60613000  0.61116000  0.91276000  1.0
  C  C82  1  0.30345000  0.29561000  0.27155000  1.0
  C  C83  1  0.69653000  0.70439000  0.72846000  1.0
  N  N84  1  0.18972000  0.50708000  0.48984000  1.0
  N  N85  1  0.81029000  0.49293000  0.51015000  1.0
  N  N86  1  0.53750000  0.31975000  0.48066000  1.0
  N  N87  1  0.46252000  0.68025000  0.51933000  1.0
  N  N88  1  0.15753000  0.05463000  0.50340000  1.0
  N  N89  1  0.84246000  0.94538000  0.49661000  1.0
  N  N90  1  0.32134000  0.29559000  0.16346000  1.0
  N  N91  1  0.67864000  0.70441000  0.83654000  1.0
  O  O92  1  0.39691000  0.66642000  0.12371000  1.0
  O  O93  1  0.60309000  0.33359000  0.87628000  1.0
  O  O94  1  0.19448000  0.81529000  0.10379000  1.0
  O  O95  1  0.80552000  0.18471000  0.89621000  1.0
  O  O96  1  0.57960000  0.05212000  0.87627000  1.0
  O  O97  1  0.42039000  0.94788000  0.12372000  1.0
  O  O98  1  0.35063000  0.14654000  0.85353000  1.0
  O  O99  1  0.64937000  0.85347000  0.14647000  1.0
  O  O100  1  0.90258000  0.96150000  0.84965000  1.0
  O  O101  1  0.09743000  0.03849000  0.15035000  1.0
  O  O102  1  0.09818000  0.00159000  0.89116000  1.0
  O  O103  1  0.90182000  0.99840000  0.10885000  1.0
  O  O104  1  0.05579000  0.22252000  0.92457000  1.0
  O  O105  1  0.94421000  0.77747000  0.07542000  1.0
  O  O106  1  0.39870000  0.87181000  0.94523000  1.0
  O  O107  1  0.60130000  0.12819000  0.05476000  1.0
  O  O108  1  0.28226000  0.20586000  0.04555000  1.0
  O  O109  1  0.71772000  0.79414000  0.95446000  1.0
