# generated using pymatgen
data_V2H12C18(NO3)3
_symmetry_space_group_name_H-M   'P 1'
_cell_length_a   10.70760000
_cell_length_b   10.99250000
_cell_length_c   19.64150000
_cell_angle_alpha   104.67300000
_cell_angle_beta   89.99920000
_cell_angle_gamma   89.99980000
_symmetry_Int_Tables_number   1
_chemical_formula_structural   V2H12C18(NO3)3
_chemical_formula_sum   'V8 H48 C72 N12 O36'
_cell_volume   2236.47276045
_cell_formula_units_Z   4
loop_
 _symmetry_equiv_pos_site_id
 _symmetry_equiv_pos_as_xyz
  1  'x, y, z'
loop_
 _atom_site_type_symbol
 _atom_site_label
 _atom_site_symmetry_multiplicity
 _atom_site_fract_x
 _atom_site_fract_y
 _atom_site_fract_z
 _atom_site_occupancy
  V  V0  1  0.34446000  0.07360000  0.80977000  1.0
  V  V1  1  0.15552000  0.57363000  0.30979000  1.0
  V  V2  1  0.65553000  0.92638000  0.19021000  1.0
  V  V3  1  0.84448000  0.42634000  0.69018000  1.0
  V  V4  1  0.16469000  0.84476000  0.84215000  1.0
  V  V5  1  0.33531000  0.34477000  0.34217000  1.0
  V  V6  1  0.83532000  0.15521000  0.15783000  1.0
  V  V7  1  0.66466000  0.65516000  0.65783000  1.0
  H  H8  1  0.02214000  0.25811000  0.74467000  1.0
  H  H9  1  0.47787000  0.75813000  0.24467000  1.0
  H  H10  1  0.97788000  0.74189000  0.25533000  1.0
  H  H11  1  0.52212000  0.24186000  0.75533000  1.0
  H  H12  1  0.72582000  0.94259000  0.61391000  1.0
  H  H13  1  0.77418000  0.44257000  0.11391000  1.0
  H  H14  1  0.27417000  0.05742000  0.38608000  1.0
  H  H15  1  0.22583000  0.55742000  0.88608000  1.0
  H  H16  1  0.70619000  0.17297000  0.62000000  1.0
  H  H17  1  0.79380000  0.67297000  0.12000000  1.0
  H  H18  1  0.29380000  0.82703000  0.38000000  1.0
  H  H19  1  0.20620000  0.32702000  0.87999000  1.0
  H  H20  1  0.90356000  0.87069000  0.67691000  1.0
  H  H21  1  0.59644000  0.37068000  0.17690000  1.0
  H  H22  1  0.09645000  0.12933000  0.32310000  1.0
  H  H23  1  0.40354000  0.62933000  0.82311000  1.0
  H  H24  1  0.97223000  0.10542000  0.01808000  1.0
  H  H25  1  0.52779000  0.60542000  0.51808000  1.0
  H  H26  1  0.02778000  0.89457000  0.98191000  1.0
  H  H27  1  0.47221000  0.39459000  0.48192000  1.0
  H  H28  1  0.34798000  0.24964000  0.04908000  1.0
  H  H29  1  0.15204000  0.74963000  0.54908000  1.0
  H  H30  1  0.65201000  0.75036000  0.95092000  1.0
  H  H31  1  0.84798000  0.25036000  0.45092000  1.0
  H  H32  1  0.08944000  0.27673000  0.22060000  1.0
  H  H33  1  0.41054000  0.77673000  0.72060000  1.0
  H  H34  1  0.91058000  0.72328000  0.77941000  1.0
  H  H35  1  0.58944000  0.22328000  0.27941000  1.0
  H  H36  1  0.30120000  0.31462000  0.17806000  1.0
  H  H37  1  0.19881000  0.81462000  0.67806000  1.0
  H  H38  1  0.69879000  0.68537000  0.82195000  1.0
  H  H39  1  0.80120000  0.18538000  0.32194000  1.0
  H  H40  1  0.45430000  0.14408000  0.96157000  1.0
  H  H41  1  0.04569000  0.64408000  0.46156000  1.0
  H  H42  1  0.54570000  0.85591000  0.03843000  1.0
  H  H43  1  0.95431000  0.35593000  0.53844000  1.0
  H  H44  1  0.85350000  0.09830000  0.94363000  1.0
  H  H45  1  0.64649000  0.59829000  0.44363000  1.0
  H  H46  1  0.14651000  0.90169000  0.05637000  1.0
  H  H47  1  0.35348000  0.40170000  0.55637000  1.0
  H  H48  1  0.60951000  0.00875000  0.76343000  1.0
  H  H49  1  0.89048000  0.50876000  0.26342000  1.0
  H  H50  1  0.39048000  0.99126000  0.23658000  1.0
  H  H51  1  0.10954000  0.49126000  0.73658000  1.0
  H  H52  1  0.82388000  0.01710000  0.81364000  1.0
  H  H53  1  0.67614000  0.51712000  0.31364000  1.0
  H  H54  1  0.17612000  0.98289000  0.18636000  1.0
  H  H55  1  0.32385000  0.48288000  0.68635000  1.0
  C  C56  1  0.07772000  0.02431000  0.75894000  1.0
  C  C57  1  0.42226000  0.52430000  0.25894000  1.0
  C  C58  1  0.92227000  0.97571000  0.24106000  1.0
  C  C59  1  0.57775000  0.47570000  0.74106000  1.0
  C  C60  1  0.97575000  0.05999000  0.71586000  1.0
  C  C61  1  0.52424000  0.55998000  0.21585000  1.0
  C  C62  1  0.02425000  0.94003000  0.28414000  1.0
  C  C63  1  0.47577000  0.44004000  0.78414000  1.0
  C  C64  1  0.18215000  0.11866000  0.94519000  1.0
  C  C65  1  0.31785000  0.61865000  0.44519000  1.0
  C  C66  1  0.81784000  0.88134000  0.05482000  1.0
  C  C67  1  0.68216000  0.38136000  0.55482000  1.0
  C  C68  1  0.66016000  0.16905000  0.04211000  1.0
  C  C69  1  0.83986000  0.66904000  0.54211000  1.0
  C  C70  1  0.33983000  0.83096000  0.95789000  1.0
  C  C71  1  0.16016000  0.33096000  0.45789000  1.0
  C  C72  1  0.95906000  0.18575000  0.71556000  1.0
  C  C73  1  0.54093000  0.68574000  0.21556000  1.0
  C  C74  1  0.04094000  0.81427000  0.28444000  1.0
  C  C75  1  0.45909000  0.31427000  0.78443000  1.0
  C  C76  1  0.79400000  0.00966000  0.64277000  1.0
  C  C77  1  0.70600000  0.50965000  0.14277000  1.0
  C  C78  1  0.20600000  0.99035000  0.35723000  1.0
  C  C79  1  0.29400000  0.49034000  0.85722000  1.0
  C  C80  1  0.78214000  0.13702000  0.64606000  1.0
  C  C81  1  0.71786000  0.63701000  0.14605000  1.0
  C  C82  1  0.21786000  0.86299000  0.35395000  1.0
  C  C83  1  0.28215000  0.36299000  0.85395000  1.0
  C  C84  1  0.89209000  0.96973000  0.67832000  1.0
  C  C85  1  0.60791000  0.46972000  0.17832000  1.0
  C  C86  1  0.10791000  0.03028000  0.32168000  1.0
  C  C87  1  0.39209000  0.53028000  0.82168000  1.0
  C  C88  1  0.04669000  0.15424000  0.05138000  1.0
  C  C89  1  0.45332000  0.65424000  0.55137000  1.0
  C  C90  1  0.95331000  0.84576000  0.94863000  1.0
  C  C91  1  0.54669000  0.34577000  0.44864000  1.0
  C  C92  1  0.16179000  0.17363000  0.02263000  1.0
  C  C93  1  0.33823000  0.67363000  0.52263000  1.0
  C  C94  1  0.83821000  0.82637000  0.97737000  1.0
  C  C95  1  0.66178000  0.32637000  0.47738000  1.0
  C  C96  1  0.25539000  0.23478000  0.06851000  1.0
  C  C97  1  0.24462000  0.73478000  0.56851000  1.0
  C  C98  1  0.74461000  0.76521000  0.93150000  1.0
  C  C99  1  0.75538000  0.26522000  0.43150000  1.0
  C  C100  1  0.11205000  0.24908000  0.16473000  1.0
  C  C101  1  0.38795000  0.74907000  0.66473000  1.0
  C  C102  1  0.88795000  0.75092000  0.83527000  1.0
  C  C103  1  0.61205000  0.25093000  0.33527000  1.0
  C  C104  1  0.22991000  0.27123000  0.14032000  1.0
  C  C105  1  0.27008000  0.77122000  0.64032000  1.0
  C  C106  1  0.77009000  0.72877000  0.85968000  1.0
  C  C107  1  0.72992000  0.22878000  0.35968000  1.0
  C  C108  1  0.53843000  0.11792000  0.93050000  1.0
  C  C109  1  0.96155000  0.61792000  0.43050000  1.0
  C  C110  1  0.46157000  0.88208000  0.06950000  1.0
  C  C111  1  0.03844000  0.38208000  0.56950000  1.0
  C  C112  1  0.65495000  0.12623000  0.96298000  1.0
  C  C113  1  0.84504000  0.62622000  0.46299000  1.0
  C  C114  1  0.34505000  0.87378000  0.03702000  1.0
  C  C115  1  0.15495000  0.37378000  0.53702000  1.0
  C  C116  1  0.76063000  0.09197000  0.92063000  1.0
  C  C117  1  0.73937000  0.59196000  0.42063000  1.0
  C  C118  1  0.23938000  0.90804000  0.07938000  1.0
  C  C119  1  0.26062000  0.40805000  0.57938000  1.0
  C  C120  1  0.62561000  0.04320000  0.81968000  1.0
  C  C121  1  0.87440000  0.54320000  0.31968000  1.0
  C  C122  1  0.37440000  0.95680000  0.18032000  1.0
  C  C123  1  0.12560000  0.45680000  0.68033000  1.0
  C  C124  1  0.74472000  0.04825000  0.84827000  1.0
  C  C125  1  0.75529000  0.54826000  0.34828000  1.0
  C  C126  1  0.25529000  0.95174000  0.15173000  1.0
  C  C127  1  0.24470000  0.45174000  0.65173000  1.0
  N  N128  1  0.86369000  0.22396000  0.68154000  1.0
  N  N129  1  0.63629000  0.72394000  0.18153000  1.0
  N  N130  1  0.13629000  0.77606000  0.31846000  1.0
  N  N131  1  0.36373000  0.27607000  0.81846000  1.0
  N  N132  1  0.02140000  0.19151000  0.12046000  1.0
  N  N133  1  0.47860000  0.69150000  0.62046000  1.0
  N  N134  1  0.97860000  0.80850000  0.87954000  1.0
  N  N135  1  0.52140000  0.30850000  0.37955000  1.0
  N  N136  1  0.52321000  0.07922000  0.86024000  1.0
  N  N137  1  0.97679000  0.57922000  0.36024000  1.0
  N  N138  1  0.47680000  0.92078000  0.13976000  1.0
  N  N139  1  0.02320000  0.42078000  0.63976000  1.0
  O  O140  1  0.16706000  0.10237000  0.77763000  1.0
  O  O141  1  0.33291000  0.60235000  0.27760000  1.0
  O  O142  1  0.83292000  0.89765000  0.22239000  1.0
  O  O143  1  0.66707000  0.39762000  0.72239000  1.0
  O  O144  1  0.29825000  0.92258000  0.81958000  1.0
  O  O145  1  0.20181000  0.42256000  0.31958000  1.0
  O  O146  1  0.70180000  0.07745000  0.18042000  1.0
  O  O147  1  0.79817000  0.57742000  0.68041000  1.0
  O  O148  1  0.77434000  0.17127000  0.06736000  1.0
  O  O149  1  0.72567000  0.67126000  0.56736000  1.0
  O  O150  1  0.22568000  0.82872000  0.93263000  1.0
  O  O151  1  0.27432000  0.32872000  0.43264000  1.0
  O  O152  1  0.06394000  0.91848000  0.77352000  1.0
  O  O153  1  0.43609000  0.41848000  0.27353000  1.0
  O  O154  1  0.93609000  0.08152000  0.22647000  1.0
  O  O155  1  0.56391000  0.58152000  0.72648000  1.0
  O  O156  1  0.27884000  0.15493000  0.91744000  1.0
  O  O157  1  0.22117000  0.65493000  0.41744000  1.0
  O  O158  1  0.72116000  0.84508000  0.08257000  1.0
  O  O159  1  0.77884000  0.34509000  0.58256000  1.0
  O  O160  1  0.17449000  0.70463000  0.79205000  1.0
  O  O161  1  0.32548000  0.20463000  0.29206000  1.0
  O  O162  1  0.82550000  0.29535000  0.20793000  1.0
  O  O163  1  0.67452000  0.79532000  0.70793000  1.0
  O  O164  1  0.10368000  0.03824000  0.91312000  1.0
  O  O165  1  0.39632000  0.53823000  0.41311000  1.0
  O  O166  1  0.89631000  0.96177000  0.08689000  1.0
  O  O167  1  0.60369000  0.46178000  0.58689000  1.0
  O  O168  1  0.41166000  0.04321000  0.73378000  1.0
  O  O169  1  0.08834000  0.54324000  0.23379000  1.0
  O  O170  1  0.58836000  0.95676000  0.26621000  1.0
  O  O171  1  0.91164000  0.45676000  0.76619000  1.0
  O  O172  1  0.56397000  0.19779000  0.07724000  1.0
  O  O173  1  0.93605000  0.69779000  0.57723000  1.0
  O  O174  1  0.43601000  0.80221000  0.92277000  1.0
  O  O175  1  0.06398000  0.30222000  0.42277000  1.0
