# generated using pymatgen
data_ZnH16(C17N5)2
_symmetry_space_group_name_H-M   'P 1'
_cell_length_a   12.55930000
_cell_length_b   14.66410000
_cell_length_c   22.95630000
_cell_angle_alpha   89.99990000
_cell_angle_beta   90.00000000
_cell_angle_gamma   89.99990000
_symmetry_Int_Tables_number   1
_chemical_formula_structural   ZnH16(C17N5)2
_chemical_formula_sum   'Zn4 H64 C136 N40'
_cell_volume   4227.88085066
_cell_formula_units_Z   4
loop_
 _symmetry_equiv_pos_site_id
 _symmetry_equiv_pos_as_xyz
  1  'x, y, z'
loop_
 _atom_site_type_symbol
 _atom_site_label
 _atom_site_symmetry_multiplicity
 _atom_site_fract_x
 _atom_site_fract_y
 _atom_site_fract_z
 _atom_site_occupancy
  Zn  Zn0  1  0.50000000  0.23809000  0.25000000  1.0
  Zn  Zn1  1  0.50000000  0.26191000  0.75000000  1.0
  Zn  Zn2  1  0.50000000  0.76191000  0.75000000  1.0
  Zn  Zn3  1  0.50000000  0.73809000  0.25000000  1.0
  H  H4  1  0.93111000  0.14279000  0.08967000  1.0
  H  H5  1  0.79037000  0.13887000  0.16362000  1.0
  H  H6  1  0.78424000  0.84446000  0.15406000  1.0
  H  H7  1  0.92538000  0.84786000  0.08051000  1.0
  H  H8  1  0.33701000  0.20638000  0.04122000  1.0
  H  H9  1  0.34524000  0.20011000  0.14923000  1.0
  H  H10  1  0.66054000  0.28015000  0.15151000  1.0
  H  H11  1  0.66946000  0.28746000  0.04354000  1.0
  H  H12  1  0.06889000  0.14279000  0.41033000  1.0
  H  H13  1  0.20963000  0.13887000  0.33638000  1.0
  H  H14  1  0.21576000  0.84446000  0.34593000  1.0
  H  H15  1  0.07462000  0.84786000  0.41949000  1.0
  H  H16  1  0.66300000  0.20638000  0.45878000  1.0
  H  H17  1  0.65476000  0.20011000  0.35077000  1.0
  H  H18  1  0.33946000  0.28015000  0.34849000  1.0
  H  H19  1  0.33054000  0.28746000  0.45646000  1.0
  H  H20  1  0.93111000  0.35721000  0.91033000  1.0
  H  H21  1  0.79037000  0.36113000  0.83638000  1.0
  H  H22  1  0.78424000  0.65554000  0.84594000  1.0
  H  H23  1  0.92538000  0.65214000  0.91949000  1.0
  H  H24  1  0.33700000  0.29362000  0.95878000  1.0
  H  H25  1  0.34524000  0.29989000  0.85077000  1.0
  H  H26  1  0.66054000  0.21985000  0.84849000  1.0
  H  H27  1  0.66946000  0.21254000  0.95646000  1.0
  H  H28  1  0.06889000  0.35721000  0.58967000  1.0
  H  H29  1  0.20963000  0.36113000  0.66362000  1.0
  H  H30  1  0.21576000  0.65554000  0.65406000  1.0
  H  H31  1  0.07462000  0.65214000  0.58051000  1.0
  H  H32  1  0.66300000  0.29362000  0.54122000  1.0
  H  H33  1  0.65476000  0.29989000  0.64923000  1.0
  H  H34  1  0.33946000  0.21985000  0.65151000  1.0
  H  H35  1  0.33054000  0.21254000  0.54354000  1.0
  H  H36  1  0.06889000  0.85721000  0.91033000  1.0
  H  H37  1  0.20963000  0.86113000  0.83638000  1.0
  H  H38  1  0.21576000  0.15554000  0.84594000  1.0
  H  H39  1  0.07462000  0.15214000  0.91949000  1.0
  H  H40  1  0.66300000  0.79362000  0.95878000  1.0
  H  H41  1  0.65476000  0.79989000  0.85077000  1.0
  H  H42  1  0.33946000  0.71985000  0.84849000  1.0
  H  H43  1  0.33054000  0.71254000  0.95646000  1.0
  H  H44  1  0.93111000  0.85721000  0.58967000  1.0
  H  H45  1  0.79037000  0.86113000  0.66362000  1.0
  H  H46  1  0.78424000  0.15554000  0.65406000  1.0
  H  H47  1  0.92538000  0.15214000  0.58051000  1.0
  H  H48  1  0.33701000  0.79362000  0.54122000  1.0
  H  H49  1  0.34524000  0.79989000  0.64923000  1.0
  H  H50  1  0.66054000  0.71985000  0.65151000  1.0
  H  H51  1  0.66946000  0.71254000  0.54354000  1.0
  H  H52  1  0.06889000  0.64279000  0.08967000  1.0
  H  H53  1  0.20963000  0.63887000  0.16362000  1.0
  H  H54  1  0.21576000  0.34446000  0.15406000  1.0
  H  H55  1  0.07462000  0.34786000  0.08051000  1.0
  H  H56  1  0.66300000  0.70638000  0.04122000  1.0
  H  H57  1  0.65476000  0.70011000  0.14923000  1.0
  H  H58  1  0.33946000  0.78015000  0.15151000  1.0
  H  H59  1  0.33054000  0.78746000  0.04354000  1.0
  H  H60  1  0.93111000  0.64279000  0.41033000  1.0
  H  H61  1  0.79037000  0.63887000  0.33638000  1.0
  H  H62  1  0.78424000  0.34446000  0.34594000  1.0
  H  H63  1  0.92538000  0.34786000  0.41949000  1.0
  H  H64  1  0.33701000  0.70638000  0.45878000  1.0
  H  H65  1  0.34524000  0.70011000  0.35077000  1.0
  H  H66  1  0.66054000  0.78015000  0.34849000  1.0
  H  H67  1  0.66946000  0.78746000  0.45646000  1.0
  C  C68  1  0.81611000  0.91002000  0.14000000  1.0
  C  C69  1  0.77675000  0.99138000  0.16479000  1.0
  C  C70  1  0.65441000  0.06887000  0.23369000  1.0
  C  C71  1  0.65471000  0.90818000  0.23156000  1.0
  C  C72  1  0.69534000  0.98934000  0.20980000  1.0
  C  C73  1  0.41467000  0.22021000  0.12374000  1.0
  C  C74  1  0.41110000  0.22378000  0.06326000  1.0
  C  C75  1  0.50322000  0.24779000  0.03217000  1.0
  C  C76  1  0.81942000  0.07498000  0.14523000  1.0
  C  C77  1  0.59525000  0.26739000  0.06454000  1.0
  C  C78  1  0.02504000  0.99815000  0.03352000  1.0
  C  C79  1  0.09313000  0.91693000  0.03724000  1.0
  C  C80  1  0.09330000  0.07875000  0.04068000  1.0
  C  C81  1  0.89615000  0.91202000  0.09844000  1.0
  C  C82  1  0.93879000  0.99563000  0.08001000  1.0
  C  C83  1  0.59124000  0.26322000  0.12501000  1.0
  C  C84  1  0.89923000  0.07711000  0.10356000  1.0
  C  C85  1  0.18389000  0.91002000  0.36000000  1.0
  C  C86  1  0.22325000  0.99138000  0.33521000  1.0
  C  C87  1  0.34559000  0.06887000  0.26631000  1.0
  C  C88  1  0.34529000  0.90818000  0.26844000  1.0
  C  C89  1  0.30466000  0.98934000  0.29020000  1.0
  C  C90  1  0.58533000  0.22022000  0.37627000  1.0
  C  C91  1  0.58890000  0.22378000  0.43674000  1.0
  C  C92  1  0.49678000  0.24779000  0.46783000  1.0
  C  C93  1  0.18058000  0.07498000  0.35477000  1.0
  C  C94  1  0.40475000  0.26739000  0.43546000  1.0
  C  C95  1  0.97496000  0.99815000  0.46648000  1.0
  C  C96  1  0.90687000  0.91694000  0.46276000  1.0
  C  C97  1  0.90670000  0.07876000  0.45932000  1.0
  C  C98  1  0.10385000  0.91202000  0.40156000  1.0
  C  C99  1  0.06122000  0.99563000  0.41999000  1.0
  C  C100  1  0.40876000  0.26322000  0.37499000  1.0
  C  C101  1  0.10077000  0.07711000  0.39644000  1.0
  C  C102  1  0.81611000  0.58998000  0.86000000  1.0
  C  C103  1  0.77675000  0.50862000  0.83521000  1.0
  C  C104  1  0.65441000  0.43113000  0.76631000  1.0
  C  C105  1  0.65471000  0.59182000  0.76844000  1.0
  C  C106  1  0.69534000  0.51067000  0.79020000  1.0
  C  C107  1  0.41467000  0.27978000  0.87626000  1.0
  C  C108  1  0.41110000  0.27622000  0.93674000  1.0
  C  C109  1  0.50322000  0.25221000  0.96783000  1.0
  C  C110  1  0.81942000  0.42502000  0.85477000  1.0
  C  C111  1  0.59525000  0.23261000  0.93546000  1.0
  C  C112  1  0.02504000  0.50185000  0.96648000  1.0
  C  C113  1  0.09313000  0.58307000  0.96276000  1.0
  C  C114  1  0.09330000  0.42125000  0.95932000  1.0
  C  C115  1  0.89615000  0.58798000  0.90156000  1.0
  C  C116  1  0.93879000  0.50437000  0.91999000  1.0
  C  C117  1  0.59124000  0.23678000  0.87499000  1.0
  C  C118  1  0.89923000  0.42289000  0.89644000  1.0
  C  C119  1  0.18389000  0.58998000  0.64000000  1.0
  C  C120  1  0.22325000  0.50862000  0.66479000  1.0
  C  C121  1  0.34559000  0.43113000  0.73369000  1.0
  C  C122  1  0.34529000  0.59182000  0.73156000  1.0
  C  C123  1  0.30466000  0.51066000  0.70980000  1.0
  C  C124  1  0.58533000  0.27978000  0.62374000  1.0
  C  C125  1  0.58890000  0.27622000  0.56326000  1.0
  C  C126  1  0.49678000  0.25221000  0.53217000  1.0
  C  C127  1  0.18058000  0.42502000  0.64523000  1.0
  C  C128  1  0.40475000  0.23261000  0.56454000  1.0
  C  C129  1  0.97496000  0.50185000  0.53352000  1.0
  C  C130  1  0.90687000  0.58307000  0.53724000  1.0
  C  C131  1  0.90670000  0.42125000  0.54069000  1.0
  C  C132  1  0.10385000  0.58798000  0.59844000  1.0
  C  C133  1  0.06121000  0.50437000  0.58001000  1.0
  C  C134  1  0.40876000  0.23678000  0.62501000  1.0
  C  C135  1  0.10077000  0.42289000  0.60356000  1.0
  C  C136  1  0.18389000  0.08998000  0.86000000  1.0
  C  C137  1  0.22325000  0.00862000  0.83521000  1.0
  C  C138  1  0.34559000  0.93113000  0.76631000  1.0
  C  C139  1  0.34529000  0.09182000  0.76844000  1.0
  C  C140  1  0.30466000  0.01066000  0.79020000  1.0
  C  C141  1  0.58533000  0.77978000  0.87627000  1.0
  C  C142  1  0.58890000  0.77622000  0.93674000  1.0
  C  C143  1  0.49678000  0.75221000  0.96783000  1.0
  C  C144  1  0.18058000  0.92502000  0.85477000  1.0
  C  C145  1  0.40475000  0.73261000  0.93546000  1.0
  C  C146  1  0.97496000  0.00185000  0.96648000  1.0
  C  C147  1  0.90687000  0.08307000  0.96276000  1.0
  C  C148  1  0.90670000  0.92125000  0.95931000  1.0
  C  C149  1  0.10385000  0.08798000  0.90156000  1.0
  C  C150  1  0.06121000  0.00437000  0.91999000  1.0
  C  C151  1  0.40876000  0.73677000  0.87499000  1.0
  C  C152  1  0.10077000  0.92289000  0.89644000  1.0
  C  C153  1  0.81611000  0.08998000  0.64000000  1.0
  C  C154  1  0.77675000  0.00862000  0.66479000  1.0
  C  C155  1  0.65441000  0.93113000  0.73369000  1.0
  C  C156  1  0.65471000  0.09182000  0.73156000  1.0
  C  C157  1  0.69534000  0.01067000  0.70980000  1.0
  C  C158  1  0.41467000  0.77978000  0.62373000  1.0
  C  C159  1  0.41110000  0.77622000  0.56326000  1.0
  C  C160  1  0.50322000  0.75221000  0.53217000  1.0
  C  C161  1  0.81942000  0.92502000  0.64523000  1.0
  C  C162  1  0.59525000  0.73261000  0.56454000  1.0
  C  C163  1  0.02504000  0.00185000  0.53352000  1.0
  C  C164  1  0.09313000  0.08307000  0.53724000  1.0
  C  C165  1  0.09330000  0.92125000  0.54069000  1.0
  C  C166  1  0.89615000  0.08798000  0.59844000  1.0
  C  C167  1  0.93879000  0.00437000  0.58001000  1.0
  C  C168  1  0.59124000  0.73678000  0.62501000  1.0
  C  C169  1  0.89923000  0.92289000  0.60356000  1.0
  C  C170  1  0.18389000  0.41002000  0.14000000  1.0
  C  C171  1  0.22325000  0.49138000  0.16479000  1.0
  C  C172  1  0.34559000  0.56887000  0.23369000  1.0
  C  C173  1  0.34529000  0.40818000  0.23156000  1.0
  C  C174  1  0.30466000  0.48933000  0.20980000  1.0
  C  C175  1  0.58533000  0.72021000  0.12373000  1.0
  C  C176  1  0.58890000  0.72378000  0.06326000  1.0
  C  C177  1  0.49678000  0.74779000  0.03217000  1.0
  C  C178  1  0.18058000  0.57498000  0.14523000  1.0
  C  C179  1  0.40475000  0.76739000  0.06454000  1.0
  C  C180  1  0.97496000  0.49815000  0.03352000  1.0
  C  C181  1  0.90687000  0.41693000  0.03724000  1.0
  C  C182  1  0.90670000  0.57875000  0.04069000  1.0
  C  C183  1  0.10385000  0.41202000  0.09844000  1.0
  C  C184  1  0.06121000  0.49563000  0.08001000  1.0
  C  C185  1  0.40876000  0.76322000  0.12501000  1.0
  C  C186  1  0.10077000  0.57711000  0.10356000  1.0
  C  C187  1  0.81611000  0.41002000  0.36000000  1.0
  C  C188  1  0.77675000  0.49138000  0.33521000  1.0
  C  C189  1  0.65441000  0.56887000  0.26631000  1.0
  C  C190  1  0.65471000  0.40818000  0.26844000  1.0
  C  C191  1  0.69534000  0.48934000  0.29020000  1.0
  C  C192  1  0.41467000  0.72022000  0.37627000  1.0
  C  C193  1  0.41110000  0.72378000  0.43674000  1.0
  C  C194  1  0.50322000  0.74779000  0.46783000  1.0
  C  C195  1  0.81942000  0.57498000  0.35477000  1.0
  C  C196  1  0.59525000  0.76739000  0.43546000  1.0
  C  C197  1  0.02504000  0.49815000  0.46648000  1.0
  C  C198  1  0.09313000  0.41693000  0.46276000  1.0
  C  C199  1  0.09330000  0.57875000  0.45932000  1.0
  C  C200  1  0.89615000  0.41202000  0.40156000  1.0
  C  C201  1  0.93879000  0.49563000  0.41999000  1.0
  C  C202  1  0.59124000  0.76322000  0.37499000  1.0
  C  C203  1  0.89923000  0.57711000  0.39644000  1.0
  N  N204  1  0.62111000  0.13680000  0.25384000  1.0
  N  N205  1  0.62159000  0.83931000  0.25041000  1.0
  N  N206  1  0.14533000  0.85170000  0.04187000  1.0
  N  N207  1  0.50283000  0.23993000  0.15449000  1.0
  N  N208  1  0.14546000  0.14348000  0.04774000  1.0
  N  N209  1  0.37889000  0.13680000  0.24616000  1.0
  N  N210  1  0.37841000  0.83931000  0.24959000  1.0
  N  N211  1  0.85467000  0.85171000  0.45813000  1.0
  N  N212  1  0.49717000  0.23993000  0.34551000  1.0
  N  N213  1  0.85454000  0.14348000  0.45226000  1.0
  N  N214  1  0.62111000  0.36320000  0.74616000  1.0
  N  N215  1  0.62159000  0.66069000  0.74959000  1.0
  N  N216  1  0.14533000  0.64830000  0.95813000  1.0
  N  N217  1  0.50283000  0.26007000  0.84550000  1.0
  N  N218  1  0.14546000  0.35652000  0.95226000  1.0
  N  N219  1  0.37889000  0.36320000  0.75384000  1.0
  N  N220  1  0.37841000  0.66069000  0.75041000  1.0
  N  N221  1  0.85467000  0.64830000  0.54187000  1.0
  N  N222  1  0.49717000  0.26007000  0.65449000  1.0
  N  N223  1  0.85454000  0.35652000  0.54774000  1.0
  N  N224  1  0.37889000  0.86320000  0.74616000  1.0
  N  N225  1  0.37841000  0.16069000  0.74959000  1.0
  N  N226  1  0.85467000  0.14830000  0.95813000  1.0
  N  N227  1  0.49717000  0.76007000  0.84551000  1.0
  N  N228  1  0.85454000  0.85652000  0.95226000  1.0
  N  N229  1  0.62111000  0.86320000  0.75384000  1.0
  N  N230  1  0.62159000  0.16069000  0.75041000  1.0
  N  N231  1  0.14533000  0.14830000  0.54187000  1.0
  N  N232  1  0.50283000  0.76007000  0.65449000  1.0
  N  N233  1  0.14546000  0.85652000  0.54774000  1.0
  N  N234  1  0.37889000  0.63680000  0.25384000  1.0
  N  N235  1  0.37841000  0.33931000  0.25041000  1.0
  N  N236  1  0.85467000  0.35170000  0.04187000  1.0
  N  N237  1  0.49717000  0.73993000  0.15450000  1.0
  N  N238  1  0.85454000  0.64348000  0.04774000  1.0
  N  N239  1  0.62111000  0.63680000  0.24616000  1.0
  N  N240  1  0.62159000  0.33931000  0.24959000  1.0
  N  N241  1  0.14533000  0.35170000  0.45813000  1.0
  N  N242  1  0.50283000  0.73993000  0.34550000  1.0
  N  N243  1  0.14546000  0.64348000  0.45226000  1.0
