# generated using pymatgen
data_CaH10C8S2N2O9
_symmetry_space_group_name_H-M   'P 1'
_cell_length_a   7.01537000
_cell_length_b   12.91850000
_cell_length_c   16.39730000
_cell_angle_alpha   109.27200000
_cell_angle_beta   90.00000000
_cell_angle_gamma   90.00000000
_symmetry_Int_Tables_number   1
_chemical_formula_structural   CaH10C8S2N2O9
_chemical_formula_sum   'Ca4 H40 C32 S8 N8 O36'
_cell_volume   1402.78040271
_cell_formula_units_Z   4
loop_
 _symmetry_equiv_pos_site_id
 _symmetry_equiv_pos_as_xyz
  1  'x, y, z'
loop_
 _atom_site_type_symbol
 _atom_site_label
 _atom_site_symmetry_multiplicity
 _atom_site_fract_x
 _atom_site_fract_y
 _atom_site_fract_z
 _atom_site_occupancy
  Ca  Ca0  1  0.22365000  0.47825000  0.27503000  1.0
  Ca  Ca1  1  0.72365000  0.52175000  0.22497000  1.0
  Ca  Ca2  1  0.77636000  0.52175000  0.72497000  1.0
  Ca  Ca3  1  0.27635000  0.47825000  0.77503000  1.0
  H  H4  1  0.70525000  0.18503000  0.10981000  1.0
  H  H5  1  0.20524000  0.81498000  0.39019000  1.0
  H  H6  1  0.29475000  0.81497000  0.89019000  1.0
  H  H7  1  0.79476000  0.18503000  0.60981000  1.0
  H  H8  1  0.75581000  0.99148000  0.08971000  1.0
  H  H9  1  0.25580000  0.00852000  0.41029000  1.0
  H  H10  1  0.24419000  0.00852000  0.91029000  1.0
  H  H11  1  0.74419000  0.99148000  0.58971000  1.0
  H  H12  1  0.54168000  0.91444000  0.05643000  1.0
  H  H13  1  0.04168000  0.08557000  0.44358000  1.0
  H  H14  1  0.45832000  0.08556000  0.94357000  1.0
  H  H15  1  0.95831000  0.91443000  0.55643000  1.0
  H  H16  1  0.62136000  0.94427000  0.16387000  1.0
  H  H17  1  0.12136000  0.05574000  0.33613000  1.0
  H  H18  1  0.37864000  0.05574000  0.83613000  1.0
  H  H19  1  0.87864000  0.94426000  0.66387000  1.0
  H  H20  1  0.71950000  0.32872000  0.52843000  1.0
  H  H21  1  0.21951000  0.67127000  0.97156000  1.0
  H  H22  1  0.28050000  0.67128000  0.47157000  1.0
  H  H23  1  0.78050000  0.32872000  0.02843000  1.0
  H  H24  1  0.77105000  0.17468000  0.39250000  1.0
  H  H25  1  0.27106000  0.82532000  0.10750000  1.0
  H  H26  1  0.22895000  0.82532000  0.60750000  1.0
  H  H27  1  0.72895000  0.17468000  0.89250000  1.0
  H  H28  1  0.61737000  0.18261000  0.30795000  1.0
  H  H29  1  0.11738000  0.81739000  0.19205000  1.0
  H  H30  1  0.38263000  0.81740000  0.69206000  1.0
  H  H31  1  0.88263000  0.18260000  0.80795000  1.0
  H  H32  1  0.56299000  0.09038000  0.36393000  1.0
  H  H33  1  0.06300000  0.90962000  0.13606000  1.0
  H  H34  1  0.43702000  0.90962000  0.63607000  1.0
  H  H35  1  0.93701000  0.09038000  0.86394000  1.0
  H  H36  1  0.38747000  0.65677000  0.19183000  1.0
  H  H37  1  0.88747000  0.34323000  0.30817000  1.0
  H  H38  1  0.61253000  0.34323000  0.80817000  1.0
  H  H39  1  0.11253000  0.65677000  0.69183000  1.0
  H  H40  1  0.35168000  0.53354000  0.13216000  1.0
  H  H41  1  0.85168000  0.46646000  0.36784000  1.0
  H  H42  1  0.64832000  0.46646000  0.86784000  1.0
  H  H43  1  0.14832000  0.53354000  0.63216000  1.0
  C  C44  1  0.50069000  0.08040000  0.13634000  1.0
  C  C45  1  0.00068000  0.91960000  0.36366000  1.0
  C  C46  1  0.49931000  0.91959000  0.86365000  1.0
  C  C47  1  0.99931000  0.08040000  0.63635000  1.0
  C  C48  1  0.56233000  0.17890000  0.13349000  1.0
  C  C49  1  0.06233000  0.82110000  0.36651000  1.0
  C  C50  1  0.43766000  0.82110000  0.86651000  1.0
  C  C51  1  0.93767000  0.17890000  0.63349000  1.0
  C  C52  1  0.61242000  0.97730000  0.11017000  1.0
  C  C53  1  0.11242000  0.02271000  0.38983000  1.0
  C  C54  1  0.38757000  0.02270000  0.88983000  1.0
  C  C55  1  0.88757000  0.97729000  0.61017000  1.0
  C  C56  1  0.45368000  0.27805000  0.17182000  1.0
  C  C57  1  0.95368000  0.72195000  0.32818000  1.0
  C  C58  1  0.54631000  0.72195000  0.82818000  1.0
  C  C59  1  0.04632000  0.27805000  0.67182000  1.0
  C  C60  1  0.43951000  0.39839000  0.57375000  1.0
  C  C61  1  0.93951000  0.60161000  0.92625000  1.0
  C  C62  1  0.56050000  0.60161000  0.42625000  1.0
  C  C63  1  0.06050000  0.39839000  0.07375000  1.0
  C  C64  1  0.57026000  0.32914000  0.51105000  1.0
  C  C65  1  0.07026000  0.67086000  0.98895000  1.0
  C  C66  1  0.42974000  0.67086000  0.48895000  1.0
  C  C67  1  0.92974000  0.32914000  0.01105000  1.0
  C  C68  1  0.50905000  0.25730000  0.43536000  1.0
  C  C69  1  0.00906000  0.74270000  0.06464000  1.0
  C  C70  1  0.49095000  0.74270000  0.56464000  1.0
  C  C71  1  0.99095000  0.25730000  0.93536000  1.0
  C  C72  1  0.62263000  0.17172000  0.37167000  1.0
  C  C73  1  0.12264000  0.82828000  0.12833000  1.0
  C  C74  1  0.37737000  0.82829000  0.62833000  1.0
  C  C75  1  0.87737000  0.17171000  0.87167000  1.0
  S  S76  1  0.15771000  0.16301000  0.17102000  1.0
  S  S77  1  0.65771000  0.83699000  0.32898000  1.0
  S  S78  1  0.84228000  0.83699000  0.82898000  1.0
  S  S79  1  0.34229000  0.16301000  0.67102000  1.0
  S  S80  1  0.19057000  0.36464000  0.45532000  1.0
  S  S81  1  0.69057000  0.63536000  0.04468000  1.0
  S  S82  1  0.80944000  0.63536000  0.54468000  1.0
  S  S83  1  0.30943000  0.36464000  0.95532000  1.0
  N  N84  1  0.27309000  0.27490000  0.20093000  1.0
  N  N85  1  0.77310000  0.72510000  0.29908000  1.0
  N  N86  1  0.72690000  0.72510000  0.79907000  1.0
  N  N87  1  0.22690000  0.27489000  0.70092000  1.0
  N  N88  1  0.25668000  0.41271000  0.55262000  1.0
  N  N89  1  0.75669000  0.58729000  0.94738000  1.0
  N  N90  1  0.74332000  0.58729000  0.44738000  1.0
  N  N91  1  0.24332000  0.41271000  0.05262000  1.0
  O  O92  1  0.02689000  0.15892000  0.23755000  1.0
  O  O93  1  0.52689000  0.84108000  0.26246000  1.0
  O  O94  1  0.97310000  0.84108000  0.76245000  1.0
  O  O95  1  0.47311000  0.15891000  0.73754000  1.0
  O  O96  1  0.08701000  0.13270000  0.08376000  1.0
  O  O97  1  0.58701000  0.86731000  0.41625000  1.0
  O  O98  1  0.91298000  0.86730000  0.91624000  1.0
  O  O99  1  0.41297000  0.13268000  0.58375000  1.0
  O  O100  1  0.32416000  0.06820000  0.16871000  1.0
  O  O101  1  0.82416000  0.93181000  0.33130000  1.0
  O  O102  1  0.67583000  0.93180000  0.83129000  1.0
  O  O103  1  0.17583000  0.06819000  0.66871000  1.0
  O  O104  1  0.99714000  0.32655000  0.44791000  1.0
  O  O105  1  0.49714000  0.67345000  0.05209000  1.0
  O  O106  1  0.00287000  0.67345000  0.55209000  1.0
  O  O107  1  0.50287000  0.32655000  0.94791000  1.0
  O  O108  1  0.24073000  0.43754000  0.40764000  1.0
  O  O109  1  0.74072000  0.56246000  0.09236000  1.0
  O  O110  1  0.75927000  0.56246000  0.59236000  1.0
  O  O111  1  0.25927000  0.43754000  0.90764000  1.0
  O  O112  1  0.31904000  0.25324000  0.41128000  1.0
  O  O113  1  0.81904000  0.74676000  0.08872000  1.0
  O  O114  1  0.68096000  0.74676000  0.58872000  1.0
  O  O115  1  0.18096000  0.25324000  0.91128000  1.0
  O  O116  1  0.52555000  0.37278000  0.18575000  1.0
  O  O117  1  0.02556000  0.62722000  0.31425000  1.0
  O  O118  1  0.47444000  0.62722000  0.81425000  1.0
  O  O119  1  0.97445000  0.37278000  0.68575000  1.0
  O  O120  1  0.49014000  0.44312000  0.65227000  1.0
  O  O121  1  0.99014000  0.55687000  0.84773000  1.0
  O  O122  1  0.50986000  0.55688000  0.34773000  1.0
  O  O123  1  0.00986000  0.44312000  0.15227000  1.0
  O  O124  1  0.38977000  0.58104000  0.19138000  1.0
  O  O125  1  0.88977000  0.41896000  0.30862000  1.0
  O  O126  1  0.61023000  0.41896000  0.80862000  1.0
  O  O127  1  0.11023000  0.58104000  0.69138000  1.0
