# generated using pymatgen
data_ZnH18C24(NO)4
_symmetry_space_group_name_H-M   'P 1'
_cell_length_a   7.99606000
_cell_length_b   8.40010000
_cell_length_c   16.19020000
_cell_angle_alpha   101.72200000
_cell_angle_beta   96.39100000
_cell_angle_gamma   93.13930000
_symmetry_Int_Tables_number   1
_chemical_formula_structural   ZnH18C24(NO)4
_chemical_formula_sum   'Zn2 H36 C48 N8 O8'
_cell_volume   1054.81133695
_cell_formula_units_Z   2
loop_
 _symmetry_equiv_pos_site_id
 _symmetry_equiv_pos_as_xyz
  1  'x, y, z'
loop_
 _atom_site_type_symbol
 _atom_site_label
 _atom_site_symmetry_multiplicity
 _atom_site_fract_x
 _atom_site_fract_y
 _atom_site_fract_z
 _atom_site_occupancy
  Zn  Zn0  1  0.25455000  0.07785000  0.74966000  1.0
  Zn  Zn1  1  0.74545000  0.92215000  0.25034000  1.0
  H  H2  1  0.46287000  0.30404000  0.54452000  1.0
  H  H3  1  0.53712000  0.69597000  0.45548000  1.0
  H  H4  1  0.68271000  0.43212000  0.47327000  1.0
  H  H5  1  0.31728000  0.56788000  0.52673000  1.0
  H  H6  1  0.06036000  0.38876000  0.67764000  1.0
  H  H7  1  0.93963000  0.61123000  0.32235000  1.0
  H  H8  1  0.84060000  0.26396000  0.74768000  1.0
  H  H9  1  0.15939000  0.73605000  0.25232000  1.0
  H  H10  1  0.98054000  0.48867000  0.82163000  1.0
  H  H11  1  0.01948000  0.51134000  0.17837000  1.0
  H  H12  1  0.89625000  0.76716000  0.87943000  1.0
  H  H13  1  0.10377000  0.23285000  0.12057000  1.0
  H  H14  1  0.26985000  0.80880000  0.09778000  1.0
  H  H15  1  0.73017000  0.19120000  0.90222000  1.0
  H  H16  1  0.35151000  0.52960000  0.03918000  1.0
  H  H17  1  0.64851000  0.47040000  0.96081000  1.0
  H  H18  1  0.22894000  0.72914000  0.67127000  1.0
  H  H19  1  0.77104000  0.27085000  0.32873000  1.0
  H  H20  1  0.35738000  0.47848000  0.69853000  1.0
  H  H21  1  0.64260000  0.52150000  0.30147000  1.0
  H  H22  1  0.54319000  0.49294000  0.83540000  1.0
  H  H23  1  0.45679000  0.50706000  0.16461000  1.0
  H  H24  1  0.58870000  0.76033000  0.94258000  1.0
  H  H25  1  0.41130000  0.23968000  0.05742000  1.0
  H  H26  1  0.45161000  0.00500000  0.90331000  1.0
  H  H27  1  0.54839000  0.99501000  0.09668000  1.0
  H  H28  1  0.94982000  0.96502000  0.80594000  1.0
  H  H29  1  0.05018000  0.03498000  0.19406000  1.0
  H  H30  1  0.65756000  0.84439000  0.74951000  1.0
  H  H31  1  0.34244000  0.15560000  0.25049000  1.0
  H  H32  1  0.56907000  0.78568000  0.59219000  1.0
  H  H33  1  0.43092000  0.21432000  0.40781000  1.0
  H  H34  1  0.78161000  0.84352000  0.49593000  1.0
  H  H35  1  0.21838000  0.15649000  0.50407000  1.0
  H  H36  1  0.07487000  0.95601000  0.56331000  1.0
  H  H37  1  0.92513000  0.04400000  0.43669000  1.0
  C  C38  1  0.59481000  0.32181000  0.57199000  1.0
  C  C39  1  0.40518000  0.67820000  0.42801000  1.0
  C  C40  1  0.71576000  0.39265000  0.53268000  1.0
  C  C41  1  0.28423000  0.60735000  0.46732000  1.0
  C  C42  1  0.88525000  0.41597000  0.57071000  1.0
  C  C43  1  0.11474000  0.58402000  0.42929000  1.0
  C  C44  1  0.92937000  0.36986000  0.64838000  1.0
  C  C45  1  0.07063000  0.63013000  0.35161000  1.0
  C  C46  1  0.80686000  0.29978000  0.68742000  1.0
  C  C47  1  0.19314000  0.70022000  0.31258000  1.0
  C  C48  1  0.63906000  0.27369000  0.64929000  1.0
  C  C49  1  0.36094000  0.72631000  0.35071000  1.0
  C  C50  1  0.50945000  0.19849000  0.69267000  1.0
  C  C51  1  0.49055000  0.80151000  0.30733000  1.0
  C  C52  1  0.04346000  0.56001000  0.88171000  1.0
  C  C53  1  0.95655000  0.43998000  0.11829000  1.0
  C  C54  1  0.99764000  0.71483000  0.91298000  1.0
  C  C55  1  0.00237000  0.28518000  0.08702000  1.0
  C  C56  1  0.08131000  0.80655000  0.99052000  1.0
  C  C57  1  0.91872000  0.19344000  0.00948000  1.0
  C  C58  1  0.20667000  0.73844000  0.03716000  1.0
  C  C59  1  0.79335000  0.26156000  0.96284000  1.0
  C  C60  1  0.25119000  0.58201000  0.00501000  1.0
  C  C61  1  0.74883000  0.41799000  0.99499000  1.0
  C  C62  1  0.17138000  0.49189000  0.92694000  1.0
  C  C63  1  0.82865000  0.50811000  0.07306000  1.0
  C  C64  1  0.22339000  0.32592000  0.89017000  1.0
  C  C65  1  0.77661000  0.67407000  0.10982000  1.0
  C  C66  1  0.31167000  0.73167000  0.72992000  1.0
  C  C67  1  0.68832000  0.26832000  0.27008000  1.0
  C  C68  1  0.38359000  0.59234000  0.74553000  1.0
  C  C69  1  0.61640000  0.40765000  0.25448000  1.0
  C  C70  1  0.48630000  0.60165000  0.82219000  1.0
  C  C71  1  0.51369000  0.39834000  0.17781000  1.0
  C  C72  1  0.51253000  0.75005000  0.88107000  1.0
  C  C73  1  0.48746000  0.24996000  0.11893000  1.0
  C  C74  1  0.43678000  0.88497000  0.86075000  1.0
  C  C75  1  0.56321000  0.11503000  0.13925000  1.0
  C  C76  1  0.90854000  0.93282000  0.73753000  1.0
  C  C77  1  0.09146000  0.06717000  0.26247000  1.0
  C  C78  1  0.74538000  0.86671000  0.70576000  1.0
  C  C79  1  0.25461000  0.13328000  0.29423000  1.0
  C  C80  1  0.69752000  0.83408000  0.61819000  1.0
  C  C81  1  0.30247000  0.16592000  0.38181000  1.0
  C  C82  1  0.81490000  0.86625000  0.56477000  1.0
  C  C83  1  0.18510000  0.13376000  0.43523000  1.0
  C  C84  1  0.97678000  0.92985000  0.60149000  1.0
  C  C85  1  0.02321000  0.07015000  0.39851000  1.0
  N  N86  1  0.01888000  0.48739000  0.53713000  1.0
  N  N87  1  0.98111000  0.51261000  0.46287000  1.0
  N  N88  1  0.04422000  0.96631000  0.02562000  1.0
  N  N89  1  0.95580000  0.03369000  0.97438000  1.0
  N  N90  1  0.02225000  0.96327000  0.68610000  1.0
  N  N91  1  0.97775000  0.03673000  0.31390000  1.0
  N  N92  1  0.33906000  0.87578000  0.78611000  1.0
  N  N93  1  0.66094000  0.12421000  0.21389000  1.0
  O  O94  1  0.36406000  0.14324000  0.64951000  1.0
  O  O95  1  0.63594000  0.85676000  0.35050000  1.0
  O  O96  1  0.54328000  0.19240000  0.76985000  1.0
  O  O97  1  0.45672000  0.80759000  0.23015000  1.0
  O  O98  1  0.16172000  0.26984000  0.81074000  1.0
  O  O99  1  0.83827000  0.73016000  0.18925000  1.0
  O  O100  1  0.31944000  0.25238000  0.93288000  1.0
  O  O101  1  0.68058000  0.74762000  0.06712000  1.0
