# generated using pymatgen
data_CoH12C18N2(O3F2)2
_symmetry_space_group_name_H-M   'P 1'
_cell_length_a   7.14422000
_cell_length_b   11.08760000
_cell_length_c   11.08720000
_cell_angle_alpha   91.59360000
_cell_angle_beta   96.60000000
_cell_angle_gamma   96.59220000
_symmetry_Int_Tables_number   1
_chemical_formula_structural   CoH12C18N2(O3F2)2
_chemical_formula_sum   'Co2 H24 C36 N4 O12 F8'
_cell_volume   865.90514381
_cell_formula_units_Z   2
loop_
 _symmetry_equiv_pos_site_id
 _symmetry_equiv_pos_as_xyz
  1  'x, y, z'
loop_
 _atom_site_type_symbol
 _atom_site_label
 _atom_site_symmetry_multiplicity
 _atom_site_fract_x
 _atom_site_fract_y
 _atom_site_fract_z
 _atom_site_occupancy
  Co  Co0  1  0.99999000  0.50000000  0.00000000  1.0
  Co  Co1  1  0.50001000  0.00001000  0.50000000  1.0
  H  H2  1  0.95146000  0.30455000  0.81515000  1.0
  H  H3  1  0.54877000  0.18482000  0.69545000  1.0
  H  H4  1  0.04852000  0.69544000  0.18485000  1.0
  H  H5  1  0.45122000  0.81518000  0.30455000  1.0
  H  H6  1  0.95777000  0.08469000  0.80370000  1.0
  H  H7  1  0.54244000  0.19628000  0.91532000  1.0
  H  H8  1  0.04223000  0.91531000  0.19630000  1.0
  H  H9  1  0.45754000  0.80373000  0.08468000  1.0
  H  H10  1  0.03875000  0.09864000  0.19858000  1.0
  H  H11  1  0.46124000  0.80142000  0.90135000  1.0
  H  H12  1  0.96126000  0.90135000  0.80142000  1.0
  H  H13  1  0.53877000  0.19859000  0.09865000  1.0
  H  H14  1  0.04188000  0.31786000  0.19072000  1.0
  H  H15  1  0.45809000  0.80929000  0.68211000  1.0
  H  H16  1  0.95811000  0.68213000  0.80928000  1.0
  H  H17  1  0.54192000  0.19072000  0.31789000  1.0
  H  H18  1  0.38810000  0.49784000  0.12457000  1.0
  H  H19  1  0.11190000  0.87545000  0.50211000  1.0
  H  H20  1  0.61189000  0.50216000  0.87543000  1.0
  H  H21  1  0.88814000  0.12454000  0.49789000  1.0
  H  H22  1  0.35441000  0.57182000  0.00725000  1.0
  H  H23  1  0.14564000  0.99279000  0.42817000  1.0
  H  H24  1  0.64557000  0.42818000  0.99275000  1.0
  H  H25  1  0.85438000  0.00721000  0.57183000  1.0
  C  C26  1  0.97599000  0.25551000  0.89764000  1.0
  C  C27  1  0.52417000  0.10235000  0.74448000  1.0
  C  C28  1  0.02399000  0.74448000  0.10236000  1.0
  C  C29  1  0.47583000  0.89766000  0.25552000  1.0
  C  C30  1  0.97816000  0.13031000  0.89326000  1.0
  C  C31  1  0.52201000  0.10673000  0.86969000  1.0
  C  C32  1  0.02183000  0.86968000  0.10674000  1.0
  C  C33  1  0.47798000  0.89328000  0.13031000  1.0
  C  C34  1  0.00089000  0.06717000  0.00072000  1.0
  C  C35  1  0.49917000  0.99929000  0.93283000  1.0
  C  C36  1  0.99911000  0.93282000  0.99929000  1.0
  C  C37  1  0.50083000  0.00073000  0.06717000  1.0
  C  C38  1  0.02222000  0.13768000  0.10954000  1.0
  C  C39  1  0.47779000  0.89046000  0.86231000  1.0
  C  C40  1  0.97778000  0.86231000  0.89046000  1.0
  C  C41  1  0.52222000  0.10955000  0.13769000  1.0
  C  C42  1  0.02376000  0.26298000  0.10691000  1.0
  C  C43  1  0.47628000  0.89309000  0.73701000  1.0
  C  C44  1  0.97623000  0.73701000  0.89308000  1.0
  C  C45  1  0.52374000  0.10692000  0.26299000  1.0
  C  C46  1  0.76984000  0.47325000  0.20215000  1.0
  C  C47  1  0.73016000  0.79785000  0.52669000  1.0
  C  C48  1  0.23014000  0.52675000  0.79785000  1.0
  C  C49  1  0.26986000  0.20215000  0.47331000  1.0
  C  C50  1  0.76484000  0.50885000  0.33478000  1.0
  C  C51  1  0.73519000  0.66522000  0.49111000  1.0
  C  C52  1  0.23517000  0.49114000  0.66522000  1.0
  C  C53  1  0.26482000  0.33478000  0.50889000  1.0
  C  C54  1  0.75001000  0.62815000  0.37182000  1.0
  C  C55  1  0.24998000  0.37185000  0.62818000  1.0
  C  C56  1  0.76992000  0.42414000  0.42511000  1.0
  C  C57  1  0.73003000  0.57491000  0.57584000  1.0
  C  C58  1  0.23008000  0.57586000  0.57489000  1.0
  C  C59  1  0.26996000  0.42509000  0.42416000  1.0
  C  C60  1  0.74994000  0.45460000  0.54541000  1.0
  C  C61  1  0.25006000  0.54540000  0.45459000  1.0
  N  N62  1  0.00235000  0.32292000  0.00277000  1.0
  N  N63  1  0.49772000  0.99721000  0.67706000  1.0
  N  N64  1  0.99763000  0.67707000  0.99722000  1.0
  N  N65  1  0.50229000  0.00280000  0.32293000  1.0
  O  O66  1  0.92888000  0.50509000  0.16331000  1.0
  O  O67  1  0.57108000  0.83669000  0.49487000  1.0
  O  O68  1  0.07111000  0.49490000  0.83669000  1.0
  O  O69  1  0.42894000  0.16332000  0.50513000  1.0
  O  O70  1  0.62099000  0.41858000  0.14389000  1.0
  O  O71  1  0.87904000  0.85609000  0.58131000  1.0
  O  O72  1  0.37899000  0.58143000  0.85610000  1.0
  O  O73  1  0.12099000  0.14390000  0.41867000  1.0
  O  O74  1  0.30844000  0.55666000  0.08757000  1.0
  O  O75  1  0.19158000  0.91246000  0.44332000  1.0
  O  O76  1  0.69154000  0.44333000  0.91243000  1.0
  O  O77  1  0.80845000  0.08754000  0.55669000  1.0
  F  F78  1  0.75003000  0.71372000  0.28621000  1.0
  F  F79  1  0.24996000  0.28627000  0.71378000  1.0
  F  F80  1  0.79778000  0.30872000  0.39615000  1.0
  F  F81  1  0.70221000  0.60392000  0.69126000  1.0
  F  F82  1  0.20224000  0.69128000  0.60385000  1.0
  F  F83  1  0.29779000  0.39608000  0.30874000  1.0
  F  F84  1  0.74986000  0.36994000  0.63007000  1.0
  F  F85  1  0.25013000  0.63005000  0.36993000  1.0
