# generated using pymatgen
data_CdH10C8NCl2O3
_symmetry_space_group_name_H-M   'P 1'
_cell_length_a   7.38495000
_cell_length_b   9.10254000
_cell_length_c   16.34910000
_cell_angle_alpha   80.66180000
_cell_angle_beta   89.93120000
_cell_angle_gamma   89.96420000
_symmetry_Int_Tables_number   1
_chemical_formula_structural   CdH10C8NCl2O3
_chemical_formula_sum   'Cd4 H40 C32 N4 Cl8 O12'
_cell_volume   1084.45066005
_cell_formula_units_Z   4
loop_
 _symmetry_equiv_pos_site_id
 _symmetry_equiv_pos_as_xyz
  1  'x, y, z'
loop_
 _atom_site_type_symbol
 _atom_site_label
 _atom_site_symmetry_multiplicity
 _atom_site_fract_x
 _atom_site_fract_y
 _atom_site_fract_z
 _atom_site_occupancy
  Cd  Cd0  1  0.55492000  0.73391000  0.27582000  1.0
  Cd  Cd1  1  0.04303000  0.72150000  0.25858000  1.0
  Cd  Cd2  1  0.45822000  0.22074000  0.75869000  1.0
  Cd  Cd3  1  0.94632000  0.23338000  0.77538000  1.0
  H  H4  1  0.85072000  0.31085000  0.02429000  1.0
  H  H5  1  0.16521000  0.20892000  0.44853000  1.0
  H  H6  1  0.33489000  0.70913000  0.94757000  1.0
  H  H7  1  0.64887000  0.81062000  0.52439000  1.0
  H  H8  1  0.91910000  0.22171000  0.15813000  1.0
  H  H9  1  0.28204000  0.27504000  0.31947000  1.0
  H  H10  1  0.21663000  0.77410000  0.81848000  1.0
  H  H11  1  0.58301000  0.72102000  0.65858000  1.0
  H  H12  1  0.01555000  0.36315000  0.20986000  1.0
  H  H13  1  0.43955000  0.14758000  0.28580000  1.0
  H  H14  1  0.06092000  0.64545000  0.78486000  1.0
  H  H15  1  0.48671000  0.86218000  0.71072000  1.0
  H  H16  1  0.78922000  0.30522000  0.22975000  1.0
  H  H17  1  0.21237000  0.14381000  0.25489000  1.0
  H  H18  1  0.28863000  0.64260000  0.75440000  1.0
  H  H19  1  0.71352000  0.80486000  0.72965000  1.0
  H  H20  1  0.99591000  0.98302000  0.01519000  1.0
  H  H21  1  0.30654000  0.59466000  0.41121000  1.0
  H  H22  1  0.19347000  0.09410000  0.91162000  1.0
  H  H23  1  0.50244000  0.48068000  0.51557000  1.0
  H  H24  1  0.67561000  0.93127000  0.02019000  1.0
  H  H25  1  0.16791000  0.56395000  0.50087000  1.0
  H  H26  1  0.33222000  0.06379000  0.00112000  1.0
  H  H27  1  0.82145000  0.43142000  0.52080000  1.0
  H  H28  1  0.47866000  0.98377000  0.90300000  1.0
  H  H29  1  0.95948000  0.57235000  0.61838000  1.0
  H  H30  1  0.54105000  0.07379000  0.11882000  1.0
  H  H31  1  0.02020000  0.48466000  0.40337000  1.0
  H  H32  1  0.73969000  0.85080000  0.89025000  1.0
  H  H33  1  0.23134000  0.65409000  0.61308000  1.0
  H  H34  1  0.26844000  0.15413000  0.11304000  1.0
  H  H35  1  0.75980000  0.35028000  0.38985000  1.0
  H  H36  1  0.61491000  0.70427000  0.85702000  1.0
  H  H37  1  0.14056000  0.80971000  0.65225000  1.0
  H  H38  1  0.35723000  0.31040000  0.15212000  1.0
  H  H39  1  0.88740000  0.20440000  0.35723000  1.0
  H  H40  1  0.76356000  0.47558000  0.91053000  1.0
  H  H41  1  0.14825000  0.04623000  0.57693000  1.0
  H  H42  1  0.35048000  0.54680000  0.07634000  1.0
  H  H43  1  0.73475000  0.97556000  0.41040000  1.0
  C  C44  1  0.82932000  0.44454000  0.11407000  1.0
  C  C45  1  0.25745000  0.04833000  0.38010000  1.0
  C  C46  1  0.24229000  0.54773000  0.87966000  1.0
  C  C47  1  0.67139000  0.94409000  0.61419000  1.0
  C  C48  1  0.89265000  0.32628000  0.18105000  1.0
  C  C49  1  0.29969000  0.16150000  0.30663000  1.0
  C  C50  1  0.20027000  0.66029000  0.80591000  1.0
  C  C51  1  0.60931000  0.82565000  0.68140000  1.0
  C  C52  1  0.77092000  0.58690000  0.13084000  1.0
  C  C53  1  0.25376000  0.89456000  0.37518000  1.0
  C  C54  1  0.24630000  0.39391000  0.87500000  1.0
  C  C55  1  0.72976000  0.08645000  0.63081000  1.0
  C  C56  1  0.76793000  0.51560000  0.96980000  1.0
  C  C57  1  0.17733000  0.99741000  0.52181000  1.0
  C  C58  1  0.32160000  0.49765000  0.02135000  1.0
  C  C59  1  0.73095000  0.01547000  0.46970000  1.0
  C  C60  1  0.70494000  0.69015000  0.06247000  1.0
  C  C61  1  0.20157000  0.79278000  0.44622000  1.0
  C  C62  1  0.29818000  0.29247000  0.94618000  1.0
  C  C63  1  0.79508000  0.18975000  0.56231000  1.0
  C  C64  1  0.63751000  0.84040000  0.07035000  1.0
  C  C65  1  0.18302000  0.63134000  0.43943000  1.0
  C  C66  1  0.31704000  0.13092000  0.93962000  1.0
  C  C67  1  0.86262000  0.34006000  0.57005000  1.0
  C  C68  1  0.70970000  0.65454000  0.98161000  1.0
  C  C69  1  0.17138000  0.84517000  0.52144000  1.0
  C  C70  1  0.32780000  0.34531000  0.02128000  1.0
  C  C71  1  0.78960000  0.15425000  0.48147000  1.0
  C  C72  1  0.63578000  0.76421000  0.90997000  1.0
  C  C73  1  0.12942000  0.74358000  0.60178000  1.0
  C  C74  1  0.36960000  0.24414000  0.10175000  1.0
  C  C75  1  0.86407000  0.26421000  0.41007000  1.0
  N  N76  1  0.82290000  0.41692000  0.03598000  1.0
  N  N77  1  0.21465000  0.09350000  0.45208000  1.0
  N  N78  1  0.28457000  0.59345000  0.95148000  1.0
  N  N79  1  0.67676000  0.91667000  0.53602000  1.0
  Cl  Cl80  1  0.62485000  0.63644000  0.43407000  1.0
  Cl  Cl81  1  0.08216000  0.87827000  0.07019000  1.0
  Cl  Cl82  1  0.41568000  0.37591000  0.57006000  1.0
  Cl  Cl83  1  0.87463000  0.13690000  0.93392000  1.0
  Cl  Cl84  1  0.81895000  0.93161000  0.27141000  1.0
  Cl  Cl85  1  0.30943000  0.55979000  0.22432000  1.0
  Cl  Cl86  1  0.19213000  0.05864000  0.72455000  1.0
  Cl  Cl87  1  0.68215000  0.43107000  0.77107000  1.0
  O  O88  1  0.78470000  0.61355000  0.20741000  1.0
  O  O89  1  0.29022000  0.85231000  0.30261000  1.0
  O  O90  1  0.21050000  0.35128000  0.80249000  1.0
  O  O91  1  0.71669000  0.11298000  0.70749000  1.0
  O  O92  1  0.55306000  0.87201000  0.13112000  1.0
  O  O93  1  0.02888000  0.60385000  0.39059000  1.0
  O  O94  1  0.47109000  0.10313000  0.89065000  1.0
  O  O95  1  0.94900000  0.37106000  0.63037000  1.0
  O  O96  1  0.47526000  0.83026000  0.93336000  1.0
  O  O97  1  0.95158000  0.68148000  0.60181000  1.0
  O  O98  1  0.54808000  0.18289000  0.10206000  1.0
  O  O99  1  0.02308000  0.33093000  0.43438000  1.0
