# generated using pymatgen
data_Li2H9C7NO8
_symmetry_space_group_name_H-M   'P 1'
_cell_length_a   7.06520000
_cell_length_b   10.98630000
_cell_length_c   13.06070000
_cell_angle_alpha   90.66340000
_cell_angle_beta   90.00000000
_cell_angle_gamma   90.00000000
_symmetry_Int_Tables_number   1
_chemical_formula_structural   Li2H9C7NO8
_chemical_formula_sum   'Li8 H36 C28 N4 O32'
_cell_volume   1013.70889286
_cell_formula_units_Z   4
loop_
 _symmetry_equiv_pos_site_id
 _symmetry_equiv_pos_as_xyz
  1  'x, y, z'
loop_
 _atom_site_type_symbol
 _atom_site_label
 _atom_site_symmetry_multiplicity
 _atom_site_fract_x
 _atom_site_fract_y
 _atom_site_fract_z
 _atom_site_occupancy
  Li  Li0  1  0.50968000  0.60261000  0.32432000  1.0
  Li  Li1  1  0.99032000  0.10261000  0.82432000  1.0
  Li  Li2  1  0.49032000  0.39739000  0.67568000  1.0
  Li  Li3  1  0.00968000  0.89739000  0.17568000  1.0
  Li  Li4  1  0.98458000  0.63742000  0.64432000  1.0
  Li  Li5  1  0.51542000  0.13742000  0.14432000  1.0
  Li  Li6  1  0.01542000  0.36259000  0.35568000  1.0
  Li  Li7  1  0.48457000  0.86258000  0.85568000  1.0
  H  H8  1  0.71066000  0.92824000  0.35502000  1.0
  H  H9  1  0.78934000  0.42824000  0.85503000  1.0
  H  H10  1  0.28934000  0.07176000  0.64497000  1.0
  H  H11  1  0.21066000  0.57176000  0.14497000  1.0
  H  H12  1  0.77888000  0.87149000  0.67103000  1.0
  H  H13  1  0.72112000  0.37150000  0.17104000  1.0
  H  H14  1  0.22112000  0.12850000  0.32897000  1.0
  H  H15  1  0.27888000  0.62850000  0.82897000  1.0
  H  H16  1  0.78676000  0.23541000  0.54357000  1.0
  H  H17  1  0.71323000  0.73542000  0.04357000  1.0
  H  H18  1  0.21324000  0.76459000  0.45643000  1.0
  H  H19  1  0.28676000  0.26459000  0.95643000  1.0
  H  H20  1  0.15001000  0.60508000  0.31553000  1.0
  H  H21  1  0.34999000  0.10508000  0.81553000  1.0
  H  H22  1  0.84999000  0.39492000  0.68447000  1.0
  H  H23  1  0.65001000  0.89492000  0.18447000  1.0
  H  H24  1  0.23158000  0.73258000  0.27836000  1.0
  H  H25  1  0.26842000  0.23258000  0.77836000  1.0
  H  H26  1  0.76842000  0.26742000  0.72164000  1.0
  H  H27  1  0.73158000  0.76742000  0.22164000  1.0
  H  H28  1  0.10988000  0.42402000  0.56718000  1.0
  H  H29  1  0.39012000  0.92402000  0.06718000  1.0
  H  H30  1  0.89012000  0.57598000  0.43282000  1.0
  H  H31  1  0.60988000  0.07598000  0.93282000  1.0
  H  H32  1  0.14377000  0.44102000  0.68600000  1.0
  H  H33  1  0.35623000  0.94102000  0.18600000  1.0
  H  H34  1  0.85623000  0.55898000  0.31400000  1.0
  H  H35  1  0.64377000  0.05897000  0.81400000  1.0
  H  H36  1  0.40005000  0.40697000  0.40944000  1.0
  H  H37  1  0.09995000  0.90696000  0.90944000  1.0
  H  H38  1  0.59995000  0.59303000  0.59056000  1.0
  H  H39  1  0.90005000  0.09304000  0.09056000  1.0
  H  H40  1  0.60604000  0.38037000  0.36561000  1.0
  H  H41  1  0.89395000  0.88037000  0.86561000  1.0
  H  H42  1  0.39396000  0.61963000  0.63439000  1.0
  H  H43  1  0.10604000  0.11963000  0.13439000  1.0
  C  C44  1  0.74446000  0.88865000  0.50898000  1.0
  C  C45  1  0.75554000  0.38866000  0.00899000  1.0
  C  C46  1  0.25554000  0.11134000  0.49102000  1.0
  C  C47  1  0.24446000  0.61134000  0.99101000  1.0
  C  C48  1  0.71913000  0.75520000  0.48307000  1.0
  C  C49  1  0.78087000  0.25521000  0.98307000  1.0
  C  C50  1  0.28087000  0.24479000  0.51693000  1.0
  C  C51  1  0.21913000  0.74479000  0.01693000  1.0
  C  C52  1  0.77134000  0.93382000  0.60682000  1.0
  C  C53  1  0.72866000  0.43382000  0.10682000  1.0
  C  C54  1  0.22866000  0.06618000  0.39318000  1.0
  C  C55  1  0.27134000  0.56618000  0.89318000  1.0
  C  C56  1  0.78191000  0.06242000  0.62479000  1.0
  C  C57  1  0.71809000  0.56242000  0.12479000  1.0
  C  C58  1  0.21809000  0.93758000  0.37521000  1.0
  C  C59  1  0.28191000  0.43758000  0.87521000  1.0
  C  C60  1  0.77603000  0.13704000  0.53612000  1.0
  C  C61  1  0.72396000  0.63704000  0.03612000  1.0
  C  C62  1  0.22397000  0.86296000  0.46388000  1.0
  C  C63  1  0.27604000  0.36296000  0.96388000  1.0
  C  C64  1  0.74764000  0.08715000  0.44033000  1.0
  C  C65  1  0.75237000  0.58715000  0.94033000  1.0
  C  C66  1  0.25237000  0.91285000  0.55967000  1.0
  C  C67  1  0.24763000  0.41285000  0.05967000  1.0
  C  C68  1  0.72040000  0.16461000  0.34618000  1.0
  C  C69  1  0.77961000  0.66461000  0.84618000  1.0
  C  C70  1  0.27960000  0.83539000  0.65382000  1.0
  C  C71  1  0.22039000  0.33540000  0.15382000  1.0
  N  N72  1  0.72838000  0.96499000  0.42834000  1.0
  N  N73  1  0.77162000  0.46499000  0.92835000  1.0
  N  N74  1  0.27163000  0.03501000  0.57166000  1.0
  N  N75  1  0.22837000  0.53501000  0.07166000  1.0
  O  O76  1  0.61271000  0.73146000  0.40877000  1.0
  O  O77  1  0.88729000  0.23147000  0.90877000  1.0
  O  O78  1  0.38729000  0.26854000  0.59123000  1.0
  O  O79  1  0.11271000  0.76853000  0.09123000  1.0
  O  O80  1  0.80626000  0.67694000  0.53765000  1.0
  O  O81  1  0.69374000  0.17694000  0.03765000  1.0
  O  O82  1  0.19374000  0.32306000  0.46235000  1.0
  O  O83  1  0.30625000  0.82306000  0.96235000  1.0
  O  O84  1  0.79529000  0.10974000  0.71590000  1.0
  O  O85  1  0.70471000  0.60975000  0.21590000  1.0
  O  O86  1  0.20471000  0.89025000  0.28410000  1.0
  O  O87  1  0.29529000  0.39025000  0.78410000  1.0
  O  O88  1  0.62903000  0.11638000  0.27419000  1.0
  O  O89  1  0.87097000  0.61638000  0.77419000  1.0
  O  O90  1  0.37097000  0.88362000  0.72581000  1.0
  O  O91  1  0.12903000  0.38362000  0.22581000  1.0
  O  O92  1  0.78523000  0.27266000  0.35056000  1.0
  O  O93  1  0.71477000  0.77267000  0.85056000  1.0
  O  O94  1  0.21477000  0.72734000  0.64944000  1.0
  O  O95  1  0.28522000  0.22734000  0.14944000  1.0
  O  O96  1  0.25754000  0.64318000  0.27878000  1.0
  O  O97  1  0.24246000  0.14318000  0.77878000  1.0
  O  O98  1  0.74246000  0.35682000  0.72122000  1.0
  O  O99  1  0.75754000  0.85682000  0.22122000  1.0
  O  O100  1  0.05466000  0.46177000  0.62958000  1.0
  O  O101  1  0.44534000  0.96177000  0.12958000  1.0
  O  O102  1  0.94534000  0.53823000  0.37042000  1.0
  O  O103  1  0.55466000  0.03823000  0.87042000  1.0
  O  O104  1  0.50835000  0.44394000  0.37451000  1.0
  O  O105  1  0.99165000  0.94394000  0.87451000  1.0
  O  O106  1  0.49165000  0.55606000  0.62549000  1.0
  O  O107  1  0.00835000  0.05606000  0.12549000  1.0
