# generated using pymatgen
data_Mg2H13C24BrO6
_symmetry_space_group_name_H-M   'P 1'
_cell_length_a   6.84141000
_cell_length_b   34.40680000
_cell_length_c   34.40080000
_cell_angle_alpha   119.56400000
_cell_angle_beta   93.79630000
_cell_angle_gamma   93.80110000
_symmetry_Int_Tables_number   1
_chemical_formula_structural   Mg2H13C24BrO6
_chemical_formula_sum   'Mg6 H39 C72 Br3 O18'
_cell_volume   6982.07777221
_cell_formula_units_Z   3
loop_
 _symmetry_equiv_pos_site_id
 _symmetry_equiv_pos_as_xyz
  1  'x, y, z'
loop_
 _atom_site_type_symbol
 _atom_site_label
 _atom_site_symmetry_multiplicity
 _atom_site_fract_x
 _atom_site_fract_y
 _atom_site_fract_z
 _atom_site_occupancy
  Mg  Mg0  1  0.17735000  0.67005000  0.30459000  1.0
  Mg  Mg1  1  0.87293000  0.69543000  0.36549000  1.0
  Mg  Mg2  1  0.50729000  0.63455000  0.33002000  1.0
  Mg  Mg3  1  0.69656000  0.33021000  0.69570000  1.0
  Mg  Mg4  1  0.00088000  0.30423000  0.63447000  1.0
  Mg  Mg5  1  0.36629000  0.36546000  0.66974000  1.0
  H  H6  1  0.04740000  0.93714000  0.49976000  1.0
  H  H7  1  0.54803000  0.50018000  0.43729000  1.0
  H  H8  1  0.11014000  0.56264000  0.06296000  1.0
  H  H9  1  0.26152000  0.00851000  0.53587000  1.0
  H  H10  1  0.72589000  0.46407000  0.47257000  1.0
  H  H11  1  0.25315000  0.52738000  0.99161000  1.0
  H  H12  1  0.80977000  0.06771000  0.49598000  1.0
  H  H13  1  0.31392000  0.50402000  0.57168000  1.0
  H  H14  1  0.74179000  0.42839000  0.93231000  1.0
  H  H15  1  0.08591000  0.11487000  0.54113000  1.0
  H  H16  1  0.54501000  0.45884000  0.57370000  1.0
  H  H17  1  0.97074000  0.42637000  0.88514000  1.0
  H  H18  1  0.44530000  0.07140000  0.55407000  1.0
  H  H19  1  0.89158000  0.44595000  0.51734000  1.0
  H  H20  1  0.37385000  0.48262000  0.92860000  1.0
  H  H21  1  0.21967000  0.17942000  0.58045000  1.0
  H  H22  1  0.63931000  0.41946000  0.59887000  1.0
  H  H23  1  0.04021000  0.40102000  0.82058000  1.0
  H  H24  1  0.93763000  0.19592000  0.62469000  1.0
  H  H25  1  0.31325000  0.37532000  0.57132000  1.0
  H  H26  1  0.74157000  0.42876000  0.80400000  1.0
  H  H27  1  0.75040000  0.11984000  0.58429000  1.0
  H  H28  1  0.16675000  0.41576000  0.53563000  1.0
  H  H29  1  0.63069000  0.46444000  0.88012000  1.0
  H  H30  1  0.78881000  0.88978000  0.45420000  1.0
  H  H31  1  0.33493000  0.54586000  0.43551000  1.0
  H  H32  1  0.89851000  0.56445000  0.11033000  1.0
  H  H33  1  0.40139000  0.92826000  0.44948000  1.0
  H  H34  1  0.95243000  0.55049000  0.47878000  1.0
  H  H35  1  0.47265000  0.52126000  0.07175000  1.0
  H  H36  1  0.65211000  0.82187000  0.42177000  1.0
  H  H37  1  0.22988000  0.57812000  0.39998000  1.0
  H  H38  1  0.82959000  0.59996000  0.17811000  1.0
  H  H39  1  0.93201000  0.80286000  0.37745000  1.0
  H  H40  1  0.55446000  0.62265000  0.42554000  1.0
  H  H41  1  0.12865000  0.57454000  0.19724000  1.0
  H  H42  1  0.11471000  0.87951000  0.41846000  1.0
  H  H43  1  0.69627000  0.58164000  0.46118000  1.0
  H  H44  1  0.23460000  0.53887000  0.12054000  1.0
  C  C45  1  0.74306000  0.99841000  0.47655000  1.0
  C  C46  1  0.26701000  0.52346000  0.52181000  1.0
  C  C47  1  0.74452000  0.47820000  0.00163000  1.0
  C  C48  1  0.80263000  0.96001000  0.47709000  1.0
  C  C49  1  0.32610000  0.52294000  0.48286000  1.0
  C  C50  1  0.84236000  0.51714000  0.04006000  1.0
  C  C51  1  0.99524000  0.96606000  0.49891000  1.0
  C  C52  1  0.49677000  0.50107000  0.46708000  1.0
  C  C53  1  0.02901000  0.53290000  0.03403000  1.0
  C  C54  1  0.11627000  0.00634000  0.51942000  1.0
  C  C55  1  0.59715000  0.48055000  0.48687000  1.0
  C  C56  1  0.10995000  0.51312000  0.99375000  1.0
  C  C57  1  0.05189000  0.04442000  0.51936000  1.0
  C  C58  1  0.53290000  0.48064000  0.52504000  1.0
  C  C59  1  0.00742000  0.47501000  0.95563000  1.0
  C  C60  1  0.86270000  0.03920000  0.49744000  1.0
  C  C61  1  0.36560000  0.50256000  0.54173000  1.0
  C  C62  1  0.82334000  0.45833000  0.96082000  1.0
  C  C63  1  0.16733000  0.08810000  0.54003000  1.0
  C  C64  1  0.62762000  0.45995000  0.54804000  1.0
  C  C65  1  0.07905000  0.45199000  0.91191000  1.0
  C  C66  1  0.36007000  0.09830000  0.55688000  1.0
  C  C67  1  0.80354000  0.44311000  0.54142000  1.0
  C  C68  1  0.26166000  0.45857000  0.90170000  1.0
  C  C69  1  0.46854000  0.14308000  0.57906000  1.0
  C  C70  1  0.88988000  0.42091000  0.56401000  1.0
  C  C71  1  0.32544000  0.43598000  0.85691000  1.0
  C  C72  1  0.37717000  0.18174000  0.58964000  1.0
  C  C73  1  0.78771000  0.41028000  0.59204000  1.0
  C  C74  1  0.19537000  0.40789000  0.81824000  1.0
  C  C75  1  0.47919000  0.22507000  0.61299000  1.0
  C  C76  1  0.86620000  0.38691000  0.61202000  1.0
  C  C77  1  0.25401000  0.38792000  0.77489000  1.0
  C  C78  1  0.68685000  0.23093000  0.62664000  1.0
  C  C79  1  0.06018000  0.37326000  0.60423000  1.0
  C  C80  1  0.45576000  0.39572000  0.76903000  1.0
  C  C81  1  0.77960000  0.19170000  0.61469000  1.0
  C  C82  1  0.16513000  0.38528000  0.57703000  1.0
  C  C83  1  0.58781000  0.42299000  0.80826000  1.0
  C  C84  1  0.67383000  0.14929000  0.59206000  1.0
  C  C85  1  0.08229000  0.40795000  0.55727000  1.0
  C  C86  1  0.52458000  0.44275000  0.85069000  1.0
  C  C87  1  0.36302000  0.26300000  0.62318000  1.0
  C  C88  1  0.73979000  0.37672000  0.63974000  1.0
  C  C89  1  0.09997000  0.36017000  0.73696000  1.0
  C  C90  1  0.69448000  0.91552000  0.45756000  1.0
  C  C91  1  0.23732000  0.54247000  0.45789000  1.0
  C  C92  1  0.77847000  0.54209000  0.08456000  1.0
  C  C93  1  0.49862000  0.90278000  0.44464000  1.0
  C  C94  1  0.05425000  0.55535000  0.45810000  1.0
  C  C95  1  0.59522000  0.54192000  0.09725000  1.0
  C  C96  1  0.39907000  0.85719000  0.42321000  1.0
  C  C97  1  0.97571000  0.57679000  0.43399000  1.0
  C  C98  1  0.54115000  0.56605000  0.14283000  1.0
  C  C99  1  0.49428000  0.81890000  0.41230000  1.0
  C  C100  1  0.08159000  0.58765000  0.40654000  1.0
  C  C101  1  0.67474000  0.59343000  0.18111000  1.0
  C  C102  1  0.39475000  0.77521000  0.38837000  1.0
  C  C103  1  0.00595000  0.61156000  0.38678000  1.0
  C  C104  1  0.61909000  0.61320000  0.22481000  1.0
  C  C105  1  0.18682000  0.76887000  0.37471000  1.0
  C  C106  1  0.81184000  0.62529000  0.39418000  1.0
  C  C107  1  0.41754000  0.60586000  0.23118000  1.0
  C  C108  1  0.09029000  0.80769000  0.38741000  1.0
  C  C109  1  0.70270000  0.61264000  0.42035000  1.0
  C  C110  1  0.28206000  0.57970000  0.19238000  1.0
  C  C111  1  0.19319000  0.85029000  0.41052000  1.0
  C  C112  1  0.78259000  0.58954000  0.43986000  1.0
  C  C113  1  0.34223000  0.56020000  0.14976000  1.0
  C  C114  1  0.51203000  0.73730000  0.37765000  1.0
  C  C115  1  0.13401000  0.62230000  0.35961000  1.0
  C  C116  1  0.77446000  0.64036000  0.26272000  1.0
  Br  Br117  1  0.50032000  0.99829000  0.44529000  1.0
  Br  Br118  1  0.05574000  0.55477000  0.55299000  1.0
  Br  Br119  1  0.50229000  0.44696000  0.00177000  1.0
  O  O120  1  0.69245000  0.74398000  0.39337000  1.0
  O  O121  1  0.29871000  0.60658000  0.35055000  1.0
  O  O122  1  0.94825000  0.64937000  0.25603000  1.0
  O  O123  1  0.42680000  0.69690000  0.35101000  1.0
  O  O124  1  0.07561000  0.64899000  0.34588000  1.0
  O  O125  1  0.72977000  0.65412000  0.30314000  1.0
  O  O126  1  0.08105000  0.72839000  0.35040000  1.0
  O  O127  1  0.73049000  0.64966000  0.37806000  1.0
  O  O128  1  0.35237000  0.62201000  0.27168000  1.0
  O  O129  1  0.18297000  0.25624000  0.60723000  1.0
  O  O130  1  0.57553000  0.39263000  0.64886000  1.0
  O  O131  1  0.92659000  0.35103000  0.74375000  1.0
  O  O132  1  0.44841000  0.30342000  0.64958000  1.0
  O  O133  1  0.79876000  0.35035000  0.65380000  1.0
  O  O134  1  0.14492000  0.34610000  0.69653000  1.0
  O  O135  1  0.79439000  0.27130000  0.65027000  1.0
  O  O136  1  0.14413000  0.34965000  0.62099000  1.0
  O  O137  1  0.52291000  0.37897000  0.72865000  1.0
