# generated using pymatgen
data_MnH17C7Br2NO4
_symmetry_space_group_name_H-M   'P 1'
_cell_length_a   8.16221000
_cell_length_b   8.28662000
_cell_length_c   9.33859000
_cell_angle_alpha   90.00030000
_cell_angle_beta   88.96410000
_cell_angle_gamma   89.99940000
_symmetry_Int_Tables_number   1
_chemical_formula_structural   MnH17C7Br2NO4
_chemical_formula_sum   'Mn2 H34 C14 Br4 N2 O8'
_cell_volume   631.53221819
_cell_formula_units_Z   2
loop_
 _symmetry_equiv_pos_site_id
 _symmetry_equiv_pos_as_xyz
  1  'x, y, z'
loop_
 _atom_site_type_symbol
 _atom_site_label
 _atom_site_symmetry_multiplicity
 _atom_site_fract_x
 _atom_site_fract_y
 _atom_site_fract_z
 _atom_site_occupancy
  Mn  Mn0  1  0.00181000  0.17769000  0.66527000  1.0
  Mn  Mn1  1  0.99819000  0.67768000  0.33472000  1.0
  H  H2  1  0.08894000  0.99555000  0.14055000  1.0
  H  H3  1  0.91105000  0.49555000  0.85945000  1.0
  H  H4  1  0.42667000  0.00878000  0.27052000  1.0
  H  H5  1  0.57332000  0.50880000  0.72949000  1.0
  H  H6  1  0.35757000  0.89092000  0.12621000  1.0
  H  H7  1  0.64242000  0.39094000  0.87379000  1.0
  H  H8  1  0.55310000  0.15372000  0.07181000  1.0
  H  H9  1  0.44690000  0.65374000  0.92820000  1.0
  H  H10  1  0.38168000  0.12320000  0.96058000  1.0
  H  H11  1  0.61834000  0.62322000  0.03942000  1.0
  H  H12  1  0.32705000  0.39568000  0.05227000  1.0
  H  H13  1  0.67296000  0.89569000  0.94773000  1.0
  H  H14  1  0.38874000  0.33848000  0.22825000  1.0
  H  H15  1  0.61126000  0.83850000  0.77175000  1.0
  H  H16  1  0.08998000  0.24529000  0.07494000  1.0
  H  H17  1  0.91003000  0.74529000  0.92505000  1.0
  H  H18  1  0.10717000  0.30590000  0.24532000  1.0
  H  H19  1  0.89283000  0.80590000  0.75467000  1.0
  H  H20  1  0.78385000  0.98458000  0.49147000  1.0
  H  H21  1  0.21615000  0.48458000  0.50853000  1.0
  H  H22  1  0.59124000  0.14956000  0.70412000  1.0
  H  H23  1  0.40877000  0.64954000  0.29589000  1.0
  H  H24  1  0.52330000  0.03147000  0.55531000  1.0
  H  H25  1  0.47671000  0.53146000  0.44470000  1.0
  H  H26  1  0.60943000  0.22796000  0.52717000  1.0
  H  H27  1  0.39057000  0.72795000  0.47284000  1.0
  H  H28  1  0.10905000  0.89597000  0.57858000  1.0
  H  H29  1  0.89095000  0.39597000  0.42142000  1.0
  H  H30  1  0.34692000  0.94334000  0.72068000  1.0
  H  H31  1  0.65308000  0.44335000  0.27931000  1.0
  H  H32  1  0.25656000  0.74639000  0.74750000  1.0
  H  H33  1  0.74344000  0.24639000  0.25250000  1.0
  H  H34  1  0.21587000  0.90440000  0.87267000  1.0
  H  H35  1  0.78414000  0.40440000  0.12732000  1.0
  C  C36  1  0.12735000  0.03758000  0.36280000  1.0
  C  C37  1  0.87263000  0.53757000  0.63720000  1.0
  C  C38  1  0.17582000  0.06278000  0.20682000  1.0
  C  C39  1  0.82417000  0.56278000  0.79317000  1.0
  C  C40  1  0.35425000  0.01236000  0.17250000  1.0
  C  C41  1  0.64574000  0.51237000  0.82750000  1.0
  C  C42  1  0.41904000  0.14422000  0.07160000  1.0
  C  C43  1  0.58096000  0.64423000  0.92841000  1.0
  C  C44  1  0.33525000  0.29570000  0.12830000  1.0
  C  C45  1  0.66476000  0.79571000  0.87171000  1.0
  C  C46  1  0.61611000  0.11751000  0.59201000  1.0
  C  C47  1  0.38390000  0.61750000  0.40800000  1.0
  C  C48  1  0.23791000  0.87736000  0.75917000  1.0
  C  C49  1  0.76210000  0.37736000  0.24082000  1.0
  Br  Br50  1  0.89232000  0.15361000  0.92545000  1.0
  Br  Br51  1  0.10768000  0.65361000  0.07454000  1.0
  Br  Br52  1  0.25614000  0.35348000  0.71851000  1.0
  Br  Br53  1  0.74385000  0.85347000  0.28149000  1.0
  N  N54  1  0.16475000  0.23834000  0.16476000  1.0
  N  N55  1  0.83525000  0.73835000  0.83524000  1.0
  O  O56  1  0.09164000  0.15831000  0.43898000  1.0
  O  O57  1  0.90836000  0.65830000  0.56102000  1.0
  O  O58  1  0.13016000  0.89087000  0.40727000  1.0
  O  O59  1  0.86982000  0.39086000  0.59273000  1.0
  O  O60  1  0.77620000  0.04504000  0.58352000  1.0
  O  O61  1  0.22380000  0.54504000  0.41647000  1.0
  O  O62  1  0.09500000  0.92657000  0.68299000  1.0
  O  O63  1  0.90500000  0.42656000  0.31701000  1.0
