# generated using pymatgen
data_Co2H15C15(NO5)2
_symmetry_space_group_name_H-M   'P 1'
_cell_length_a   9.14841000
_cell_length_b   9.49119000
_cell_length_c   13.97000000
_cell_angle_alpha   78.03340000
_cell_angle_beta   85.10550000
_cell_angle_gamma   65.08130000
_symmetry_Int_Tables_number   1
_chemical_formula_structural   Co2H15C15(NO5)2
_chemical_formula_sum   'Co4 H30 C30 N4 O20'
_cell_volume   1076.17330532
_cell_formula_units_Z   2
loop_
 _symmetry_equiv_pos_site_id
 _symmetry_equiv_pos_as_xyz
  1  'x, y, z'
loop_
 _atom_site_type_symbol
 _atom_site_label
 _atom_site_symmetry_multiplicity
 _atom_site_fract_x
 _atom_site_fract_y
 _atom_site_fract_z
 _atom_site_occupancy
  Co  Co0  1  0.78127000  0.00133000  0.17955000  1.0
  Co  Co1  1  0.21868000  0.99870000  0.82048000  1.0
  Co  Co2  1  0.49990000  0.00004000  0.99998000  1.0
  Co  Co3  1  0.99996000  0.49996000  0.00008000  1.0
  H  H4  1  0.27297000  0.63536000  0.25511000  1.0
  H  H5  1  0.72687000  0.36468000  0.74498000  1.0
  H  H6  1  0.33369000  0.81088000  0.33394000  1.0
  H  H7  1  0.66630000  0.18917000  0.66608000  1.0
  H  H8  1  0.31006000  0.94665000  0.22134000  1.0
  H  H9  1  0.68985000  0.05346000  0.77860000  1.0
  H  H10  1  0.58943000  0.63151000  0.28875000  1.0
  H  H11  1  0.41058000  0.36867000  0.71123000  1.0
  H  H12  1  0.55979000  0.52310000  0.17018000  1.0
  H  H13  1  0.44020000  0.47690000  0.82991000  1.0
  H  H14  1  0.32186000  0.62057000  0.08647000  1.0
  H  H15  1  0.67815000  0.37943000  0.91358000  1.0
  H  H16  1  0.39201000  0.20235000  0.18999000  1.0
  H  H17  1  0.60802000  0.79759000  0.80991000  1.0
  H  H18  1  0.26272000  0.39868000  0.32561000  1.0
  H  H19  1  0.73734000  0.60129000  0.67429000  1.0
  H  H20  1  0.77545000  0.19900000  0.33828000  1.0
  H  H21  1  0.22464000  0.80093000  0.66161000  1.0
  H  H22  1  0.74839000  0.40509000  0.40019000  1.0
  H  H23  1  0.25172000  0.59484000  0.59967000  1.0
  H  H24  1  0.26739000  0.44082000  0.47558000  1.0
  H  H25  1  0.73262000  0.55915000  0.52429000  1.0
  H  H26  1  0.13079000  0.17056000  0.04159000  1.0
  H  H27  1  0.86913000  0.82942000  0.95849000  1.0
  H  H28  1  0.94092000  0.24194000  0.05066000  1.0
  H  H29  1  0.05899000  0.75806000  0.94941000  1.0
  H  H30  1  0.21684000  0.45374000  0.12064000  1.0
  H  H31  1  0.78308000  0.54631000  0.87937000  1.0
  H  H32  1  0.06932000  0.61669000  0.13437000  1.0
  H  H33  1  0.93059000  0.38335000  0.86566000  1.0
  C  C34  1  0.62247000  0.82841000  0.21144000  1.0
  C  C35  1  0.37741000  0.17155000  0.78861000  1.0
  C  C36  1  0.64454000  0.65298000  0.05827000  1.0
  C  C37  1  0.35546000  0.34699000  0.94182000  1.0
  C  C38  1  0.28165000  0.85917000  0.02946000  1.0
  C  C39  1  0.71835000  0.14094000  0.97054000  1.0
  C  C40  1  0.07727000  0.84609000  0.19818000  1.0
  C  C41  1  0.92287000  0.15383000  0.80186000  1.0
  C  C42  1  0.25703000  0.75043000  0.20916000  1.0
  C  C43  1  0.74304000  0.24953000  0.79089000  1.0
  C  C44  1  0.35087000  0.82100000  0.25450000  1.0
  C  C45  1  0.64906000  0.17910000  0.74551000  1.0
  C  C46  1  0.52886000  0.72711000  0.22764000  1.0
  C  C47  1  0.47098000  0.27295000  0.77236000  1.0
  C  C48  1  0.52233000  0.64954000  0.13956000  1.0
  C  C49  1  0.47759000  0.35046000  0.86049000  1.0
  C  C50  1  0.34279000  0.71329000  0.11058000  1.0
  C  C51  1  0.65716000  0.28676000  0.88943000  1.0
  C  C52  1  0.45144000  0.23089000  0.24228000  1.0
  C  C53  1  0.54862000  0.76904000  0.75764000  1.0
  C  C54  1  0.38693000  0.32786000  0.30926000  1.0
  C  C55  1  0.61314000  0.67210000  0.69064000  1.0
  C  C56  1  0.65422000  0.22718000  0.31598000  1.0
  C  C57  1  0.34588000  0.77277000  0.68393000  1.0
  C  C58  1  0.50869000  0.41224000  0.42905000  1.0
  C  C59  1  0.49137000  0.58775000  0.57083000  1.0
  C  C60  1  0.64016000  0.44392000  0.44476000  1.0
  C  C61  1  0.35993000  0.55603000  0.55511000  1.0
  C  C62  1  0.36860000  0.46871000  0.48466000  1.0
  C  C63  1  0.63144000  0.53126000  0.51521000  1.0
  N  N64  1  0.61797000  0.16870000  0.24770000  1.0
  N  N65  1  0.38213000  0.83122000  0.75224000  1.0
  N  N66  1  0.51672000  0.32552000  0.35609000  1.0
  N  N67  1  0.48338000  0.67445000  0.64380000  1.0
  O  O68  1  0.58940000  0.94556000  0.13810000  1.0
  O  O69  1  0.41055000  0.05444000  0.86200000  1.0
  O  O70  1  0.73139000  0.80496000  0.27038000  1.0
  O  O71  1  0.26861000  0.19492000  0.72963000  1.0
  O  O72  1  0.78341000  0.54068000  0.07312000  1.0
  O  O73  1  0.21655000  0.45929000  0.92700000  1.0
  O  O74  1  0.60489000  0.76284000  0.98246000  1.0
  O  O75  1  0.39523000  0.23715000  0.01765000  1.0
  O  O76  1  0.22516000  0.85169000  0.95155000  1.0
  O  O77  1  0.77480000  0.14852000  0.04848000  1.0
  O  O78  1  0.28810000  0.98479000  0.04554000  1.0
  O  O79  1  0.71206000  0.01527000  0.95450000  1.0
  O  O80  1  0.00089000  0.80647000  0.14348000  1.0
  O  O81  1  0.99921000  0.19353000  0.85655000  1.0
  O  O82  1  0.00047000  0.96278000  0.24086000  1.0
  O  O83  1  0.99957000  0.03717000  0.75912000  1.0
  O  O84  1  0.03476000  0.26585000  0.05314000  1.0
  O  O85  1  0.96515000  0.73412000  0.94693000  1.0
  O  O86  1  0.10080000  0.50264000  0.13081000  1.0
  O  O87  1  0.89912000  0.49737000  0.86932000  1.0
