# generated using pymatgen
data_AgH10C16S2N4O2F3
_symmetry_space_group_name_H-M   'P 1'
_cell_length_a   8.12277000
_cell_length_b   9.57177000
_cell_length_c   12.89160000
_cell_angle_alpha   71.73570000
_cell_angle_beta   82.74380000
_cell_angle_gamma   72.18950000
_symmetry_Int_Tables_number   1
_chemical_formula_structural   AgH10C16S2N4O2F3
_chemical_formula_sum   'Ag2 H20 C32 S4 N8 O4 F6'
_cell_volume   905.68573777
_cell_formula_units_Z   2
loop_
 _symmetry_equiv_pos_site_id
 _symmetry_equiv_pos_as_xyz
  1  'x, y, z'
loop_
 _atom_site_type_symbol
 _atom_site_label
 _atom_site_symmetry_multiplicity
 _atom_site_fract_x
 _atom_site_fract_y
 _atom_site_fract_z
 _atom_site_occupancy
  Ag  Ag0  1  0.35316000  0.58666000  0.92601000  1.0
  Ag  Ag1  1  0.64683000  0.41334000  0.07399000  1.0
  H  H2  1  0.17723000  0.40190000  0.15506000  1.0
  H  H3  1  0.82277000  0.59810000  0.84494000  1.0
  H  H4  1  0.05564000  0.14594000  0.97530000  1.0
  H  H5  1  0.94436000  0.85406000  0.02471000  1.0
  H  H6  1  0.23030000  0.34890000  0.83872000  1.0
  H  H7  1  0.76970000  0.65109000  0.16128000  1.0
  H  H8  1  0.09711000  0.93472000  0.18387000  1.0
  H  H9  1  0.90288000  0.06528000  0.81613000  1.0
  H  H10  1  0.90585000  0.87222000  0.36310000  1.0
  H  H11  1  0.09414000  0.12778000  0.63690000  1.0
  H  H12  1  0.60425000  0.36067000  0.43270000  1.0
  H  H13  1  0.39575000  0.63933000  0.56730000  1.0
  H  H14  1  0.44992000  0.28625000  0.62711000  1.0
  H  H15  1  0.55009000  0.71374000  0.37289000  1.0
  H  H16  1  0.51270000  0.76443000  0.70202000  1.0
  H  H17  1  0.48730000  0.23556000  0.29798000  1.0
  H  H18  1  0.38834000  0.88759000  0.99477000  1.0
  H  H19  1  0.61166000  0.11240000  0.00523000  1.0
  H  H20  1  0.51057000  0.11712000  0.83712000  1.0
  H  H21  1  0.48943000  0.88287000  0.16288000  1.0
  C  C22  1  0.16806000  0.36335000  0.08610000  1.0
  C  C23  1  0.83194000  0.63665000  0.91390000  1.0
  C  C24  1  0.10907000  0.22758000  0.99109000  1.0
  C  C25  1  0.89094000  0.77242000  0.00891000  1.0
  C  C26  1  0.19236000  0.32961000  0.92450000  1.0
  C  C27  1  0.80764000  0.67039000  0.07550000  1.0
  C  C28  1  0.01617000  0.17256000  0.18892000  1.0
  C  C29  1  0.98383000  0.82744000  0.81108000  1.0
  C  C30  1  0.02022000  0.02017000  0.22372000  1.0
  C  C31  1  0.97978000  0.97983000  0.77628000  1.0
  C  C32  1  0.91999000  0.98617000  0.32148000  1.0
  C  C33  1  0.08001000  0.01383000  0.67852000  1.0
  C  C34  1  0.84191000  0.11157000  0.36036000  1.0
  C  C35  1  0.15810000  0.88843000  0.63964000  1.0
  C  C36  1  0.73517000  0.11791000  0.45796000  1.0
  C  C37  1  0.26483000  0.88210000  0.54204000  1.0
  C  C38  1  0.62614000  0.24395000  0.48684000  1.0
  C  C39  1  0.37386000  0.75605000  0.51316000  1.0
  C  C40  1  0.54107000  0.20418000  0.59003000  1.0
  C  C41  1  0.45894000  0.79582000  0.40997000  1.0
  C  C42  1  0.58593000  0.04784000  0.63792000  1.0
  C  C43  1  0.41407000  0.95216000  0.36208000  1.0
  C  C44  1  0.49388000  0.82837000  0.76074000  1.0
  C  C45  1  0.50613000  0.17163000  0.23926000  1.0
  C  C46  1  0.42978000  0.89966000  0.90985000  1.0
  C  C47  1  0.57022000  0.10033000  0.09014000  1.0
  C  C48  1  0.48678000  0.01312000  0.83345000  1.0
  C  C49  1  0.51322000  0.98688000  0.16655000  1.0
  C  C50  1  0.65766000  0.38407000  0.77064000  1.0
  C  C51  1  0.34234000  0.61594000  0.22936000  1.0
  C  C52  1  0.80979000  0.42765000  0.69067000  1.0
  C  C53  1  0.19021000  0.57236000  0.30933000  1.0
  S  S54  1  0.88991000  0.27484000  0.27432000  1.0
  S  S55  1  0.11009000  0.72516000  0.72568000  1.0
  S  S56  1  0.73325000  0.94873000  0.55893000  1.0
  S  S57  1  0.26676000  0.05127000  0.44107000  1.0
  N  N58  1  0.22754000  0.41346000  0.98470000  1.0
  N  N59  1  0.77246000  0.58654000  0.01530000  1.0
  N  N60  1  0.09553000  0.24913000  0.09400000  1.0
  N  N61  1  0.90447000  0.75087000  0.90600000  1.0
  N  N62  1  0.52653000  0.96662000  0.73896000  1.0
  N  N63  1  0.47348000  0.03337000  0.26104000  1.0
  N  N64  1  0.43571000  0.78585000  0.86342000  1.0
  N  N65  1  0.56429000  0.21415000  0.13657000  1.0
  O  O66  1  0.69730000  0.25618000  0.84192000  1.0
  O  O67  1  0.30269000  0.74383000  0.15807000  1.0
  O  O68  1  0.51430000  0.48478000  0.75025000  1.0
  O  O69  1  0.48570000  0.51523000  0.24974000  1.0
  F  F70  1  0.97115000  0.33891000  0.72594000  1.0
  F  F71  1  0.02885000  0.66110000  0.27406000  1.0
  F  F72  1  0.79723000  0.41525000  0.58938000  1.0
  F  F73  1  0.20277000  0.58476000  0.41062000  1.0
  F  F74  1  0.80920000  0.57677000  0.67537000  1.0
  F  F75  1  0.19081000  0.42324000  0.32462000  1.0
