# generated using pymatgen
data_AgH12C14(NO2)3
_symmetry_space_group_name_H-M   'P 1'
_cell_length_a   8.11377000
_cell_length_b   11.49340000
_cell_length_c   15.64310000
_cell_angle_alpha   95.20830000
_cell_angle_beta   102.11200000
_cell_angle_gamma   91.35410000
_symmetry_Int_Tables_number   1
_chemical_formula_structural   AgH12C14(NO2)3
_chemical_formula_sum   'Ag4 H48 C56 N12 O24'
_cell_volume   1419.06646165
_cell_formula_units_Z   4
loop_
 _symmetry_equiv_pos_site_id
 _symmetry_equiv_pos_as_xyz
  1  'x, y, z'
loop_
 _atom_site_type_symbol
 _atom_site_label
 _atom_site_symmetry_multiplicity
 _atom_site_fract_x
 _atom_site_fract_y
 _atom_site_fract_z
 _atom_site_occupancy
  Ag  Ag0  1  0.86127000  0.22668000  0.02186000  1.0
  Ag  Ag1  1  0.13873000  0.77332000  0.97814000  1.0
  Ag  Ag2  1  0.50282000  0.04906000  0.10274000  1.0
  Ag  Ag3  1  0.49718000  0.95094000  0.89726000  1.0
  H  H4  1  0.12583000  0.23344000  0.14785000  1.0
  H  H5  1  0.87417000  0.76656000  0.85215000  1.0
  H  H6  1  0.79637000  0.08195000  0.21089000  1.0
  H  H7  1  0.20363000  0.91805000  0.78911000  1.0
  H  H8  1  0.76579000  0.47019000  0.01475000  1.0
  H  H9  1  0.23421000  0.52981000  0.98525000  1.0
  H  H10  1  0.85786000  0.67515000  0.07887000  1.0
  H  H11  1  0.14214000  0.32485000  0.92113000  1.0
  H  H12  1  0.12476000  0.70385000  0.19767000  1.0
  H  H13  1  0.87524000  0.29615000  0.80233000  1.0
  H  H14  1  0.27064000  0.53024000  0.25314000  1.0
  H  H15  1  0.72936000  0.46976000  0.74686000  1.0
  H  H16  1  0.51912000  0.22853000  0.39463000  1.0
  H  H17  1  0.48088000  0.77147000  0.60537000  1.0
  H  H18  1  0.60810000  0.02723000  0.42705000  1.0
  H  H19  1  0.39190000  0.97277000  0.57295000  1.0
  H  H20  1  0.24182000  0.88105000  0.20167000  1.0
  H  H21  1  0.75818000  0.11895000  0.79832000  1.0
  H  H22  1  0.14789000  0.07388000  0.16995000  1.0
  H  H23  1  0.85211000  0.92612000  0.83005000  1.0
  H  H24  1  0.72221000  0.72312000  0.50532000  1.0
  H  H25  1  0.27779000  0.27688000  0.49468000  1.0
  H  H26  1  0.70499000  0.66418000  0.39342000  1.0
  H  H27  1  0.29501000  0.33581000  0.60658000  1.0
  H  H28  1  0.52617000  0.65310000  0.44328000  1.0
  H  H29  1  0.47383000  0.34690000  0.55673000  1.0
  H  H30  1  0.41599000  0.29644000  0.06852000  1.0
  H  H31  1  0.58401000  0.70356000  0.93148000  1.0
  H  H32  1  0.48163000  0.50517000  0.13273000  1.0
  H  H33  1  0.51837000  0.49483000  0.86727000  1.0
  H  H34  1  0.71876000  0.54555000  0.26496000  1.0
  H  H35  1  0.28124000  0.45445000  0.73504000  1.0
  H  H36  1  0.88556000  0.38060000  0.32411000  1.0
  H  H37  1  0.11444000  0.61940000  0.67589000  1.0
  H  H38  1  0.17544000  0.07536000  0.45941000  1.0
  H  H39  1  0.82456000  0.92464000  0.54059000  1.0
  H  H40  1  0.24741000  0.87107000  0.49292000  1.0
  H  H41  1  0.75259000  0.12892000  0.50708000  1.0
  H  H42  1  0.84735000  0.73392000  0.28004000  1.0
  H  H43  1  0.15265000  0.26608000  0.71996000  1.0
  H  H44  1  0.77526000  0.93073000  0.24530000  1.0
  H  H45  1  0.22474000  0.06927000  0.75470000  1.0
  H  H46  1  0.38416000  0.56281000  0.55228000  1.0
  H  H47  1  0.61584000  0.43719000  0.44772000  1.0
  H  H48  1  0.16330000  0.52056000  0.53244000  1.0
  H  H49  1  0.83670000  0.47944000  0.46756000  1.0
  H  H50  1  0.27902000  0.48678000  0.44780000  1.0
  H  H51  1  0.72098000  0.51322000  0.55220000  1.0
  C  C52  1  0.87614000  0.48819000  0.06801000  1.0
  C  C53  1  0.12385000  0.51181000  0.93199000  1.0
  C  C54  1  0.92904000  0.60148000  0.10310000  1.0
  C  C55  1  0.07096000  0.39852000  0.89690000  1.0
  C  C56  1  0.07438000  0.61694000  0.16960000  1.0
  C  C57  1  0.92562000  0.38306000  0.83040000  1.0
  C  C58  1  0.15803000  0.52033000  0.20118000  1.0
  C  C59  1  0.84197000  0.47967000  0.79882000  1.0
  C  C60  1  0.09353000  0.40855000  0.16417000  1.0
  C  C61  1  0.90647000  0.59145000  0.83583000  1.0
  C  C62  1  0.27877000  0.29052000  0.26840000  1.0
  C  C63  1  0.72122000  0.70948000  0.73160000  1.0
  C  C64  1  0.32814000  0.16722000  0.28076000  1.0
  C  C65  1  0.67186000  0.83278000  0.71924000  1.0
  C  C66  1  0.45875000  0.15169000  0.35295000  1.0
  C  C67  1  0.54125000  0.84831000  0.64705000  1.0
  C  C68  1  0.50907000  0.04028000  0.37077000  1.0
  C  C69  1  0.49093000  0.95972000  0.62923000  1.0
  C  C70  1  0.43142000  0.94167000  0.31683000  1.0
  C  C71  1  0.56858000  0.05833000  0.68317000  1.0
  C  C72  1  0.30388000  0.95672000  0.24380000  1.0
  C  C73  1  0.69612000  0.04328000  0.75620000  1.0
  C  C74  1  0.25199000  0.06841000  0.22601000  1.0
  C  C75  1  0.74801000  0.93159000  0.77399000  1.0
  C  C76  1  0.47803000  0.82105000  0.33694000  1.0
  C  C77  1  0.52197000  0.17895000  0.66306000  1.0
  C  C78  1  0.63772000  0.70697000  0.44065000  1.0
  C  C79  1  0.36228000  0.29303000  0.55936000  1.0
  C  C80  1  0.51838000  0.31940000  0.12524000  1.0
  C  C81  1  0.48161000  0.68060000  0.87476000  1.0
  C  C82  1  0.55361000  0.43434000  0.16135000  1.0
  C  C83  1  0.44639000  0.56567000  0.83865000  1.0
  C  C84  1  0.68560000  0.45673000  0.23472000  1.0
  C  C85  1  0.31440000  0.54327000  0.76528000  1.0
  C  C86  1  0.77933000  0.36553000  0.26866000  1.0
  C  C87  1  0.22067000  0.63447000  0.73134000  1.0
  C  C88  1  0.73564000  0.25176000  0.22833000  1.0
  C  C89  1  0.26436000  0.74824000  0.77167000  1.0
  C  C90  1  0.92968000  0.14165000  0.33502000  1.0
  C  C91  1  0.07031000  0.85835000  0.66498000  1.0
  C  C92  1  0.97261000  0.01822000  0.34985000  1.0
  C  C93  1  0.02739000  0.98178000  0.65015000  1.0
  C  C94  1  0.10550000  0.00004000  0.41996000  1.0
  C  C95  1  0.89450000  0.99996000  0.58004000  1.0
  C  C96  1  0.14570000  0.88708000  0.43871000  1.0
  C  C97  1  0.85429000  0.11292000  0.56129000  1.0
  C  C98  1  0.05299000  0.79048000  0.38921000  1.0
  C  C99  1  0.94701000  0.20952000  0.61079000  1.0
  C  C100  1  0.92070000  0.80830000  0.31893000  1.0
  C  C101  1  0.07930000  0.19170000  0.68107000  1.0
  C  C102  1  0.88133000  0.92121000  0.29940000  1.0
  C  C103  1  0.11867000  0.07879000  0.70059000  1.0
  C  C104  1  0.08622000  0.66960000  0.41280000  1.0
  C  C105  1  0.91378000  0.33040000  0.58720000  1.0
  C  C106  1  0.26616000  0.54979000  0.50280000  1.0
  C  C107  1  0.73384000  0.45021000  0.49720000  1.0
  N  N108  1  0.95645000  0.39327000  0.09704000  1.0
  N  N109  1  0.04355000  0.60674000  0.90296000  1.0
  N  N110  1  0.16489000  0.30537000  0.19142000  1.0
  N  N111  1  0.83511000  0.69463000  0.80858000  1.0
  N  N112  1  0.60528000  0.22876000  0.15811000  1.0
  N  N113  1  0.39472000  0.77124000  0.84189000  1.0
  N  N114  1  0.82126000  0.15386000  0.25580000  1.0
  N  N115  1  0.17874000  0.84614000  0.74420000  1.0
  N  N116  1  0.12952000  0.07072000  0.95529000  1.0
  N  N117  1  0.87048000  0.92929000  0.04471000  1.0
  N  N118  1  0.51064000  0.22318000  0.90722000  1.0
  N  N119  1  0.48936000  0.77682000  0.09278000  1.0
  O  O120  1  0.33781000  0.37228000  0.32414000  1.0
  O  O121  1  0.66219000  0.62772000  0.67587000  1.0
  O  O122  1  0.42347000  0.73209000  0.28907000  1.0
  O  O123  1  0.57653000  0.26791000  0.71093000  1.0
  O  O124  1  0.58661000  0.82095000  0.41541000  1.0
  O  O125  1  0.41339000  0.17905000  0.58459000  1.0
  O  O126  1  0.98509000  0.22467000  0.39038000  1.0
  O  O127  1  0.01491000  0.77533000  0.60962000  1.0
  O  O128  1  0.99025000  0.58457000  0.38292000  1.0
  O  O129  1  0.00975000  0.41543000  0.61708000  1.0
  O  O130  1  0.23228000  0.66384000  0.47187000  1.0
  O  O131  1  0.76772000  0.33616000  0.52813000  1.0
  O  O132  1  0.98008000  0.10010000  0.92480000  1.0
  O  O133  1  0.01992000  0.89990000  0.07520000  1.0
  O  O134  1  0.22067000  0.12996000  0.02112000  1.0
  O  O135  1  0.77933000  0.87004000  0.97888000  1.0
  O  O136  1  0.18397000  0.98056000  0.91881000  1.0
  O  O137  1  0.81603000  0.01944000  0.08119000  1.0
  O  O138  1  0.60049000  0.13542000  0.93755000  1.0
  O  O139  1  0.39951000  0.86458000  0.06245000  1.0
  O  O140  1  0.57669000  0.32390000  0.92923000  1.0
  O  O141  1  0.42331000  0.67610000  0.07077000  1.0
  O  O142  1  0.36770000  0.20221000  0.86015000  1.0
  O  O143  1  0.63230000  0.79779000  0.13985000  1.0
