# generated using pymatgen
data_NaH2C2N4OF3
_symmetry_space_group_name_H-M   'P 1'
_cell_length_a   7.17308000
_cell_length_b   9.46365000
_cell_length_c   10.11630000
_cell_angle_alpha   102.23500000
_cell_angle_beta   110.75600000
_cell_angle_gamma   90.01020000
_symmetry_Int_Tables_number   1
_chemical_formula_structural   NaH2C2N4OF3
_chemical_formula_sum   'Na4 H8 C8 N16 O4 F12'
_cell_volume   625.44136877
_cell_formula_units_Z   4
loop_
 _symmetry_equiv_pos_site_id
 _symmetry_equiv_pos_as_xyz
  1  'x, y, z'
loop_
 _atom_site_type_symbol
 _atom_site_label
 _atom_site_symmetry_multiplicity
 _atom_site_fract_x
 _atom_site_fract_y
 _atom_site_fract_z
 _atom_site_occupancy
  Na  Na0  1  0.00000000  0.00000000  0.50000000  1.0
  Na  Na1  1  0.50000000  0.00000000  0.50000000  1.0
  Na  Na2  1  0.45117000  0.17304000  0.90253000  1.0
  Na  Na3  1  0.54883000  0.82696000  0.09747000  1.0
  H  H4  1  0.30835000  0.25641000  0.61665000  1.0
  H  H5  1  0.69165000  0.74359000  0.38335000  1.0
  H  H6  1  0.22334000  0.21867000  0.44668000  1.0
  H  H7  1  0.77666000  0.78133000  0.55332000  1.0
  H  H8  1  0.29107000  0.44410000  0.79317000  1.0
  H  H9  1  0.49790000  0.55592000  0.20683000  1.0
  H  H10  1  0.70893000  0.55590000  0.20683000  1.0
  H  H11  1  0.50210000  0.44408000  0.79317000  1.0
  C  C12  1  0.30536000  0.71612000  0.61096000  1.0
  C  C13  1  0.69464000  0.28388000  0.38904000  1.0
  C  C14  1  0.23369000  0.61107000  0.46738000  1.0
  C  C15  1  0.76631000  0.38893000  0.53262000  1.0
  C  C16  1  0.96719000  0.21490000  0.93475000  1.0
  C  C17  1  0.03281000  0.78510000  0.06525000  1.0
  C  C18  1  0.04160000  0.31006000  0.08338000  1.0
  C  C19  1  0.95840000  0.68994000  0.91662000  1.0
  N  N20  1  0.31235000  0.86081000  0.62481000  1.0
  N  N21  1  0.68765000  0.13919000  0.37519000  1.0
  N  N22  1  0.38458000  0.91444000  0.76916000  1.0
  N  N23  1  0.61542000  0.08556000  0.23084000  1.0
  N  N24  1  0.41831000  0.80621000  0.83665000  1.0
  N  N25  1  0.58169000  0.19379000  0.16335000  1.0
  N  N26  1  0.36944000  0.67853000  0.73905000  1.0
  N  N27  1  0.63056000  0.32147000  0.26095000  1.0
  N  N28  1  0.08556000  0.16745000  0.86036000  1.0
  N  N29  1  0.22553000  0.83259000  0.13968000  1.0
  N  N30  1  0.91444000  0.83255000  0.13964000  1.0
  N  N31  1  0.77447000  0.16741000  0.86032000  1.0
  N  N32  1  0.95927000  0.08755000  0.73386000  1.0
  N  N33  1  0.22562000  0.91247000  0.26617000  1.0
  N  N34  1  0.04072000  0.91245000  0.26614000  1.0
  N  N35  1  0.77438000  0.08753000  0.73383000  1.0
  O  O36  1  0.26512000  0.17439000  0.52997000  1.0
  O  O37  1  0.73488000  0.82561000  0.47003000  1.0
  O  O38  1  0.39666000  0.37889000  0.79337000  1.0
  O  O39  1  0.60334000  0.62111000  0.20663000  1.0
  F  F40  1  0.34569000  0.62772000  0.38604000  1.0
  F  F41  1  0.95958000  0.37229000  0.61406000  1.0
  F  F42  1  0.65431000  0.37228000  0.61396000  1.0
  F  F43  1  0.04042000  0.62771000  0.38594000  1.0
  F  F44  1  0.24062000  0.47090000  0.48124000  1.0
  F  F45  1  0.75938000  0.52910000  0.51876000  1.0
  F  F46  1  0.90016000  0.39794000  0.10660000  1.0
  F  F47  1  0.79353000  0.60228000  0.89350000  1.0
  F  F48  1  0.09984000  0.60206000  0.89340000  1.0
  F  F49  1  0.20647000  0.39772000  0.10649000  1.0
  F  F50  1  0.09484000  0.23273000  0.19003000  1.0
  F  F51  1  0.90517000  0.76727000  0.80997000  1.0
