# generated using pymatgen
data_Zn4H42C36N8O17
_symmetry_space_group_name_H-M   'P 1'
_cell_length_a   9.54538000
_cell_length_b   14.01365917
_cell_length_c   18.65220000
_cell_angle_alpha   88.75153332
_cell_angle_beta   89.99250000
_cell_angle_gamma   70.09223317
_symmetry_Int_Tables_number   1
_chemical_formula_structural   Zn4H42C36N8O17
_chemical_formula_sum   'Zn8 H84 C72 N16 O34'
_cell_volume   2345.29949844
_cell_formula_units_Z   2
loop_
 _symmetry_equiv_pos_site_id
 _symmetry_equiv_pos_as_xyz
  1  'x, y, z'
loop_
 _atom_site_type_symbol
 _atom_site_label
 _atom_site_symmetry_multiplicity
 _atom_site_fract_x
 _atom_site_fract_y
 _atom_site_fract_z
 _atom_site_occupancy
  Zn  Zn0  1  0.28553000  0.42425000  0.95071000  1.0
  Zn  Zn1  1  0.29029000  0.42421000  0.45066000  1.0
  Zn  Zn2  1  0.49168000  0.17073000  0.90019000  1.0
  Zn  Zn3  1  0.33792000  0.17071000  0.40023000  1.0
  Zn  Zn4  1  0.79202000  0.93383000  0.94609000  1.0
  Zn  Zn5  1  0.27435000  0.93390000  0.44604000  1.0
  Zn  Zn6  1  0.08468000  0.69061000  0.98696000  1.0
  Zn  Zn7  1  0.22452000  0.69071000  0.48682000  1.0
  H  H8  1  0.51898000  0.43072000  0.86610000  1.0
  H  H9  1  0.05054000  0.43066000  0.36595000  1.0
  H  H10  1  0.67943000  0.46297000  0.91725000  1.0
  H  H11  1  0.85832000  0.46271000  0.41720000  1.0
  H  H12  1  0.22633000  0.43214000  0.82046000  1.0
  H  H13  1  0.34212000  0.43205000  0.32051000  1.0
  H  H14  1  0.09965000  0.54177000  0.85410000  1.0
  H  H15  1  0.35911000  0.54173000  0.35409000  1.0
  H  H16  1  0.62948000  0.90690000  0.82837000  1.0
  H  H17  1  0.46368000  0.90701000  0.32822000  1.0
  H  H18  1  0.87397000  0.54183000  0.90977000  1.0
  H  H19  1  0.58497000  0.54181000  0.40966000  1.0
  H  H20  1  0.47851000  0.79149000  0.51931000  1.0
  H  H21  1  0.72966000  0.79156000  0.01929000  1.0
  H  H22  1  0.54359000  0.87901000  0.47970000  1.0
  H  H23  1  0.57731000  0.87916000  0.97958000  1.0
  H  H24  1  0.16278000  0.27968000  0.80144000  1.0
  H  H25  1  0.55787000  0.27957000  0.30161000  1.0
  H  H26  1  0.09185000  0.95390000  0.56486000  1.0
  H  H27  1  0.95460000  0.95386000  0.06485000  1.0
  H  H28  1  0.96214000  0.20426000  0.80345000  1.0
  H  H29  1  0.83388000  0.20399000  0.30354000  1.0
  H  H30  1  0.85740000  0.07692000  0.87322000  1.0
  H  H31  1  0.06577000  0.07694000  0.37329000  1.0
  H  H32  1  0.00922000  0.98696000  0.91140000  1.0
  H  H33  1  0.00391000  0.98699000  0.41156000  1.0
  H  H34  1  0.05251000  0.43644000  0.04587000  1.0
  H  H35  1  0.51055000  0.43644000  0.54579000  1.0
  H  H36  1  0.30013000  0.55403000  0.14398000  1.0
  H  H37  1  0.14504000  0.55433000  0.64386000  1.0
  H  H38  1  0.40601000  0.46044000  0.20098000  1.0
  H  H39  1  0.13284000  0.46082000  0.70097000  1.0
  H  H40  1  0.00907000  0.18368000  0.97827000  1.0
  H  H41  1  0.80746000  0.18362000  0.47831000  1.0
  H  H42  1  0.01037000  0.24988000  0.05866000  1.0
  H  H43  1  0.73984000  0.24986000  0.55870000  1.0
  H  H44  1  0.13545000  0.12198000  0.04797000  1.0
  H  H45  1  0.74265000  0.12195000  0.54799000  1.0
  H  H46  1  0.52233000  0.11806000  0.65595000  1.0
  H  H47  1  0.35954000  0.11848000  0.15574000  1.0
  H  H48  1  0.52563000  0.03809000  0.53739000  1.0
  H  H49  1  0.43627000  0.03838000  0.03720000  1.0
  H  H50  1  0.42222000  0.79293000  0.64159000  1.0
  H  H51  1  0.78430000  0.79305000  0.14153000  1.0
  H  H52  1  0.42186000  0.87196000  0.75988000  1.0
  H  H53  1  0.70550000  0.87218000  0.25978000  1.0
  H  H54  1  0.42864000  0.40956000  0.07104000  1.0
  H  H55  1  0.16158000  0.40974000  0.57100000  1.0
  H  H56  1  0.50551000  0.30683000  0.02510000  1.0
  H  H57  1  0.18810000  0.30685000  0.52517000  1.0
  H  H58  1  0.70935000  0.25691000  0.10687000  1.0
  H  H59  1  0.03396000  0.25723000  0.60657000  1.0
  H  H60  1  0.84497000  0.13548000  0.13041000  1.0
  H  H61  1  0.01960000  0.13588000  0.63020000  1.0
  H  H62  1  0.65380000  0.16275000  0.15204000  1.0
  H  H63  1  0.18335000  0.16323000  0.65202000  1.0
  H  H64  1  0.85905000  0.98636000  0.63408000  1.0
  H  H65  1  0.15471000  0.98630000  0.13419000  1.0
  H  H66  1  0.78883000  0.07001000  0.75162000  1.0
  H  H67  1  0.14122000  0.06993000  0.25171000  1.0
  H  H68  1  0.14428000  0.82832000  0.85459000  1.0
  H  H69  1  0.02706000  0.82838000  0.35468000  1.0
  H  H70  1  0.21314000  0.74422000  0.73694000  1.0
  H  H71  1  0.04241000  0.74427000  0.23705000  1.0
  H  H72  1  0.93833000  0.63893000  0.75433000  1.0
  H  H73  1  0.42239000  0.63924000  0.25411000  1.0
  H  H74  1  0.80959000  0.76442000  0.73843000  1.0
  H  H75  1  0.42557000  0.76477000  0.23831000  1.0
  H  H76  1  0.75038000  0.67222000  0.78327000  1.0
  H  H77  1  0.57712000  0.67251000  0.28297000  1.0
  H  H78  1  0.90295000  0.43590000  0.15185000  1.0
  H  H79  1  0.66066000  0.43585000  0.65176000  1.0
  H  H80  1  0.68180000  0.40151000  0.19765000  1.0
  H  H81  1  0.91613000  0.40159000  0.69760000  1.0
  H  H82  1  0.39674000  0.64840000  0.06598000  1.0
  H  H83  1  0.95437000  0.64833000  0.56575000  1.0
  H  H84  1  0.61820000  0.68281000  0.02039000  1.0
  H  H85  1  0.69853000  0.68266000  0.52016000  1.0
  H  H86  1  0.43810000  0.74712000  0.85192000  1.0
  H  H87  1  0.81473000  0.74697000  0.35176000  1.0
  H  H88  1  0.50504000  0.62636000  0.80857000  1.0
  H  H89  1  0.86861000  0.62614000  0.30851000  1.0
  H  H90  1  0.58427000  0.64400000  0.89097000  1.0
  H  H91  1  0.77173000  0.64386000  0.39092000  1.0
  C  C92  1  0.80383000  0.33035000  0.85707000  1.0
  C  C93  1  0.86634000  0.33011000  0.35709000  1.0
  C  C94  1  0.78159000  0.42500000  0.88810000  1.0
  C  C95  1  0.79400000  0.42480000  0.38807000  1.0
  C  C96  1  0.89094000  0.46911000  0.88498000  1.0
  C  C97  1  0.64058000  0.46901000  0.38493000  1.0
  C  C98  1  0.02778000  0.41860000  0.85222000  1.0
  C  C99  1  0.55415000  0.41852000  0.35225000  1.0
  C  C100  1  0.05402000  0.32201000  0.82379000  1.0
  C  C101  1  0.62444000  0.32185000  0.32389000  1.0
  C  C102  1  0.94222000  0.27886000  0.82606000  1.0
  C  C103  1  0.77935000  0.27863000  0.32613000  1.0
  C  C104  1  0.68379000  0.28614000  0.85949000  1.0
  C  C105  1  0.03054000  0.28598000  0.35950000  1.0
  C  C106  1  0.19633000  0.23379000  0.98665000  1.0
  C  C107  1  0.57008000  0.23373000  0.48664000  1.0
  C  C108  1  0.08052000  0.19565000  0.02088000  1.0
  C  C109  1  0.72398000  0.19562000  0.52090000  1.0
  C  C110  1  0.47549000  0.99907000  0.71561000  1.0
  C  C111  1  0.52507000  0.99936000  0.21546000  1.0
  C  C112  1  0.50249000  0.04610000  0.65244000  1.0
  C  C113  1  0.45124000  0.04644000  0.15227000  1.0
  C  C114  1  0.50516000  0.00132000  0.58653000  1.0
  C  C115  1  0.49335000  0.00160000  0.08637000  1.0
  C  C116  1  0.47672000  0.90960000  0.58270000  1.0
  C  C117  1  0.61337000  0.90979000  0.08258000  1.0
  C  C118  1  0.44657000  0.86325000  0.64535000  1.0
  C  C119  1  0.68970000  0.86342000  0.14526000  1.0
  C  C120  1  0.44715000  0.90749000  0.71130000  1.0
  C  C121  1  0.64485000  0.90772000  0.21118000  1.0
  C  C122  1  0.48388000  0.04498000  0.78523000  1.0
  C  C123  1  0.47089000  0.04520000  0.28510000  1.0
  C  C124  1  0.69966000  0.13395000  0.04121000  1.0
  C  C125  1  0.16701000  0.13407000  0.54119000  1.0
  C  C126  1  0.73062000  0.17495000  0.11172000  1.0
  C  C127  1  0.09463000  0.17528000  0.61159000  1.0
  C  C128  1  0.04360000  0.86108000  0.67757000  1.0
  C  C129  1  0.09527000  0.86105000  0.17766000  1.0
  C  C130  1  0.92376000  0.95281000  0.68214000  1.0
  C  C131  1  0.12346000  0.95276000  0.18223000  1.0
  C  C132  1  0.88371000  0.99975000  0.74767000  1.0
  C  C133  1  0.11652000  0.99971000  0.24776000  1.0
  C  C134  1  0.96506000  0.95578000  0.80976000  1.0
  C  C135  1  0.07906000  0.95579000  0.30986000  1.0
  C  C136  1  0.08428000  0.86364000  0.80571000  1.0
  C  C137  1  0.05187000  0.86368000  0.30581000  1.0
  C  C138  1  0.12163000  0.81635000  0.74031000  1.0
  C  C139  1  0.06187000  0.81637000  0.24042000  1.0
  C  C140  1  0.09458000  0.81424000  0.60773000  1.0
  C  C141  1  0.09112000  0.81417000  0.10783000  1.0
  C  C142  1  0.88392000  0.73290000  0.84836000  1.0
  C  C143  1  0.38316000  0.73300000  0.34825000  1.0
  C  C144  1  0.84464000  0.69981000  0.77659000  1.0
  C  C145  1  0.45527000  0.70008000  0.27639000  1.0
  C  C146  1  0.77681000  0.56030000  0.08098000  1.0
  C  C147  1  0.66245000  0.56022000  0.58086000  1.0
  C  C148  1  0.79265000  0.48137000  0.13147000  1.0
  C  C149  1  0.72548000  0.48133000  0.63137000  1.0
  C  C150  1  0.66816000  0.46211000  0.15769000  1.0
  C  C151  1  0.86918000  0.46215000  0.65761000  1.0
  C  C152  1  0.52470000  0.52114000  0.13332000  1.0
  C  C153  1  0.95359000  0.52120000  0.63320000  1.0
  C  C154  1  0.50790000  0.60172000  0.08420000  1.0
  C  C155  1  0.88988000  0.60166000  0.58399000  1.0
  C  C156  1  0.63234000  0.62059000  0.05883000  1.0
  C  C157  1  0.74661000  0.62048000  0.55861000  1.0
  C  C158  1  0.90242000  0.58567000  0.05094000  1.0
  C  C159  1  0.51143000  0.58566000  0.55090000  1.0
  C  C160  1  0.36861000  0.63012000  0.90245000  1.0
  C  C161  1  0.00128000  0.63008000  0.40231000  1.0
  C  C162  1  0.47964000  0.66453000  0.86012000  1.0
  C  C163  1  0.85583000  0.66439000  0.36003000  1.0
  N  N164  1  0.54641000  0.35306000  0.86261000  1.0
  N  N165  1  0.10087000  0.35299000  0.36252000  1.0
  N  N166  1  0.13899000  0.46320000  0.85392000  1.0
  N  N167  1  0.39837000  0.46316000  0.35394000  1.0
  N  N168  1  0.55856000  0.97986000  0.83673000  1.0
  N  N169  1  0.46161000  0.97997000  0.33659000  1.0
  N  N170  1  0.47031000  0.86689000  0.51549000  1.0
  N  N171  1  0.66260000  0.86699000  0.01542000  1.0
  N  N172  1  0.09782000  0.88043000  0.55576000  1.0
  N  N173  1  0.02200000  0.88035000  0.05581000  1.0
  N  N174  1  0.92129000  0.00053000  0.87694000  1.0
  N  N175  1  0.07818000  0.00056000  0.37703000  1.0
  N  N176  1  0.03525000  0.51308000  0.04560000  1.0
  N  N177  1  0.45118000  0.51308000  0.54552000  1.0
  N  N178  1  0.39929000  0.49667000  0.15268000  1.0
  N  N179  1  0.10340000  0.49690000  0.65262000  1.0
  O  O180  1  0.70567000  0.19109000  0.85965000  1.0
  O  O181  1  0.10382000  0.19094000  0.35979000  1.0
  O  O182  1  0.42606000  0.32321000  0.87620000  1.0
  O  O183  1  0.25104000  0.32326000  0.37616000  1.0
  O  O184  1  0.18384000  0.32633000  0.99710000  1.0
  O  O185  1  0.48986000  0.32622000  0.49716000  1.0
  O  O186  1  0.29575000  0.17137000  0.94971000  1.0
  O  O187  1  0.53330000  0.17132000  0.44960000  1.0
  O  O188  1  0.42856000  0.13979000  0.79583000  1.0
  O  O189  1  0.43139000  0.13999000  0.29576000  1.0
  O  O190  1  0.58215000  0.01531000  0.90233000  1.0
  O  O191  1  0.40292000  0.01525000  0.40229000  1.0
  O  O192  1  0.58209000  0.18614000  0.00673000  1.0
  O  O193  1  0.23287000  0.18609000  0.50683000  1.0
  O  O194  1  0.79082000  0.04933000  0.02114000  1.0
  O  O195  1  0.16029000  0.04951000  0.52109000  1.0
  O  O196  1  0.13662000  0.71924000  0.59716000  1.0
  O  O197  1  0.14373000  0.71913000  0.09732000  1.0
  O  O198  1  0.15137000  0.84818000  0.48894000  1.0
  O  O199  1  0.00063000  0.84808000  0.98900000  1.0
  O  O200  1  0.79253000  0.81470000  0.87311000  1.0
  O  O201  1  0.39279000  0.81478000  0.37303000  1.0
  O  O202  1  0.00264000  0.67704000  0.88011000  1.0
  O  O203  1  0.32053000  0.67703000  0.38005000  1.0
  O  O204  1  0.88495000  0.67618000  0.02916000  1.0
  O  O205  1  0.43839000  0.67620000  0.52921000  1.0
  O  O206  1  0.15139000  0.53607000  0.01501000  1.0
  O  O207  1  0.31203000  0.53612000  0.51494000  1.0
  O  O208  1  0.27892000  0.69540000  0.94203000  1.0
  O  O209  1  0.02563000  0.69545000  0.44184000  1.0
  O  O210  1  0.37444000  0.53845000  0.89607000  1.0
  O  O211  1  0.08719000  0.53844000  0.39594000  1.0
  O  O212  1  0.46162000  0.38313000  0.02288000  1.0
  O  O213  1  0.15519000  0.38317000  0.52287000  1.0
