# generated using pymatgen
data_ZnH9C12(NO2)2
_symmetry_space_group_name_H-M   'P 1'
_cell_length_a   10.40390000
_cell_length_b   10.40390000
_cell_length_c   11.18120000
_cell_angle_alpha   96.17960000
_cell_angle_beta   96.17960000
_cell_angle_gamma   100.60700000
_symmetry_Int_Tables_number   1
_chemical_formula_structural   ZnH9C12(NO2)2
_chemical_formula_sum   'Zn4 H36 C48 N8 O16'
_cell_volume   1172.57003663
_cell_formula_units_Z   4
loop_
 _symmetry_equiv_pos_site_id
 _symmetry_equiv_pos_as_xyz
  1  'x, y, z'
loop_
 _atom_site_type_symbol
 _atom_site_label
 _atom_site_symmetry_multiplicity
 _atom_site_fract_x
 _atom_site_fract_y
 _atom_site_fract_z
 _atom_site_occupancy
  Zn  Zn0  1  0.15350000  0.42733000  0.18406000  1.0
  Zn  Zn1  1  0.57267000  0.84650000  0.31594000  1.0
  Zn  Zn2  1  0.84650000  0.57267000  0.81594000  1.0
  Zn  Zn3  1  0.42733000  0.15350000  0.68406000  1.0
  H  H4  1  0.90340000  0.44953000  0.32248000  1.0
  H  H5  1  0.55047000  0.09660000  0.17752000  1.0
  H  H6  1  0.09660000  0.55047000  0.67752000  1.0
  H  H7  1  0.44953000  0.90341000  0.82248000  1.0
  H  H8  1  0.78156000  0.32262000  0.46931000  1.0
  H  H9  1  0.67738000  0.21844000  0.03069000  1.0
  H  H10  1  0.21844000  0.67738000  0.53069000  1.0
  H  H11  1  0.32262000  0.78157000  0.96931000  1.0
  H  H12  1  0.84377000  0.10935000  0.51447000  1.0
  H  H13  1  0.89066000  0.15623000  0.98553000  1.0
  H  H14  1  0.15623000  0.89065000  0.48553000  1.0
  H  H15  1  0.10934000  0.84377000  0.01447000  1.0
  H  H16  1  0.03698000  0.04091000  0.42153000  1.0
  H  H17  1  0.95909000  0.96302000  0.07847000  1.0
  H  H18  1  0.96302000  0.95908000  0.57847000  1.0
  H  H19  1  0.04091000  0.03698000  0.92153000  1.0
  H  H20  1  0.21599000  0.08678000  0.29014000  1.0
  H  H21  1  0.91322000  0.78401000  0.20986000  1.0
  H  H22  1  0.78401000  0.91322000  0.70985000  1.0
  H  H23  1  0.08678000  0.21599000  0.79014000  1.0
  H  H24  1  0.33136000  0.22565000  0.04549000  1.0
  H  H25  1  0.77435000  0.66864000  0.45451000  1.0
  H  H26  1  0.66864000  0.77435000  0.95451000  1.0
  H  H27  1  0.22565000  0.33136000  0.54549000  1.0
  H  H28  1  0.36090000  0.12099000  0.15834000  1.0
  H  H29  1  0.87901000  0.63910000  0.34166000  1.0
  H  H30  1  0.63910000  0.87901000  0.84166000  1.0
  H  H31  1  0.12099000  0.36090000  0.65834000  1.0
  H  H32  1  0.44372000  0.29580000  0.38584000  1.0
  H  H33  1  0.70420000  0.55628000  0.11416000  1.0
  H  H34  1  0.55628000  0.70420000  0.61416000  1.0
  H  H35  1  0.29580000  0.44372000  0.88583000  1.0
  H  H36  1  0.51943000  0.37676000  0.02617000  1.0
  H  H37  1  0.62324000  0.48057000  0.47383000  1.0
  H  H38  1  0.48057000  0.62324000  0.97383000  1.0
  H  H39  1  0.37676000  0.51943000  0.52617000  1.0
  C  C40  1  0.92990000  0.35930000  0.34909000  1.0
  C  C41  1  0.64070000  0.07009000  0.15091000  1.0
  C  C42  1  0.07010000  0.64070000  0.65091000  1.0
  C  C43  1  0.35930000  0.92991000  0.84910000  1.0
  C  C44  1  0.86172000  0.28725000  0.42937000  1.0
  C  C45  1  0.71275000  0.13829000  0.07063000  1.0
  C  C46  1  0.13829000  0.71275000  0.57063000  1.0
  C  C47  1  0.28725000  0.86172000  0.92937000  1.0
  C  C48  1  0.89862000  0.17023000  0.45599000  1.0
  C  C49  1  0.82977000  0.10138000  0.04401000  1.0
  C  C50  1  0.10138000  0.82977000  0.54401000  1.0
  C  C51  1  0.17023000  0.89862000  0.95599000  1.0
  C  C52  1  0.00345000  0.13095000  0.40356000  1.0
  C  C53  1  0.86905000  0.99655000  0.09644000  1.0
  C  C54  1  0.99655000  0.86905000  0.59644000  1.0
  C  C55  1  0.13095000  0.00345000  0.90356000  1.0
  C  C56  1  0.06735000  0.20939000  0.32560000  1.0
  C  C57  1  0.79062000  0.93264000  0.17439000  1.0
  C  C58  1  0.93265000  0.79061000  0.67439000  1.0
  C  C59  1  0.20938000  0.06735000  0.82561000  1.0
  C  C60  1  0.17887000  0.17483000  0.26769000  1.0
  C  C61  1  0.82517000  0.82112000  0.23231000  1.0
  C  C62  1  0.82112000  0.82517000  0.73231000  1.0
  C  C63  1  0.17483000  0.17888000  0.76769000  1.0
  C  C64  1  0.34778000  0.22131000  0.14360000  1.0
  C  C65  1  0.77869000  0.65222000  0.35640000  1.0
  C  C66  1  0.65222000  0.77869000  0.85640000  1.0
  C  C67  1  0.22131000  0.34778000  0.64360000  1.0
  C  C68  1  0.46701000  0.32544000  0.19907000  1.0
  C  C69  1  0.67456000  0.53299000  0.30093000  1.0
  C  C70  1  0.53299000  0.67456000  0.80093000  1.0
  C  C71  1  0.32544000  0.46701000  0.69907000  1.0
  C  C72  1  0.49902000  0.35305000  0.32521000  1.0
  C  C73  1  0.64695000  0.50098000  0.17480000  1.0
  C  C74  1  0.50098000  0.64695000  0.67480000  1.0
  C  C75  1  0.35305000  0.49902000  0.82520000  1.0
  C  C76  1  0.54251000  0.39897000  0.12445000  1.0
  C  C77  1  0.60103000  0.45749000  0.37555000  1.0
  C  C78  1  0.45749000  0.60103000  0.87555000  1.0
  C  C79  1  0.39897000  0.54251000  0.62445000  1.0
  C  C80  1  0.01151000  0.44039000  0.95575000  1.0
  C  C81  1  0.55961000  0.98849000  0.54425000  1.0
  C  C82  1  0.98849000  0.55961000  0.04425000  1.0
  C  C83  1  0.44039000  0.01151000  0.45575000  1.0
  C  C84  1  0.37194000  0.63983000  0.18199000  1.0
  C  C85  1  0.36017000  0.62806000  0.31800000  1.0
  C  C86  1  0.62806000  0.36017000  0.81801000  1.0
  C  C87  1  0.63983000  0.37194000  0.68199000  1.0
  N  N88  1  0.02976000  0.32142000  0.29858000  1.0
  N  N89  1  0.67858000  0.97024000  0.20142000  1.0
  N  N90  1  0.97024000  0.67858000  0.70142000  1.0
  N  N91  1  0.32142000  0.02976000  0.79858000  1.0
  N  N92  1  0.23242000  0.25033000  0.19584000  1.0
  N  N93  1  0.74967000  0.76759000  0.30416000  1.0
  N  N94  1  0.76758000  0.74967000  0.80416000  1.0
  N  N95  1  0.25033000  0.23242000  0.69584000  1.0
  O  O96  1  0.06434000  0.35375000  0.00274000  1.0
  O  O97  1  0.64625000  0.93566000  0.49726000  1.0
  O  O98  1  0.93566000  0.64625000  0.99726000  1.0
  O  O99  1  0.35375000  0.06434000  0.50274000  1.0
  O  O100  1  0.97568000  0.43764000  0.84348000  1.0
  O  O101  1  0.56236000  0.02432000  0.65652000  1.0
  O  O102  1  0.02432000  0.56236000  0.15652000  1.0
  O  O103  1  0.43764000  0.97568000  0.34348000  1.0
  O  O104  1  0.29525000  0.55485000  0.10424000  1.0
  O  O105  1  0.44515000  0.70475000  0.39576000  1.0
  O  O106  1  0.70475000  0.44515000  0.89576000  1.0
  O  O107  1  0.55485000  0.29525000  0.60424000  1.0
  O  O108  1  0.45740000  0.73428000  0.15827000  1.0
  O  O109  1  0.26572000  0.54260000  0.34173000  1.0
  O  O110  1  0.54260000  0.26572000  0.84173000  1.0
  O  O111  1  0.73428000  0.45740000  0.65827000  1.0
