# generated using pymatgen
data_Zn2H14C13N2O11
_symmetry_space_group_name_H-M   'P 1'
_cell_length_a   7.90950000
_cell_length_b   9.09079000
_cell_length_c   11.16690000
_cell_angle_alpha   86.35290000
_cell_angle_beta   80.89620000
_cell_angle_gamma   82.81490000
_symmetry_Int_Tables_number   1
_chemical_formula_structural   Zn2H14C13N2O11
_chemical_formula_sum   'Zn2 H14 C13 N2 O11'
_cell_volume   785.81276132
_cell_formula_units_Z   1
loop_
 _symmetry_equiv_pos_site_id
 _symmetry_equiv_pos_as_xyz
  1  'x, y, z'
loop_
 _atom_site_type_symbol
 _atom_site_label
 _atom_site_symmetry_multiplicity
 _atom_site_fract_x
 _atom_site_fract_y
 _atom_site_fract_z
 _atom_site_occupancy
  Zn  Zn0  1  0.68018000  0.47437000  0.46814000  1.0
  Zn  Zn1  1  0.31832000  0.49513000  0.49873000  1.0
  H  H2  1  0.59669000  0.50040000  0.86913000  1.0
  H  H3  1  0.25771000  0.43607000  0.13231000  1.0
  H  H4  1  0.14116000  0.30209000  0.00290000  1.0
  H  H5  1  0.09314000  0.45580000  0.90202000  1.0
  H  H6  1  0.21600000  0.29347000  0.84395000  1.0
  H  H7  1  0.74991000  0.45985000  0.11871000  1.0
  H  H8  1  0.22897000  0.92651000  0.38463000  1.0
  H  H9  1  0.20154000  0.00466000  0.52740000  1.0
  H  H10  1  0.27733000  0.11248000  0.39512000  1.0
  H  H11  1  0.82128000  0.05135000  0.46562000  1.0
  H  H12  1  0.08114000  0.32014000  0.67522000  1.0
  H  H13  1  0.88204000  0.31573000  0.61650000  1.0
  H  H14  1  0.08429000  0.22580000  0.54091000  1.0
  H  H15  1  0.85429000  0.71239000  0.41694000  1.0
  C  C16  1  0.49461000  0.77413000  0.45928000  1.0
  C  C17  1  0.59510000  0.02252000  0.45758000  1.0
  C  C18  1  0.50327000  0.47121000  0.25006000  1.0
  C  C19  1  0.57237000  0.18903000  0.46924000  1.0
  C  C20  1  0.47159000  0.46754000  0.71734000  1.0
  C  C21  1  0.35605000  0.42508000  0.94005000  1.0
  C  C22  1  0.47919000  0.46463000  0.84767000  1.0
  C  C23  1  0.37384000  0.43996000  0.06560000  1.0
  C  C24  1  0.51571000  0.45649000  0.11592000  1.0
  C  C25  1  0.46603000  0.93856000  0.44973000  1.0
  C  C26  1  0.19287000  0.36555000  0.92125000  1.0
  C  C27  1  0.28357000  0.00083000  0.43796000  1.0
  C  C28  1  0.02088000  0.32079000  0.59314000  1.0
  N  N29  1  0.06060000  0.45660000  0.52337000  1.0
  N  N30  1  0.93723000  0.52967000  0.48165000  1.0
  O  O31  1  0.64635000  0.70303000  0.43569000  1.0
  O  O32  1  0.35928000  0.71024000  0.49229000  1.0
  O  O33  1  0.64974000  0.46357000  0.28740000  1.0
  O  O34  1  0.35566000  0.49040000  0.31394000  1.0
  O  O35  1  0.71588000  0.24335000  0.46772000  1.0
  O  O36  1  0.42482000  0.26147000  0.48233000  1.0
  O  O37  1  0.61583000  0.48114000  0.64782000  1.0
  O  O38  1  0.32931000  0.46091000  0.67800000  1.0
  O  O39  1  0.67781000  0.45668000  0.05441000  1.0
  O  O40  1  0.76094000  0.96325000  0.46058000  1.0
  O  O41  1  0.97405000  0.65976000  0.42588000  1.0
