# generated using pymatgen
data_ZnH13C10N5O4
_symmetry_space_group_name_H-M   'P 1'
_cell_length_a   9.04860000
_cell_length_b   9.66198000
_cell_length_c   11.63370000
_cell_angle_alpha   67.70700000
_cell_angle_beta   89.99980000
_cell_angle_gamma   89.99990000
_symmetry_Int_Tables_number   1
_chemical_formula_structural   ZnH13C10N5O4
_chemical_formula_sum   'Zn2 H26 C20 N10 O8'
_cell_volume   941.08169963
_cell_formula_units_Z   2
loop_
 _symmetry_equiv_pos_site_id
 _symmetry_equiv_pos_as_xyz
  1  'x, y, z'
loop_
 _atom_site_type_symbol
 _atom_site_label
 _atom_site_symmetry_multiplicity
 _atom_site_fract_x
 _atom_site_fract_y
 _atom_site_fract_z
 _atom_site_occupancy
  Zn  Zn0  1  0.42910000  0.86117000  0.92542000  1.0
  Zn  Zn1  1  0.92910000  0.13883000  0.07458000  1.0
  H  H2  1  0.42943000  0.34611000  0.06674000  1.0
  H  H3  1  0.92943000  0.65389000  0.93326000  1.0
  H  H4  1  0.42697000  0.22586000  0.83133000  1.0
  H  H5  1  0.92697000  0.77414000  0.16867000  1.0
  H  H6  1  0.75468000  0.40873000  0.06527000  1.0
  H  H7  1  0.25468000  0.59127000  0.93473000  1.0
  H  H8  1  0.75003000  0.90372000  0.01333000  1.0
  H  H9  1  0.25004000  0.09628000  0.98667000  1.0
  H  H10  1  0.30973000  0.81959000  0.73811000  1.0
  H  H11  1  0.80973000  0.18041000  0.26190000  1.0
  H  H12  1  0.27095000  0.98749000  0.72763000  1.0
  H  H13  1  0.77096000  0.01250000  0.27237000  1.0
  H  H14  1  0.56117000  0.46919000  0.83531000  1.0
  H  H15  1  0.06116000  0.53081000  0.16469000  1.0
  H  H16  1  0.75704000  0.45862000  0.84844000  1.0
  H  H17  1  0.25704000  0.54138000  0.15156000  1.0
  H  H18  1  0.34333000  0.29274000  0.31211000  1.0
  H  H19  1  0.84333000  0.70726000  0.68789000  1.0
  H  H20  1  0.36130000  0.15294000  0.25036000  1.0
  H  H21  1  0.86130000  0.84705000  0.74964000  1.0
  H  H22  1  0.53871000  0.89301000  0.63721000  1.0
  H  H23  1  0.03871000  0.10699000  0.36279000  1.0
  H  H24  1  0.53417000  0.06063000  0.66432000  1.0
  H  H25  1  0.03417000  0.93937000  0.33567000  1.0
  H  H26  1  0.58287000  0.08577000  0.43108000  1.0
  H  H27  1  0.08288000  0.91424000  0.56892000  1.0
  C  C28  1  0.62899000  0.60972000  0.98340000  1.0
  C  C29  1  0.12899000  0.39028000  0.01660000  1.0
  C  C30  1  0.64164000  0.24848000  0.91607000  1.0
  C  C31  1  0.14164000  0.75152000  0.08393000  1.0
  C  C32  1  0.52770000  0.17778000  0.88117000  1.0
  C  C33  1  0.02770000  0.82223000  0.11882000  1.0
  C  C34  1  0.64837000  0.44070000  0.01745000  1.0
  C  C35  1  0.14837000  0.55930000  0.98255000  1.0
  C  C36  1  0.69247000  0.01022000  0.97668000  1.0
  C  C37  1  0.19247000  0.98979000  0.02332000  1.0
  C  C38  1  0.55397000  0.29617000  0.22403000  1.0
  C  C39  1  0.05397000  0.70383000  0.77597000  1.0
  C  C40  1  0.65328000  0.41009000  0.89594000  1.0
  C  C41  1  0.15327000  0.58992000  0.10406000  1.0
  C  C42  1  0.42171000  0.21183000  0.30027000  1.0
  C  C43  1  0.92171000  0.78816000  0.69973000  1.0
  C  C44  1  0.38479000  0.06103000  0.52092000  1.0
  C  C45  1  0.88480000  0.93897000  0.47908000  1.0
  C  C46  1  0.46426000  0.97910000  0.64440000  1.0
  C  C47  1  0.96426000  0.02090000  0.35560000  1.0
  N  N48  1  0.74587000  0.14014000  0.97735000  1.0
  N  N49  1  0.24587000  0.85986000  0.02265000  1.0
  N  N50  1  0.53382000  0.35372000  0.10069000  1.0
  N  N51  1  0.03382000  0.64628000  0.89931000  1.0
  N  N52  1  0.56050000  0.02710000  0.91988000  1.0
  N  N53  1  0.06050000  0.97290000  0.08012000  1.0
  N  N54  1  0.35757000  0.91339000  0.74555000  1.0
  N  N55  1  0.85757000  0.08661000  0.25445000  1.0
  N  N56  1  0.47276000  0.11179000  0.42101000  1.0
  N  N57  1  0.97276000  0.88821000  0.57899000  1.0
  O  O58  1  0.49429000  0.65233000  0.98522000  1.0
  O  O59  1  0.99429000  0.34767000  0.01478000  1.0
  O  O60  1  0.73938000  0.69403000  0.95285000  1.0
  O  O61  1  0.23938000  0.30597000  0.04715000  1.0
  O  O62  1  0.67200000  0.30619000  0.27672000  1.0
  O  O63  1  0.17200000  0.69381000  0.72328000  1.0
  O  O64  1  0.24842000  0.08297000  0.51749000  1.0
  O  O65  1  0.74844000  0.91701000  0.48251000  1.0
