# generated using pymatgen
data_CoH19C18N5O4
_symmetry_space_group_name_H-M   'P 1'
_cell_length_a   9.11180000
_cell_length_b   9.89574000
_cell_length_c   11.23650000
_cell_angle_alpha   73.60740000
_cell_angle_beta   81.96060000
_cell_angle_gamma   64.84160000
_symmetry_Int_Tables_number   1
_chemical_formula_structural   CoH19C18N5O4
_chemical_formula_sum   'Co2 H38 C36 N10 O8'
_cell_volume   879.55052051
_cell_formula_units_Z   2
loop_
 _symmetry_equiv_pos_site_id
 _symmetry_equiv_pos_as_xyz
  1  'x, y, z'
loop_
 _atom_site_type_symbol
 _atom_site_label
 _atom_site_symmetry_multiplicity
 _atom_site_fract_x
 _atom_site_fract_y
 _atom_site_fract_z
 _atom_site_occupancy
  Co  Co0  1  0.80788000  0.69684000  0.38997000  1.0
  Co  Co1  1  0.19211000  0.30319000  0.61008000  1.0
  H  H2  1  0.70143000  0.88737000  0.57518000  1.0
  H  H3  1  0.29856000  0.11266000  0.42485000  1.0
  H  H4  1  0.51491000  0.94064000  0.94036000  1.0
  H  H5  1  0.48506000  0.05938000  0.05966000  1.0
  H  H6  1  0.94583000  0.54329000  0.89770000  1.0
  H  H7  1  0.05413000  0.45672000  0.10234000  1.0
  H  H8  1  0.79674000  0.36255000  0.53732000  1.0
  H  H9  1  0.20322000  0.63746000  0.46262000  1.0
  H  H10  1  0.54687000  0.34563000  0.70767000  1.0
  H  H11  1  0.45314000  0.65438000  0.29232000  1.0
  H  H12  1  0.47575000  0.81227000  0.56030000  1.0
  H  H13  1  0.52425000  0.18775000  0.43965000  1.0
  H  H14  1  0.31300000  0.53247000  0.78808000  1.0
  H  H15  1  0.68702000  0.46753000  0.21190000  1.0
  H  H16  1  0.22492000  0.71901000  0.68852000  1.0
  H  H17  1  0.77509000  0.28102000  0.31147000  1.0
  H  H18  1  0.36085000  0.81996000  0.79080000  1.0
  H  H19  1  0.63916000  0.18004000  0.20921000  1.0
  H  H20  1  0.48470000  0.63393000  0.87519000  1.0
  H  H21  1  0.51531000  0.36607000  0.12481000  1.0
  H  H22  1  0.11349000  0.77222000  0.90687000  1.0
  H  H23  1  0.88652000  0.22777000  0.09313000  1.0
  H  H24  1  0.25539000  0.60365000  0.00245000  1.0
  H  H25  1  0.74462000  0.39635000  0.99754000  1.0
  H  H26  1  0.37116000  0.76752000  0.05950000  1.0
  H  H27  1  0.62884000  0.23248000  0.94050000  1.0
  H  H28  1  0.22826000  0.93407000  0.96256000  1.0
  H  H29  1  0.77173000  0.06593000  0.03745000  1.0
  H  H30  1  0.03315000  0.67231000  0.13137000  1.0
  H  H31  1  0.96690000  0.32765000  0.86864000  1.0
  H  H32  1  0.93992000  0.96354000  0.36722000  1.0
  H  H33  1  0.06010000  0.03640000  0.63281000  1.0
  H  H34  1  0.17117000  0.00716000  0.18730000  1.0
  H  H35  1  0.82879000  0.99286000  0.81271000  1.0
  H  H36  1  0.66778000  0.74836000  0.11938000  1.0
  H  H37  1  0.33223000  0.25161000  0.88066000  1.0
  H  H38  1  0.83573000  0.59075000  0.10433000  1.0
  H  H39  1  0.16426000  0.40925000  0.89566000  1.0
  C  C40  1  0.84053000  0.70819000  0.72825000  1.0
  C  C41  1  0.15948000  0.29183000  0.27178000  1.0
  C  C42  1  0.71267000  0.84658000  0.67534000  1.0
  C  C43  1  0.28735000  0.15344000  0.32468000  1.0
  C  C44  1  0.59670000  0.92882000  0.75313000  1.0
  C  C45  1  0.40329000  0.07119000  0.24689000  1.0
  C  C46  1  0.60861000  0.87617000  0.88182000  1.0
  C  C47  1  0.39137000  0.12385000  0.11818000  1.0
  C  C48  1  0.73342000  0.73504000  0.93685000  1.0
  C  C49  1  0.26655000  0.26498000  0.06317000  1.0
  C  C50  1  0.96029000  0.61503000  0.64519000  1.0
  C  C51  1  0.03971000  0.38498000  0.35483000  1.0
  C  C52  1  0.45077000  0.06831000  0.70003000  1.0
  C  C53  1  0.54923000  0.93167000  0.29995000  1.0
  C  C54  1  0.69255000  0.45311000  0.56680000  1.0
  C  C55  1  0.30744000  0.54690000  0.43317000  1.0
  C  C56  1  0.84962000  0.65356000  0.85737000  1.0
  C  C57  1  0.15038000  0.34646000  0.14265000  1.0
  C  C58  1  0.57374000  0.44260000  0.65408000  1.0
  C  C59  1  0.42625000  0.55741000  0.34589000  1.0
  C  C60  1  0.53038000  0.68793000  0.57426000  1.0
  C  C61  1  0.46962000  0.31208000  0.42570000  1.0
  C  C62  1  0.33321000  0.63685000  0.74255000  1.0
  C  C63  1  0.66680000  0.36317000  0.25743000  1.0
  C  C64  1  0.36230000  0.70591000  0.83803000  1.0
  C  C65  1  0.63771000  0.29409000  0.16197000  1.0
  C  C66  1  0.23624000  0.71965000  0.94438000  1.0
  C  C67  1  0.76377000  0.28034000  0.05562000  1.0
  C  C68  1  0.24868000  0.81841000  0.02176000  1.0
  C  C69  1  0.75133000  0.18158000  0.97824000  1.0
  C  C70  1  0.03568000  0.75914000  0.17046000  1.0
  C  C71  1  0.96433000  0.24084000  0.82955000  1.0
  C  C72  1  0.99218000  0.91091000  0.29021000  1.0
  C  C73  1  0.00784000  0.08906000  0.70980000  1.0
  C  C74  1  0.10573000  0.93418000  0.20196000  1.0
  C  C75  1  0.89427000  0.06580000  0.79805000  1.0
  N  N76  1  0.66447000  0.60649000  0.51743000  1.0
  N  N77  1  0.33552000  0.39352000  0.48254000  1.0
  N  N78  1  0.47209000  0.59226000  0.65775000  1.0
  N  N79  1  0.52791000  0.40775000  0.34222000  1.0
  N  N80  1  0.13143000  0.83747000  0.12593000  1.0
  N  N81  1  0.86858000  0.16252000  0.87407000  1.0
  N  N82  1  0.94944000  0.80128000  0.26968000  1.0
  N  N83  1  0.05058000  0.19869000  0.73033000  1.0
  N  N84  1  0.73342000  0.67634000  0.06304000  1.0
  N  N85  1  0.26656000  0.32365000  0.93697000  1.0
  O  O86  1  0.07429000  0.48749000  0.69514000  1.0
  O  O87  1  0.92574000  0.51251000  0.30487000  1.0
  O  O88  1  0.94310000  0.66855000  0.52835000  1.0
  O  O89  1  0.05690000  0.33142000  0.47167000  1.0
  O  O90  1  0.40139000  0.18883000  0.74120000  1.0
  O  O91  1  0.59856000  0.81117000  0.25875000  1.0
  O  O92  1  0.37407000  0.06399000  0.61576000  1.0
  O  O93  1  0.62595000  0.93598000  0.38420000  1.0
