# generated using pymatgen
data_CdH8C12(NO2)2
_symmetry_space_group_name_H-M   'P 1'
_cell_length_a   10.12430000
_cell_length_b   10.85880000
_cell_length_c   13.50240000
_cell_angle_alpha   89.99930000
_cell_angle_beta   89.99970000
_cell_angle_gamma   79.31200000
_symmetry_Int_Tables_number   1
_chemical_formula_structural   CdH8C12(NO2)2
_chemical_formula_sum   'Cd4 H32 C48 N8 O16'
_cell_volume   1458.67117830
_cell_formula_units_Z   4
loop_
 _symmetry_equiv_pos_site_id
 _symmetry_equiv_pos_as_xyz
  1  'x, y, z'
loop_
 _atom_site_type_symbol
 _atom_site_label
 _atom_site_symmetry_multiplicity
 _atom_site_fract_x
 _atom_site_fract_y
 _atom_site_fract_z
 _atom_site_occupancy
  Cd  Cd0  1  0.25533000  0.50789000  0.99555000  1.0
  Cd  Cd1  1  0.74467000  0.99212000  0.49554000  1.0
  Cd  Cd2  1  0.74467000  0.49212000  0.00445000  1.0
  Cd  Cd3  1  0.25532000  0.00789000  0.50446000  1.0
  H  H4  1  0.49467000  0.40456000  0.69141000  1.0
  H  H5  1  0.68922000  0.10850000  0.88313000  1.0
  H  H6  1  0.58186000  0.26854000  0.54651000  1.0
  H  H7  1  0.75871000  0.97947000  0.72982000  1.0
  H  H8  1  0.11610000  0.75735000  0.24448000  1.0
  H  H9  1  0.71200000  0.72367000  0.16803000  1.0
  H  H10  1  0.02186000  0.88497000  0.39347000  1.0
  H  H11  1  0.63287000  0.85708000  0.31728000  1.0
  H  H12  1  0.50532000  0.09544000  0.19142000  1.0
  H  H13  1  0.31078000  0.39151000  0.38313000  1.0
  H  H14  1  0.41815000  0.23145000  0.04651000  1.0
  H  H15  1  0.24130000  0.52054000  0.22981000  1.0
  H  H16  1  0.88390000  0.74261000  0.74445000  1.0
  H  H17  1  0.28799000  0.77632000  0.66802000  1.0
  H  H18  1  0.97813000  0.61501000  0.89346000  1.0
  H  H19  1  0.36713000  0.64294000  0.81729000  1.0
  H  H20  1  0.50534000  0.59545000  0.30859000  1.0
  H  H21  1  0.31078000  0.89150000  0.11686000  1.0
  H  H22  1  0.41814000  0.73148000  0.45349000  1.0
  H  H23  1  0.24129000  0.02054000  0.27017000  1.0
  H  H24  1  0.88391000  0.24262000  0.75555000  1.0
  H  H25  1  0.28800000  0.27632000  0.83198000  1.0
  H  H26  1  0.97814000  0.11501000  0.60655000  1.0
  H  H27  1  0.36714000  0.14292000  0.68273000  1.0
  H  H28  1  0.49466000  0.90455000  0.80858000  1.0
  H  H29  1  0.68921000  0.60850000  0.61686000  1.0
  H  H30  1  0.58186000  0.76854000  0.95348000  1.0
  H  H31  1  0.75871000  0.47947000  0.77017000  1.0
  H  H32  1  0.11610000  0.25736000  0.25554000  1.0
  H  H33  1  0.71200000  0.22367000  0.33197000  1.0
  H  H34  1  0.02187000  0.38497000  0.10654000  1.0
  H  H35  1  0.63287000  0.35707000  0.18271000  1.0
  C  C36  1  0.53527000  0.34455000  0.88945000  1.0
  C  C37  1  0.58526000  0.26656000  0.79902000  1.0
  C  C38  1  0.55512000  0.31166000  0.70287000  1.0
  C  C39  1  0.66105000  0.14571000  0.80956000  1.0
  C  C40  1  0.60207000  0.23609000  0.62233000  1.0
  C  C41  1  0.70030000  0.07435000  0.72526000  1.0
  C  C42  1  0.97415000  0.65464000  0.10560000  1.0
  C  C43  1  0.92049000  0.73260000  0.19476000  1.0
  C  C44  1  0.00853000  0.77807000  0.25890000  1.0
  C  C45  1  0.78282000  0.76069000  0.21504000  1.0
  C  C46  1  0.95706000  0.84971000  0.34014000  1.0
  C  C47  1  0.73899000  0.83275000  0.29792000  1.0
  C  C48  1  0.46474000  0.15546000  0.38946000  1.0
  C  C49  1  0.41473000  0.23345000  0.29902000  1.0
  C  C50  1  0.44487000  0.18834000  0.20288000  1.0
  C  C51  1  0.33895000  0.35429000  0.30956000  1.0
  C  C52  1  0.39793000  0.26391000  0.12233000  1.0
  C  C53  1  0.29970000  0.42565000  0.22526000  1.0
  C  C54  1  0.02585000  0.84536000  0.60560000  1.0
  C  C55  1  0.07952000  0.76739000  0.69475000  1.0
  C  C56  1  0.99147000  0.72191000  0.75888000  1.0
  C  C57  1  0.21717000  0.73931000  0.71503000  1.0
  C  C58  1  0.04294000  0.65028000  0.84013000  1.0
  C  C59  1  0.26100000  0.66725000  0.79792000  1.0
  C  C60  1  0.46474000  0.65546000  0.11055000  1.0
  C  C61  1  0.41474000  0.73346000  0.20097000  1.0
  C  C62  1  0.44488000  0.68836000  0.29712000  1.0
  C  C63  1  0.33895000  0.85430000  0.19043000  1.0
  C  C64  1  0.39793000  0.76393000  0.37766000  1.0
  C  C65  1  0.29969000  0.92566000  0.27473000  1.0
  C  C66  1  0.02585000  0.34536000  0.89440000  1.0
  C  C67  1  0.07952000  0.26739000  0.80526000  1.0
  C  C68  1  0.99148000  0.22192000  0.74113000  1.0
  C  C69  1  0.21718000  0.23931000  0.78498000  1.0
  C  C70  1  0.04295000  0.15028000  0.65988000  1.0
  C  C71  1  0.26101000  0.16724000  0.70210000  1.0
  C  C72  1  0.53525000  0.84454000  0.61054000  1.0
  C  C73  1  0.58526000  0.76655000  0.70097000  1.0
  C  C74  1  0.55511000  0.81165000  0.79711000  1.0
  C  C75  1  0.66104000  0.64571000  0.69043000  1.0
  C  C76  1  0.60207000  0.73608000  0.87766000  1.0
  C  C77  1  0.70031000  0.57435000  0.77473000  1.0
  C  C78  1  0.97416000  0.15464000  0.39441000  1.0
  C  C79  1  0.92048000  0.23260000  0.30524000  1.0
  C  C80  1  0.00853000  0.27807000  0.24111000  1.0
  C  C81  1  0.78282000  0.26069000  0.28497000  1.0
  C  C82  1  0.95706000  0.34971000  0.15986000  1.0
  C  C83  1  0.73900000  0.33275000  0.20209000  1.0
  N  N84  1  0.67190000  0.11869000  0.63297000  1.0
  N  N85  1  0.82435000  0.87639000  0.35917000  1.0
  N  N86  1  0.32810000  0.38132000  0.13296000  1.0
  N  N87  1  0.17564000  0.62361000  0.85917000  1.0
  N  N88  1  0.32809000  0.88133000  0.36702000  1.0
  N  N89  1  0.17566000  0.12360000  0.64084000  1.0
  N  N90  1  0.67191000  0.61868000  0.86702000  1.0
  N  N91  1  0.82436000  0.37639000  0.14083000  1.0
  O  O92  1  0.41639000  0.40710000  0.88193000  1.0
  O  O93  1  0.61301000  0.33815000  0.96327000  1.0
  O  O94  1  0.10107000  0.61870000  0.10402000  1.0
  O  O95  1  0.89077000  0.63381000  0.04064000  1.0
  O  O96  1  0.58361000  0.09292000  0.38194000  1.0
  O  O97  1  0.38700000  0.16186000  0.46327000  1.0
  O  O98  1  0.89893000  0.88130000  0.60401000  1.0
  O  O99  1  0.10924000  0.86619000  0.54063000  1.0
  O  O100  1  0.58361000  0.59291000  0.11806000  1.0
  O  O101  1  0.38700000  0.66186000  0.03673000  1.0
  O  O102  1  0.89893000  0.38130000  0.89599000  1.0
  O  O103  1  0.10923000  0.36620000  0.95937000  1.0
  O  O104  1  0.41637000  0.90707000  0.61805000  1.0
  O  O105  1  0.61300000  0.83815000  0.53673000  1.0
  O  O106  1  0.10108000  0.11870000  0.39599000  1.0
  O  O107  1  0.89077000  0.13381000  0.45937000  1.0
