# generated using pymatgen
data_SnH12C8SO2
_symmetry_space_group_name_H-M   'P 1'
_cell_length_a   9.96106000
_cell_length_b   13.59100000
_cell_length_c   13.59100000
_cell_angle_alpha   60.00000000
_cell_angle_beta   89.99980000
_cell_angle_gamma   90.00000000
_symmetry_Int_Tables_number   1
_chemical_formula_structural   SnH12C8SO2
_chemical_formula_sum   'Sn6 H72 C48 S6 O12'
_cell_volume   1593.45209930
_cell_formula_units_Z   6
loop_
 _symmetry_equiv_pos_site_id
 _symmetry_equiv_pos_as_xyz
  1  'x, y, z'
loop_
 _atom_site_type_symbol
 _atom_site_label
 _atom_site_symmetry_multiplicity
 _atom_site_fract_x
 _atom_site_fract_y
 _atom_site_fract_z
 _atom_site_occupancy
  Sn  Sn0  1  0.49374000  0.52180000  0.03873000  1.0
  Sn  Sn1  1  0.99373000  0.56053000  0.47819000  1.0
  Sn  Sn2  1  0.49373000  0.03872000  0.43947000  1.0
  Sn  Sn3  1  0.99373000  0.47820000  0.96127000  1.0
  Sn  Sn4  1  0.49373000  0.43947000  0.52181000  1.0
  Sn  Sn5  1  0.99373000  0.96128000  0.56053000  1.0
  H  H6  1  0.95117000  0.88458000  0.16626000  1.0
  H  H7  1  0.45118000  0.05083000  0.11543000  1.0
  H  H8  1  0.95118000  0.16626000  0.94916000  1.0
  H  H9  1  0.45118000  0.11542000  0.83375000  1.0
  H  H10  1  0.95117000  0.94917000  0.88457000  1.0
  H  H11  1  0.45117000  0.83374000  0.05084000  1.0
  H  H12  1  0.14832000  0.78938000  0.11475000  1.0
  H  H13  1  0.64832000  0.90412000  0.21062000  1.0
  H  H14  1  0.14832000  0.11475000  0.09587000  1.0
  H  H15  1  0.64832000  0.21062000  0.88525000  1.0
  H  H16  1  0.14832000  0.09587000  0.78938000  1.0
  H  H17  1  0.64832000  0.88526000  0.90412000  1.0
  H  H18  1  0.05687000  0.65685000  0.03924000  1.0
  H  H19  1  0.55686000  0.69609000  0.34314000  1.0
  H  H20  1  0.05687000  0.03924000  0.30391000  1.0
  H  H21  1  0.55687000  0.34314000  0.96077000  1.0
  H  H22  1  0.05687000  0.30391000  0.65685000  1.0
  H  H23  1  0.55686000  0.96076000  0.69609000  1.0
  H  H24  1  0.24986000  0.51790000  0.12849000  1.0
  H  H25  1  0.74986000  0.64640000  0.48210000  1.0
  H  H26  1  0.24987000  0.12850000  0.35360000  1.0
  H  H27  1  0.74986000  0.48210000  0.87151000  1.0
  H  H28  1  0.24986000  0.35360000  0.51790000  1.0
  H  H29  1  0.74986000  0.87150000  0.64640000  1.0
  H  H30  1  0.32709000  0.65297000  0.08273000  1.0
  H  H31  1  0.82709000  0.73569000  0.34703000  1.0
  H  H32  1  0.32709000  0.08272000  0.26431000  1.0
  H  H33  1  0.82709000  0.34703000  0.91728000  1.0
  H  H34  1  0.32709000  0.26430000  0.65298000  1.0
  H  H35  1  0.82709000  0.91728000  0.73569000  1.0
  H  H36  1  0.37512000  0.53270000  0.21439000  1.0
  H  H37  1  0.87511000  0.74709000  0.46730000  1.0
  H  H38  1  0.37512000  0.21439000  0.25291000  1.0
  H  H39  1  0.87512000  0.46730000  0.78561000  1.0
  H  H40  1  0.37512000  0.25291000  0.53270000  1.0
  H  H41  1  0.87511000  0.78561000  0.74709000  1.0
  H  H42  1  0.44569000  0.58034000  0.81783000  1.0
  H  H43  1  0.94569000  0.39817000  0.41966000  1.0
  H  H44  1  0.44569000  0.81782000  0.60184000  1.0
  H  H45  1  0.94568000  0.41966000  0.18217000  1.0
  H  H46  1  0.44569000  0.60183000  0.58034000  1.0
  H  H47  1  0.94568000  0.18217000  0.39817000  1.0
  H  H48  1  0.60898000  0.62930000  0.83010000  1.0
  H  H49  1  0.10898000  0.45940000  0.37070000  1.0
  H  H50  1  0.60899000  0.83010000  0.54060000  1.0
  H  H51  1  0.10898000  0.37070000  0.16990000  1.0
  H  H52  1  0.60898000  0.54060000  0.62930000  1.0
  H  H53  1  0.10898000  0.16990000  0.45940000  1.0
  H  H54  1  0.46290000  0.70512000  0.83003000  1.0
  H  H55  1  0.96291000  0.53515000  0.29489000  1.0
  H  H56  1  0.46291000  0.83003000  0.46485000  1.0
  H  H57  1  0.96290000  0.29489000  0.16996000  1.0
  H  H58  1  0.46291000  0.46485000  0.70511000  1.0
  H  H59  1  0.96290000  0.16996000  0.53515000  1.0
  H  H60  1  0.55086000  0.29316000  0.15380000  1.0
  H  H61  1  0.05085000  0.44696000  0.70684000  1.0
  H  H62  1  0.55085000  0.15380000  0.55304000  1.0
  H  H63  1  0.05086000  0.70685000  0.84620000  1.0
  H  H64  1  0.55086000  0.55304000  0.29316000  1.0
  H  H65  1  0.05086000  0.84620000  0.44695000  1.0
  H  H66  1  0.62577000  0.36277000  0.22219000  1.0
  H  H67  1  0.12576000  0.58496000  0.63724000  1.0
  H  H68  1  0.62577000  0.22220000  0.41504000  1.0
  H  H69  1  0.12577000  0.63724000  0.77780000  1.0
  H  H70  1  0.62577000  0.41504000  0.36277000  1.0
  H  H71  1  0.12577000  0.77781000  0.58495000  1.0
  H  H72  1  0.70250000  0.37284000  0.09928000  1.0
  H  H73  1  0.20249000  0.47211000  0.62717000  1.0
  H  H74  1  0.70249000  0.09928000  0.52788000  1.0
  H  H75  1  0.20250000  0.62716000  0.90073000  1.0
  H  H76  1  0.70250000  0.52789000  0.37283000  1.0
  H  H77  1  0.20250000  0.90072000  0.47212000  1.0
  C  C78  1  0.76532000  0.63212000  0.03651000  1.0
  C  C79  1  0.26531000  0.66863000  0.36788000  1.0
  C  C80  1  0.76532000  0.03652000  0.33135000  1.0
  C  C81  1  0.26532000  0.36788000  0.96349000  1.0
  C  C82  1  0.76532000  0.33137000  0.63212000  1.0
  C  C83  1  0.26531000  0.96349000  0.66864000  1.0
  C  C84  1  0.85462000  0.69916000  0.06690000  1.0
  C  C85  1  0.35461000  0.76605000  0.30085000  1.0
  C  C86  1  0.85461000  0.06690000  0.23394000  1.0
  C  C87  1  0.35462000  0.30084000  0.93311000  1.0
  C  C88  1  0.85461000  0.23395000  0.69915000  1.0
  C  C89  1  0.35461000  0.93310000  0.76606000  1.0
  C  C90  1  0.94117000  0.82554000  0.13475000  1.0
  C  C91  1  0.44117000  0.96029000  0.17447000  1.0
  C  C92  1  0.94117000  0.13475000  0.03971000  1.0
  C  C93  1  0.44117000  0.17446000  0.86525000  1.0
  C  C94  1  0.94117000  0.03971000  0.82553000  1.0
  C  C95  1  0.44116000  0.86524000  0.96029000  1.0
  C  C96  1  0.04267000  0.77553000  0.10601000  1.0
  C  C97  1  0.54266000  0.88154000  0.22447000  1.0
  C  C98  1  0.04267000  0.10601000  0.11846000  1.0
  C  C99  1  0.54267000  0.22447000  0.89399000  1.0
  C  C100  1  0.04267000  0.11846000  0.77553000  1.0
  C  C101  1  0.54266000  0.89399000  0.88154000  1.0
  C  C102  1  0.99346000  0.70420000  0.06606000  1.0
  C  C103  1  0.49345000  0.77026000  0.29579000  1.0
  C  C104  1  0.99345000  0.06606000  0.22974000  1.0
  C  C105  1  0.49346000  0.29580000  0.93394000  1.0
  C  C106  1  0.99346000  0.22974000  0.70420000  1.0
  C  C107  1  0.49345000  0.93395000  0.77025000  1.0
  C  C108  1  0.34316000  0.56100000  0.12714000  1.0
  C  C109  1  0.84316000  0.68814000  0.43900000  1.0
  C  C110  1  0.34317000  0.12714000  0.31186000  1.0
  C  C111  1  0.84316000  0.43900000  0.87286000  1.0
  C  C112  1  0.34317000  0.31186000  0.56100000  1.0
  C  C113  1  0.84316000  0.87286000  0.68814000  1.0
  C  C114  1  0.50375000  0.62056000  0.85655000  1.0
  C  C115  1  0.00375000  0.47711000  0.37944000  1.0
  C  C116  1  0.50375000  0.85655000  0.52289000  1.0
  C  C117  1  0.00375000  0.37945000  0.14344000  1.0
  C  C118  1  0.50375000  0.52289000  0.62056000  1.0
  C  C119  1  0.00375000  0.14345000  0.47711000  1.0
  C  C120  1  0.60627000  0.36843000  0.14009000  1.0
  C  C121  1  0.10626000  0.50852000  0.63157000  1.0
  C  C122  1  0.60626000  0.14009000  0.49148000  1.0
  C  C123  1  0.10627000  0.63157000  0.85991000  1.0
  C  C124  1  0.60627000  0.49148000  0.36843000  1.0
  C  C125  1  0.10627000  0.85991000  0.50852000  1.0
  S  S126  1  0.78629000  0.78334000  0.11615000  1.0
  S  S127  1  0.28629000  0.89949000  0.21666000  1.0
  S  S128  1  0.78629000  0.11615000  0.10051000  1.0
  S  S129  1  0.28629000  0.21666000  0.88385000  1.0
  S  S130  1  0.78629000  0.10051000  0.78334000  1.0
  S  S131  1  0.28629000  0.88385000  0.89949000  1.0
  O  O132  1  0.64078000  0.62996000  0.06433000  1.0
  O  O133  1  0.14078000  0.69429000  0.37005000  1.0
  O  O134  1  0.64078000  0.06434000  0.30571000  1.0
  O  O135  1  0.14078000  0.37004000  0.93567000  1.0
  O  O136  1  0.64078000  0.30571000  0.62995000  1.0
  O  O137  1  0.14078000  0.93566000  0.69429000  1.0
  O  O138  1  0.30988000  0.41821000  0.01367000  1.0
  O  O139  1  0.80987000  0.43188000  0.58179000  1.0
  O  O140  1  0.30987000  0.01367000  0.56812000  1.0
  O  O141  1  0.80987000  0.58179000  0.98633000  1.0
  O  O142  1  0.30987000  0.56811000  0.41822000  1.0
  O  O143  1  0.80987000  0.98633000  0.43188000  1.0
