# generated using pymatgen
data_MgPH8C3NO4
_symmetry_space_group_name_H-M   'P 1'
_cell_length_a   6.24305000
_cell_length_b   16.33330000
_cell_length_c   16.33240000
_cell_angle_alpha   118.39700000
_cell_angle_beta   97.31400000
_cell_angle_gamma   97.30900000
_symmetry_Int_Tables_number   1
_chemical_formula_structural   MgPH8C3NO4
_chemical_formula_sum   'Mg6 P6 H48 C18 N6 O24'
_cell_volume   1419.04951923
_cell_formula_units_Z   6
loop_
 _symmetry_equiv_pos_site_id
 _symmetry_equiv_pos_as_xyz
  1  'x, y, z'
loop_
 _atom_site_type_symbol
 _atom_site_label
 _atom_site_symmetry_multiplicity
 _atom_site_fract_x
 _atom_site_fract_y
 _atom_site_fract_z
 _atom_site_occupancy
  Mg  Mg0  1  0.03411000  0.32747000  0.58065000  1.0
  Mg  Mg1  1  0.70655000  0.25314000  0.67254000  1.0
  Mg  Mg2  1  0.45345000  0.41941000  0.74681000  1.0
  Mg  Mg3  1  0.96589000  0.67254000  0.41935000  1.0
  Mg  Mg4  1  0.29345000  0.74686000  0.32746000  1.0
  Mg  Mg5  1  0.54655000  0.58059000  0.25319000  1.0
  P  P6  1  0.53807000  0.33676000  0.53175000  1.0
  P  P7  1  0.20128000  0.19499000  0.66321000  1.0
  P  P8  1  0.00624000  0.46820000  0.80500000  1.0
  P  P9  1  0.46193000  0.66324000  0.46825000  1.0
  P  P10  1  0.79872000  0.80501000  0.33679000  1.0
  P  P11  1  0.99376000  0.53180000  0.19500000  1.0
  H  H12  1  0.63405000  0.48425000  0.52772000  1.0
  H  H13  1  0.14995000  0.04358000  0.51570000  1.0
  H  H14  1  0.10633000  0.47218000  0.95648000  1.0
  H  H15  1  0.36595000  0.51575000  0.47228000  1.0
  H  H16  1  0.85005000  0.95642000  0.48430000  1.0
  H  H17  1  0.89366000  0.52782000  0.04352000  1.0
  H  H18  1  0.74088000  0.49509000  0.63861000  1.0
  H  H19  1  0.24607000  0.14363000  0.50490000  1.0
  H  H20  1  0.10256000  0.36135000  0.85647000  1.0
  H  H21  1  0.25912000  0.50491000  0.36139000  1.0
  H  H22  1  0.75393000  0.85637000  0.49510000  1.0
  H  H23  1  0.89744000  0.63865000  0.14353000  1.0
  H  H24  1  0.79732000  0.33579000  0.39436000  1.0
  H  H25  1  0.46133000  0.05860000  0.66424000  1.0
  H  H26  1  0.40260000  0.60565000  0.94143000  1.0
  H  H27  1  0.20267000  0.66421000  0.60564000  1.0
  H  H28  1  0.53868000  0.94140000  0.33576000  1.0
  H  H29  1  0.59740000  0.39435000  0.05857000  1.0
  H  H30  1  0.08829000  0.37744000  0.42127000  1.0
  H  H31  1  0.71060000  0.04373000  0.62253000  1.0
  H  H32  1  0.66679000  0.57880000  0.95618000  1.0
  H  H33  1  0.91171000  0.62256000  0.57873000  1.0
  H  H34  1  0.28941000  0.95627000  0.37747000  1.0
  H  H35  1  0.33321000  0.42119000  0.04382000  1.0
  H  H36  1  0.26854000  0.51092000  0.58907000  1.0
  H  H37  1  0.75796000  0.07804000  0.48909000  1.0
  H  H38  1  0.67975000  0.41105000  0.92192000  1.0
  H  H39  1  0.73145000  0.48908000  0.41094000  1.0
  H  H40  1  0.24204000  0.92196000  0.51091000  1.0
  H  H41  1  0.32025000  0.58895000  0.07809000  1.0
  H  H42  1  0.09723000  0.55664000  0.67054000  1.0
  H  H43  1  0.54109000  0.11387000  0.44334000  1.0
  H  H44  1  0.42713000  0.32949000  0.88613000  1.0
  H  H45  1  0.90276000  0.44336000  0.32946000  1.0
  H  H46  1  0.45891000  0.88614000  0.55666000  1.0
  H  H47  1  0.57287000  0.67051000  0.11387000  1.0
  H  H48  1  0.18156000  0.23703000  0.42311000  1.0
  H  H49  1  0.94431000  0.18609000  0.76303000  1.0
  H  H50  1  0.75822000  0.57692000  0.81391000  1.0
  H  H51  1  0.81844000  0.76297000  0.57689000  1.0
  H  H52  1  0.05569000  0.81391000  0.23697000  1.0
  H  H53  1  0.24179000  0.42308000  0.18609000  1.0
  H  H54  1  0.91445000  0.19131000  0.38924000  1.0
  H  H55  1  0.72293000  0.19790000  0.80880000  1.0
  H  H56  1  0.52503000  0.61090000  0.80212000  1.0
  H  H57  1  0.08554000  0.80869000  0.61076000  1.0
  H  H58  1  0.27708000  0.80210000  0.19120000  1.0
  H  H59  1  0.47497000  0.38910000  0.19788000  1.0
  C  C60  1  0.71835000  0.44891000  0.56123000  1.0
  C  C61  1  0.26965000  0.11240000  0.55106000  1.0
  C  C62  1  0.15723000  0.43873000  0.88767000  1.0
  C  C63  1  0.28165000  0.55109000  0.43877000  1.0
  C  C64  1  0.73035000  0.88761000  0.44894000  1.0
  C  C65  1  0.84277000  0.56127000  0.11233000  1.0
  C  C66  1  0.93163000  0.39955000  0.43557000  1.0
  C  C67  1  0.53188000  0.03601000  0.60045000  1.0
  C  C68  1  0.49590000  0.56445000  0.96397000  1.0
  C  C69  1  0.06836000  0.60045000  0.56444000  1.0
  C  C70  1  0.46813000  0.96399000  0.39955000  1.0
  C  C71  1  0.50410000  0.43555000  0.03603000  1.0
  C  C72  1  0.10440000  0.52769000  0.59524000  1.0
  C  C73  1  0.57708000  0.06752000  0.47231000  1.0
  C  C74  1  0.50942000  0.40478000  0.93247000  1.0
  C  C75  1  0.89559000  0.47231000  0.40476000  1.0
  C  C76  1  0.42292000  0.93249000  0.52769000  1.0
  C  C77  1  0.49058000  0.59522000  0.06753000  1.0
  N  N78  1  0.93845000  0.43597000  0.53879000  1.0
  N  N79  1  0.50259000  0.10282000  0.56402000  1.0
  N  N80  1  0.39973000  0.46122000  0.89720000  1.0
  N  N81  1  0.06155000  0.56402000  0.46121000  1.0
  N  N82  1  0.49741000  0.89718000  0.43598000  1.0
  N  N83  1  0.60027000  0.53877000  0.10281000  1.0
  O  O84  1  0.42348000  0.27931000  0.42695000  1.0
  O  O85  1  0.14414000  0.14765000  0.72069000  1.0
  O  O86  1  0.99633000  0.57299000  0.85234000  1.0
  O  O87  1  0.57652000  0.72069000  0.57305000  1.0
  O  O88  1  0.85586000  0.85235000  0.27931000  1.0
  O  O89  1  0.00368000  0.42701000  0.14766000  1.0
  O  O90  1  0.37167000  0.36574000  0.59831000  1.0
  O  O91  1  0.00589000  0.23259000  0.63428000  1.0
  O  O92  1  0.77334000  0.40166000  0.76742000  1.0
  O  O93  1  0.62832000  0.63426000  0.40169000  1.0
  O  O94  1  0.99412000  0.76741000  0.36572000  1.0
  O  O95  1  0.22666000  0.59834000  0.23258000  1.0
  O  O96  1  0.69807000  0.28706000  0.56365000  1.0
  O  O97  1  0.41092000  0.27658000  0.71288000  1.0
  O  O98  1  0.13435000  0.43631000  0.72340000  1.0
  O  O99  1  0.30192000  0.71293000  0.43635000  1.0
  O  O100  1  0.58908000  0.72342000  0.28712000  1.0
  O  O101  1  0.86565000  0.56369000  0.27660000  1.0
  O  O102  1  0.03894000  0.22156000  0.44319000  1.0
  O  O103  1  0.81709000  0.22159000  0.77851000  1.0
  O  O104  1  0.59558000  0.55694000  0.77837000  1.0
  O  O105  1  0.96106000  0.77845000  0.55681000  1.0
  O  O106  1  0.18292000  0.77841000  0.22149000  1.0
  O  O107  1  0.40442000  0.44306000  0.22163000  1.0
