# generated using pymatgen
data_AlH8C16NO7F
_symmetry_space_group_name_H-M   'P 1'
_cell_length_a   6.65805000
_cell_length_b   22.76680000
_cell_length_c   23.55100000
_cell_angle_alpha   112.59700000
_cell_angle_beta   91.93000000
_cell_angle_gamma   91.65490000
_symmetry_Int_Tables_number   1
_chemical_formula_structural   AlH8C16NO7F
_chemical_formula_sum   'Al4 H32 C64 N4 O28 F4'
_cell_volume   3290.60308298
_cell_formula_units_Z   4
loop_
 _symmetry_equiv_pos_site_id
 _symmetry_equiv_pos_as_xyz
  1  'x, y, z'
loop_
 _atom_site_type_symbol
 _atom_site_label
 _atom_site_symmetry_multiplicity
 _atom_site_fract_x
 _atom_site_fract_y
 _atom_site_fract_z
 _atom_site_occupancy
  Al  Al0  1  0.14602000  0.49993000  0.49890000  1.0
  Al  Al1  1  0.64555000  0.49983000  0.49886000  1.0
  Al  Al2  1  0.66818000  0.00184000  0.00168000  1.0
  Al  Al3  1  0.16992000  0.00130000  0.00170000  1.0
  H  H4  1  0.60377000  0.91278000  0.12330000  1.0
  H  H5  1  0.60763000  0.84988000  0.18925000  1.0
  H  H6  1  0.23339000  0.88246000  0.09407000  1.0
  H  H7  1  0.21244000  0.82166000  0.26157000  1.0
  H  H8  1  0.19944000  0.75578000  0.32292000  1.0
  H  H9  1  0.60984000  0.68036000  0.24180000  1.0
  H  H10  1  0.62110000  0.74710000  0.18104000  1.0
  H  H11  1  0.58065000  0.68089000  0.33881000  1.0
  H  H12  1  0.57542000  0.61438000  0.40161000  1.0
  H  H13  1  0.20987000  0.59034000  0.38258000  1.0
  H  H14  1  0.21598000  0.65382000  0.31694000  1.0
  H  H15  1  0.19714000  0.61335000  0.68776000  1.0
  H  H16  1  0.57902000  0.80557000  0.70838000  1.0
  H  H17  1  0.23776000  0.70555000  0.78882000  1.0
  H  H18  1  0.64928000  0.32305000  0.35222000  1.0
  H  H19  1  0.05686000  0.37802000  0.31905000  1.0
  H  H20  1  0.78431000  0.22481000  0.27832000  1.0
  H  H21  1  0.74825000  0.13012000  0.17933000  1.0
  H  H22  1  0.09700000  0.11366000  0.90627000  1.0
  H  H23  1  0.08302000  0.17814000  0.84161000  1.0
  H  H24  1  0.71615000  0.15293000  0.81155000  1.0
  H  H25  1  0.72783000  0.09097000  0.87869000  1.0
  H  H26  1  0.69117000  0.25353000  0.81426000  1.0
  H  H27  1  0.68082000  0.31714000  0.74973000  1.0
  H  H28  1  0.08994000  0.17768000  0.74552000  1.0
  H  H29  1  0.30263000  0.24345000  0.58938000  1.0
  H  H30  1  0.48651000  0.47512000  0.68142000  1.0
  H  H31  1  0.47114000  0.41379000  0.74854000  1.0
  H  H32  1  0.40688000  0.58440000  0.53074000  1.0
  H  H33  1  0.88900000  0.42577000  0.50457000  1.0
  H  H34  1  0.40678000  0.91816000  0.96181000  1.0
  H  H35  1  0.93232000  0.08445000  0.03650000  1.0
  C  C36  1  0.37269000  0.41056000  0.40196000  1.0
  C  C37  1  0.40098000  0.43491000  0.56024000  1.0
  C  C38  1  0.92046000  0.59133000  0.59710000  1.0
  C  C39  1  0.89085000  0.56161000  0.43588000  1.0
  C  C40  1  0.74163000  0.89200000  0.13147000  1.0
  C  C41  1  0.74476000  0.85661000  0.16813000  1.0
  C  C42  1  0.92097000  0.82896000  0.17914000  1.0
  C  C43  1  0.09353000  0.84022000  0.15140000  1.0
  C  C44  1  0.09598000  0.87564000  0.11504000  1.0
  C  C45  1  0.91743000  0.90171000  0.10453000  1.0
  C  C46  1  0.08062000  0.79027000  0.25636000  1.0
  C  C47  1  0.07340000  0.75266000  0.29091000  1.0
  C  C48  1  0.90441000  0.71244000  0.28685000  1.0
  C  C49  1  0.74149000  0.71200000  0.24708000  1.0
  C  C50  1  0.74811000  0.74966000  0.21252000  1.0
  C  C51  1  0.91820000  0.78940000  0.21621000  1.0
  C  C52  1  0.71838000  0.65998000  0.34708000  1.0
  C  C53  1  0.71459000  0.62335000  0.38262000  1.0
  C  C54  1  0.89241000  0.59873000  0.39606000  1.0
  C  C55  1  0.07310000  0.61039000  0.37246000  1.0
  C  C56  1  0.07573000  0.64640000  0.33638000  1.0
  C  C57  1  0.89904000  0.67248000  0.32348000  1.0
  C  C58  1  0.93736000  0.64843000  0.65668000  1.0
  C  C59  1  0.88753000  0.86027000  0.83964000  1.0
  C  C60  1  0.70001000  0.80480000  0.74032000  1.0
  C  C61  1  0.73494000  0.85645000  0.79463000  1.0
  C  C62  1  0.00805000  0.80874000  0.82529000  1.0
  C  C63  1  0.98596000  0.75420000  0.76943000  1.0
  C  C64  1  0.82575000  0.75234000  0.72644000  1.0
  C  C65  1  0.80681000  0.69771000  0.67068000  1.0
  C  C66  1  0.09409000  0.65209000  0.70015000  1.0
  C  C67  1  0.11694000  0.70318000  0.75563000  1.0
  C  C68  1  0.35694000  0.35538000  0.34165000  1.0
  C  C69  1  0.44837000  0.14986000  0.15665000  1.0
  C  C70  1  0.64752000  0.21561000  0.24892000  1.0
  C  C71  1  0.62768000  0.16316000  0.19468000  1.0
  C  C72  1  0.29497000  0.19227000  0.17444000  1.0
  C  C73  1  0.31061000  0.24816000  0.22904000  1.0
  C  C74  1  0.49196000  0.25946000  0.26764000  1.0
  C  C75  1  0.51190000  0.31407000  0.32313000  1.0
  C  C76  1  0.17794000  0.34512000  0.30432000  1.0
  C  C77  1  0.16025000  0.29391000  0.24920000  1.0
  C  C78  1  0.23143000  0.12311000  0.88544000  1.0
  C  C79  1  0.22458000  0.15843000  0.84873000  1.0
  C  C80  1  0.39932000  0.17085000  0.82246000  1.0
  C  C81  1  0.58079000  0.14594000  0.83349000  1.0
  C  C82  1  0.58840000  0.11094000  0.87052000  1.0
  C  C83  1  0.41389000  0.09968000  0.89711000  1.0
  C  C84  1  0.55631000  0.25070000  0.78555000  1.0
  C  C85  1  0.54927000  0.28789000  0.75054000  1.0
  C  C86  1  0.37786000  0.28749000  0.71407000  1.0
  C  C87  1  0.21371000  0.24770000  0.71519000  1.0
  C  C88  1  0.22060000  0.20882000  0.74853000  1.0
  C  C89  1  0.39264000  0.20998000  0.78501000  1.0
  C  C90  1  0.34002000  0.29435000  0.61105000  1.0
  C  C91  1  0.35005000  0.32942000  0.57413000  1.0
  C  C92  1  0.40038000  0.39481000  0.59824000  1.0
  C  C93  1  0.44565000  0.42429000  0.66157000  1.0
  C  C94  1  0.43753000  0.38974000  0.69915000  1.0
  C  C95  1  0.38232000  0.32453000  0.67448000  1.0
  C  C96  1  0.42107000  0.06365000  0.93819000  1.0
  C  C97  1  0.43320000  0.09171000  0.09881000  1.0
  C  C98  1  0.91498000  0.93826000  0.06384000  1.0
  C  C99  1  0.90469000  0.91426000  0.90165000  1.0
  N  N100  1  0.64477000  0.69594000  0.62546000  1.0
  N  N101  1  0.61784000  0.91310000  0.80312000  1.0
  N  N102  1  0.01905000  0.24820000  0.68346000  1.0
  N  N103  1  0.31239000  0.29494000  0.50721000  1.0
  O  O104  1  0.57220000  0.45463000  0.55115000  1.0
  O  O105  1  0.20794000  0.43474000  0.42345000  1.0
  O  O106  1  0.06075000  0.54997000  0.45499000  1.0
  O  O107  1  0.22968000  0.44847000  0.54458000  1.0
  O  O108  1  0.08616000  0.56757000  0.57685000  1.0
  O  O109  1  0.54688000  0.42901000  0.42775000  1.0
  O  O110  1  0.40097000  0.53842000  0.50985000  1.0
  O  O111  1  0.74485000  0.57232000  0.57321000  1.0
  O  O112  1  0.72041000  0.54455000  0.44904000  1.0
  O  O113  1  0.89149000  0.46238000  0.49311000  1.0
  O  O114  1  0.26003000  0.06544000  0.07881000  1.0
  O  O115  1  0.59231000  0.04629000  0.95009000  1.0
  O  O116  1  0.73987000  0.93043000  0.92783000  1.0
  O  O117  1  0.59816000  0.07224000  0.07357000  1.0
  O  O118  1  0.74493000  0.95668000  0.05245000  1.0
  O  O119  1  0.25495000  0.05411000  0.95935000  1.0
  O  O120  1  0.41439000  0.96204000  0.99091000  1.0
  O  O121  1  0.08190000  0.94715000  0.04267000  1.0
  O  O122  1  0.07939000  0.93683000  0.92267000  1.0
  O  O123  1  0.92401000  0.03936000  0.01078000  1.0
  O  O124  1  0.69512000  0.70135000  0.57768000  1.0
  O  O125  1  0.46969000  0.69065000  0.63978000  1.0
  O  O126  1  0.71620000  0.96425000  0.81896000  1.0
  O  O127  1  0.43410000  0.90501000  0.79158000  1.0
  O  O128  1  0.96742000  0.29999000  0.68275000  1.0
  O  O129  1  0.91566000  0.19773000  0.66153000  1.0
  O  O130  1  0.36715000  0.32233000  0.47340000  1.0
  O  O131  1  0.23098000  0.24087000  0.48874000  1.0
  F  F132  1  0.15289000  0.80759000  0.86663000  1.0
  F  F133  1  0.99075000  0.28711000  0.21289000  1.0
  F  F134  1  0.12418000  0.18153000  0.13816000  1.0
  F  F135  1  0.26942000  0.81317000  0.15846000  1.0
