# generated using pymatgen
data_CuH18PtC18(N3O)2
_symmetry_space_group_name_H-M   'P 1'
_cell_length_a   8.16291000
_cell_length_b   8.31845000
_cell_length_c   8.92898000
_cell_angle_alpha   116.29900000
_cell_angle_beta   107.64300000
_cell_angle_gamma   95.87910000
_symmetry_Int_Tables_number   1
_chemical_formula_structural   CuH18PtC18(N3O)2
_chemical_formula_sum   'Cu1 H18 Pt1 C18 N6 O2'
_cell_volume   497.70005409
_cell_formula_units_Z   1
loop_
 _symmetry_equiv_pos_site_id
 _symmetry_equiv_pos_as_xyz
  1  'x, y, z'
loop_
 _atom_site_type_symbol
 _atom_site_label
 _atom_site_symmetry_multiplicity
 _atom_site_fract_x
 _atom_site_fract_y
 _atom_site_fract_z
 _atom_site_occupancy
  Cu  Cu0  1  0.50000000  0.00000000  0.50000000  1.0
  H  H1  1  0.20311000  0.66771000  0.39922000  1.0
  H  H2  1  0.79689000  0.33229000  0.60079000  1.0
  H  H3  1  0.13529000  0.77007000  0.65847000  1.0
  H  H4  1  0.86471000  0.22993000  0.34153000  1.0
  H  H5  1  0.05954000  0.89495000  0.54557000  1.0
  H  H6  1  0.94046000  0.10505000  0.45443000  1.0
  H  H7  1  0.24850000  0.08282000  0.89302000  1.0
  H  H8  1  0.75150000  0.91718000  0.10698000  1.0
  H  H9  1  0.43490000  0.02523000  0.83971000  1.0
  H  H10  1  0.56509000  0.97477000  0.16029000  1.0
  H  H11  1  0.20138000  0.36352000  0.93781000  1.0
  H  H12  1  0.79862000  0.63648000  0.06219000  1.0
  H  H13  1  0.24736000  0.64005000  0.89835000  1.0
  H  H14  1  0.75264000  0.35996000  0.10165000  1.0
  H  H15  1  0.40427000  0.63869000  0.69229000  1.0
  H  H16  1  0.59573000  0.36131000  0.30771000  1.0
  H  H17  1  0.50375000  0.35744000  0.53847000  1.0
  H  H18  1  0.49625000  0.64256000  0.46153000  1.0
  Pt  Pt19  1  0.00000000  0.00000000  0.00000000  1.0
  C  C20  1  0.07600000  0.27572000  0.15144000  1.0
  C  C21  1  0.92400000  0.72428000  0.84856000  1.0
  C  C22  1  0.20094000  0.98410000  0.17791000  1.0
  C  C23  1  0.79906000  0.01590000  0.82209000  1.0
  C  C24  1  0.18049000  0.86874000  0.61828000  1.0
  C  C25  1  0.81951000  0.13126000  0.38172000  1.0
  C  C26  1  0.30473000  0.05001000  0.78883000  1.0
  C  C27  1  0.69527000  0.94999000  0.21117000  1.0
  C  C28  1  0.33074000  0.21561000  0.76251000  1.0
  C  C29  1  0.66926000  0.78438000  0.23749000  1.0
  C  C30  1  0.26867000  0.36745000  0.85064000  1.0
  C  C31  1  0.73133000  0.63256000  0.14936000  1.0
  C  C32  1  0.29507000  0.52220000  0.82866000  1.0
  C  C33  1  0.70493000  0.47780000  0.17134000  1.0
  C  C34  1  0.38154000  0.52219000  0.71599000  1.0
  C  C35  1  0.61846000  0.47782000  0.28401000  1.0
  C  C36  1  0.43728000  0.36646000  0.62956000  1.0
  C  C37  1  0.56271000  0.63353000  0.37044000  1.0
  N  N38  1  0.11809000  0.43886000  0.23720000  1.0
  N  N39  1  0.88192000  0.56115000  0.76281000  1.0
  N  N40  1  0.32115000  0.97628000  0.28383000  1.0
  N  N41  1  0.67885000  0.02372000  0.71617000  1.0
  N  N42  1  0.41380000  0.21778000  0.65281000  1.0
  N  N43  1  0.58620000  0.78222000  0.34719000  1.0
  O  O44  1  0.27637000  0.79342000  0.50633000  1.0
  O  O45  1  0.72364000  0.20658000  0.49368000  1.0
