# generated using pymatgen
data_AlH2C6IO5
_symmetry_space_group_name_H-M   'P 1'
_cell_length_a   6.70041000
_cell_length_b   14.46010000
_cell_length_c   17.10500000
_cell_angle_alpha   93.25920000
_cell_angle_beta   90.59930000
_cell_angle_gamma   90.41750000
_symmetry_Int_Tables_number   1
_chemical_formula_structural   AlH2C6IO5
_chemical_formula_sum   'Al4 H8 C24 I4 O20'
_cell_volume   1654.45685093
_cell_formula_units_Z   4
loop_
 _symmetry_equiv_pos_site_id
 _symmetry_equiv_pos_as_xyz
  1  'x, y, z'
loop_
 _atom_site_type_symbol
 _atom_site_label
 _atom_site_symmetry_multiplicity
 _atom_site_fract_x
 _atom_site_fract_y
 _atom_site_fract_z
 _atom_site_occupancy
  Al  Al0  1  0.89197000  0.49617000  0.49797000  1.0
  Al  Al1  1  0.39138000  0.50006000  0.49980000  1.0
  Al  Al2  1  0.37160000  0.00101000  0.00207000  1.0
  Al  Al3  1  0.87155000  0.99735000  0.99946000  1.0
  H  H4  1  0.97759000  0.77514000  0.81720000  1.0
  H  H5  1  0.48093000  0.20608000  0.19188000  1.0
  H  H6  1  0.36507000  0.64908000  0.72813000  1.0
  H  H7  1  0.85242000  0.25825000  0.34804000  1.0
  H  H8  1  0.65112000  0.61928000  0.51870000  1.0
  H  H9  1  0.14574000  0.38305000  0.52497000  1.0
  H  H10  1  0.61384000  0.88157000  0.97315000  1.0
  H  H11  1  0.11856000  0.11536000  0.03115000  1.0
  C  C12  1  0.64772000  0.39012000  0.60184000  1.0
  C  C13  1  0.13273000  0.60344000  0.39590000  1.0
  C  C14  1  0.62916000  0.39446000  0.38557000  1.0
  C  C15  1  0.15132000  0.62090000  0.60068000  1.0
  C  C16  1  0.27573000  0.78078000  0.78448000  1.0
  C  C17  1  0.77552000  0.20087000  0.23170000  1.0
  C  C18  1  0.12117000  0.80968000  0.82914000  1.0
  C  C19  1  0.62748000  0.17619000  0.18010000  1.0
  C  C20  1  0.26328000  0.70741000  0.72246000  1.0
  C  C21  1  0.75284000  0.26721000  0.29794000  1.0
  C  C22  1  0.14884000  0.70416000  0.65710000  1.0
  C  C23  1  0.63052000  0.34110000  0.30757000  1.0
  C  C24  1  0.12388000  0.83232000  0.16961000  1.0
  C  C25  1  0.62215000  0.16489000  0.83087000  1.0
  C  C26  1  0.12790000  0.77886000  0.22248000  1.0
  C  C27  1  0.62782000  0.21726000  0.77721000  1.0
  C  C28  1  0.13156000  0.71946000  0.28054000  1.0
  C  C29  1  0.63475000  0.27543000  0.71824000  1.0
  C  C30  1  0.13460000  0.66542000  0.33299000  1.0
  C  C31  1  0.64202000  0.32835000  0.66498000  1.0
  C  C32  1  0.62912000  0.11196000  0.11050000  1.0
  C  C33  1  0.11985000  0.88197000  0.89357000  1.0
  C  C34  1  0.62117000  0.10474000  0.89565000  1.0
  C  C35  1  0.12330000  0.89281000  0.10522000  1.0
  I  I36  1  0.56823000  0.83486000  0.79447000  1.0
  I  I37  1  0.06392000  0.14251000  0.22780000  1.0
  I  I38  1  0.96630000  0.81193000  0.62240000  1.0
  I  I39  1  0.43470000  0.39376000  0.22509000  1.0
  O  O40  1  0.46222000  0.42559000  0.40853000  1.0
  O  O41  1  0.98492000  0.59636000  0.56953000  1.0
  O  O42  1  0.81908000  0.42028000  0.58334000  1.0
  O  O43  1  0.29806000  0.59126000  0.43116000  1.0
  O  O44  1  0.79446000  0.40256000  0.42278000  1.0
  O  O45  1  0.31979000  0.58285000  0.58854000  1.0
  O  O46  1  0.96477000  0.56771000  0.41143000  1.0
  O  O47  1  0.48022000  0.40798000  0.57014000  1.0
  O  O48  1  0.64402000  0.55405000  0.50231000  1.0
  O  O49  1  0.14218000  0.44110000  0.49924000  1.0
  O  O50  1  0.79195000  0.08001000  0.91956000  1.0
  O  O51  1  0.29400000  0.91834000  0.08235000  1.0
  O  O52  1  0.45610000  0.08864000  0.08307000  1.0
  O  O53  1  0.94768000  0.90830000  0.91720000  1.0
  O  O54  1  0.45102000  0.08404000  0.92214000  1.0
  O  O55  1  0.95297000  0.91276000  0.07756000  1.0
  O  O56  1  0.28548000  0.91174000  0.92218000  1.0
  O  O57  1  0.79443000  0.08544000  0.08126000  1.0
  O  O58  1  0.61949000  0.94342000  0.99830000  1.0
  O  O59  1  0.12114000  0.05506000  0.00325000  1.0
