# generated using pymatgen
data_ZnH12C14(NO2)2
_symmetry_space_group_name_H-M   'P 1'
_cell_length_a   9.28606000
_cell_length_b   9.28617000
_cell_length_c   11.01960000
_cell_angle_alpha   91.28910000
_cell_angle_beta   91.28870000
_cell_angle_gamma   100.48200000
_symmetry_Int_Tables_number   1
_chemical_formula_structural   ZnH12C14(NO2)2
_chemical_formula_sum   'Zn2 H24 C28 N4 O8'
_cell_volume   933.80579246
_cell_formula_units_Z   2
loop_
 _symmetry_equiv_pos_site_id
 _symmetry_equiv_pos_as_xyz
  1  'x, y, z'
loop_
 _atom_site_type_symbol
 _atom_site_label
 _atom_site_symmetry_multiplicity
 _atom_site_fract_x
 _atom_site_fract_y
 _atom_site_fract_z
 _atom_site_occupancy
  Zn  Zn0  1  0.85036000  0.14965000  0.75001000  1.0
  Zn  Zn1  1  0.14965000  0.85035000  0.25000000  1.0
  H  H2  1  0.67522000  0.54141000  0.01190000  1.0
  H  H3  1  0.54143000  0.67523000  0.51185000  1.0
  H  H4  1  0.32478000  0.45858000  0.98811000  1.0
  H  H5  1  0.45857000  0.32478000  0.48813000  1.0
  H  H6  1  0.97325000  0.84321000  0.00407000  1.0
  H  H7  1  0.84321000  0.97327000  0.50406000  1.0
  H  H8  1  0.02674000  0.15679000  0.99594000  1.0
  H  H9  1  0.15678000  0.02673000  0.49594000  1.0
  H  H10  1  0.78616000  0.79906000  0.03177000  1.0
  H  H11  1  0.79906000  0.78618000  0.53176000  1.0
  H  H12  1  0.21384000  0.20094000  0.96823000  1.0
  H  H13  1  0.20094000  0.21382000  0.46824000  1.0
  H  H14  1  0.06167000  0.69894000  0.80995000  1.0
  H  H15  1  0.69893000  0.06170000  0.30995000  1.0
  H  H16  1  0.93832000  0.30106000  0.19006000  1.0
  H  H17  1  0.30108000  0.93829000  0.69004000  1.0
  H  H18  1  0.68347000  0.28925000  0.92937000  1.0
  H  H19  1  0.28926000  0.68346000  0.42932000  1.0
  H  H20  1  0.31653000  0.71076000  0.07064000  1.0
  H  H21  1  0.71075000  0.31655000  0.57066000  1.0
  H  H22  1  0.05679000  0.43944000  0.73816000  1.0
  H  H23  1  0.43944000  0.05681000  0.23817000  1.0
  H  H24  1  0.94320000  0.56057000  0.26184000  1.0
  H  H25  1  0.56058000  0.94318000  0.76182000  1.0
  C  C26  1  0.86788000  0.64193000  0.91699000  1.0
  C  C27  1  0.64194000  0.86790000  0.41697000  1.0
  C  C28  1  0.13212000  0.35807000  0.08301000  1.0
  C  C29  1  0.35807000  0.13210000  0.58301000  1.0
  C  C30  1  0.76128000  0.52374000  0.95059000  1.0
  C  C31  1  0.52375000  0.76129000  0.45055000  1.0
  C  C32  1  0.23872000  0.47626000  0.04942000  1.0
  C  C33  1  0.47625000  0.23871000  0.54944000  1.0
  C  C34  1  0.86641000  0.79485000  0.96079000  1.0
  C  C35  1  0.79486000  0.86644000  0.46079000  1.0
  C  C36  1  0.13358000  0.20515000  0.03921000  1.0
  C  C37  1  0.20515000  0.13356000  0.53922000  1.0
  C  C38  1  0.84227000  0.89848000  0.85976000  1.0
  C  C39  1  0.89849000  0.84230000  0.35976000  1.0
  C  C40  1  0.15772000  0.10152000  0.14024000  1.0
  C  C41  1  0.10152000  0.15770000  0.64025000  1.0
  C  C42  1  0.97656000  0.61088000  0.83924000  1.0
  C  C43  1  0.61089000  0.97659000  0.33922000  1.0
  C  C44  1  0.02343000  0.38912000  0.16077000  1.0
  C  C45  1  0.38912000  0.02341000  0.66077000  1.0
  C  C46  1  0.76484000  0.38375000  0.90508000  1.0
  C  C47  1  0.38377000  0.76484000  0.40504000  1.0
  C  C48  1  0.23516000  0.61625000  0.09493000  1.0
  C  C49  1  0.61624000  0.23517000  0.59494000  1.0
  C  C50  1  0.97377000  0.46825000  0.79794000  1.0
  C  C51  1  0.46825000  0.97379000  0.29793000  1.0
  C  C52  1  0.02622000  0.53175000  0.20207000  1.0
  C  C53  1  0.53176000  0.02620000  0.70206000  1.0
  N  N54  1  0.86850000  0.35624000  0.82902000  1.0
  N  N55  1  0.35624000  0.86851000  0.32899000  1.0
  N  N56  1  0.13150000  0.64377000  0.17098000  1.0
  N  N57  1  0.64376000  0.13149000  0.67099000  1.0
  O  O58  1  0.83835000  0.86057000  0.75009000  1.0
  O  O59  1  0.86062000  0.83843000  0.25009000  1.0
  O  O60  1  0.16160000  0.13940000  0.24991000  1.0
  O  O61  1  0.13939000  0.16157000  0.74991000  1.0
  O  O62  1  0.83035000  0.02942000  0.89767000  1.0
  O  O63  1  0.02943000  0.83034000  0.39767000  1.0
  O  O64  1  0.16966000  0.97058000  0.10233000  1.0
  O  O65  1  0.97058000  0.16966000  0.60234000  1.0
