# generated using pymatgen
data_CdH20C28(NO2)2
_symmetry_space_group_name_H-M   'P 1'
_cell_length_a   8.45505000
_cell_length_b   12.23600000
_cell_length_c   12.48480000
_cell_angle_alpha   84.79380000
_cell_angle_beta   70.19900000
_cell_angle_gamma   90.04070000
_symmetry_Int_Tables_number   1
_chemical_formula_structural   CdH20C28(NO2)2
_chemical_formula_sum   'Cd2 H40 C56 N4 O8'
_cell_volume   1209.56438350
_cell_formula_units_Z   2
loop_
 _symmetry_equiv_pos_site_id
 _symmetry_equiv_pos_as_xyz
  1  'x, y, z'
loop_
 _atom_site_type_symbol
 _atom_site_label
 _atom_site_symmetry_multiplicity
 _atom_site_fract_x
 _atom_site_fract_y
 _atom_site_fract_z
 _atom_site_occupancy
  Cd  Cd0  1  0.63719000  0.49984000  0.00018000  1.0
  Cd  Cd1  1  0.25620000  0.99981000  0.99988000  1.0
  H  H2  1  0.86219000  0.33914000  0.67780000  1.0
  H  H3  1  0.53938000  0.66088000  0.32258000  1.0
  H  H4  1  0.92668000  0.13576000  0.36751000  1.0
  H  H5  1  0.29381000  0.86479000  0.63229000  1.0
  H  H6  1  0.83383000  0.21935000  0.20899000  1.0
  H  H7  1  0.04249000  0.78130000  0.79115000  1.0
  H  H8  1  0.02002000  0.04326000  0.66052000  1.0
  H  H9  1  0.68078000  0.95680000  0.33946000  1.0
  H  H10  1  0.78910000  0.42775000  0.54222000  1.0
  H  H11  1  0.33013000  0.57245000  0.45814000  1.0
  H  H12  1  0.07532000  0.23495000  0.97623000  1.0
  H  H13  1  0.05118000  0.76473000  0.02394000  1.0
  H  H14  1  0.94572000  0.33423000  0.84287000  1.0
  H  H15  1  0.78811000  0.66554000  0.15758000  1.0
  H  H16  1  0.72507000  0.00197000  0.65391000  1.0
  H  H17  1  0.37912000  0.99785000  0.34574000  1.0
  H  H18  1  0.69106000  0.60449000  0.60826000  1.0
  H  H19  1  0.29933000  0.39530000  0.39131000  1.0
  H  H20  1  0.48419000  0.68418000  0.77429000  1.0
  H  H21  1  0.25856000  0.31540000  0.22534000  1.0
  H  H22  1  0.92765000  0.92579000  0.48433000  1.0
  H  H23  1  0.41206000  0.07420000  0.51528000  1.0
  H  H24  1  0.69497000  0.50882000  0.38425000  1.0
  H  H25  1  0.07823000  0.49142000  0.61649000  1.0
  H  H26  1  0.97762000  0.14269000  0.53413000  1.0
  H  H27  1  0.51127000  0.85762000  0.46589000  1.0
  H  H28  1  0.14693000  0.95903000  0.79867000  1.0
  H  H29  1  0.94602000  0.04097000  0.20101000  1.0
  H  H30  1  0.24277000  0.47219000  0.11989000  1.0
  H  H31  1  0.36194000  0.52755000  0.88032000  1.0
  H  H32  1  0.03796000  0.55065000  0.28496000  1.0
  H  H33  1  0.32257000  0.44923000  0.71498000  1.0
  H  H34  1  0.36268000  0.84336000  0.19811000  1.0
  H  H35  1  0.56045000  0.15670000  0.80146000  1.0
  H  H36  1  0.55569000  0.75068000  0.03649000  1.0
  H  H37  1  0.59169000  0.24927000  0.96327000  1.0
  H  H38  1  0.11055000  0.84306000  0.35746000  1.0
  H  H39  1  0.46765000  0.15703000  0.64224000  1.0
  H  H40  1  0.91029000  0.62246000  0.43514000  1.0
  H  H41  1  0.34543000  0.37752000  0.56446000  1.0
  C  C42  1  0.91344000  0.25919000  0.65474000  1.0
  C  C43  1  0.56772000  0.74090000  0.34548000  1.0
  C  C44  1  0.87426000  0.21740000  0.37147000  1.0
  C  C45  1  0.24527000  0.78306000  0.62858000  1.0
  C  C46  1  0.97684000  0.19938000  0.73706000  1.0
  C  C47  1  0.71374000  0.80060000  0.26315000  1.0
  C  C48  1  0.86355000  0.27514000  0.46626000  1.0
  C  C49  1  0.32914000  0.72518000  0.53392000  1.0
  C  C50  1  0.82332000  0.26320000  0.28309000  1.0
  C  C51  1  0.10605000  0.73731000  0.71715000  1.0
  C  C52  1  0.70688000  0.41920000  0.19136000  1.0
  C  C53  1  0.89815000  0.58110000  0.80951000  1.0
  C  C54  1  0.75885000  0.36864000  0.28735000  1.0
  C  C55  1  0.04578000  0.63173000  0.71323000  1.0
  C  C56  1  0.03107000  0.09062000  0.72752000  1.0
  C  C57  1  0.75878000  0.90938000  0.27254000  1.0
  C  C58  1  0.79902000  0.38156000  0.46955000  1.0
  C  C59  1  0.26761000  0.61873000  0.53077000  1.0
  C  C60  1  0.46901000  0.89350000  0.82485000  1.0
  C  C61  1  0.29378000  0.10610000  0.17491000  1.0
  C  C62  1  0.59293000  0.84720000  0.72437000  1.0
  C  C63  1  0.31718000  0.15246000  0.27541000  1.0
  C  C64  1  0.06107000  0.19654000  0.90436000  1.0
  C  C65  1  0.96522000  0.80324000  0.09577000  1.0
  C  C66  1  0.98911000  0.25088000  0.83051000  1.0
  C  C67  1  0.81937000  0.74893000  0.16982000  1.0
  C  C68  1  0.82483000  0.75900000  0.53425000  1.0
  C  C69  1  0.35884000  0.24088000  0.46547000  1.0
  C  C70  1  0.71878000  0.91500000  0.64229000  1.0
  C  C71  1  0.36118000  0.08481000  0.35738000  1.0
  C  C72  1  0.69827000  0.69200000  0.61749000  1.0
  C  C73  1  0.31571000  0.30779000  0.38217000  1.0
  C  C74  1  0.58342000  0.73540000  0.71068000  1.0
  C  C75  1  0.29424000  0.26429000  0.28894000  1.0
  C  C76  1  0.83214000  0.87188000  0.54817000  1.0
  C  C77  1  0.38022000  0.12803000  0.45153000  1.0
  C  C78  1  0.74643000  0.42698000  0.38180000  1.0
  C  C79  1  0.12740000  0.57331000  0.61875000  1.0
  C  C80  1  0.92076000  0.22182000  0.55446000  1.0
  C  C81  1  0.47466000  0.77841000  0.44565000  1.0
  C  C82  1  0.10154000  0.04254000  0.80442000  1.0
  C  C83  1  0.90615000  0.95742000  0.19547000  1.0
  C  C84  1  0.26486000  0.55418000  0.14108000  1.0
  C  C85  1  0.40541000  0.44563000  0.85894000  1.0
  C  C86  1  0.15142000  0.59849000  0.23376000  1.0
  C  C87  1  0.38490000  0.40141000  0.76609000  1.0
  C  C88  1  0.18487000  0.70432000  0.25901000  1.0
  C  C89  1  0.44377000  0.29570000  0.74067000  1.0
  C  C90  1  0.33238000  0.76017000  0.18493000  1.0
  C  C91  1  0.51718000  0.23987000  0.81468000  1.0
  C  C92  1  0.43920000  0.70969000  0.09384000  1.0
  C  C93  1  0.53270000  0.29024000  0.90588000  1.0
  C  C94  1  0.07513000  0.75773000  0.35477000  1.0
  C  C95  1  0.42971000  0.24234000  0.64489000  1.0
  C  C96  1  0.93944000  0.70899000  0.43789000  1.0
  C  C97  1  0.37716000  0.29099000  0.56181000  1.0
  N  N98  1  0.11962000  0.09468000  0.89052000  1.0
  N  N99  1  0.01005000  0.90520000  0.10935000  1.0
  N  N100  1  0.40803000  0.60755000  0.07235000  1.0
  N  N101  1  0.47983000  0.39228000  0.92760000  1.0
  O  O102  1  0.63414000  0.51058000  0.20164000  1.0
  O  O103  1  0.83600000  0.48942000  0.79947000  1.0
  O  O104  1  0.74014000  0.36877000  0.10074000  1.0
  O  O105  1  0.84048000  0.63175000  0.89993000  1.0
  O  O106  1  0.33279000  0.83998000  0.88119000  1.0
  O  O107  1  0.21391000  0.15956000  0.11863000  1.0
  O  O108  1  0.50550000  0.98777000  0.84961000  1.0
  O  O109  1  0.35541000  0.01198000  0.15003000  1.0
