# generated using pymatgen
data_ZnH18C25(N2O3)2
_symmetry_space_group_name_H-M   'P 1'
_cell_length_a   9.55644000
_cell_length_b   10.79590000
_cell_length_c   23.74040000
_cell_angle_alpha   90.32250000
_cell_angle_beta   89.50510000
_cell_angle_gamma   89.80890000
_symmetry_Int_Tables_number   1
_chemical_formula_structural   ZnH18C25(N2O3)2
_chemical_formula_sum   'Zn2 H36 C50 N8 O12'
_cell_volume   2449.16167451
_cell_formula_units_Z   2
loop_
 _symmetry_equiv_pos_site_id
 _symmetry_equiv_pos_as_xyz
  1  'x, y, z'
loop_
 _atom_site_type_symbol
 _atom_site_label
 _atom_site_symmetry_multiplicity
 _atom_site_fract_x
 _atom_site_fract_y
 _atom_site_fract_z
 _atom_site_occupancy
  Zn  Zn0  1  0.64363000  0.49664000  0.50057000  1.0
  Zn  Zn1  1  0.35662000  0.49375000  0.50111000  1.0
  H  H2  1  0.52271000  0.83614000  0.94163000  1.0
  H  H3  1  0.26475000  0.47856000  0.67779000  1.0
  H  H4  1  0.71186000  0.51508000  0.68087000  1.0
  H  H5  1  0.70411000  0.53004000  0.78612000  1.0
  H  H6  1  0.70644000  0.90208000  0.52945000  1.0
  H  H7  1  0.27335000  0.88022000  0.48415000  1.0
  H  H8  1  0.58055000  0.88944000  0.58358000  1.0
  H  H9  1  0.31963000  0.90584000  0.55503000  1.0
  H  H10  1  0.52762000  0.10128000  0.58200000  1.0
  H  H11  1  0.30042000  0.11802000  0.53641000  1.0
  H  H12  1  0.68591000  0.11743000  0.54450000  1.0
  H  H13  1  0.28485000  0.09126000  0.46373000  1.0
  H  H14  1  0.63571000  0.86825000  0.42608000  1.0
  H  H15  1  0.45719000  0.88965000  0.40943000  1.0
  H  H16  1  0.12761000  0.69108000  0.49215000  1.0
  H  H17  1  0.88450000  0.69019000  0.48606000  1.0
  H  H18  1  0.12562000  0.54119000  0.41821000  1.0
  H  H19  1  0.87647000  0.53668000  0.41720000  1.0
  H  H20  1  0.11949000  0.31407000  0.52920000  1.0
  H  H21  1  0.87035000  0.31961000  0.53361000  1.0
  H  H22  1  0.12478000  0.42184000  0.58558000  1.0
  H  H23  1  0.87534000  0.43460000  0.58702000  1.0
  H  H24  1  0.12645000  0.38181000  0.43421000  1.0
  H  H25  1  0.87893000  0.37928000  0.43552000  1.0
  H  H26  1  0.40859000  0.23005000  0.05730000  1.0
  H  H27  1  0.41090000  0.22191000  0.95102000  1.0
  H  H28  1  0.67248000  0.43713000  0.20697000  1.0
  H  H29  1  0.30593000  0.63133000  0.32791000  1.0
  H  H30  1  0.29154000  0.64874000  0.22297000  1.0
  H  H31  1  0.25542000  0.49659000  0.78282000  1.0
  H  H32  1  0.78160000  0.04708000  0.46512000  1.0
  H  H33  1  0.76007000  0.04510000  0.39091000  1.0
  H  H34  1  0.74170000  0.18649000  0.42870000  1.0
  H  H35  1  0.51283000  0.21224000  0.37906000  1.0
  H  H36  1  0.53305000  0.06541000  0.34593000  1.0
  H  H37  1  0.37812000  0.09953000  0.38477000  1.0
  C  C38  1  0.50148000  0.73494000  0.50181000  1.0
  C  C39  1  0.50664000  0.75264000  0.96642000  1.0
  C  C40  1  0.50397000  0.75949000  0.02610000  1.0
  C  C41  1  0.48528000  0.65160000  0.05802000  1.0
  C  C42  1  0.46527000  0.53672000  0.03005000  1.0
  C  C43  1  0.44285000  0.42590000  0.06066000  1.0
  C  C44  1  0.42348000  0.31397000  0.03262000  1.0
  C  C45  1  0.42554000  0.30917000  0.97348000  1.0
  C  C46  1  0.48989000  0.65675000  0.12045000  1.0
  C  C47  1  0.44065000  0.42776000  0.12292000  1.0
  C  C48  1  0.59299000  0.48147000  0.23340000  1.0
  C  C49  1  0.49799000  0.51726000  0.38966000  1.0
  C  C50  1  0.60263000  0.47421000  0.29229000  1.0
  C  C51  1  0.49674000  0.52766000  0.32656000  1.0
  C  C52  1  0.38637000  0.59040000  0.30083000  1.0
  C  C53  1  0.37800000  0.59956000  0.24252000  1.0
  C  C54  1  0.48093000  0.54318000  0.20913000  1.0
  C  C55  1  0.35519000  0.49897000  0.76029000  1.0
  C  C56  1  0.36043000  0.48808000  0.70190000  1.0
  C  C57  1  0.48912000  0.49214000  0.67326000  1.0
  C  C58  1  0.61284000  0.50843000  0.70366000  1.0
  C  C59  1  0.60838000  0.51788000  0.76214000  1.0
  C  C60  1  0.50023000  0.25731000  0.49105000  1.0
  C  C61  1  0.47944000  0.51277000  0.78996000  1.0
  C  C62  1  0.59973000  0.92967000  0.54182000  1.0
  C  C63  1  0.34942000  0.92723000  0.51135000  1.0
  C  C64  1  0.58385000  0.07159000  0.54356000  1.0
  C  C65  1  0.34821000  0.06822000  0.50056000  1.0
  C  C66  1  0.53966000  0.91724000  0.43912000  1.0
  C  C67  1  0.49616000  0.87531000  0.49876000  1.0
  C  C68  1  0.49889000  0.11633000  0.49239000  1.0
  C  C69  1  0.56345000  0.06021000  0.43631000  1.0
  C  C70  1  0.08405000  0.62411000  0.52226000  1.0
  C  C71  1  0.91770000  0.62739000  0.51977000  1.0
  C  C72  1  0.08192000  0.47166000  0.44681000  1.0
  C  C73  1  0.92058000  0.47031000  0.44701000  1.0
  C  C74  1  0.07910000  0.40374000  0.54415000  1.0
  C  C75  1  0.91724000  0.40853000  0.54543000  1.0
  C  C76  1  0.49379000  0.48259000  0.61037000  1.0
  C  C77  1  0.44979000  0.40834000  0.87986000  1.0
  C  C78  1  0.49488000  0.63697000  0.87610000  1.0
  C  C79  1  0.48952000  0.64056000  0.93885000  1.0
  C  C80  1  0.46716000  0.53100000  0.97002000  1.0
  C  C81  1  0.44707000  0.41605000  0.94235000  1.0
  C  C82  1  0.72103000  0.08670000  0.43044000  1.0
  C  C83  1  0.49201000  0.11273000  0.38379000  1.0
  C  C84  1  0.51950000  0.88062000  0.05004000  1.0
  C  C85  1  0.13568000  0.65819000  0.57799000  1.0
  C  C86  1  0.85632000  0.67456000  0.57222000  1.0
  C  C87  1  0.72146000  0.40983000  0.31406000  1.0
  N  N88  1  0.47444000  0.52013000  0.85083000  1.0
  N  N89  1  0.47082000  0.54343000  0.14863000  1.0
  N  N90  1  0.13462000  0.49891000  0.50453000  1.0
  N  N91  1  0.86553000  0.50181000  0.50432000  1.0
  N  N92  1  0.53024000  0.98561000  0.06147000  1.0
  N  N93  1  0.16949000  0.68863000  0.62297000  1.0
  N  N94  1  0.81508000  0.71729000  0.61435000  1.0
  N  N95  1  0.82335000  0.35607000  0.32591000  1.0
  O  O96  1  0.61924000  0.68293000  0.49167000  1.0
  O  O97  1  0.38946000  0.67753000  0.51422000  1.0
  O  O98  1  0.61336000  0.48795000  0.41221000  1.0
  O  O99  1  0.38256000  0.53854000  0.41503000  1.0
  O  O100  1  0.61628000  0.31077000  0.50099000  1.0
  O  O101  1  0.38559000  0.31349000  0.48070000  1.0
  O  O102  1  0.61103000  0.50193000  0.58608000  1.0
  O  O103  1  0.38004000  0.45647000  0.58519000  1.0
  O  O104  1  0.43257000  0.31061000  0.85431000  1.0
  O  O105  1  0.51578000  0.72991000  0.84783000  1.0
  O  O106  1  0.51116000  0.75299000  0.14679000  1.0
  O  O107  1  0.41574000  0.33642000  0.15169000  1.0
