# generated using pymatgen
data_NaDyH12(CO)12
_symmetry_space_group_name_H-M   'P 1'
_cell_length_a   6.83957000
_cell_length_b   7.47397000
_cell_length_c   15.62470000
_cell_angle_alpha   89.99980000
_cell_angle_beta   102.63500000
_cell_angle_gamma   89.99990000
_symmetry_Int_Tables_number   1
_chemical_formula_structural   NaDyH12(CO)12
_chemical_formula_sum   'Na2 Dy2 H24 C24 O24'
_cell_volume   779.37276999
_cell_formula_units_Z   2
loop_
 _symmetry_equiv_pos_site_id
 _symmetry_equiv_pos_as_xyz
  1  'x, y, z'
loop_
 _atom_site_type_symbol
 _atom_site_label
 _atom_site_symmetry_multiplicity
 _atom_site_fract_x
 _atom_site_fract_y
 _atom_site_fract_z
 _atom_site_occupancy
  Na  Na0  1  0.85944000  0.74986000  0.71865000  1.0
  Na  Na1  1  0.14056000  0.24985000  0.28135000  1.0
  Dy  Dy2  1  0.69555000  0.25014000  0.39119000  1.0
  Dy  Dy3  1  0.30445000  0.75014000  0.60881000  1.0
  H  H4  1  0.48646000  0.76852000  0.41701000  1.0
  H  H5  1  0.51354000  0.26853000  0.58299000  1.0
  H  H6  1  0.93068000  0.73178000  0.41691000  1.0
  H  H7  1  0.06932000  0.23177000  0.58309000  1.0
  H  H8  1  0.54229000  0.61591000  0.30014000  1.0
  H  H9  1  0.45771000  0.11591000  0.69986000  1.0
  H  H10  1  0.75775000  0.88431000  0.30013000  1.0
  H  H11  1  0.24225000  0.38430000  0.69987000  1.0
  H  H12  1  0.01011000  0.09789000  0.79258000  1.0
  H  H13  1  0.98989000  0.59789000  0.20742000  1.0
  H  H14  1  0.78250000  0.40163000  0.79249000  1.0
  H  H15  1  0.21750000  0.90163000  0.20751000  1.0
  H  H16  1  0.78718000  0.08641000  0.80411000  1.0
  H  H17  1  0.21282000  0.58641000  0.19589000  1.0
  H  H18  1  0.01697000  0.41317000  0.80401000  1.0
  H  H19  1  0.98303000  0.91318000  0.19599000  1.0
  H  H20  1  0.21605000  0.73819000  0.06053000  1.0
  H  H21  1  0.78395000  0.23819000  0.93947000  1.0
  H  H22  1  0.84484000  0.76165000  0.06056000  1.0
  H  H23  1  0.15516000  0.26166000  0.93945000  1.0
  H  H24  1  0.13441000  0.74339000  0.89701000  1.0
  H  H25  1  0.86559000  0.24339000  0.10299000  1.0
  H  H26  1  0.76325000  0.75644000  0.89705000  1.0
  H  H27  1  0.23675000  0.25644000  0.10295000  1.0
  C  C28  1  0.39525000  0.75010000  0.79016000  1.0
  C  C29  1  0.60475000  0.25009000  0.20984000  1.0
  C  C30  1  0.44403000  0.74997000  0.88748000  1.0
  C  C31  1  0.55596000  0.24997000  0.11253000  1.0
  C  C32  1  0.62337000  0.68688000  0.42677000  1.0
  C  C33  1  0.37663000  0.18687000  0.57323000  1.0
  C  C34  1  0.80352000  0.81339000  0.42675000  1.0
  C  C35  1  0.19647000  0.31338000  0.57325000  1.0
  C  C36  1  0.64781000  0.58721000  0.51347000  1.0
  C  C37  1  0.35219000  0.08720000  0.48653000  1.0
  C  C38  1  0.86582000  0.91303000  0.51344000  1.0
  C  C39  1  0.13418000  0.41303000  0.48656000  1.0
  C  C40  1  0.53563000  0.74995000  0.07087000  1.0
  C  C41  1  0.46437000  0.24995000  0.92913000  1.0
  C  C42  1  0.58454000  0.74997000  0.16884000  1.0
  C  C43  1  0.41545000  0.24996000  0.83116000  1.0
  C  C44  1  0.33537000  0.74356000  0.02451000  1.0
  C  C45  1  0.66463000  0.24355000  0.97549000  1.0
  C  C46  1  0.68954000  0.75636000  0.02452000  1.0
  C  C47  1  0.31046000  0.25636000  0.97548000  1.0
  C  C48  1  0.28947000  0.74570000  0.93340000  1.0
  C  C49  1  0.71053000  0.24569000  0.06660000  1.0
  C  C50  1  0.64452000  0.75419000  0.93340000  1.0
  C  C51  1  0.35548000  0.25418000  0.06660000  1.0
  O  O52  1  0.53546000  0.74366000  0.74762000  1.0
  O  O53  1  0.46454000  0.24365000  0.25238000  1.0
  O  O54  1  0.21246000  0.75666000  0.74773000  1.0
  O  O55  1  0.78755000  0.25666000  0.25227000  1.0
  O  O56  1  0.71054000  0.42813000  0.51620000  1.0
  O  O57  1  0.28947000  0.92814000  0.48379000  1.0
  O  O58  1  0.80579000  0.07208000  0.51622000  1.0
  O  O59  1  0.19421000  0.57206000  0.48378000  1.0
  O  O60  1  0.90565000  0.01426000  0.80052000  1.0
  O  O61  1  0.09435000  0.51426000  0.19948000  1.0
  O  O62  1  0.89487000  0.48528000  0.80038000  1.0
  O  O63  1  0.10513000  0.98528000  0.19962000  1.0
  O  O64  1  0.60507000  0.55645000  0.35857000  1.0
  O  O65  1  0.39493000  0.05645000  0.64143000  1.0
  O  O66  1  0.75333000  0.94380000  0.35854000  1.0
  O  O67  1  0.24667000  0.44380000  0.64146000  1.0
  O  O68  1  0.60495000  0.66905000  0.57860000  1.0
  O  O69  1  0.39506000  0.16907000  0.42140000  1.0
  O  O70  1  0.97384000  0.83120000  0.57856000  1.0
  O  O71  1  0.02615000  0.33118000  0.42143000  1.0
  O  O72  1  0.76277000  0.79013000  0.20978000  1.0
  O  O73  1  0.23722000  0.29012000  0.79022000  1.0
  O  O74  1  0.44717000  0.70978000  0.20974000  1.0
  O  O75  1  0.55282000  0.20977000  0.79026000  1.0
