# generated using pymatgen
data_MgH8C13NO5
_symmetry_space_group_name_H-M   'P 1'
_cell_length_a   12.09740000
_cell_length_b   12.36490000
_cell_length_c   12.45440000
_cell_angle_alpha   94.68880000
_cell_angle_beta   112.22100000
_cell_angle_gamma   112.04100000
_symmetry_Int_Tables_number   1
_chemical_formula_structural   MgH8C13NO5
_chemical_formula_sum   'Mg4 H32 C52 N4 O20'
_cell_volume   1543.30719355
_cell_formula_units_Z   4
loop_
 _symmetry_equiv_pos_site_id
 _symmetry_equiv_pos_as_xyz
  1  'x, y, z'
loop_
 _atom_site_type_symbol
 _atom_site_label
 _atom_site_symmetry_multiplicity
 _atom_site_fract_x
 _atom_site_fract_y
 _atom_site_fract_z
 _atom_site_occupancy
  Mg  Mg0  1  0.25016000  0.69617000  0.30428000  1.0
  Mg  Mg1  1  0.74984000  0.30383000  0.69572000  1.0
  Mg  Mg2  1  0.50000000  0.00000000  0.50000000  1.0
  Mg  Mg3  1  0.00000000  0.50000000  0.00000000  1.0
  H  H4  1  0.40060000  0.10721000  0.06926000  1.0
  H  H5  1  0.09903000  0.93040000  0.89386000  1.0
  H  H6  1  0.59940000  0.89279000  0.93074000  1.0
  H  H7  1  0.90097000  0.06960000  0.10614000  1.0
  H  H8  1  0.35255000  0.03842000  0.23660000  1.0
  H  H9  1  0.14780000  0.76181000  0.96276000  1.0
  H  H10  1  0.64745000  0.96158000  0.76340000  1.0
  H  H11  1  0.85220000  0.23819000  0.03724000  1.0
  H  H12  1  0.55734000  0.84397000  0.06508000  1.0
  H  H13  1  0.94291000  0.93564000  0.15503000  1.0
  H  H14  1  0.44266000  0.15603000  0.93492000  1.0
  H  H15  1  0.05709000  0.06436000  0.84497000  1.0
  H  H16  1  0.97622000  0.66511000  0.41302000  1.0
  H  H17  1  0.52371000  0.58814000  0.33432000  1.0
  H  H18  1  0.02378000  0.33489000  0.58698000  1.0
  H  H19  1  0.47629000  0.41186000  0.66568000  1.0
  H  H20  1  0.25098000  0.72716000  0.84749000  1.0
  H  H21  1  0.24916000  0.15144000  0.27353000  1.0
  H  H22  1  0.74902000  0.27284000  0.15251000  1.0
  H  H23  1  0.75084000  0.84856000  0.72647000  1.0
  H  H24  1  0.34730000  0.85325000  0.72817000  1.0
  H  H25  1  0.15290000  0.27144000  0.14695000  1.0
  H  H26  1  0.65270000  0.14675000  0.27183000  1.0
  H  H27  1  0.84710000  0.72856000  0.85305000  1.0
  H  H28  1  0.87725000  0.54323000  0.53314000  1.0
  H  H29  1  0.62266000  0.46728000  0.45663000  1.0
  H  H30  1  0.12275000  0.45677000  0.46686000  1.0
  H  H31  1  0.37734000  0.53272000  0.54337000  1.0
  H  H32  1  0.49608000  0.78497000  0.22912000  1.0
  H  H33  1  0.00483000  0.77046000  0.21440000  1.0
  H  H34  1  0.50392000  0.21503000  0.77088000  1.0
  H  H35  1  0.99517000  0.22954000  0.78560000  1.0
  C  C36  1  0.42402000  0.03479000  0.09894000  1.0
  C  C37  1  0.07612000  0.90053000  0.96588000  1.0
  C  C38  1  0.57598000  0.96521000  0.90106000  1.0
  C  C39  1  0.92388000  0.09947000  0.03412000  1.0
  C  C40  1  0.39426000  0.99866000  0.19046000  1.0
  C  C41  1  0.10629000  0.80865000  0.00214000  1.0
  C  C42  1  0.60574000  0.00134000  0.80953000  1.0
  C  C43  1  0.89371000  0.19135000  0.99786000  1.0
  C  C44  1  0.99755000  0.54996000  0.76551000  1.0
  C  C45  1  0.50218000  0.23423000  0.45045000  1.0
  C  C46  1  0.00245000  0.45004000  0.23449000  1.0
  C  C47  1  0.49782000  0.76577000  0.54955000  1.0
  C  C48  1  0.48342000  0.98118000  0.04852000  1.0
  C  C49  1  0.01671000  0.95131000  0.01897000  1.0
  C  C50  1  0.51658000  0.01882000  0.95148000  1.0
  C  C51  1  0.98330000  0.04870000  0.98103000  1.0
  C  C52  1  0.05713000  0.62965000  0.69776000  1.0
  C  C53  1  0.44286000  0.30209000  0.37053000  1.0
  C  C54  1  0.94287000  0.37035000  0.30224000  1.0
  C  C55  1  0.55713000  0.69791000  0.62947000  1.0
  C  C56  1  0.23253000  0.83358000  0.49180000  1.0
  C  C57  1  0.26751000  0.50862000  0.16616000  1.0
  C  C58  1  0.76747000  0.16642000  0.50820000  1.0
  C  C59  1  0.73249000  0.49137000  0.83384000  1.0
  C  C60  1  0.16725000  0.76909000  0.56457000  1.0
  C  C61  1  0.33291000  0.43556000  0.23071000  1.0
  C  C62  1  0.83275000  0.23091000  0.43543000  1.0
  C  C63  1  0.66709000  0.56444000  0.76929000  1.0
  C  C64  1  0.51086000  0.89036000  0.09746000  1.0
  C  C65  1  0.98948000  0.90270000  0.10938000  1.0
  C  C66  1  0.48914000  0.10964000  0.90254000  1.0
  C  C67  1  0.01052000  0.09730000  0.89063000  1.0
  C  C68  1  0.24371000  0.78706000  0.68730000  1.0
  C  C69  1  0.25643000  0.31229000  0.21305000  1.0
  C  C70  1  0.75629000  0.21294000  0.31270000  1.0
  C  C71  1  0.74357000  0.68771000  0.78695000  1.0
  C  C72  1  0.48032000  0.85601000  0.18917000  1.0
  C  C73  1  0.02040000  0.81060000  0.14383000  1.0
  C  C74  1  0.51968000  0.14399000  0.81083000  1.0
  C  C75  1  0.97961000  0.18940000  0.85617000  1.0
  C  C76  1  0.18994000  0.71749000  0.75335000  1.0
  C  C77  1  0.31014000  0.24600000  0.28284000  1.0
  C  C78  1  0.81006000  0.28251000  0.24665000  1.0
  C  C79  1  0.68986000  0.75400000  0.71716000  1.0
  C  C80  1  0.97958000  0.61321000  0.57533000  1.0
  C  C81  1  0.52045000  0.42505000  0.38669000  1.0
  C  C82  1  0.02042000  0.38679000  0.42467000  1.0
  C  C83  1  0.47955000  0.57495000  0.61331000  1.0
  C  C84  1  0.03436000  0.68141000  0.50918000  1.0
  C  C85  1  0.46574000  0.49146000  0.31824000  1.0
  C  C86  1  0.96564000  0.31859000  0.49082000  1.0
  C  C87  1  0.53426000  0.50854000  0.68175000  1.0
  N  N88  1  0.42147000  0.90961000  0.23362000  1.0
  N  N89  1  0.07914000  0.76576000  0.09066000  1.0
  N  N90  1  0.57853000  0.09039000  0.76638000  1.0
  N  N91  1  0.92086000  0.23424000  0.90934000  1.0
  O  O92  1  0.39069000  0.87574000  0.32030000  1.0
  O  O93  1  0.10982000  0.67840000  0.12462000  1.0
  O  O94  1  0.60931000  0.12426000  0.67970000  1.0
  O  O95  1  0.89018000  0.32160000  0.87538000  1.0
  O  O96  1  0.17264000  0.78709000  0.37815000  1.0
  O  O97  1  0.32718000  0.62287000  0.21263000  1.0
  O  O98  1  0.82736000  0.21291000  0.62185000  1.0
  O  O99  1  0.67282000  0.37714000  0.78737000  1.0
  O  O100  1  0.88110000  0.46639000  0.70442000  1.0
  O  O101  1  0.61834000  0.29547000  0.53415000  1.0
  O  O102  1  0.11890000  0.53361000  0.29558000  1.0
  O  O103  1  0.38166000  0.70453000  0.46585000  1.0
  O  O104  1  0.06694000  0.57182000  0.87856000  1.0
  O  O105  1  0.43258000  0.12061000  0.42850000  1.0
  O  O106  1  0.93306000  0.42818000  0.12144000  1.0
  O  O107  1  0.56742000  0.87939000  0.57150000  1.0
  O  O108  1  0.34467000  0.92525000  0.54691000  1.0
  O  O109  1  0.15560000  0.45327000  0.07457000  1.0
  O  O110  1  0.65533000  0.07474000  0.45309000  1.0
  O  O111  1  0.84440000  0.54673000  0.92543000  1.0
