# generated using pymatgen
data_CdH5C7S2N3O
_symmetry_space_group_name_H-M   'P 1'
_cell_length_a   7.63417000
_cell_length_b   8.32728000
_cell_length_c   8.79757000
_cell_angle_alpha   63.31670000
_cell_angle_beta   88.32510000
_cell_angle_gamma   88.92070000
_symmetry_Int_Tables_number   1
_chemical_formula_structural   CdH5C7S2N3O
_chemical_formula_sum   'Cd2 H10 C14 S4 N6 O2'
_cell_volume   499.49246416
_cell_formula_units_Z   2
loop_
 _symmetry_equiv_pos_site_id
 _symmetry_equiv_pos_as_xyz
  1  'x, y, z'
loop_
 _atom_site_type_symbol
 _atom_site_label
 _atom_site_symmetry_multiplicity
 _atom_site_fract_x
 _atom_site_fract_y
 _atom_site_fract_z
 _atom_site_occupancy
  Cd  Cd0  1  0.66521000  0.65872000  0.03701000  1.0
  Cd  Cd1  1  0.33479000  0.34129000  0.96298000  1.0
  H  H2  1  0.78162000  0.23987000  0.98786000  1.0
  H  H3  1  0.21837000  0.76014000  0.01214000  1.0
  H  H4  1  0.97420000  0.96315000  0.13558000  1.0
  H  H5  1  0.02579000  0.03685000  0.86441000  1.0
  H  H6  1  0.95672000  0.79291000  0.45280000  1.0
  H  H7  1  0.04329000  0.20708000  0.54719000  1.0
  H  H8  1  0.75813000  0.91041000  0.61399000  1.0
  H  H9  1  0.24189000  0.08958000  0.38601000  1.0
  H  H10  1  0.57796000  0.19156000  0.44637000  1.0
  H  H11  1  0.42206000  0.80844000  0.55364000  1.0
  C  C12  1  0.78413000  0.15910000  0.12502000  1.0
  C  C13  1  0.21586000  0.84091000  0.87498000  1.0
  C  C14  1  0.88694000  0.00758000  0.20915000  1.0
  C  C15  1  0.11305000  0.99242000  0.79085000  1.0
  C  C16  1  0.87790000  0.91365000  0.38601000  1.0
  C  C17  1  0.12210000  0.08634000  0.61399000  1.0
  C  C18  1  0.76753000  0.97826000  0.47568000  1.0
  C  C19  1  0.23247000  0.02174000  0.52433000  1.0
  C  C20  1  0.66715000  0.13094000  0.38796000  1.0
  C  C21  1  0.33285000  0.86907000  0.61204000  1.0
  C  C22  1  0.39373000  0.88855000  0.19184000  1.0
  C  C23  1  0.60626000  0.11144000  0.80817000  1.0
  C  C24  1  0.04726000  0.45741000  0.20226000  1.0
  C  C25  1  0.95275000  0.54259000  0.79775000  1.0
  S  S26  1  0.45395000  0.67824000  0.28769000  1.0
  S  S27  1  0.54603000  0.32178000  0.71231000  1.0
  S  S28  1  0.90646000  0.55571000  0.27744000  1.0
  S  S29  1  0.09353000  0.44430000  0.72256000  1.0
  N  N30  1  0.67439000  0.21610000  0.21521000  1.0
  N  N31  1  0.32562000  0.78391000  0.78479000  1.0
  N  N32  1  0.34317000  0.03932000  0.12532000  1.0
  N  N33  1  0.65681000  0.96067000  0.87468000  1.0
  N  N34  1  0.15010000  0.38395000  0.15164000  1.0
  N  N35  1  0.84991000  0.61604000  0.84836000  1.0
  O  O36  1  0.56896000  0.35693000  0.13430000  1.0
  O  O37  1  0.43104000  0.64307000  0.86571000  1.0
