# generated using pymatgen
data_NiH12C15NO4
_symmetry_space_group_name_H-M   'P 1'
_cell_length_a   9.52122000
_cell_length_b   18.38670000
_cell_length_c   18.51930000
_cell_angle_alpha   89.99990000
_cell_angle_beta   89.99990000
_cell_angle_gamma   85.11370000
_symmetry_Int_Tables_number   1
_chemical_formula_structural   NiH12C15NO4
_chemical_formula_sum   'Ni4 H48 C60 N4 O16'
_cell_volume   3230.27668053
_cell_formula_units_Z   4
loop_
 _symmetry_equiv_pos_site_id
 _symmetry_equiv_pos_as_xyz
  1  'x, y, z'
loop_
 _atom_site_type_symbol
 _atom_site_label
 _atom_site_symmetry_multiplicity
 _atom_site_fract_x
 _atom_site_fract_y
 _atom_site_fract_z
 _atom_site_occupancy
  Ni  Ni0  1  0.39165000  0.24747000  0.75000000  1.0
  Ni  Ni1  1  0.60836000  0.75253000  0.25000000  1.0
  Ni  Ni2  1  0.64578000  0.25073000  0.75000000  1.0
  Ni  Ni3  1  0.35424000  0.74927000  0.25000000  1.0
  H  H4  1  0.33529000  0.05841000  0.88582000  1.0
  H  H5  1  0.66470000  0.94159000  0.38582000  1.0
  H  H6  1  0.66470000  0.94159000  0.11418000  1.0
  H  H7  1  0.33529000  0.05841000  0.61418000  1.0
  H  H8  1  0.24544000  0.42162000  0.88584000  1.0
  H  H9  1  0.75456000  0.57838000  0.38584000  1.0
  H  H10  1  0.75456000  0.57838000  0.11416000  1.0
  H  H11  1  0.24544000  0.42161000  0.61416000  1.0
  H  H12  1  0.24044000  0.95678000  0.95451000  1.0
  H  H13  1  0.75955000  0.04321000  0.45451000  1.0
  H  H14  1  0.75955000  0.04321000  0.04549000  1.0
  H  H15  1  0.24044000  0.95678000  0.54549000  1.0
  H  H16  1  0.86699000  0.35402000  0.70223000  1.0
  H  H17  1  0.13302000  0.64598000  0.20223000  1.0
  H  H18  1  0.13302000  0.64598000  0.29777000  1.0
  H  H19  1  0.86699000  0.35402000  0.79777000  1.0
  H  H20  1  0.11702000  0.35269000  0.79779000  1.0
  H  H21  1  0.88300000  0.64731000  0.29779000  1.0
  H  H22  1  0.88300000  0.64731000  0.20221000  1.0
  H  H23  1  0.11702000  0.35268000  0.70221000  1.0
  H  H24  1  0.69024000  0.40069000  0.92881000  1.0
  H  H25  1  0.30976000  0.59931000  0.42881000  1.0
  H  H26  1  0.30976000  0.59931000  0.07119000  1.0
  H  H27  1  0.69024000  0.40069000  0.57119000  1.0
  H  H28  1  0.73659000  0.13209000  0.94359000  1.0
  H  H29  1  0.26340000  0.86791000  0.44359000  1.0
  H  H30  1  0.26339000  0.86791000  0.05641000  1.0
  H  H31  1  0.73659000  0.13209000  0.55641000  1.0
  H  H32  1  0.20976000  0.52074000  0.97742000  1.0
  H  H33  1  0.79023000  0.47926000  0.47742000  1.0
  H  H34  1  0.79023000  0.47926000  0.02258000  1.0
  H  H35  1  0.20976000  0.52074000  0.52258000  1.0
  H  H36  1  0.88401000  0.24078000  0.86248000  1.0
  H  H37  1  0.11600000  0.75922000  0.36249000  1.0
  H  H38  1  0.11600000  0.75922000  0.13752000  1.0
  H  H39  1  0.88401000  0.24078000  0.63752000  1.0
  H  H40  1  0.89712000  0.15719000  0.81492000  1.0
  H  H41  1  0.10289000  0.84281000  0.31492000  1.0
  H  H42  1  0.10289000  0.84281000  0.18508000  1.0
  H  H43  1  0.89712000  0.15719000  0.68508000  1.0
  H  H44  1  0.14570000  0.15625000  0.81475000  1.0
  H  H45  1  0.85431000  0.84374000  0.31475000  1.0
  H  H46  1  0.85431000  0.84375000  0.18525000  1.0
  H  H47  1  0.14570000  0.15625000  0.68525000  1.0
  H  H48  1  0.13413000  0.23981000  0.86239000  1.0
  H  H49  1  0.86588000  0.76019000  0.36239000  1.0
  H  H50  1  0.86588000  0.76019000  0.13762000  1.0
  H  H51  1  0.13413000  0.23981000  0.63761000  1.0
  C  C52  1  0.52776000  0.15338000  0.84841000  1.0
  C  C53  1  0.47224000  0.84662000  0.34841000  1.0
  C  C54  1  0.47224000  0.84662000  0.15159000  1.0
  C  C55  1  0.52776000  0.15338000  0.65159000  1.0
  C  C56  1  0.53439000  0.09976000  0.90893000  1.0
  C  C57  1  0.46561000  0.90024000  0.40893000  1.0
  C  C58  1  0.46560000  0.90024000  0.09107000  1.0
  C  C59  1  0.53439000  0.09976000  0.59107000  1.0
  C  C60  1  0.42792000  0.05442000  0.92072000  1.0
  C  C61  1  0.57207000  0.94558000  0.42072000  1.0
  C  C62  1  0.57207000  0.94558000  0.07928000  1.0
  C  C63  1  0.42792000  0.05442000  0.57928000  1.0
  C  C64  1  0.33391000  0.43944000  0.91648000  1.0
  C  C65  1  0.66608000  0.56057000  0.41648000  1.0
  C  C66  1  0.66608000  0.56056000  0.08352000  1.0
  C  C67  1  0.33391000  0.43943000  0.58352000  1.0
  C  C68  1  0.33254000  0.95398000  0.98982000  1.0
  C  C69  1  0.66744000  0.04602000  0.48982000  1.0
  C  C70  1  0.66744000  0.04602000  0.01018000  1.0
  C  C71  1  0.33255000  0.95398000  0.51018000  1.0
  C  C72  1  0.43886000  0.00221000  0.97704000  1.0
  C  C73  1  0.56112000  0.99779000  0.47704000  1.0
  C  C74  1  0.56112000  0.99779000  0.02296000  1.0
  C  C75  1  0.43886000  0.00221000  0.52296000  1.0
  C  C76  1  0.49300000  0.34719000  0.84664000  1.0
  C  C77  1  0.50701000  0.65281000  0.34664000  1.0
  C  C78  1  0.50701000  0.65281000  0.15336000  1.0
  C  C79  1  0.49300000  0.34719000  0.65336000  1.0
  C  C80  1  0.47087000  0.40556000  0.90252000  1.0
  C  C81  1  0.52913000  0.59444000  0.40252000  1.0
  C  C82  1  0.52912000  0.59444000  0.09748000  1.0
  C  C83  1  0.47087000  0.40556000  0.59748000  1.0
  C  C84  1  0.58580000  0.42717000  0.94030000  1.0
  C  C85  1  0.41420000  0.57284000  0.44030000  1.0
  C  C86  1  0.41420000  0.57284000  0.05970000  1.0
  C  C87  1  0.58579000  0.42717000  0.55970000  1.0
  C  C88  1  0.65523000  0.09529000  0.95425000  1.0
  C  C89  1  0.34476000  0.90471000  0.45425000  1.0
  C  C90  1  0.34476000  0.90471000  0.04575000  1.0
  C  C91  1  0.65523000  0.09529000  0.54575000  1.0
  C  C92  1  0.31479000  0.49413000  0.96712000  1.0
  C  C93  1  0.68521000  0.50587000  0.46713000  1.0
  C  C94  1  0.68521000  0.50586000  0.03288000  1.0
  C  C95  1  0.31478000  0.49413000  0.53288000  1.0
  C  C96  1  0.56928000  0.48274000  0.99312000  1.0
  C  C97  1  0.43071000  0.51726000  0.49312000  1.0
  C  C98  1  0.43071000  0.51726000  0.00688000  1.0
  C  C99  1  0.56928000  0.48274000  0.50688000  1.0
  C  C100  1  0.93179000  0.21255000  0.81509000  1.0
  C  C101  1  0.06823000  0.78745000  0.31509000  1.0
  C  C102  1  0.06823000  0.78745000  0.18491000  1.0
  C  C103  1  0.93179000  0.21255000  0.68491000  1.0
  C  C104  1  0.09484000  0.21211000  0.81484000  1.0
  C  C105  1  0.90517000  0.78789000  0.31484000  1.0
  C  C106  1  0.90517000  0.78789000  0.18516000  1.0
  C  C107  1  0.09484000  0.21211000  0.68516000  1.0
  C  C108  1  0.91440000  0.32646000  0.75000000  1.0
  C  C109  1  0.08561000  0.67354000  0.25000000  1.0
  C  C110  1  0.07798000  0.32538000  0.75000000  1.0
  C  C111  1  0.92203000  0.67462000  0.25000000  1.0
  N  N112  1  0.14298000  0.24952000  0.75000000  1.0
  N  N113  1  0.85703000  0.75047000  0.25000000  1.0
  N  N114  1  0.87162000  0.25067000  0.75000000  1.0
  N  N115  1  0.12839000  0.74933000  0.25000000  1.0
  O  O116  1  0.61807000  0.32795000  0.82691000  1.0
  O  O117  1  0.38193000  0.67205000  0.32690000  1.0
  O  O118  1  0.38193000  0.67205000  0.17309000  1.0
  O  O119  1  0.61807000  0.32795000  0.67309000  1.0
  O  O120  1  0.40530000  0.17400000  0.82264000  1.0
  O  O121  1  0.59471000  0.82601000  0.32264000  1.0
  O  O122  1  0.59470000  0.82600000  0.17736000  1.0
  O  O123  1  0.40530000  0.17400000  0.67736000  1.0
  O  O124  1  0.64364000  0.17508000  0.82735000  1.0
  O  O125  1  0.35637000  0.82491000  0.32735000  1.0
  O  O126  1  0.35636000  0.82492000  0.17265000  1.0
  O  O127  1  0.64364000  0.17508000  0.67265000  1.0
  O  O128  1  0.38075000  0.32094000  0.82253000  1.0
  O  O129  1  0.61926000  0.67906000  0.32253000  1.0
  O  O130  1  0.61926000  0.67906000  0.17748000  1.0
  O  O131  1  0.38075000  0.32094000  0.67747000  1.0
