# generated using pymatgen
data_CaH11C11NO7
_symmetry_space_group_name_H-M   'P 1'
_cell_length_a   8.30957000
_cell_length_b   8.70644000
_cell_length_c   9.82626000
_cell_angle_alpha   67.20410000
_cell_angle_beta   81.42820000
_cell_angle_gamma   74.27500000
_symmetry_Int_Tables_number   1
_chemical_formula_structural   CaH11C11NO7
_chemical_formula_sum   'Ca2 H22 C22 N2 O14'
_cell_volume   630.06495856
_cell_formula_units_Z   2
loop_
 _symmetry_equiv_pos_site_id
 _symmetry_equiv_pos_as_xyz
  1  'x, y, z'
loop_
 _atom_site_type_symbol
 _atom_site_label
 _atom_site_symmetry_multiplicity
 _atom_site_fract_x
 _atom_site_fract_y
 _atom_site_fract_z
 _atom_site_occupancy
  Ca  Ca0  1  0.67050000  0.63903000  0.95988000  1.0
  Ca  Ca1  1  0.32950000  0.36097000  0.04012000  1.0
  H  H2  1  0.50769000  0.68538000  0.58351000  1.0
  H  H3  1  0.49231000  0.31462000  0.41649000  1.0
  H  H4  1  0.31707000  0.03762000  0.70718000  1.0
  H  H5  1  0.68293000  0.96239000  0.29282000  1.0
  H  H6  1  0.11829000  0.00298000  0.69504000  1.0
  H  H7  1  0.88171000  0.99702000  0.30496000  1.0
  H  H8  1  0.20643000  0.15271000  0.54051000  1.0
  H  H9  1  0.79357000  0.84730000  0.45949000  1.0
  H  H10  1  0.76135000  0.56545000  0.66880000  1.0
  H  H11  1  0.23865000  0.43455000  0.33120000  1.0
  H  H12  1  0.32702000  0.78323000  0.42207000  1.0
  H  H13  1  0.67299000  0.21678000  0.57793000  1.0
  H  H14  1  0.23735000  0.00875000  0.36114000  1.0
  H  H15  1  0.76265000  0.99125000  0.63885000  1.0
  H  H16  1  0.12191000  0.86117000  0.48920000  1.0
  H  H17  1  0.87809000  0.13884000  0.51080000  1.0
  H  H18  1  0.31552000  0.44772000  0.67521000  1.0
  H  H19  1  0.68448000  0.55229000  0.32479000  1.0
  H  H20  1  0.35838000  0.98916000  0.08485000  1.0
  H  H21  1  0.64162000  0.01083000  0.91515000  1.0
  H  H22  1  0.04779000  0.71831000  0.97201000  1.0
  H  H23  1  0.95221000  0.28168000  0.02799000  1.0
  C  C24  1  0.05386000  0.53226000  0.77127000  1.0
  C  C25  1  0.94614000  0.46774000  0.22874000  1.0
  C  C26  1  0.45892000  0.78129000  0.63624000  1.0
  C  C27  1  0.54107000  0.21871000  0.36376000  1.0
  C  C28  1  0.02797000  0.51193000  0.63283000  1.0
  C  C29  1  0.97203000  0.48808000  0.36717000  1.0
  C  C30  1  0.23550000  0.03008000  0.63337000  1.0
  C  C31  1  0.76450000  0.96993000  0.36663000  1.0
  C  C32  1  0.86516000  0.53609000  0.59421000  1.0
  C  C33  1  0.13484000  0.46392000  0.40579000  1.0
  C  C34  1  0.24724000  0.88682000  0.45550000  1.0
  C  C35  1  0.75277000  0.11319000  0.54450000  1.0
  C  C36  1  0.16567000  0.47315000  0.53782000  1.0
  C  C37  1  0.83433000  0.52686000  0.46218000  1.0
  C  C38  1  0.32581000  0.76577000  0.05012000  1.0
  C  C39  1  0.67419000  0.23422000  0.94988000  1.0
  C  C40  1  0.15695000  0.88396000  0.02776000  1.0
  C  C41  1  0.84305000  0.11603000  0.97224000  1.0
  C  C42  1  0.02681000  0.84062000  0.98575000  1.0
  C  C43  1  0.97319000  0.15937000  0.01426000  1.0
  C  C44  1  0.12959000  0.04568000  0.04154000  1.0
  C  C45  1  0.87041000  0.95431000  0.95845000  1.0
  N  N46  1  0.32005000  0.89508000  0.57767000  1.0
  N  N47  1  0.67995000  0.10492000  0.42233000  1.0
  O  O48  1  0.93024000  0.59315000  0.84125000  1.0
  O  O49  1  0.06976000  0.40685000  0.15875000  1.0
  O  O50  1  0.53140000  0.78175000  0.73947000  1.0
  O  O51  1  0.46860000  0.21824000  0.26053000  1.0
  O  O52  1  0.20653000  0.48702000  0.81157000  1.0
  O  O53  1  0.79347000  0.51298000  0.18843000  1.0
  O  O54  1  0.44509000  0.81747000  0.07714000  1.0
  O  O55  1  0.55491000  0.18252000  0.92286000  1.0
  O  O56  1  0.35545000  0.62118000  0.03694000  1.0
  O  O57  1  0.64455000  0.37881000  0.96306000  1.0
  O  O58  1  0.32634000  0.44255000  0.57273000  1.0
  O  O59  1  0.67366000  0.55746000  0.42727000  1.0
  O  O60  1  0.25590000  0.09049000  0.08069000  1.0
  O  O61  1  0.74410000  0.90951000  0.91931000  1.0
