# generated using pymatgen
data_CoH16C16(NO2)2
_symmetry_space_group_name_H-M   'P 1'
_cell_length_a   4.30904000
_cell_length_b   10.51550000
_cell_length_c   15.35010000
_cell_angle_alpha   83.97260000
_cell_angle_beta   89.99960000
_cell_angle_gamma   89.99960000
_symmetry_Int_Tables_number   1
_chemical_formula_structural   CoH16C16(NO2)2
_chemical_formula_sum   'Co2 H32 C32 N4 O8'
_cell_volume   691.69419707
_cell_formula_units_Z   2
loop_
 _symmetry_equiv_pos_site_id
 _symmetry_equiv_pos_as_xyz
  1  'x, y, z'
loop_
 _atom_site_type_symbol
 _atom_site_label
 _atom_site_symmetry_multiplicity
 _atom_site_fract_x
 _atom_site_fract_y
 _atom_site_fract_z
 _atom_site_occupancy
  Co  Co0  1  0.50000000  0.50000000  0.50000000  1.0
  Co  Co1  1  0.00000000  0.50000000  0.00000000  1.0
  H  H2  1  0.74291000  0.56244000  0.76296000  1.0
  H  H3  1  0.24291000  0.43756000  0.73704000  1.0
  H  H4  1  0.25709000  0.43756000  0.23704000  1.0
  H  H5  1  0.75709000  0.56244000  0.26296000  1.0
  H  H6  1  0.43057000  0.94128000  0.75009000  1.0
  H  H7  1  0.93056000  0.05871000  0.74991000  1.0
  H  H8  1  0.56943000  0.05872000  0.24991000  1.0
  H  H9  1  0.06944000  0.94129000  0.25009000  1.0
  H  H10  1  0.37630000  0.82053000  0.61953000  1.0
  H  H11  1  0.87630000  0.17946000  0.88047000  1.0
  H  H12  1  0.62370000  0.17947000  0.38047000  1.0
  H  H13  1  0.12370000  0.82054000  0.11953000  1.0
  H  H14  1  0.25602000  0.83569000  0.96651000  1.0
  H  H15  1  0.75603000  0.16431000  0.53349000  1.0
  H  H16  1  0.74398000  0.16431000  0.03349000  1.0
  H  H17  1  0.24397000  0.83569000  0.46651000  1.0
  H  H18  1  0.93137000  0.92890000  0.92952000  1.0
  H  H19  1  0.43137000  0.07110000  0.57048000  1.0
  H  H20  1  0.06863000  0.07110000  0.07048000  1.0
  H  H21  1  0.56863000  0.92890000  0.42952000  1.0
  H  H22  1  0.30717000  0.97802000  0.89310000  1.0
  H  H23  1  0.80718000  0.02198000  0.60689000  1.0
  H  H24  1  0.69283000  0.02198000  0.10690000  1.0
  H  H25  1  0.19282000  0.97802000  0.39311000  1.0
  H  H26  1  0.57407000  0.62394000  0.90548000  1.0
  H  H27  1  0.07408000  0.37606000  0.59452000  1.0
  H  H28  1  0.42593000  0.37606000  0.09452000  1.0
  H  H29  1  0.92592000  0.62394000  0.40548000  1.0
  H  H30  1  0.77094000  0.72826000  0.95738000  1.0
  H  H31  1  0.27095000  0.27174000  0.54262000  1.0
  H  H32  1  0.22905000  0.27174000  0.04262000  1.0
  H  H33  1  0.72905000  0.72826000  0.45738000  1.0
  C  C34  1  0.05136000  0.68515000  0.68318000  1.0
  C  C35  1  0.55136000  0.31485000  0.81682000  1.0
  C  C36  1  0.94864000  0.31485000  0.31682000  1.0
  C  C37  1  0.44864000  0.68515000  0.18317000  1.0
  C  C38  1  0.89615000  0.64493000  0.76108000  1.0
  C  C39  1  0.39615000  0.35506000  0.73892000  1.0
  C  C40  1  0.10384000  0.35507000  0.23892000  1.0
  C  C41  1  0.60385000  0.64494000  0.26108000  1.0
  C  C42  1  0.93745000  0.70860000  0.83558000  1.0
  C  C43  1  0.43745000  0.29140000  0.66442000  1.0
  C  C44  1  0.06255000  0.29140000  0.16442000  1.0
  C  C45  1  0.56255000  0.70860000  0.33558000  1.0
  C  C46  1  0.12747000  0.81841000  0.83181000  1.0
  C  C47  1  0.62747000  0.18159000  0.66819000  1.0
  C  C48  1  0.87253000  0.18159000  0.16819000  1.0
  C  C49  1  0.37253000  0.81841000  0.33181000  1.0
  C  C50  1  0.28099000  0.85733000  0.75296000  1.0
  C  C51  1  0.78098000  0.14266000  0.74704000  1.0
  C  C52  1  0.71901000  0.14267000  0.24704000  1.0
  C  C53  1  0.21902000  0.85734000  0.25296000  1.0
  C  C54  1  0.24901000  0.79140000  0.67957000  1.0
  C  C55  1  0.74901000  0.20860000  0.82044000  1.0
  C  C56  1  0.75099000  0.20860000  0.32043000  1.0
  C  C57  1  0.25099000  0.79140000  0.17957000  1.0
  C  C58  1  0.00988000  0.61336000  0.60533000  1.0
  C  C59  1  0.50988000  0.38664000  0.89467000  1.0
  C  C60  1  0.99012000  0.38664000  0.39467000  1.0
  C  C61  1  0.49012000  0.61336000  0.10533000  1.0
  C  C62  1  0.15888000  0.89400000  0.90925000  1.0
  C  C63  1  0.65888000  0.10600000  0.59075000  1.0
  C  C64  1  0.84112000  0.10600000  0.09075000  1.0
  C  C65  1  0.34112000  0.89400000  0.40925000  1.0
  N  N66  1  0.79072000  0.66067000  0.91482000  1.0
  N  N67  1  0.29072000  0.33933000  0.58518000  1.0
  N  N68  1  0.20928000  0.33933000  0.08518000  1.0
  N  N69  1  0.70928000  0.66067000  0.41482000  1.0
  O  O70  1  0.20442000  0.63353000  0.54211000  1.0
  O  O71  1  0.70443000  0.36647000  0.95789000  1.0
  O  O72  1  0.79558000  0.36647000  0.45789000  1.0
  O  O73  1  0.29558000  0.63353000  0.04211000  1.0
  O  O74  1  0.78402000  0.53465000  0.60564000  1.0
  O  O75  1  0.28402000  0.46535000  0.89436000  1.0
  O  O76  1  0.21598000  0.46535000  0.39436000  1.0
  O  O77  1  0.71598000  0.53465000  0.10564000  1.0
