# generated using pymatgen
data_ZnH12C15(NO)4
_symmetry_space_group_name_H-M   'P 1'
_cell_length_a   9.83484000
_cell_length_b   10.96350000
_cell_length_c   13.98010000
_cell_angle_alpha   86.43560000
_cell_angle_beta   82.34310000
_cell_angle_gamma   87.23620000
_symmetry_Int_Tables_number   1
_chemical_formula_structural   ZnH12C15(NO)4
_chemical_formula_sum   'Zn2 H24 C30 N8 O8'
_cell_volume   1489.84804637
_cell_formula_units_Z   2
loop_
 _symmetry_equiv_pos_site_id
 _symmetry_equiv_pos_as_xyz
  1  'x, y, z'
loop_
 _atom_site_type_symbol
 _atom_site_label
 _atom_site_symmetry_multiplicity
 _atom_site_fract_x
 _atom_site_fract_y
 _atom_site_fract_z
 _atom_site_occupancy
  Zn  Zn0  1  0.65164000  0.51701000  0.49959000  1.0
  Zn  Zn1  1  0.35123000  0.53089000  0.51098000  1.0
  H  H2  1  0.65333000  0.55062000  0.98217000  1.0
  H  H3  1  0.81825000  0.18690000  0.66199000  1.0
  H  H4  1  0.73829000  0.28438000  0.57696000  1.0
  H  H5  1  0.67886000  0.29131000  0.70208000  1.0
  H  H6  1  0.80565000  0.52772000  0.24824000  1.0
  H  H7  1  0.92145000  0.34961000  0.18974000  1.0
  H  H8  1  0.92001000  0.34019000  0.31758000  1.0
  H  H9  1  0.07030000  0.38601000  0.24007000  1.0
  H  H10  1  0.29658000  0.96410000  0.70860000  1.0
  H  H11  1  0.12488000  0.92661000  0.60549000  1.0
  H  H12  1  0.14470000  0.80346000  0.69412000  1.0
  H  H13  1  0.88228000  0.67751000  0.32528000  1.0
  H  H14  1  0.22246000  0.79144000  0.57256000  1.0
  H  H15  1  0.66712000  0.79473000  0.32096000  1.0
  H  H16  1  0.91088000  0.84458000  0.23595000  1.0
  H  H17  1  0.81815000  0.96564000  0.17797000  1.0
  H  H18  1  0.78014000  0.81111000  0.16556000  1.0
  H  H19  1  0.17233000  0.56094000  0.27725000  1.0
  H  H20  1  0.12776000  0.71027000  0.32063000  1.0
  H  H21  1  0.35722000  0.46154000  0.03015000  1.0
  H  H22  1  0.33315000  0.14020000  0.61656000  1.0
  H  H23  1  0.81418000  0.13478000  0.38591000  1.0
  H  H24  1  0.11791000  0.45104000  0.64653000  1.0
  H  H25  1  0.92689000  0.35696000  0.71033000  1.0
  C  C26  1  0.52332000  0.75439000  0.51985000  1.0
  C  C27  1  0.72861000  0.94387000  0.37950000  1.0
  C  C28  1  0.07969000  0.55850000  0.42992000  1.0
  C  C29  1  0.52217000  0.54850000  0.31831000  1.0
  C  C30  1  0.06744000  0.47603000  0.58272000  1.0
  C  C31  1  0.92951000  0.44264000  0.58001000  1.0
  C  C32  1  0.94335000  0.53452000  0.42916000  1.0
  C  C33  1  0.94319000  0.59114000  0.32483000  1.0
  C  C34  1  0.10140000  0.61366000  0.32796000  1.0
  C  C35  1  0.49573000  0.29175000  0.49728000  1.0
  C  C36  1  0.45393000  0.50014000  0.69321000  1.0
  C  C37  1  0.53799000  0.54418000  0.21461000  1.0
  C  C38  1  0.45302000  0.48937000  0.79678000  1.0
  C  C39  1  0.45153000  0.48796000  0.98452000  1.0
  C  C40  1  0.55827000  0.52505000  0.02720000  1.0
  C  C41  1  0.54950000  0.53448000  0.12737000  1.0
  C  C42  1  0.45444000  0.48637000  0.88410000  1.0
  C  C43  1  0.77037000  0.27829000  0.64915000  1.0
  C  C44  1  0.95744000  0.39317000  0.24978000  1.0
  C  C45  1  0.19622000  0.85421000  0.63039000  1.0
  C  C46  1  0.68969000  0.14700000  0.27565000  1.0
  C  C47  1  0.80905000  0.87510000  0.21591000  1.0
  C  C48  1  0.60687000  0.95933000  0.45892000  1.0
  C  C49  1  0.85800000  0.90230000  0.41669000  1.0
  C  C50  1  0.51468000  0.89077000  0.52180000  1.0
  C  C51  1  0.41452000  0.95982000  0.58195000  1.0
  C  C52  1  0.41263000  0.08880000  0.57173000  1.0
  C  C53  1  0.50476000  0.15562000  0.50561000  1.0
  C  C54  1  0.60319000  0.08580000  0.44992000  1.0
  C  C55  1  0.72149000  0.09365000  0.36798000  1.0
  N  N56  1  0.14338000  0.53352000  0.50847000  1.0
  N  N57  1  0.86181000  0.48001000  0.50267000  1.0
  N  N58  1  0.86950000  0.37125000  0.65524000  1.0
  N  N59  1  0.90960000  0.52128000  0.24809000  1.0
  N  N60  1  0.32266000  0.90350000  0.65613000  1.0
  N  N61  1  0.66576000  0.19259000  0.20179000  1.0
  N  N62  1  0.70005000  0.88001000  0.29799000  1.0
  N  N63  1  0.96266000  0.86785000  0.44147000  1.0
  O  O64  1  0.64103000  0.70164000  0.52269000  1.0
  O  O65  1  0.41313000  0.70379000  0.50961000  1.0
  O  O66  1  0.62857000  0.57443000  0.35584000  1.0
  O  O67  1  0.40447000  0.52548000  0.36311000  1.0
  O  O68  1  0.60708000  0.34456000  0.46493000  1.0
  O  O69  1  0.38042000  0.34418000  0.52419000  1.0
  O  O70  1  0.57099000  0.48571000  0.64280000  1.0
  O  O71  1  0.33920000  0.52268000  0.66196000  1.0
