# generated using pymatgen
data_CdH16C16SO10
_symmetry_space_group_name_H-M   'P 1'
_cell_length_a   5.25653000
_cell_length_b   6.59173000
_cell_length_c   13.88590000
_cell_angle_alpha   81.90370000
_cell_angle_beta   79.09090000
_cell_angle_gamma   66.50770000
_symmetry_Int_Tables_number   1
_chemical_formula_structural   CdH16C16SO10
_chemical_formula_sum   'Cd1 H16 C16 S1 O10'
_cell_volume   432.14302989
_cell_formula_units_Z   1
loop_
 _symmetry_equiv_pos_site_id
 _symmetry_equiv_pos_as_xyz
  1  'x, y, z'
loop_
 _atom_site_type_symbol
 _atom_site_label
 _atom_site_symmetry_multiplicity
 _atom_site_fract_x
 _atom_site_fract_y
 _atom_site_fract_z
 _atom_site_occupancy
  Cd  Cd0  1  0.57119000  0.50017000  0.49998000  1.0
  H  H1  1  0.01872000  0.12444000  0.57484000  1.0
  H  H2  1  0.71820000  0.87568000  0.42512000  1.0
  H  H3  1  0.00338000  0.35728000  0.61066000  1.0
  H  H4  1  0.97173000  0.64275000  0.38945000  1.0
  H  H5  1  0.78904000  0.95353000  0.71898000  1.0
  H  H6  1  0.46099000  0.04672000  0.28094000  1.0
  H  H7  1  0.63838000  0.96358000  0.61267000  1.0
  H  H8  1  0.21426000  0.03680000  0.38728000  1.0
  H  H9  1  0.32210000  0.13233000  0.74454000  1.0
  H  H10  1  0.19867000  0.86795000  0.25552000  1.0
  H  H11  1  0.88504000  0.25129000  0.86096000  1.0
  H  H12  1  0.99739000  0.74857000  0.13912000  1.0
  H  H13  1  0.99343000  0.56799000  0.94230000  1.0
  H  H14  1  0.50328000  0.43165000  0.05772000  1.0
  H  H15  1  0.42988000  0.44656000  0.82226000  1.0
  H  H16  1  0.69814000  0.55353000  0.17766000  1.0
  C  C17  1  0.77068000  0.85133000  0.66630000  1.0
  C  C18  1  0.28793000  0.14902000  0.33364000  1.0
  C  C19  1  0.06059000  0.73276000  0.61169000  1.0
  C  C20  1  0.40509000  0.26722000  0.38825000  1.0
  C  C21  1  0.40570000  0.78004000  0.77619000  1.0
  C  C22  1  0.96146000  0.22014000  0.22384000  1.0
  C  C23  1  0.25096000  0.00725000  0.78605000  1.0
  C  C24  1  0.04402000  0.99289000  0.21397000  1.0
  C  C25  1  0.00278000  0.07504000  0.85215000  1.0
  C  C26  1  0.92985000  0.92490000  0.14788000  1.0
  C  C27  1  0.91100000  0.91692000  0.90795000  1.0
  C  C28  1  0.73573000  0.08283000  0.09206000  1.0
  C  C29  1  0.06414000  0.69020000  0.89741000  1.0
  C  C30  1  0.65155000  0.30961000  0.10258000  1.0
  C  C31  1  0.30934000  0.62228000  0.83074000  1.0
  C  C32  1  0.76196000  0.37776000  0.16924000  1.0
  S  S33  1  0.61263000  0.99972000  0.00000000  1.0
  O  O34  1  0.65512000  0.69577000  0.71511000  1.0
  O  O35  1  0.06549000  0.30456000  0.28490000  1.0
  O  O36  1  0.17505000  0.52160000  0.61569000  1.0
  O  O37  1  0.31267000  0.47841000  0.38432000  1.0
  O  O38  1  0.18402000  0.85318000  0.56110000  1.0
  O  O39  1  0.59826000  0.14670000  0.43884000  1.0
  O  O40  1  0.89415000  0.28023000  0.59101000  1.0
  O  O41  1  0.76578000  0.71975000  0.40907000  1.0
  O  O42  1  0.39403000  0.19557000  0.96294000  1.0
  O  O43  1  0.55349000  0.80351000  0.03709000  1.0
