# generated using pymatgen
data_AgP2H24C26NO3
_symmetry_space_group_name_H-M   'P 1'
_cell_length_a   10.98210000
_cell_length_b   10.98210000
_cell_length_c   11.00010000
_cell_angle_alpha   76.61700000
_cell_angle_beta   76.61730000
_cell_angle_gamma   78.89400000
_symmetry_Int_Tables_number   1
_chemical_formula_structural   AgP2H24C26NO3
_chemical_formula_sum   'Ag2 P4 H48 C52 N2 O6'
_cell_volume   1241.98433143
_cell_formula_units_Z   2
loop_
 _symmetry_equiv_pos_site_id
 _symmetry_equiv_pos_as_xyz
  1  'x, y, z'
loop_
 _atom_site_type_symbol
 _atom_site_label
 _atom_site_symmetry_multiplicity
 _atom_site_fract_x
 _atom_site_fract_y
 _atom_site_fract_z
 _atom_site_occupancy
  Ag  Ag0  1  0.33752000  0.66248000  0.25000000  1.0
  Ag  Ag1  1  0.66248000  0.33752000  0.75000000  1.0
  P  P2  1  0.31422000  0.51522000  0.13216000  1.0
  P  P3  1  0.48478000  0.68578000  0.36784000  1.0
  P  P4  1  0.68578000  0.48478000  0.86784000  1.0
  P  P5  1  0.51522000  0.31422000  0.63216000  1.0
  H  H6  1  0.33342000  0.23627000  0.13319000  1.0
  H  H7  1  0.76374000  0.66658000  0.36681000  1.0
  H  H8  1  0.66658000  0.76374000  0.86681000  1.0
  H  H9  1  0.23627000  0.33342000  0.63319000  1.0
  H  H10  1  0.23163000  0.06763000  0.29003000  1.0
  H  H11  1  0.93237000  0.76836000  0.20998000  1.0
  H  H12  1  0.76837000  0.93237000  0.70997000  1.0
  H  H13  1  0.06763000  0.23163000  0.79003000  1.0
  H  H14  1  0.08332000  0.11796000  0.48853000  1.0
  H  H15  1  0.88205000  0.91668000  0.01147000  1.0
  H  H16  1  0.91668000  0.88204000  0.51147000  1.0
  H  H17  1  0.11796000  0.08332000  0.98853000  1.0
  H  H18  1  0.03559000  0.33610000  0.52518000  1.0
  H  H19  1  0.66391000  0.96440000  0.97483000  1.0
  H  H20  1  0.96441000  0.66390000  0.47482000  1.0
  H  H21  1  0.33610000  0.03559000  0.02518000  1.0
  H  H22  1  0.13943000  0.50822000  0.36743000  1.0
  H  H23  1  0.49179000  0.86057000  0.13257000  1.0
  H  H24  1  0.86057000  0.49179000  0.63257000  1.0
  H  H25  1  0.50822000  0.13943000  0.86743000  1.0
  H  H26  1  0.22105000  0.38983000  0.96497000  1.0
  H  H27  1  0.61017000  0.77895000  0.53503000  1.0
  H  H28  1  0.77895000  0.61017000  0.03503000  1.0
  H  H29  1  0.38982000  0.22105000  0.46497000  1.0
  H  H30  1  0.08897000  0.47688000  0.80198000  1.0
  H  H31  1  0.52311000  0.91102000  0.69803000  1.0
  H  H32  1  0.91102000  0.52311000  0.19803000  1.0
  H  H33  1  0.47688000  0.08898000  0.30198000  1.0
  H  H34  1  0.01035000  0.70750000  0.75476000  1.0
  H  H35  1  0.29249000  0.98965000  0.74524000  1.0
  H  H36  1  0.98965000  0.29250000  0.24525000  1.0
  H  H37  1  0.70750000  0.01035000  0.25476000  1.0
  H  H38  1  0.06430000  0.85215000  0.87019000  1.0
  H  H39  1  0.14784000  0.93569000  0.62981000  1.0
  H  H40  1  0.93569000  0.14785000  0.12981000  1.0
  H  H41  1  0.85215000  0.06431000  0.37019000  1.0
  H  H42  1  0.19774000  0.76625000  0.03513000  1.0
  H  H43  1  0.23375000  0.80225000  0.46487000  1.0
  H  H44  1  0.80226000  0.23375000  0.96487000  1.0
  H  H45  1  0.76625000  0.19774000  0.53513000  1.0
  H  H46  1  0.52221000  0.39115000  0.11442000  1.0
  H  H47  1  0.60885000  0.47779000  0.38558000  1.0
  H  H48  1  0.47779000  0.60885000  0.88558000  1.0
  H  H49  1  0.39115000  0.52221000  0.61442000  1.0
  H  H50  1  0.44987000  0.38189000  0.98819000  1.0
  H  H51  1  0.61811000  0.55013000  0.51181000  1.0
  H  H52  1  0.55013000  0.61812000  0.01181000  1.0
  H  H53  1  0.38189000  0.44987000  0.48819000  1.0
  C  C54  1  0.24372000  0.38374000  0.24003000  1.0
  C  C55  1  0.61627000  0.75628000  0.25997000  1.0
  C  C56  1  0.75628000  0.61626000  0.75997000  1.0
  C  C57  1  0.38373000  0.24372000  0.74003000  1.0
  C  C58  1  0.26903000  0.25940000  0.21905000  1.0
  C  C59  1  0.74060000  0.73097000  0.28095000  1.0
  C  C60  1  0.73097000  0.74060000  0.78095000  1.0
  C  C61  1  0.25940000  0.26903000  0.71905000  1.0
  C  C62  1  0.21178000  0.16368000  0.30814000  1.0
  C  C63  1  0.83633000  0.78822000  0.19187000  1.0
  C  C64  1  0.78822000  0.83633000  0.69186000  1.0
  C  C65  1  0.16367000  0.21178000  0.80813000  1.0
  C  C66  1  0.12836000  0.19177000  0.41824000  1.0
  C  C67  1  0.80823000  0.87164000  0.08177000  1.0
  C  C68  1  0.87165000  0.80823000  0.58176000  1.0
  C  C69  1  0.19178000  0.12836000  0.91824000  1.0
  C  C70  1  0.10156000  0.31583000  0.43923000  1.0
  C  C71  1  0.68418000  0.89844000  0.06077000  1.0
  C  C72  1  0.89844000  0.68418000  0.56076000  1.0
  C  C73  1  0.31582000  0.10156000  0.93923000  1.0
  C  C74  1  0.15930000  0.41125000  0.35097000  1.0
  C  C75  1  0.58876000  0.84070000  0.14903000  1.0
  C  C76  1  0.84070000  0.58876000  0.64903000  1.0
  C  C77  1  0.41125000  0.15931000  0.85097000  1.0
  C  C78  1  0.21799000  0.57298000  0.01079000  1.0
  C  C79  1  0.42702000  0.78200000  0.48922000  1.0
  C  C80  1  0.78201000  0.42702000  0.98921000  1.0
  C  C81  1  0.57298000  0.21800000  0.51078000  1.0
  C  C82  1  0.18825000  0.49144000  0.94415000  1.0
  C  C83  1  0.50856000  0.81175000  0.55585000  1.0
  C  C84  1  0.81175000  0.50856000  0.05585000  1.0
  C  C85  1  0.49144000  0.18825000  0.44415000  1.0
  C  C86  1  0.11368000  0.54037000  0.85229000  1.0
  C  C87  1  0.45962000  0.88632000  0.64772000  1.0
  C  C88  1  0.88632000  0.45962000  0.14772000  1.0
  C  C89  1  0.54037000  0.11368000  0.35228000  1.0
  C  C90  1  0.06889000  0.66983000  0.82629000  1.0
  C  C91  1  0.33016000  0.93111000  0.67371000  1.0
  C  C92  1  0.93111000  0.33016000  0.17372000  1.0
  C  C93  1  0.66983000  0.06889000  0.32629000  1.0
  C  C94  1  0.09883000  0.75118000  0.89177000  1.0
  C  C95  1  0.24881000  0.90116000  0.60822000  1.0
  C  C96  1  0.90117000  0.24882000  0.10823000  1.0
  C  C97  1  0.75118000  0.09883000  0.39178000  1.0
  C  C98  1  0.17324000  0.70300000  0.98401000  1.0
  C  C99  1  0.29700000  0.82675000  0.51598000  1.0
  C  C100  1  0.82675000  0.29700000  0.01599000  1.0
  C  C101  1  0.70300000  0.17325000  0.48401000  1.0
  C  C102  1  0.46579000  0.44669000  0.04404000  1.0
  C  C103  1  0.55331000  0.53421000  0.45596000  1.0
  C  C104  1  0.53421000  0.55331000  0.95596000  1.0
  C  C105  1  0.44669000  0.46579000  0.54404000  1.0
  N  N106  1  0.12670000  0.87330000  0.25000000  1.0
  N  N107  1  0.87330000  0.12670000  0.75000000  1.0
  O  O108  1  0.11115000  0.76319000  0.31685000  1.0
  O  O109  1  0.23682000  0.88886000  0.18315000  1.0
  O  O110  1  0.88886000  0.23682000  0.68315000  1.0
  O  O111  1  0.76319000  0.11115000  0.81685000  1.0
  O  O112  1  0.03716000  0.96284000  0.25000000  1.0
  O  O113  1  0.96284000  0.03716000  0.75000000  1.0
