# generated using pymatgen
data_ZnH10C14S2O5
_symmetry_space_group_name_H-M   'P 1'
_cell_length_a   10.98680000
_cell_length_b   11.55760000
_cell_length_c   17.27150000
_cell_angle_alpha   90.00000000
_cell_angle_beta   90.00000000
_cell_angle_gamma   95.97310000
_symmetry_Int_Tables_number   1
_chemical_formula_structural   ZnH10C14S2O5
_chemical_formula_sum   'Zn4 H40 C56 S8 O20'
_cell_volume   2181.24609464
_cell_formula_units_Z   4
loop_
 _symmetry_equiv_pos_site_id
 _symmetry_equiv_pos_as_xyz
  1  'x, y, z'
loop_
 _atom_site_type_symbol
 _atom_site_label
 _atom_site_symmetry_multiplicity
 _atom_site_fract_x
 _atom_site_fract_y
 _atom_site_fract_z
 _atom_site_occupancy
  Zn  Zn0  1  0.92456000  0.89802000  0.99212000  1.0
  Zn  Zn1  1  0.92457000  0.39804000  0.50787000  1.0
  Zn  Zn2  1  0.07543000  0.10196000  0.00788000  1.0
  Zn  Zn3  1  0.07544000  0.60198000  0.49212000  1.0
  H  H4  1  0.49546000  0.86691000  0.24134000  1.0
  H  H5  1  0.49547000  0.36693000  0.25866000  1.0
  H  H6  1  0.50453000  0.13308000  0.75866000  1.0
  H  H7  1  0.50454000  0.63309000  0.74134000  1.0
  H  H8  1  0.38967000  0.71736000  0.32680000  1.0
  H  H9  1  0.38969000  0.21737000  0.17321000  1.0
  H  H10  1  0.61031000  0.28263000  0.67321000  1.0
  H  H11  1  0.61032000  0.78263000  0.82680000  1.0
  H  H12  1  0.17160000  0.64380000  0.30336000  1.0
  H  H13  1  0.17162000  0.14380000  0.19666000  1.0
  H  H14  1  0.82839000  0.35619000  0.69665000  1.0
  H  H15  1  0.82840000  0.85619000  0.80336000  1.0
  H  H16  1  0.06025000  0.72718000  0.19276000  1.0
  H  H17  1  0.06027000  0.22720000  0.30725000  1.0
  H  H18  1  0.93974000  0.27279000  0.80725000  1.0
  H  H19  1  0.93975000  0.77281000  0.69276000  1.0
  H  H20  1  0.49487000  0.06852000  0.24852000  1.0
  H  H21  1  0.49489000  0.56855000  0.25147000  1.0
  H  H22  1  0.50512000  0.93146000  0.75147000  1.0
  H  H23  1  0.50513000  0.43147000  0.74852000  1.0
  H  H24  1  0.58612000  0.21211000  0.34243000  1.0
  H  H25  1  0.58617000  0.71212000  0.15755000  1.0
  H  H26  1  0.41384000  0.78788000  0.65755000  1.0
  H  H27  1  0.41386000  0.28788000  0.84242000  1.0
  H  H28  1  0.80402000  0.29876000  0.32740000  1.0
  H  H29  1  0.80407000  0.79876000  0.17259000  1.0
  H  H30  1  0.19594000  0.70124000  0.67259000  1.0
  H  H31  1  0.19596000  0.20124000  0.82740000  1.0
  H  H32  1  0.92858000  0.22911000  0.21842000  1.0
  H  H33  1  0.92861000  0.72912000  0.28159000  1.0
  H  H34  1  0.07140000  0.77088000  0.78159000  1.0
  H  H35  1  0.07140000  0.27090000  0.71842000  1.0
  H  H36  1  0.72727000  0.76571000  0.02099000  1.0
  H  H37  1  0.72728000  0.26574000  0.47901000  1.0
  H  H38  1  0.27272000  0.23426000  0.97901000  1.0
  H  H39  1  0.27273000  0.73430000  0.52099000  1.0
  H  H40  1  0.83834000  0.70075000  0.04500000  1.0
  H  H41  1  0.83835000  0.20077000  0.45501000  1.0
  H  H42  1  0.16165000  0.29923000  0.95501000  1.0
  H  H43  1  0.16166000  0.79924000  0.54500000  1.0
  C  C44  1  0.33609000  0.88761000  0.17170000  1.0
  C  C45  1  0.33611000  0.38763000  0.32830000  1.0
  C  C46  1  0.66390000  0.11237000  0.82830000  1.0
  C  C47  1  0.66390000  0.61238000  0.67170000  1.0
  C  C48  1  0.39872000  0.83878000  0.23212000  1.0
  C  C49  1  0.39873000  0.33880000  0.26788000  1.0
  C  C50  1  0.60127000  0.16120000  0.76788000  1.0
  C  C51  1  0.60128000  0.66121000  0.73212000  1.0
  C  C52  1  0.33931000  0.75327000  0.27968000  1.0
  C  C53  1  0.33933000  0.25328000  0.22032000  1.0
  C  C54  1  0.66067000  0.24672000  0.72032000  1.0
  C  C55  1  0.66068000  0.74672000  0.77969000  1.0
  C  C56  1  0.21712000  0.71147000  0.26644000  1.0
  C  C57  1  0.21714000  0.21148000  0.23357000  1.0
  C  C58  1  0.78286000  0.28852000  0.73357000  1.0
  C  C59  1  0.78287000  0.78852000  0.76644000  1.0
  C  C60  1  0.15500000  0.75827000  0.20574000  1.0
  C  C61  1  0.15502000  0.25828000  0.29427000  1.0
  C  C62  1  0.84499000  0.24171000  0.79426000  1.0
  C  C63  1  0.84500000  0.74173000  0.70575000  1.0
  C  C64  1  0.21132000  0.84784000  0.15928000  1.0
  C  C65  1  0.21134000  0.34786000  0.34073000  1.0
  C  C66  1  0.78867000  0.15214000  0.84072000  1.0
  C  C67  1  0.78868000  0.65216000  0.65928000  1.0
  C  C68  1  0.13619000  0.90078000  0.09984000  1.0
  C  C69  1  0.13620000  0.40079000  0.40017000  1.0
  C  C70  1  0.86380000  0.09920000  0.90016000  1.0
  C  C71  1  0.86381000  0.59922000  0.59984000  1.0
  C  C72  1  0.66081000  0.06220000  0.18227000  1.0
  C  C73  1  0.66082000  0.56222000  0.31772000  1.0
  C  C74  1  0.33918000  0.93778000  0.81773000  1.0
  C  C75  1  0.33919000  0.43781000  0.68228000  1.0
  C  C76  1  0.59140000  0.10061000  0.24345000  1.0
  C  C77  1  0.59143000  0.60063000  0.25653000  1.0
  C  C78  1  0.40858000  0.89938000  0.75653000  1.0
  C  C79  1  0.40859000  0.39939000  0.74346000  1.0
  C  C80  1  0.64328000  0.18256000  0.29631000  1.0
  C  C81  1  0.64332000  0.68258000  0.20368000  1.0
  C  C82  1  0.35669000  0.81743000  0.70368000  1.0
  C  C83  1  0.35671000  0.31743000  0.79631000  1.0
  C  C84  1  0.76501000  0.23030000  0.28845000  1.0
  C  C85  1  0.76505000  0.73031000  0.21154000  1.0
  C  C86  1  0.23496000  0.76969000  0.71154000  1.0
  C  C87  1  0.23498000  0.26970000  0.78845000  1.0
  C  C88  1  0.83438000  0.19252000  0.22785000  1.0
  C  C89  1  0.83441000  0.69253000  0.27215000  1.0
  C  C90  1  0.16560000  0.80746000  0.77215000  1.0
  C  C91  1  0.16560000  0.30749000  0.72785000  1.0
  C  C92  1  0.78521000  0.10745000  0.17554000  1.0
  C  C93  1  0.78523000  0.60748000  0.32446000  1.0
  C  C94  1  0.21478000  0.89252000  0.82446000  1.0
  C  C95  1  0.21478000  0.39256000  0.67554000  1.0
  C  C96  1  0.86590000  0.06867000  0.11352000  1.0
  C  C97  1  0.86590000  0.56868000  0.38648000  1.0
  C  C98  1  0.13410000  0.93131000  0.88648000  1.0
  C  C99  1  0.13411000  0.43136000  0.61353000  1.0
  S  S100  1  0.41145000  0.99385000  0.10829000  1.0
  S  S101  1  0.41147000  0.49387000  0.39171000  1.0
  S  S102  1  0.58853000  0.00613000  0.89171000  1.0
  S  S103  1  0.58854000  0.50615000  0.60829000  1.0
  S  S104  1  0.59287000  0.96464000  0.11064000  1.0
  S  S105  1  0.59288000  0.46466000  0.38936000  1.0
  S  S106  1  0.40712000  0.03534000  0.88936000  1.0
  S  S107  1  0.40713000  0.53536000  0.61064000  1.0
  O  O108  1  0.04153000  0.84044000  0.07342000  1.0
  O  O109  1  0.04155000  0.34045000  0.42659000  1.0
  O  O110  1  0.95845000  0.15954000  0.92659000  1.0
  O  O111  1  0.95847000  0.65956000  0.57342000  1.0
  O  O112  1  0.17182000  0.00595000  0.08059000  1.0
  O  O113  1  0.17182000  0.50597000  0.41940000  1.0
  O  O114  1  0.82818000  0.99402000  0.91940000  1.0
  O  O115  1  0.82818000  0.49406000  0.58058000  1.0
  O  O116  1  0.83374000  0.96913000  0.08336000  1.0
  O  O117  1  0.83376000  0.46914000  0.41663000  1.0
  O  O118  1  0.16624000  0.03086000  0.91663000  1.0
  O  O119  1  0.16626000  0.53089000  0.58336000  1.0
  O  O120  1  0.96096000  0.13592000  0.09526000  1.0
  O  O121  1  0.96096000  0.63595000  0.40475000  1.0
  O  O122  1  0.03904000  0.86405000  0.90475000  1.0
  O  O123  1  0.03904000  0.36410000  0.59526000  1.0
  O  O124  1  0.80573000  0.74402000  0.00247000  1.0
  O  O125  1  0.80574000  0.24405000  0.49753000  1.0
  O  O126  1  0.19426000  0.25595000  0.99753000  1.0
  O  O127  1  0.19427000  0.75598000  0.50247000  1.0
