# generated using pymatgen
data_ZnH14C22SN3O4
_symmetry_space_group_name_H-M   'P 1'
_cell_length_a   10.05780000
_cell_length_b   11.21072220
_cell_length_c   11.26378032
_cell_angle_alpha   83.08489404
_cell_angle_beta   63.51539670
_cell_angle_gamma   63.36384973
_symmetry_Int_Tables_number   1
_chemical_formula_structural   ZnH14C22SN3O4
_chemical_formula_sum   'Zn2 H28 C44 S2 N6 O8'
_cell_volume   1011.08721621
_cell_formula_units_Z   2
loop_
 _symmetry_equiv_pos_site_id
 _symmetry_equiv_pos_as_xyz
  1  'x, y, z'
loop_
 _atom_site_type_symbol
 _atom_site_label
 _atom_site_symmetry_multiplicity
 _atom_site_fract_x
 _atom_site_fract_y
 _atom_site_fract_z
 _atom_site_occupancy
  Zn  Zn0  1  0.81556000  0.49985000  0.49978000  1.0
  Zn  Zn1  1  0.02107000  0.99999000  0.00019000  1.0
  H  H2  1  0.10971000  0.22057000  0.31264000  1.0
  H  H3  1  0.64244000  0.77958000  0.68805000  1.0
  H  H4  1  0.05588000  0.06490000  0.54751000  1.0
  H  H5  1  0.66802000  0.93485000  0.45316000  1.0
  H  H6  1  0.96785000  0.88658000  0.63216000  1.0
  H  H7  1  0.48656000  0.11323000  0.36814000  1.0
  H  H8  1  0.92361000  0.76651000  0.48987000  1.0
  H  H9  1  0.18019000  0.23349000  0.51031000  1.0
  H  H10  1  0.96513000  0.82551000  0.25940000  1.0
  H  H11  1  0.05023000  0.17478000  0.74078000  1.0
  H  H12  1  0.83913000  0.35509000  0.13870000  1.0
  H  H13  1  0.33385000  0.64469000  0.86093000  1.0
  H  H14  1  0.91765000  0.43319000  0.20441000  1.0
  H  H15  1  0.55594000  0.56702000  0.79595000  1.0
  H  H16  1  0.89896000  0.37029000  0.89611000  1.0
  H  H17  1  0.16596000  0.62971000  0.10377000  1.0
  H  H18  1  0.89172000  0.74580000  0.74855000  1.0
  H  H19  1  0.38612000  0.25393000  0.25129000  1.0
  H  H20  1  0.96063000  0.62655000  0.10147000  1.0
  H  H21  1  0.68887000  0.37297000  0.89866000  1.0
  H  H22  1  0.78537000  0.26124000  0.67967000  1.0
  H  H23  1  0.72682000  0.73877000  0.32012000  1.0
  H  H24  1  0.58516000  0.16160000  0.76843000  1.0
  H  H25  1  0.51552000  0.83893000  0.23148000  1.0
  H  H26  1  0.34912000  0.24980000  0.70599000  1.0
  H  H27  1  0.30512000  0.75073000  0.29372000  1.0
  H  H28  1  0.20575000  0.40937000  0.57443000  1.0
  H  H29  1  0.18970000  0.59140000  0.42492000  1.0
  C  C30  1  0.09511000  0.13575000  0.16323000  1.0
  C  C31  1  0.39373000  0.86452000  0.83737000  1.0
  C  C32  1  0.05284000  0.04967000  0.35781000  1.0
  C  C33  1  0.46002000  0.95039000  0.64272000  1.0
  C  C34  1  0.03258000  0.01595000  0.48626000  1.0
  C  C35  1  0.53458000  0.98389000  0.51421000  1.0
  C  C36  1  0.98455000  0.91394000  0.53184000  1.0
  C  C37  1  0.43033000  0.08582000  0.46842000  1.0
  C  C38  1  0.95991000  0.84666000  0.45104000  1.0
  C  C39  1  0.25771000  0.15329000  0.54916000  1.0
  C  C40  1  0.98220000  0.87865000  0.32217000  1.0
  C  C41  1  0.18309000  0.12147000  0.67805000  1.0
  C  C42  1  0.02759000  0.98274000  0.27620000  1.0
  C  C43  1  0.28635000  0.01741000  0.72423000  1.0
  C  C44  1  0.93259000  0.39112000  0.11403000  1.0
  C  C45  1  0.43828000  0.60890000  0.88610000  1.0
  C  C46  1  0.92560000  0.48974000  0.01202000  1.0
  C  C47  1  0.42777000  0.51013000  0.98800000  1.0
  C  C48  1  0.90471000  0.46331000  0.90526000  1.0
  C  C49  1  0.27367000  0.53656000  0.09463000  1.0
  C  C50  1  0.88922000  0.55598000  0.81151000  1.0
  C  C51  1  0.25700000  0.44383000  0.18832000  1.0
  C  C52  1  0.90202000  0.67323000  0.82131000  1.0
  C  C53  1  0.39667000  0.32653000  0.17859000  1.0
  C  C54  1  0.93312000  0.69688000  0.92326000  1.0
  C  C55  1  0.55328000  0.30290000  0.07680000  1.0
  C  C56  1  0.94183000  0.60579000  0.01968000  1.0
  C  C57  1  0.56751000  0.39398000  0.98039000  1.0
  C  C58  1  0.86385000  0.52281000  0.70192000  1.0
  C  C59  1  0.08898000  0.47699000  0.29782000  1.0
  C  C60  1  0.96128000  0.81780000  0.92481000  1.0
  C  C61  1  0.70377000  0.18184000  0.07521000  1.0
  C  C62  1  0.68233000  0.29658000  0.65414000  1.0
  C  C63  1  0.63363000  0.70344000  0.34543000  1.0
  C  C64  1  0.54156000  0.44567000  0.54118000  1.0
  C  C65  1  0.52905000  0.55418000  0.45796000  1.0
  C  C66  1  0.56857000  0.24188000  0.70372000  1.0
  C  C67  1  0.51462000  0.75844000  0.29594000  1.0
  C  C68  1  0.43884000  0.29073000  0.66937000  1.0
  C  C69  1  0.39935000  0.70965000  0.33016000  1.0
  C  C70  1  0.42275000  0.39499000  0.58468000  1.0
  C  C71  1  0.40295000  0.60519000  0.41458000  1.0
  C  C72  1  0.29512000  0.45023000  0.54105000  1.0
  C  C73  1  0.28662000  0.55026000  0.45826000  1.0
  S  S74  1  0.13620000  0.24225000  0.04087000  1.0
  S  S75  1  0.41889000  0.75805000  0.95978000  1.0
  N  N76  1  0.05458000  0.03908000  0.15596000  1.0
  N  N77  1  0.24938000  0.96117000  0.84455000  1.0
  N  N78  1  0.09737000  0.14390000  0.28231000  1.0
  N  N79  1  0.52317000  0.85622000  0.71829000  1.0
  N  N80  1  0.66873000  0.39611000  0.57559000  1.0
  N  N81  1  0.64112000  0.60366000  0.42368000  1.0
  O  O82  1  0.89431000  0.40435000  0.67735000  1.0
  O  O83  1  0.97642000  0.59539000  0.32218000  1.0
  O  O84  1  0.80991000  0.61689000  0.63135000  1.0
  O  O85  1  0.05852000  0.38302000  0.36860000  1.0
  O  O86  1  0.94647000  0.89988000  0.84049000  1.0
  O  O87  1  0.68657000  0.09960000  0.15927000  1.0
  O  O88  1  0.00453000  0.82704000  0.01517000  1.0
  O  O89  1  0.84658000  0.17274000  0.98512000  1.0
