# generated using pymatgen
data_ZnH2CN8
_symmetry_space_group_name_H-M   'P 1'
_cell_length_a   10.70310000
_cell_length_b   10.80540000
_cell_length_c   11.31610000
_cell_angle_alpha   90.00000000
_cell_angle_beta   90.00000000
_cell_angle_gamma   114.29700000
_symmetry_Int_Tables_number   1
_chemical_formula_structural   ZnH2CN8
_chemical_formula_sum   'Zn8 H16 C8 N64'
_cell_volume   1192.80118093
_cell_formula_units_Z   8
loop_
 _symmetry_equiv_pos_site_id
 _symmetry_equiv_pos_as_xyz
  1  'x, y, z'
loop_
 _atom_site_type_symbol
 _atom_site_label
 _atom_site_symmetry_multiplicity
 _atom_site_fract_x
 _atom_site_fract_y
 _atom_site_fract_z
 _atom_site_occupancy
  Zn  Zn0  1  0.63594000  0.58845000  0.67582000  1.0
  Zn  Zn1  1  0.86406000  0.91155000  0.17582000  1.0
  Zn  Zn2  1  0.36406000  0.41155000  0.32418000  1.0
  Zn  Zn3  1  0.13594000  0.08845000  0.82418000  1.0
  Zn  Zn4  1  0.69830000  0.68003000  0.36948000  1.0
  Zn  Zn5  1  0.80170000  0.81997000  0.86948000  1.0
  Zn  Zn6  1  0.30170000  0.31997000  0.63052000  1.0
  Zn  Zn7  1  0.19830000  0.18003000  0.13052000  1.0
  H  H8  1  0.67443000  0.28463000  0.64377000  1.0
  H  H9  1  0.82557000  0.21537000  0.14377000  1.0
  H  H10  1  0.32557000  0.71537000  0.35623000  1.0
  H  H11  1  0.17443000  0.78463000  0.85623000  1.0
  H  H12  1  0.77217000  0.41434000  0.28932000  1.0
  H  H13  1  0.72782000  0.08565000  0.78932000  1.0
  H  H14  1  0.22782000  0.58565000  0.71068000  1.0
  H  H15  1  0.27217000  0.91434000  0.21068000  1.0
  H  H16  1  0.64567000  0.11132000  0.43518000  1.0
  H  H17  1  0.85433000  0.38868000  0.93518000  1.0
  H  H18  1  0.35433000  0.88868000  0.56482000  1.0
  H  H19  1  0.14567000  0.61132000  0.06482000  1.0
  H  H20  1  0.80839000  0.17914000  0.48103000  1.0
  H  H21  1  0.69161000  0.32086000  0.98103000  1.0
  H  H22  1  0.19161000  0.82086000  0.51897000  1.0
  H  H23  1  0.30839000  0.67914000  0.01897000  1.0
  C  C24  1  0.69336000  0.34591000  0.56421000  1.0
  C  C25  1  0.80664000  0.15409000  0.06420000  1.0
  C  C26  1  0.30664000  0.65409000  0.43580000  1.0
  C  C27  1  0.19336000  0.84591000  0.93579000  1.0
  C  C28  1  0.74347000  0.41295000  0.38125000  1.0
  C  C29  1  0.75652000  0.08705000  0.88124000  1.0
  C  C30  1  0.25652000  0.58705000  0.61876000  1.0
  C  C31  1  0.24347000  0.91295000  0.11875000  1.0
  N  N32  1  0.63320000  0.70821000  0.53297000  1.0
  N  N33  1  0.86680000  0.79179000  0.03297000  1.0
  N  N34  1  0.36680000  0.29179000  0.46703000  1.0
  N  N35  1  0.13320000  0.20821000  0.96703000  1.0
  N  N36  1  0.61440000  0.81093000  0.54706000  1.0
  N  N37  1  0.88560000  0.68907000  0.04706000  1.0
  N  N38  1  0.38560000  0.18907000  0.45294000  1.0
  N  N39  1  0.11440000  0.31093000  0.95294000  1.0
  N  N40  1  0.59544000  0.90801000  0.55973000  1.0
  N  N41  1  0.90456000  0.59199000  0.05973000  1.0
  N  N42  1  0.40456000  0.09199000  0.44027000  1.0
  N  N43  1  0.09544000  0.40801000  0.94027000  1.0
  N  N44  1  0.61515000  0.74269000  0.79189000  1.0
  N  N45  1  0.88485000  0.75731000  0.29189000  1.0
  N  N46  1  0.38485000  0.25731000  0.20811000  1.0
  N  N47  1  0.11516000  0.24269000  0.70811000  1.0
  N  N48  1  0.51135000  0.75005000  0.82475000  1.0
  N  N49  1  0.98865000  0.74995000  0.32475000  1.0
  N  N50  1  0.48865000  0.24995000  0.17525000  1.0
  N  N51  1  0.01135000  0.25005000  0.67525000  1.0
  N  N52  1  0.40961000  0.75518000  0.85388000  1.0
  N  N53  1  0.09039000  0.74482000  0.35388000  1.0
  N  N54  1  0.59039000  0.24482000  0.14612000  1.0
  N  N55  1  0.90961000  0.25518000  0.64612000  1.0
  N  N56  1  0.79747000  0.62986000  0.78792000  1.0
  N  N57  1  0.70254000  0.87014000  0.28792000  1.0
  N  N58  1  0.20253000  0.37014000  0.21208000  1.0
  N  N59  1  0.29747000  0.12986000  0.71207000  1.0
  N  N60  1  0.89853000  0.60892000  0.76830000  1.0
  N  N61  1  0.60147000  0.89108000  0.26830000  1.0
  N  N62  1  0.10147000  0.39108000  0.23170000  1.0
  N  N63  1  0.39853000  0.10892000  0.73170000  1.0
  N  N64  1  0.99635000  0.58986000  0.75300000  1.0
  N  N65  1  0.50366000  0.91014000  0.25300000  1.0
  N  N66  1  0.00366000  0.41014000  0.24700000  1.0
  N  N67  1  0.49634000  0.08986000  0.74700000  1.0
  N  N68  1  0.46260000  0.43493000  0.73915000  1.0
  N  N69  1  0.03740000  0.06507000  0.23915000  1.0
  N  N70  1  0.53740000  0.56507000  0.26085000  1.0
  N  N71  1  0.96260000  0.93493000  0.76085000  1.0
  N  N72  1  0.46609000  0.39674000  0.84025000  1.0
  N  N73  1  0.03391000  0.10326000  0.34025000  1.0
  N  N74  1  0.53391000  0.60326000  0.15975000  1.0
  N  N75  1  0.96609000  0.89674000  0.65974000  1.0
  N  N76  1  0.46800000  0.35947000  0.93552000  1.0
  N  N77  1  0.03200000  0.14053000  0.43552000  1.0
  N  N78  1  0.53200000  0.64053000  0.06448000  1.0
  N  N79  1  0.96800000  0.85948000  0.56448000  1.0
  N  N80  1  0.68857000  0.46553000  0.55369000  1.0
  N  N81  1  0.81143000  0.03447000  0.05369000  1.0
  N  N82  1  0.31143000  0.53447000  0.44631000  1.0
  N  N83  1  0.18857000  0.96553000  0.94631000  1.0
  N  N84  1  0.72645000  0.30945000  0.45675000  1.0
  N  N85  1  0.77355000  0.19055000  0.95674000  1.0
  N  N86  1  0.27355000  0.69055000  0.54326000  1.0
  N  N87  1  0.22645000  0.80945000  0.04325000  1.0
  N  N88  1  0.72018000  0.50760000  0.43854000  1.0
  N  N89  1  0.77982000  0.99240000  0.93854000  1.0
  N  N90  1  0.27982000  0.49240000  0.56146000  1.0
  N  N91  1  0.22018000  0.00760000  0.06146000  1.0
  N  N92  1  0.73957000  0.19054000  0.42340000  1.0
  N  N93  1  0.76043000  0.30946000  0.92340000  1.0
  N  N94  1  0.26043000  0.80946000  0.57660000  1.0
  N  N95  1  0.23957000  0.69054000  0.07660000  1.0
