# generated using pymatgen
data_TbH12C15(SO3)3
_symmetry_space_group_name_H-M   'P 1'
_cell_length_a   8.06219000
_cell_length_b   9.18747000
_cell_length_c   13.36460000
_cell_angle_alpha   81.92070000
_cell_angle_beta   74.76600000
_cell_angle_gamma   74.34950000
_symmetry_Int_Tables_number   1
_chemical_formula_structural   TbH12C15(SO3)3
_chemical_formula_sum   'Tb2 H24 C30 S6 O18'
_cell_volume   917.14501558
_cell_formula_units_Z   2
loop_
 _symmetry_equiv_pos_site_id
 _symmetry_equiv_pos_as_xyz
  1  'x, y, z'
loop_
 _atom_site_type_symbol
 _atom_site_label
 _atom_site_symmetry_multiplicity
 _atom_site_fract_x
 _atom_site_fract_y
 _atom_site_fract_z
 _atom_site_occupancy
  Tb  Tb0  1  0.77623000  0.30219000  0.99995000  1.0
  Tb  Tb1  1  0.22376000  0.69782000  0.00005000  1.0
  H  H2  1  0.96840000  0.01539000  0.89854000  1.0
  H  H3  1  0.03160000  0.98461000  0.10146000  1.0
  H  H4  1  0.79210000  0.98349000  0.97661000  1.0
  H  H5  1  0.20789000  0.01651000  0.02338000  1.0
  H  H6  1  0.14436000  0.32074000  0.28011000  1.0
  H  H7  1  0.85563000  0.67927000  0.71989000  1.0
  H  H8  1  0.11078000  0.59790000  0.52523000  1.0
  H  H9  1  0.88921000  0.40209000  0.47477000  1.0
  H  H10  1  0.18546000  0.18318000  0.46238000  1.0
  H  H11  1  0.81454000  0.81683000  0.53761000  1.0
  H  H12  1  0.15615000  0.70340000  0.32765000  1.0
  H  H13  1  0.84385000  0.29659000  0.67235000  1.0
  H  H14  1  0.61636000  0.16468000  0.53824000  1.0
  H  H15  1  0.38365000  0.83533000  0.46177000  1.0
  H  H16  1  0.56299000  0.06482000  0.73608000  1.0
  H  H17  1  0.43699000  0.93517000  0.26393000  1.0
  H  H18  1  0.50504000  0.20719000  0.15185000  1.0
  H  H19  1  0.49497000  0.79281000  0.84815000  1.0
  H  H20  1  0.55317000  0.06846000  0.08356000  1.0
  H  H21  1  0.44683000  0.93153000  0.91644000  1.0
  H  H22  1  0.67943000  0.64946000  0.95976000  1.0
  H  H23  1  0.32057000  0.35055000  0.04024000  1.0
  H  H24  1  0.88735000  0.59409000  0.91380000  1.0
  H  H25  1  0.11265000  0.40591000  0.08621000  1.0
  C  C26  1  0.08388000  0.22914000  0.31966000  1.0
  C  C27  1  0.91613000  0.77087000  0.68034000  1.0
  C  C28  1  0.91687000  0.21840000  0.18150000  1.0
  C  C29  1  0.08314000  0.78160000  0.81849000  1.0
  C  C30  1  0.44497000  0.53039000  0.17921000  1.0
  C  C31  1  0.55504000  0.46959000  0.82079000  1.0
  C  C32  1  0.21399000  0.54320000  0.46205000  1.0
  C  C33  1  0.78601000  0.45680000  0.53794000  1.0
  C  C34  1  0.97452000  0.17291000  0.27879000  1.0
  C  C35  1  0.02548000  0.82711000  0.72121000  1.0
  C  C36  1  0.38205000  0.51154000  0.29277000  1.0
  C  C37  1  0.61796000  0.48846000  0.70723000  1.0
  C  C38  1  0.00850000  0.04571000  0.45135000  1.0
  C  C39  1  0.99151000  0.95429000  0.54864000  1.0
  C  C40  1  0.10498000  0.15585000  0.41712000  1.0
  C  C41  1  0.89502000  0.84416000  0.58287000  1.0
  C  C42  1  0.22384000  0.20092000  0.87261000  1.0
  C  C43  1  0.77615000  0.79909000  0.12740000  1.0
  C  C44  1  0.30588000  0.22734000  0.76157000  1.0
  C  C45  1  0.69411000  0.77266000  0.23844000  1.0
  C  C46  1  0.23834000  0.60052000  0.35725000  1.0
  C  C47  1  0.76167000  0.39948000  0.64275000  1.0
  C  C48  1  0.49630000  0.20645000  0.59703000  1.0
  C  C49  1  0.50370000  0.79354000  0.40297000  1.0
  C  C50  1  0.46802000  0.15302000  0.70272000  1.0
  C  C51  1  0.53199000  0.84698000  0.29728000  1.0
  C  C52  1  0.34045000  0.41051000  0.47820000  1.0
  C  C53  1  0.65957000  0.58950000  0.52180000  1.0
  C  C54  1  0.35646000  0.32392000  0.57544000  1.0
  C  C55  1  0.64354000  0.67608000  0.42456000  1.0
  S  S56  1  0.18924000  0.36394000  0.68661000  1.0
  S  S57  1  0.81076000  0.63606000  0.31339000  1.0
  S  S58  1  0.48798000  0.35706000  0.36199000  1.0
  S  S59  1  0.51204000  0.64294000  0.63801000  1.0
  S  S60  1  0.89871000  0.02911000  0.35988000  1.0
  S  S61  1  0.10129000  0.97090000  0.64012000  1.0
  O  O62  1  0.84181000  0.13096000  0.15087000  1.0
  O  O63  1  0.15821000  0.86904000  0.84912000  1.0
  O  O64  1  0.84525000  0.06505000  0.93163000  1.0
  O  O65  1  0.15475000  0.93496000  0.06837000  1.0
  O  O66  1  0.57016000  0.42409000  0.13614000  1.0
  O  O67  1  0.42984000  0.57589000  0.86387000  1.0
  O  O68  1  0.93825000  0.34117000  0.12830000  1.0
  O  O69  1  0.06174000  0.65884000  0.87170000  1.0
  O  O70  1  0.31625000  0.11170000  0.93027000  1.0
  O  O71  1  0.68374000  0.88830000  0.06972000  1.0
  O  O72  1  0.06089000  0.27054000  0.90439000  1.0
  O  O73  1  0.93909000  0.72948000  0.09561000  1.0
  O  O74  1  0.51742000  0.18166000  0.08132000  1.0
  O  O75  1  0.48258000  0.81833000  0.91868000  1.0
  O  O76  1  0.36976000  0.64802000  0.13068000  1.0
  O  O77  1  0.63026000  0.35197000  0.86932000  1.0
  O  O78  1  0.77662000  0.55846000  0.94495000  1.0
  O  O79  1  0.22338000  0.44155000  0.05505000  1.0
