# generated using pymatgen
data_Zn3H56C72(N6O7)2
_symmetry_space_group_name_H-M   'P 1'
_cell_length_a   10.48600000
_cell_length_b   13.85270000
_cell_length_c   25.48210000
_cell_angle_alpha   94.25060000
_cell_angle_beta   97.19100000
_cell_angle_gamma   99.08190000
_symmetry_Int_Tables_number   1
_chemical_formula_structural   Zn3H56C72(N6O7)2
_chemical_formula_sum   'Zn6 H112 C144 N24 O28'
_cell_volume   3609.67472296
_cell_formula_units_Z   2
loop_
 _symmetry_equiv_pos_site_id
 _symmetry_equiv_pos_as_xyz
  1  'x, y, z'
loop_
 _atom_site_type_symbol
 _atom_site_label
 _atom_site_symmetry_multiplicity
 _atom_site_fract_x
 _atom_site_fract_y
 _atom_site_fract_z
 _atom_site_occupancy
  Zn  Zn0  1  0.22576000  0.44176000  0.04327000  1.0
  Zn  Zn1  1  0.77424000  0.55824000  0.95673000  1.0
  Zn  Zn2  1  0.30765000  0.26208000  0.26813000  1.0
  Zn  Zn3  1  0.69236000  0.73793000  0.73187000  1.0
  Zn  Zn4  1  0.67325000  0.08851000  0.43524000  1.0
  Zn  Zn5  1  0.32675000  0.91149000  0.56476000  1.0
  H  H6  1  0.89413000  0.69523000  0.21373000  1.0
  H  H7  1  0.10587000  0.30477000  0.78627000  1.0
  H  H8  1  0.91279000  0.61366000  0.29770000  1.0
  H  H9  1  0.08721000  0.38634000  0.70230000  1.0
  H  H10  1  0.05790000  0.48768000  0.30924000  1.0
  H  H11  1  0.94210000  0.51232000  0.69076000  1.0
  H  H12  1  0.14874000  0.81094000  0.19670000  1.0
  H  H13  1  0.85126000  0.18906000  0.80330000  1.0
  H  H14  1  0.13495000  0.98509000  0.18318000  1.0
  H  H15  1  0.86505000  0.01491000  0.81682000  1.0
  H  H16  1  0.99166000  0.02534000  0.10482000  1.0
  H  H17  1  0.00833000  0.97465000  0.89518000  1.0
  H  H18  1  0.85933000  0.88986000  0.04136000  1.0
  H  H19  1  0.14067000  0.11014000  0.95864000  1.0
  H  H20  1  0.09585000  0.73778000  0.37332000  1.0
  H  H21  1  0.90415000  0.26222000  0.62668000  1.0
  H  H22  1  0.94792000  0.83351000  0.32308000  1.0
  H  H23  1  0.05208000  0.16650000  0.67692000  1.0
  H  H24  1  0.04055000  0.99333000  0.29190000  1.0
  H  H25  1  0.95946000  0.00667000  0.70810000  1.0
  H  H26  1  0.37453000  0.64992000  0.33073000  1.0
  H  H27  1  0.62547000  0.35008000  0.66926000  1.0
  H  H28  1  0.31127000  0.47075000  0.34172000  1.0
  H  H29  1  0.68873000  0.52925000  0.65828000  1.0
  H  H30  1  0.21085000  0.42004000  0.42080000  1.0
  H  H31  1  0.78915000  0.57996000  0.57920000  1.0
  H  H32  1  0.17804000  0.54598000  0.48996000  1.0
  H  H33  1  0.82196000  0.45402000  0.51004000  1.0
  H  H34  1  0.52516000  0.46058000  0.28662000  1.0
  H  H35  1  0.47484000  0.53942000  0.71338000  1.0
  H  H36  1  0.50413000  0.19606000  0.36033000  1.0
  H  H37  1  0.49587000  0.80393000  0.63967000  1.0
  H  H38  1  0.72518000  0.32477000  0.40831000  1.0
  H  H39  1  0.27481000  0.67522000  0.59169000  1.0
  H  H40  1  0.74464000  0.55090000  0.33101000  1.0
  H  H41  1  0.25536000  0.44910000  0.66899000  1.0
  H  H42  1  0.85004000  0.48534000  0.36826000  1.0
  H  H43  1  0.14996000  0.51466000  0.63174000  1.0
  H  H44  1  0.93457000  0.64353000  0.42780000  1.0
  H  H45  1  0.06543000  0.35647000  0.57220000  1.0
  H  H46  1  0.90146000  0.75474000  0.50133000  1.0
  H  H47  1  0.09853000  0.24526000  0.49867000  1.0
  H  H48  1  0.50160000  0.61024000  0.49111000  1.0
  H  H49  1  0.49840000  0.38976000  0.50889000  1.0
  H  H50  1  0.53363000  0.49909000  0.41580000  1.0
  H  H51  1  0.46637000  0.50091000  0.58420000  1.0
  H  H52  1  0.57027000  0.75607000  0.54844000  1.0
  H  H53  1  0.42973000  0.24393000  0.45156000  1.0
  H  H54  1  0.72897000  0.75841000  0.58330000  1.0
  H  H55  1  0.27103000  0.24159000  0.41670000  1.0
  H  H56  1  0.56115000  0.87478000  0.46854000  1.0
  H  H57  1  0.43885000  0.12522000  0.53146000  1.0
  H  H58  1  0.90546000  0.07509000  0.52788000  1.0
  H  H59  1  0.09454000  0.92491000  0.47212000  1.0
  H  H60  1  0.89549000  0.90932000  0.58460000  1.0
  H  H61  1  0.10451000  0.09068000  0.41540000  1.0
  H  H62  1  0.38566000  0.08453000  0.19717000  1.0
  H  H63  1  0.61434000  0.91547000  0.80283000  1.0
  H  H64  1  0.20864000  0.32402000  0.15010000  1.0
  H  H65  1  0.79136000  0.67598000  0.84990000  1.0
  H  H66  1  0.22428000  0.20577000  0.06008000  1.0
  H  H67  1  0.77572000  0.79423000  0.93992000  1.0
  H  H68  1  0.26990000  0.01810000  0.05241000  1.0
  H  H69  1  0.73010000  0.98190000  0.94759000  1.0
  H  H70  1  0.36250000  0.98218000  0.10849000  1.0
  H  H71  1  0.63750000  0.01782000  0.89151000  1.0
  H  H72  1  0.37352000  0.11675000  0.98908000  1.0
  H  H73  1  0.62648000  0.88325000  0.01092000  1.0
  H  H74  1  0.57526000  0.17519000  0.95194000  1.0
  H  H75  1  0.42474000  0.82481000  0.04806000  1.0
  H  H76  1  0.80503000  0.10882000  0.09301000  1.0
  H  H77  1  0.19497000  0.89118000  0.90699000  1.0
  H  H78  1  0.60277000  0.05002000  0.13002000  1.0
  H  H79  1  0.39723000  0.94998000  0.86998000  1.0
  H  H80  1  0.91288000  0.16061000  0.01747000  1.0
  H  H81  1  0.08712000  0.83939000  0.98253000  1.0
  H  H82  1  0.81951000  0.16248000  0.95473000  1.0
  H  H83  1  0.18049000  0.83752000  0.04527000  1.0
  H  H84  1  0.74338000  0.32802000  0.93124000  1.0
  H  H85  1  0.25662000  0.67198000  0.06876000  1.0
  H  H86  1  0.96585000  0.31872000  0.08139000  1.0
  H  H87  1  0.03415000  0.68128000  0.91861000  1.0
  H  H88  1  0.93618000  0.51129000  0.06685000  1.0
  H  H89  1  0.06382000  0.48871000  0.93315000  1.0
  H  H90  1  0.45808000  0.51904000  0.13741000  1.0
  H  H91  1  0.54192000  0.48096000  0.86259000  1.0
  H  H92  1  0.44170000  0.33624000  0.99601000  1.0
  H  H93  1  0.55831000  0.66376000  0.00399000  1.0
  H  H94  1  0.67519000  0.33044000  0.06204000  1.0
  H  H95  1  0.32482000  0.66956000  0.93796000  1.0
  H  H96  1  0.67001000  0.50177000  0.18639000  1.0
  H  H97  1  0.32999000  0.49823000  0.81361000  1.0
  H  H98  1  0.78655000  0.49969000  0.14183000  1.0
  H  H99  1  0.21345000  0.50031000  0.85817000  1.0
  H  H100  1  0.93920000  0.39577000  0.16076000  1.0
  H  H101  1  0.06080000  0.60423000  0.83924000  1.0
  H  H102  1  0.00392000  0.24734000  0.19759000  1.0
  H  H103  1  0.99608000  0.75266000  0.80241000  1.0
  H  H104  1  0.61758000  0.16661000  0.23934000  1.0
  H  H105  1  0.38242000  0.83340000  0.76066000  1.0
  H  H106  1  0.55216000  0.31284000  0.20031000  1.0
  H  H107  1  0.44784000  0.68716000  0.79969000  1.0
  H  H108  1  0.79282000  0.04042000  0.23191000  1.0
  H  H109  1  0.20718000  0.95958000  0.76809000  1.0
  H  H110  1  0.95719000  0.10213000  0.23757000  1.0
  H  H111  1  0.04281000  0.89787000  0.76243000  1.0
  H  H112  1  0.02723000  0.24130000  0.32317000  1.0
  H  H113  1  0.97277000  0.75870000  0.67683000  1.0
  H  H114  1  0.94116000  0.23500000  0.42351000  1.0
  H  H115  1  0.05884000  0.76500000  0.57649000  1.0
  H  H116  1  0.69038000  0.02193000  0.31585000  1.0
  H  H117  1  0.30962000  0.97807000  0.68415000  1.0
  C  C118  1  0.22361000  0.43436000  0.24318000  1.0
  C  C119  1  0.77639000  0.56564000  0.75682000  1.0
  C  C120  1  0.20244000  0.53669000  0.14383000  1.0
  C  C121  1  0.79756000  0.46331000  0.85617000  1.0
  C  C122  1  0.13089000  0.50636000  0.23491000  1.0
  C  C123  1  0.86911000  0.49364000  0.76509000  1.0
  C  C124  1  0.12466000  0.55522000  0.18844000  1.0
  C  C125  1  0.87534000  0.44478000  0.81156000  1.0
  C  C126  1  0.03682000  0.62109000  0.18136000  1.0
  C  C127  1  0.96317000  0.37891000  0.81864000  1.0
  C  C128  1  0.96082000  0.64308000  0.22032000  1.0
  C  C129  1  0.03918000  0.35692000  0.77968000  1.0
  C  C130  1  0.97051000  0.59589000  0.26677000  1.0
  C  C131  1  0.02949000  0.40411000  0.73323000  1.0
  C  C132  1  0.05225000  0.52630000  0.27357000  1.0
  C  C133  1  0.94775000  0.47370000  0.72643000  1.0
  C  C134  1  0.00883000  0.75362000  0.12762000  1.0
  C  C135  1  0.99116000  0.24638000  0.87238000  1.0
  C  C136  1  0.08462000  0.82902000  0.16309000  1.0
  C  C137  1  0.91537000  0.17098000  0.83691000  1.0
  C  C138  1  0.07696000  0.92659000  0.15505000  1.0
  C  C139  1  0.92304000  0.07341000  0.84495000  1.0
  C  C140  1  0.99627000  0.94891000  0.11119000  1.0
  C  C141  1  0.00373000  0.05109000  0.88881000  1.0
  C  C142  1  0.92221000  0.87291000  0.07574000  1.0
  C  C143  1  0.07779000  0.12709000  0.92426000  1.0
  C  C144  1  0.92544000  0.77426000  0.08372000  1.0
  C  C145  1  0.07456000  0.22574000  0.91628000  1.0
  C  C146  1  0.83936000  0.69112000  0.04775000  1.0
  C  C147  1  0.16064000  0.30888000  0.95225000  1.0
  C  C148  1  0.29161000  0.07794000  0.30102000  1.0
  C  C149  1  0.70840000  0.92206000  0.69898000  1.0
  C  C150  1  0.46683000  0.96930000  0.36642000  1.0
  C  C151  1  0.53317000  0.03071000  0.63358000  1.0
  C  C152  1  0.23818000  0.98502000  0.32324000  1.0
  C  C153  1  0.76182000  0.01498000  0.67675000  1.0
  C  C154  1  0.32249000  0.93148000  0.35148000  1.0
  C  C155  1  0.67751000  0.06852000  0.64852000  1.0
  C  C156  1  0.26871000  0.84235000  0.36912000  1.0
  C  C157  1  0.73128000  0.15765000  0.63088000  1.0
  C  C158  1  0.13489000  0.80651000  0.35858000  1.0
  C  C159  1  0.86511000  0.19349000  0.64142000  1.0
  C  C160  1  0.05262000  0.86069000  0.33064000  1.0
  C  C161  1  0.94738000  0.13931000  0.66936000  1.0
  C  C162  1  0.10372000  0.94984000  0.31332000  1.0
  C  C163  1  0.89629000  0.05016000  0.68668000  1.0
  C  C164  1  0.31433000  0.69572000  0.40477000  1.0
  C  C165  1  0.68567000  0.30428000  0.59523000  1.0
  C  C166  1  0.33255000  0.62570000  0.36555000  1.0
  C  C167  1  0.66745000  0.37430000  0.63445000  1.0
  C  C168  1  0.29658000  0.52632000  0.37178000  1.0
  C  C169  1  0.70342000  0.47368000  0.62822000  1.0
  C  C170  1  0.23988000  0.49759000  0.41613000  1.0
  C  C171  1  0.76011000  0.50241000  0.58387000  1.0
  C  C172  1  0.22152000  0.56829000  0.45510000  1.0
  C  C173  1  0.77849000  0.43171000  0.54490000  1.0
  C  C174  1  0.26048000  0.66827000  0.45016000  1.0
  C  C175  1  0.73952000  0.33173000  0.54984000  1.0
  C  C176  1  0.24302000  0.74545000  0.49210000  1.0
  C  C177  1  0.75698000  0.25454000  0.50790000  1.0
  C  C178  1  0.54941000  0.40600000  0.31294000  1.0
  C  C179  1  0.45059000  0.59400000  0.68706000  1.0
  C  C180  1  0.54086000  0.27053000  0.35253000  1.0
  C  C181  1  0.45914000  0.72947000  0.64747000  1.0
  C  C182  1  0.65113000  0.33288000  0.37615000  1.0
  C  C183  1  0.34887000  0.66712000  0.62385000  1.0
  C  C184  1  0.75253000  0.50608000  0.36476000  1.0
  C  C185  1  0.24747000  0.49391000  0.63524000  1.0
  C  C186  1  0.73464000  0.56487000  0.41502000  1.0
  C  C187  1  0.26536000  0.43513000  0.58498000  1.0
  C  C188  1  0.83829000  0.63584000  0.44073000  1.0
  C  C189  1  0.16171000  0.36416000  0.55927000  1.0
  C  C190  1  0.81966000  0.69879000  0.48321000  1.0
  C  C191  1  0.18033000  0.30121000  0.51678000  1.0
  C  C192  1  0.69784000  0.69153000  0.50126000  1.0
  C  C193  1  0.30216000  0.30847000  0.49874000  1.0
  C  C194  1  0.59667000  0.61760000  0.47728000  1.0
  C  C195  1  0.40333000  0.38240000  0.52272000  1.0
  C  C196  1  0.61500000  0.55469000  0.43452000  1.0
  C  C197  1  0.38500000  0.44531000  0.56548000  1.0
  C  C198  1  0.67434000  0.76522000  0.54439000  1.0
  C  C199  1  0.32566000  0.23478000  0.45561000  1.0
  C  C200  1  0.65363000  0.90794000  0.49178000  1.0
  C  C201  1  0.34637000  0.09206000  0.50822000  1.0
  C  C202  1  0.83398000  0.00848000  0.52385000  1.0
  C  C203  1  0.16602000  0.99152000  0.47615000  1.0
  C  C204  1  0.83000000  0.92754000  0.55190000  1.0
  C  C205  1  0.17000000  0.07246000  0.44810000  1.0
  C  C206  1  0.34034000  0.13358000  0.17226000  1.0
  C  C207  1  0.65966000  0.86643000  0.82774000  1.0
  C  C208  1  0.24595000  0.25546000  0.14679000  1.0
  C  C209  1  0.75405000  0.74454000  0.85321000  1.0
  C  C210  1  0.25369000  0.19737000  0.10164000  1.0
  C  C211  1  0.74631000  0.80263000  0.89836000  1.0
  C  C212  1  0.35092000  0.04366000  0.08450000  1.0
  C  C213  1  0.64908000  0.95634000  0.91551000  1.0
  C  C214  1  0.47448000  0.07925000  0.06198000  1.0
  C  C215  1  0.52552000  0.92075000  0.93802000  1.0
  C  C216  1  0.46810000  0.11546000  0.01214000  1.0
  C  C217  1  0.53190000  0.88454000  0.98786000  1.0
  C  C218  1  0.58173000  0.14741000  0.99102000  1.0
  C  C219  1  0.41827000  0.85259000  0.00898000  1.0
  C  C220  1  0.70400000  0.14440000  0.01953000  1.0
  C  C221  1  0.29600000  0.85560000  0.98047000  1.0
  C  C222  1  0.71047000  0.10977000  0.06984000  1.0
  C  C223  1  0.28954000  0.89023000  0.93016000  1.0
  C  C224  1  0.59648000  0.07724000  0.09084000  1.0
  C  C225  1  0.40352000  0.92276000  0.90916000  1.0
  C  C226  1  0.82646000  0.18493000  0.99736000  1.0
  C  C227  1  0.17354000  0.81507000  0.00264000  1.0
  C  C228  1  0.79741000  0.35128000  0.97054000  1.0
  C  C229  1  0.20259000  0.64872000  0.02946000  1.0
  C  C230  1  0.91357000  0.34944000  0.04924000  1.0
  C  C231  1  0.08643000  0.65056000  0.95076000  1.0
  C  C232  1  0.89928000  0.44422000  0.04132000  1.0
  C  C233  1  0.10072000  0.55578000  0.95868000  1.0
  C  C234  1  0.48531000  0.46896000  0.10761000  1.0
  C  C235  1  0.51469000  0.53104000  0.89239000  1.0
  C  C236  1  0.48052000  0.37212000  0.03525000  1.0
  C  C237  1  0.51948000  0.62788000  0.96475000  1.0
  C  C238  1  0.59543000  0.36951000  0.06680000  1.0
  C  C239  1  0.40457000  0.63049000  0.93320000  1.0
  C  C240  1  0.70376000  0.45531000  0.15597000  1.0
  C  C241  1  0.29624000  0.54469000  0.84404000  1.0
  C  C242  1  0.74171000  0.36407000  0.17790000  1.0
  C  C243  1  0.25829000  0.63593000  0.82210000  1.0
  C  C244  1  0.86779000  0.34436000  0.17677000  1.0
  C  C245  1  0.13221000  0.65564000  0.82323000  1.0
  C  C246  1  0.90401000  0.26045000  0.19724000  1.0
  C  C247  1  0.09599000  0.73954000  0.80276000  1.0
  C  C248  1  0.81473000  0.19570000  0.21951000  1.0
  C  C249  1  0.18527000  0.80430000  0.78049000  1.0
  C  C250  1  0.68757000  0.21515000  0.22071000  1.0
  C  C251  1  0.31243000  0.78485000  0.77929000  1.0
  C  C252  1  0.65127000  0.29829000  0.19964000  1.0
  C  C253  1  0.34874000  0.70171000  0.80036000  1.0
  C  C254  1  0.85868000  0.10995000  0.24570000  1.0
  C  C255  1  0.14132000  0.89005000  0.75430000  1.0
  C  C256  1  0.94613000  0.19647000  0.33699000  1.0
  C  C257  1  0.05387000  0.80353000  0.66301000  1.0
  C  C258  1  0.90375000  0.19273000  0.38570000  1.0
  C  C259  1  0.09625000  0.80727000  0.61430000  1.0
  C  C260  1  0.77058000  0.08105000  0.33125000  1.0
  C  C261  1  0.22942000  0.91896000  0.66875000  1.0
  N  N262  1  0.47817000  0.31723000  0.31320000  1.0
  N  N263  1  0.52183000  0.68277000  0.68680000  1.0
  N  N264  1  0.65578000  0.41750000  0.35044000  1.0
  N  N265  1  0.34422000  0.58250000  0.64956000  1.0
  N  N266  1  0.71555000  0.86530000  0.53125000  1.0
  N  N267  1  0.28445000  0.13470000  0.46875000  1.0
  N  N268  1  0.72338000  0.99505000  0.48645000  1.0
  N  N269  1  0.27662000  0.00495000  0.51355000  1.0
  N  N270  1  0.30019000  0.21478000  0.19047000  1.0
  N  N271  1  0.69981000  0.78522000  0.80953000  1.0
  N  N272  1  0.31314000  0.12064000  0.11858000  1.0
  N  N273  1  0.68686000  0.87936000  0.88142000  1.0
  N  N274  1  0.84914000  0.29211000  0.00423000  1.0
  N  N275  1  0.15086000  0.70789000  0.99577000  1.0
  N  N276  1  0.82687000  0.44416000  0.99215000  1.0
  N  N277  1  0.17313000  0.55584000  0.00785000  1.0
  N  N278  1  0.41275000  0.43412000  0.06128000  1.0
  N  N279  1  0.58725000  0.56588000  0.93872000  1.0
  N  N280  1  0.59688000  0.43138000  0.11204000  1.0
  N  N281  1  0.40312000  0.56862000  0.88796000  1.0
  N  N282  1  0.86134000  0.12487000  0.30326000  1.0
  N  N283  1  0.13866000  0.87513000  0.69674000  1.0
  N  N284  1  0.79441000  0.12048000  0.38153000  1.0
  N  N285  1  0.20559000  0.87952000  0.61847000  1.0
  O  O286  1  0.18270000  0.35824000  0.26735000  1.0
  O  O287  1  0.81730000  0.64176000  0.73265000  1.0
  O  O288  1  0.33245000  0.45016000  0.22709000  1.0
  O  O289  1  0.66755000  0.54985000  0.77291000  1.0
  O  O290  1  0.15993000  0.45418000  0.11458000  1.0
  O  O291  1  0.84007000  0.54582000  0.88542000  1.0
  O  O292  1  0.29338000  0.60128000  0.13614000  1.0
  O  O293  1  0.70662000  0.39872000  0.86386000  1.0
  O  O294  1  0.02011000  0.65643000  0.13165000  1.0
  O  O295  1  0.97989000  0.34357000  0.86835000  1.0
  O  O296  1  0.76031000  0.63202000  0.06710000  1.0
  O  O297  1  0.23969000  0.36798000  0.93290000  1.0
  O  O298  1  0.85608000  0.68822000  0.99782000  1.0
  O  O299  1  0.14392000  0.31178000  0.00218000  1.0
  O  O300  1  0.22084000  0.14732000  0.30151000  1.0
  O  O301  1  0.77916000  0.85268000  0.69849000  1.0
  O  O302  1  0.39734000  0.08457000  0.28219000  1.0
  O  O303  1  0.60267000  0.91543000  0.71781000  1.0
  O  O304  1  0.49174000  0.04717000  0.40043000  1.0
  O  O305  1  0.50826000  0.95283000  0.59957000  1.0
  O  O306  1  0.54878000  0.92509000  0.34849000  1.0
  O  O307  1  0.45122000  0.07491000  0.65151000  1.0
  O  O308  1  0.35405000  0.79489000  0.39941000  1.0
  O  O309  1  0.64596000  0.20511000  0.60059000  1.0
  O  O310  1  0.13027000  0.75959000  0.49746000  1.0
  O  O311  1  0.86973000  0.24041000  0.50254000  1.0
  O  O312  1  0.34957000  0.79133000  0.52016000  1.0
  O  O313  1  0.65043000  0.20867000  0.47984000  1.0
