# generated using pymatgen
data_K2H4C3N2O7
_symmetry_space_group_name_H-M   'P 1'
_cell_length_a   5.37581000
_cell_length_b   11.91570000
_cell_length_c   13.12900000
_cell_angle_alpha   89.99900000
_cell_angle_beta   90.00060000
_cell_angle_gamma   89.99810000
_symmetry_Int_Tables_number   1
_chemical_formula_structural   K2H4C3N2O7
_chemical_formula_sum   'K8 H16 C12 N8 O28'
_cell_volume   840.99830274
_cell_formula_units_Z   4
loop_
 _symmetry_equiv_pos_site_id
 _symmetry_equiv_pos_as_xyz
  1  'x, y, z'
loop_
 _atom_site_type_symbol
 _atom_site_label
 _atom_site_symmetry_multiplicity
 _atom_site_fract_x
 _atom_site_fract_y
 _atom_site_fract_z
 _atom_site_occupancy
  K  K0  1  0.55235000  0.89489000  0.78814000  1.0
  K  K1  1  0.94765000  0.10514000  0.28814000  1.0
  K  K2  1  0.44765000  0.39489000  0.71185000  1.0
  K  K3  1  0.05236000  0.60513000  0.21186000  1.0
  K  K4  1  0.94800000  0.13574000  0.78582000  1.0
  K  K5  1  0.55203000  0.86426000  0.28584000  1.0
  K  K6  1  0.05199000  0.63576000  0.71419000  1.0
  K  K7  1  0.44801000  0.36425000  0.21418000  1.0
  H  H8  1  0.75089000  0.30985000  0.94063000  1.0
  H  H9  1  0.74910000  0.69015000  0.44064000  1.0
  H  H10  1  0.24911000  0.80984000  0.55936000  1.0
  H  H11  1  0.25089000  0.19016000  0.05936000  1.0
  H  H12  1  0.89072000  0.38563000  0.86558000  1.0
  H  H13  1  0.60929000  0.61437000  0.36557000  1.0
  H  H14  1  0.10931000  0.88563000  0.63441000  1.0
  H  H15  1  0.39071000  0.11437000  0.13441000  1.0
  H  H16  1  0.43502000  0.13965000  0.93690000  1.0
  H  H17  1  0.06496000  0.86034000  0.43691000  1.0
  H  H18  1  0.56499000  0.63964000  0.56308000  1.0
  H  H19  1  0.93501000  0.36035000  0.06309000  1.0
  H  H20  1  0.38106000  0.26706000  0.91448000  1.0
  H  H21  1  0.11891000  0.73294000  0.41449000  1.0
  H  H22  1  0.61894000  0.76705000  0.58551000  1.0
  H  H23  1  0.88107000  0.23294000  0.08550000  1.0
  C  C24  1  0.54394000  0.06656000  0.53334000  1.0
  C  C25  1  0.95606000  0.93345000  0.03335000  1.0
  C  C26  1  0.45606000  0.56655000  0.96668000  1.0
  C  C27  1  0.04393000  0.43345000  0.46665000  1.0
  C  C28  1  0.42630000  0.11801000  0.61707000  1.0
  C  C29  1  0.07370000  0.88202000  0.11708000  1.0
  C  C30  1  0.57369000  0.61799000  0.88295000  1.0
  C  C31  1  0.92631000  0.38200000  0.38293000  1.0
  C  C32  1  0.76105000  0.99104000  0.53422000  1.0
  C  C33  1  0.73896000  0.00896000  0.03421000  1.0
  C  C34  1  0.23894000  0.49103000  0.96580000  1.0
  C  C35  1  0.26106000  0.50896000  0.46577000  1.0
  N  N36  1  0.22966000  0.17270000  0.47002000  1.0
  N  N37  1  0.27033000  0.82730000  0.97002000  1.0
  N  N38  1  0.77033000  0.67270000  0.02999000  1.0
  N  N39  1  0.72968000  0.32730000  0.52998000  1.0
  N  N40  1  0.41471000  0.10432000  0.44865000  1.0
  N  N41  1  0.08530000  0.89568000  0.94865000  1.0
  N  N42  1  0.58528000  0.60431000  0.05136000  1.0
  N  N43  1  0.91472000  0.39570000  0.55134000  1.0
  O  O44  1  0.23135000  0.18250000  0.57636000  1.0
  O  O45  1  0.26866000  0.81752000  0.07637000  1.0
  O  O46  1  0.76865000  0.68248000  0.92364000  1.0
  O  O47  1  0.73135000  0.31750000  0.42364000  1.0
  O  O48  1  0.45549000  0.11935000  0.71103000  1.0
  O  O49  1  0.04451000  0.88069000  0.21103000  1.0
  O  O50  1  0.54448000  0.61932000  0.78898000  1.0
  O  O51  1  0.95551000  0.38064000  0.28896000  1.0
  O  O52  1  0.45390000  0.08086000  0.35434000  1.0
  O  O53  1  0.04610000  0.91913000  0.85434000  1.0
  O  O54  1  0.54609000  0.58086000  0.14567000  1.0
  O  O55  1  0.95390000  0.41915000  0.64566000  1.0
  O  O56  1  0.84805000  0.96774000  0.62235000  1.0
  O  O57  1  0.65196000  0.03227000  0.12233000  1.0
  O  O58  1  0.15195000  0.46773000  0.87767000  1.0
  O  O59  1  0.34805000  0.53226000  0.37764000  1.0
  O  O60  1  0.84498000  0.95488000  0.44938000  1.0
  O  O61  1  0.65501000  0.04512000  0.94936000  1.0
  O  O62  1  0.15499000  0.45488000  0.05064000  1.0
  O  O63  1  0.34498000  0.54512000  0.55062000  1.0
  O  O64  1  0.74981000  0.33070000  0.86691000  1.0
  O  O65  1  0.75020000  0.66930000  0.36691000  1.0
  O  O66  1  0.25023000  0.83069000  0.63308000  1.0
  O  O67  1  0.24978000  0.16930000  0.13308000  1.0
  O  O68  1  0.29685000  0.19692000  0.93122000  1.0
  O  O69  1  0.20312000  0.80308000  0.43123000  1.0
  O  O70  1  0.70314000  0.69690000  0.56876000  1.0
  O  O71  1  0.79685000  0.30308000  0.06876000  1.0
