# generated using pymatgen
data_AgH9C7(NO)2
_symmetry_space_group_name_H-M   'P 1'
_cell_length_a   5.75997000
_cell_length_b   10.38270000
_cell_length_c   13.92390000
_cell_angle_alpha   104.71700000
_cell_angle_beta   89.99990000
_cell_angle_gamma   89.99960000
_symmetry_Int_Tables_number   1
_chemical_formula_structural   AgH9C7(NO)2
_chemical_formula_sum   'Ag4 H36 C28 N8 O8'
_cell_volume   805.38642703
_cell_formula_units_Z   4
loop_
 _symmetry_equiv_pos_site_id
 _symmetry_equiv_pos_as_xyz
  1  'x, y, z'
loop_
 _atom_site_type_symbol
 _atom_site_label
 _atom_site_symmetry_multiplicity
 _atom_site_fract_x
 _atom_site_fract_y
 _atom_site_fract_z
 _atom_site_occupancy
  Ag  Ag0  1  0.07995000  0.30191000  0.45775000  1.0
  Ag  Ag1  1  0.57996000  0.19809000  0.54224000  1.0
  Ag  Ag2  1  0.92006000  0.69810000  0.54224000  1.0
  Ag  Ag3  1  0.42004000  0.80191000  0.45776000  1.0
  H  H4  1  0.28710000  0.15420000  0.09132000  1.0
  H  H5  1  0.78708000  0.34580000  0.90869000  1.0
  H  H6  1  0.71290000  0.84580000  0.90869000  1.0
  H  H7  1  0.21291000  0.65420000  0.09132000  1.0
  H  H8  1  0.27136000  0.40543000  0.10745000  1.0
  H  H9  1  0.77136000  0.09456000  0.89255000  1.0
  H  H10  1  0.72864000  0.59457000  0.89255000  1.0
  H  H11  1  0.22864000  0.90543000  0.10745000  1.0
  H  H12  1  0.86212000  0.40771000  0.22676000  1.0
  H  H13  1  0.36211000  0.09229000  0.77324000  1.0
  H  H14  1  0.13789000  0.59229000  0.77323000  1.0
  H  H15  1  0.63787000  0.90771000  0.22676000  1.0
  H  H16  1  0.55970000  0.15111000  0.03005000  1.0
  H  H17  1  0.05970000  0.34889000  0.96995000  1.0
  H  H18  1  0.44029000  0.84889000  0.96995000  1.0
  H  H19  1  0.94029000  0.65111000  0.03006000  1.0
  H  H20  1  0.54878000  0.39953000  0.04983000  1.0
  H  H21  1  0.04879000  0.10047000  0.95017000  1.0
  H  H22  1  0.45121000  0.60046000  0.95016000  1.0
  H  H23  1  0.95121000  0.89953000  0.04984000  1.0
  H  H24  1  0.88938000  0.28405000  0.11306000  1.0
  H  H25  1  0.38936000  0.21595000  0.88694000  1.0
  H  H26  1  0.11062000  0.71595000  0.88693000  1.0
  H  H27  1  0.61062000  0.78405000  0.11306000  1.0
  H  H28  1  0.53258000  0.08344000  0.13487000  1.0
  H  H29  1  0.03257000  0.41656000  0.86514000  1.0
  H  H30  1  0.46741000  0.91656000  0.86514000  1.0
  H  H31  1  0.96741000  0.58344000  0.13487000  1.0
  H  H32  1  0.49692000  0.51120000  0.16767000  1.0
  H  H33  1  0.99694000  0.98880000  0.83233000  1.0
  H  H34  1  0.50308000  0.48880000  0.83232000  1.0
  H  H35  1  0.00307000  0.01120000  0.16768000  1.0
  H  H36  1  0.86282000  0.23713000  0.22690000  1.0
  H  H37  1  0.36282000  0.26288000  0.77311000  1.0
  H  H38  1  0.13718000  0.76286000  0.77310000  1.0
  H  H39  1  0.63717000  0.73713000  0.22690000  1.0
  C  C40  1  0.43602000  0.44713000  0.34439000  1.0
  C  C41  1  0.93602000  0.05287000  0.65561000  1.0
  C  C42  1  0.56401000  0.55288000  0.65561000  1.0
  C  C43  1  0.06399000  0.94713000  0.34439000  1.0
  C  C44  1  0.60984000  0.54329000  0.35019000  1.0
  C  C45  1  0.10982000  0.95671000  0.64981000  1.0
  C  C46  1  0.39019000  0.45670000  0.64981000  1.0
  C  C47  1  0.89018000  0.04330000  0.35019000  1.0
  C  C48  1  0.41332000  0.31895000  0.26951000  1.0
  C  C49  1  0.91330000  0.18106000  0.73049000  1.0
  C  C50  1  0.58671000  0.68107000  0.73050000  1.0
  C  C51  1  0.08669000  0.81894000  0.26951000  1.0
  C  C52  1  0.53903000  0.30059000  0.16975000  1.0
  C  C53  1  0.03901000  0.19941000  0.83024000  1.0
  C  C54  1  0.46098000  0.69941000  0.83024000  1.0
  C  C55  1  0.96098000  0.80059000  0.16976000  1.0
  C  C56  1  0.47542000  0.16412000  0.10260000  1.0
  C  C57  1  0.97541000  0.33588000  0.89740000  1.0
  C  C58  1  0.52457000  0.83588000  0.89740000  1.0
  C  C59  1  0.02458000  0.66412000  0.10260000  1.0
  C  C60  1  0.45921000  0.41104000  0.12126000  1.0
  C  C61  1  0.95922000  0.08896000  0.87874000  1.0
  C  C62  1  0.54078000  0.58896000  0.87874000  1.0
  C  C63  1  0.04078000  0.91104000  0.12126000  1.0
  C  C64  1  0.80361000  0.30824000  0.18598000  1.0
  C  C65  1  0.30360000  0.19177000  0.81402000  1.0
  C  C66  1  0.19639000  0.69176000  0.81402000  1.0
  C  C67  1  0.69638000  0.80824000  0.18598000  1.0
  N  N68  1  0.27483000  0.47515000  0.41733000  1.0
  N  N69  1  0.77481000  0.02485000  0.58266000  1.0
  N  N70  1  0.72520000  0.52486000  0.58266000  1.0
  N  N71  1  0.22520000  0.97515000  0.41734000  1.0
  N  N72  1  0.72660000  0.63875000  0.37963000  1.0
  N  N73  1  0.22659000  0.86125000  0.62038000  1.0
  N  N74  1  0.27342000  0.36126000  0.62038000  1.0
  N  N75  1  0.77341000  0.13874000  0.37961000  1.0
  O  O76  1  0.27951000  0.58777000  0.48197000  1.0
  O  O77  1  0.77951000  0.91223000  0.51803000  1.0
  O  O78  1  0.72050000  0.41224000  0.51802000  1.0
  O  O79  1  0.22049000  0.08778000  0.48198000  1.0
  O  O80  1  0.28710000  0.23032000  0.28601000  1.0
  O  O81  1  0.78710000  0.26968000  0.71400000  1.0
  O  O82  1  0.71288000  0.76968000  0.71400000  1.0
  O  O83  1  0.21288000  0.73032000  0.28601000  1.0
