# generated using pymatgen
data_Zn3Fe2H44C62(N11O)2
_symmetry_space_group_name_H-M   'P 1'
_cell_length_a   11.60000000
_cell_length_b   15.60560000
_cell_length_c   17.27650000
_cell_angle_alpha   89.99990000
_cell_angle_beta   89.99950000
_cell_angle_gamma   89.99990000
_symmetry_Int_Tables_number   1
_chemical_formula_structural   Zn3Fe2H44C62(N11O)2
_chemical_formula_sum   'Zn6 Fe4 H88 C124 N44 O4'
_cell_volume   3127.47772131
_cell_formula_units_Z   2
loop_
 _symmetry_equiv_pos_site_id
 _symmetry_equiv_pos_as_xyz
  1  'x, y, z'
loop_
 _atom_site_type_symbol
 _atom_site_label
 _atom_site_symmetry_multiplicity
 _atom_site_fract_x
 _atom_site_fract_y
 _atom_site_fract_z
 _atom_site_occupancy
  Zn  Zn0  1  0.00000000  0.10788000  0.66751000  1.0
  Zn  Zn1  1  0.00000000  0.89212000  0.33249000  1.0
  Zn  Zn2  1  0.00000000  0.60788000  0.83249000  1.0
  Zn  Zn3  1  0.00000000  0.39212000  0.16751000  1.0
  Zn  Zn4  1  0.00000000  0.50000000  0.50000000  1.0
  Zn  Zn5  1  0.00000000  0.00000000  0.00000000  1.0
  Fe  Fe6  1  0.00000000  0.19726000  0.39044000  1.0
  Fe  Fe7  1  0.00000000  0.80274000  0.60956000  1.0
  Fe  Fe8  1  0.00000000  0.69726000  0.10956000  1.0
  Fe  Fe9  1  0.00000000  0.30274000  0.89044000  1.0
  H  H10  1  0.20438000  0.17792000  0.77335000  1.0
  H  H11  1  0.20438000  0.82208000  0.22665000  1.0
  H  H12  1  0.79562000  0.67793000  0.72665000  1.0
  H  H13  1  0.79562000  0.32208000  0.27335000  1.0
  H  H14  1  0.79562000  0.82207000  0.22665000  1.0
  H  H15  1  0.79562000  0.17792000  0.77336000  1.0
  H  H16  1  0.20438000  0.32208000  0.27335000  1.0
  H  H17  1  0.20438000  0.67792000  0.72665000  1.0
  H  H18  1  0.41467000  0.17409000  0.78172000  1.0
  H  H19  1  0.41467000  0.82591000  0.21828000  1.0
  H  H20  1  0.58533000  0.67409000  0.71828000  1.0
  H  H21  1  0.58533000  0.32591000  0.28171000  1.0
  H  H22  1  0.58533000  0.82591000  0.21828000  1.0
  H  H23  1  0.58533000  0.17409000  0.78172000  1.0
  H  H24  1  0.41467000  0.32592000  0.28171000  1.0
  H  H25  1  0.41467000  0.67409000  0.71829000  1.0
  H  H26  1  0.20067000  0.02374000  0.57835000  1.0
  H  H27  1  0.20067000  0.97626000  0.42165000  1.0
  H  H28  1  0.79933000  0.52374000  0.92165000  1.0
  H  H29  1  0.79932000  0.47626000  0.07835000  1.0
  H  H30  1  0.79933000  0.97625000  0.42165000  1.0
  H  H31  1  0.79933000  0.02374000  0.57835000  1.0
  H  H32  1  0.20067000  0.47626000  0.07835000  1.0
  H  H33  1  0.20068000  0.52374000  0.92165000  1.0
  H  H34  1  0.41289000  0.01177000  0.57752000  1.0
  H  H35  1  0.41289000  0.98824000  0.42249000  1.0
  H  H36  1  0.58711000  0.51176000  0.92249000  1.0
  H  H37  1  0.58711000  0.48824000  0.07751000  1.0
  H  H38  1  0.58711000  0.98823000  0.42248000  1.0
  H  H39  1  0.58711000  0.01177000  0.57751000  1.0
  H  H40  1  0.41289000  0.48824000  0.07751000  1.0
  H  H41  1  0.41289000  0.51176000  0.92249000  1.0
  H  H42  1  0.79890000  0.56702000  0.60303000  1.0
  H  H43  1  0.79890000  0.43298000  0.39697000  1.0
  H  H44  1  0.20110000  0.06702000  0.89696000  1.0
  H  H45  1  0.20110000  0.93298000  0.10303000  1.0
  H  H46  1  0.20110000  0.43298000  0.39697000  1.0
  H  H47  1  0.20111000  0.56702000  0.60303000  1.0
  H  H48  1  0.79890000  0.93298000  0.10304000  1.0
  H  H49  1  0.79889000  0.06702000  0.89697000  1.0
  H  H50  1  0.58622000  0.56917000  0.60872000  1.0
  H  H51  1  0.58622000  0.43082000  0.39128000  1.0
  H  H52  1  0.41378000  0.06917000  0.89128000  1.0
  H  H53  1  0.41378000  0.93082000  0.10872000  1.0
  H  H54  1  0.41378000  0.43083000  0.39128000  1.0
  H  H55  1  0.41378000  0.56917000  0.60872000  1.0
  H  H56  1  0.58622000  0.93083000  0.10872000  1.0
  H  H57  1  0.58622000  0.06917000  0.89128000  1.0
  H  H58  1  0.06807000  0.40615000  0.62558000  1.0
  H  H59  1  0.06807000  0.59385000  0.37442000  1.0
  H  H60  1  0.93193000  0.90615000  0.87442000  1.0
  H  H61  1  0.93193000  0.09385000  0.12558000  1.0
  H  H62  1  0.93193000  0.59385000  0.37442000  1.0
  H  H63  1  0.93193000  0.40615000  0.62558000  1.0
  H  H64  1  0.06807000  0.09385000  0.12558000  1.0
  H  H65  1  0.06807000  0.90615000  0.87442000  1.0
  H  H66  1  0.20363000  0.59269000  0.24691000  1.0
  H  H67  1  0.20363000  0.40731000  0.75310000  1.0
  H  H68  1  0.79637000  0.09269000  0.25309000  1.0
  H  H69  1  0.79637000  0.90730000  0.74691000  1.0
  H  H70  1  0.79638000  0.40731000  0.75310000  1.0
  H  H71  1  0.79638000  0.59270000  0.24691000  1.0
  H  H72  1  0.20363000  0.90731000  0.74690000  1.0
  H  H73  1  0.20362000  0.09269000  0.25309000  1.0
  H  H74  1  0.41414000  0.60750000  0.23406000  1.0
  H  H75  1  0.41414000  0.39249000  0.76594000  1.0
  H  H76  1  0.58585000  0.10750000  0.26594000  1.0
  H  H77  1  0.58586000  0.89249000  0.73406000  1.0
  H  H78  1  0.58586000  0.39249000  0.76594000  1.0
  H  H79  1  0.58586000  0.60751000  0.23406000  1.0
  H  H80  1  0.41414000  0.89249000  0.73406000  1.0
  H  H81  1  0.41414000  0.10751000  0.26594000  1.0
  H  H82  1  0.20294000  0.71129000  0.46115000  1.0
  H  H83  1  0.20294000  0.28871000  0.53884000  1.0
  H  H84  1  0.79706000  0.21130000  0.03885000  1.0
  H  H85  1  0.79706000  0.78871000  0.96116000  1.0
  H  H86  1  0.79706000  0.28871000  0.53884000  1.0
  H  H87  1  0.79706000  0.71130000  0.46116000  1.0
  H  H88  1  0.20294000  0.78871000  0.96116000  1.0
  H  H89  1  0.20294000  0.21129000  0.03884000  1.0
  H  H90  1  0.41301000  0.72981000  0.45994000  1.0
  H  H91  1  0.41301000  0.27019000  0.54006000  1.0
  H  H92  1  0.58700000  0.22981000  0.04006000  1.0
  H  H93  1  0.58700000  0.77019000  0.95995000  1.0
  H  H94  1  0.58700000  0.27019000  0.54006000  1.0
  H  H95  1  0.58699000  0.72981000  0.45994000  1.0
  H  H96  1  0.41300000  0.77020000  0.95995000  1.0
  H  H97  1  0.41300000  0.22980000  0.04005000  1.0
  C  C98  1  0.16571000  0.19960000  0.39378000  1.0
  C  C99  1  0.16571000  0.80040000  0.60622000  1.0
  C  C100  1  0.83429000  0.69959000  0.10622000  1.0
  C  C101  1  0.83429000  0.30041000  0.89378000  1.0
  C  C102  1  0.83429000  0.80040000  0.60622000  1.0
  C  C103  1  0.83429000  0.19960000  0.39378000  1.0
  C  C104  1  0.16572000  0.30040000  0.89378000  1.0
  C  C105  1  0.16573000  0.69959000  0.10622000  1.0
  C  C106  1  0.00000000  0.25317000  0.29469000  1.0
  C  C107  1  0.00000000  0.74683000  0.70531000  1.0
  C  C108  1  0.00000000  0.75316000  0.20531000  1.0
  C  C109  1  0.00000000  0.24683000  0.79469000  1.0
  C  C110  1  0.00000000  0.30952000  0.43045000  1.0
  C  C111  1  0.00000000  0.69048000  0.56955000  1.0
  C  C112  1  0.00000000  0.80952000  0.06955000  1.0
  C  C113  1  0.00000000  0.19048000  0.93045000  1.0
  C  C114  1  0.00000000  0.15075000  0.49081000  1.0
  C  C115  1  0.00000000  0.84925000  0.50919000  1.0
  C  C116  1  0.00000000  0.65075000  0.00919000  1.0
  C  C117  1  0.00000000  0.34925000  0.99081000  1.0
  C  C118  1  0.00000000  0.08686000  0.34654000  1.0
  C  C119  1  0.00000000  0.91314000  0.65346000  1.0
  C  C120  1  0.00000000  0.58686000  0.15346000  1.0
  C  C121  1  0.00000000  0.41314000  0.84654000  1.0
  C  C122  1  0.25363000  0.14104000  0.73124000  1.0
  C  C123  1  0.25363000  0.85896000  0.26876000  1.0
  C  C124  1  0.74637000  0.64105000  0.76876000  1.0
  C  C125  1  0.74637000  0.35896000  0.23124000  1.0
  C  C126  1  0.74637000  0.85895000  0.26876000  1.0
  C  C127  1  0.74637000  0.14104000  0.73124000  1.0
  C  C128  1  0.25363000  0.35896000  0.23124000  1.0
  C  C129  1  0.25363000  0.64104000  0.76876000  1.0
  C  C130  1  0.37312000  0.13803000  0.73553000  1.0
  C  C131  1  0.37312000  0.86196000  0.26446000  1.0
  C  C132  1  0.62688000  0.63803000  0.76447000  1.0
  C  C133  1  0.62688000  0.36196000  0.23553000  1.0
  C  C134  1  0.62688000  0.86197000  0.26447000  1.0
  C  C135  1  0.62688000  0.13804000  0.73553000  1.0
  C  C136  1  0.37312000  0.36197000  0.23553000  1.0
  C  C137  1  0.37312000  0.63804000  0.76446000  1.0
  C  C138  1  0.25216000  0.05595000  0.62246000  1.0
  C  C139  1  0.25216000  0.94405000  0.37755000  1.0
  C  C140  1  0.74784000  0.55595000  0.87754000  1.0
  C  C141  1  0.74784000  0.44406000  0.12246000  1.0
  C  C142  1  0.74784000  0.94405000  0.37754000  1.0
  C  C143  1  0.74784000  0.05595000  0.62246000  1.0
  C  C144  1  0.25216000  0.44405000  0.12246000  1.0
  C  C145  1  0.25217000  0.55594000  0.87755000  1.0
  C  C146  1  0.37169000  0.04972000  0.62254000  1.0
  C  C147  1  0.37169000  0.95027000  0.37745000  1.0
  C  C148  1  0.62831000  0.54972000  0.87746000  1.0
  C  C149  1  0.62831000  0.45028000  0.12255000  1.0
  C  C150  1  0.62831000  0.95028000  0.37746000  1.0
  C  C151  1  0.62831000  0.04973000  0.62255000  1.0
  C  C152  1  0.37169000  0.45028000  0.12254000  1.0
  C  C153  1  0.37169000  0.54973000  0.87745000  1.0
  C  C154  1  0.43612000  0.09243000  0.67964000  1.0
  C  C155  1  0.43612000  0.90757000  0.32036000  1.0
  C  C156  1  0.56388000  0.59243000  0.82035000  1.0
  C  C157  1  0.56388000  0.40758000  0.17964000  1.0
  C  C158  1  0.56387000  0.90757000  0.32035000  1.0
  C  C159  1  0.56388000  0.09243000  0.67964000  1.0
  C  C160  1  0.43612000  0.40757000  0.17964000  1.0
  C  C161  1  0.43612000  0.59243000  0.82036000  1.0
  C  C162  1  0.74777000  0.53695000  0.55756000  1.0
  C  C163  1  0.74777000  0.46305000  0.44244000  1.0
  C  C164  1  0.25223000  0.03695000  0.94245000  1.0
  C  C165  1  0.25223000  0.96305000  0.05756000  1.0
  C  C166  1  0.25223000  0.46305000  0.44245000  1.0
  C  C167  1  0.25223000  0.53695000  0.55756000  1.0
  C  C168  1  0.74777000  0.96305000  0.05756000  1.0
  C  C169  1  0.74777000  0.03695000  0.94244000  1.0
  C  C170  1  0.62800000  0.53801000  0.55989000  1.0
  C  C171  1  0.62801000  0.46199000  0.44011000  1.0
  C  C172  1  0.37200000  0.03801000  0.94011000  1.0
  C  C173  1  0.37199000  0.96199000  0.05989000  1.0
  C  C174  1  0.37200000  0.46199000  0.44011000  1.0
  C  C175  1  0.37200000  0.53801000  0.55989000  1.0
  C  C176  1  0.62800000  0.96199000  0.05989000  1.0
  C  C177  1  0.62800000  0.03801000  0.94011000  1.0
  C  C178  1  0.56401000  0.50000000  0.50000000  1.0
  C  C179  1  0.43599000  0.00000000  0.00000000  1.0
  C  C180  1  0.43599000  0.50000000  0.50000000  1.0
  C  C181  1  0.56400000  0.00000000  0.00000000  1.0
  C  C182  1  0.25373000  0.62288000  0.29287000  1.0
  C  C183  1  0.25374000  0.37712000  0.70714000  1.0
  C  C184  1  0.74626000  0.12288000  0.20713000  1.0
  C  C185  1  0.74627000  0.87712000  0.79287000  1.0
  C  C186  1  0.74627000  0.37712000  0.70713000  1.0
  C  C187  1  0.74627000  0.62288000  0.29286000  1.0
  C  C188  1  0.25373000  0.87712000  0.79287000  1.0
  C  C189  1  0.25373000  0.12288000  0.20714000  1.0
  C  C190  1  0.37274000  0.63097000  0.28644000  1.0
  C  C191  1  0.37274000  0.36902000  0.71356000  1.0
  C  C192  1  0.62726000  0.13097000  0.21356000  1.0
  C  C193  1  0.62727000  0.86902000  0.78644000  1.0
  C  C194  1  0.62727000  0.36903000  0.71356000  1.0
  C  C195  1  0.62727000  0.63098000  0.28644000  1.0
  C  C196  1  0.37273000  0.86903000  0.78644000  1.0
  C  C197  1  0.37273000  0.13098000  0.21356000  1.0
  C  C198  1  0.25301000  0.68881000  0.41168000  1.0
  C  C199  1  0.25301000  0.31119000  0.58832000  1.0
  C  C200  1  0.74699000  0.18881000  0.08832000  1.0
  C  C201  1  0.74699000  0.81119000  0.91168000  1.0
  C  C202  1  0.74699000  0.31119000  0.58832000  1.0
  C  C203  1  0.74699000  0.68881000  0.41168000  1.0
  C  C204  1  0.25301000  0.81119000  0.91168000  1.0
  C  C205  1  0.25301000  0.18881000  0.08832000  1.0
  C  C206  1  0.37214000  0.69911000  0.41042000  1.0
  C  C207  1  0.37214000  0.30089000  0.58957000  1.0
  C  C208  1  0.62786000  0.19910000  0.08958000  1.0
  C  C209  1  0.62786000  0.80089000  0.91043000  1.0
  C  C210  1  0.62786000  0.30089000  0.58958000  1.0
  C  C211  1  0.62786000  0.69911000  0.41042000  1.0
  C  C212  1  0.37214000  0.80090000  0.91042000  1.0
  C  C213  1  0.37214000  0.19910000  0.08957000  1.0
  C  C214  1  0.43606000  0.66731000  0.34752000  1.0
  C  C215  1  0.43607000  0.33269000  0.65248000  1.0
  C  C216  1  0.56393000  0.16730000  0.15247000  1.0
  C  C217  1  0.56393000  0.83269000  0.84752000  1.0
  C  C218  1  0.56394000  0.33269000  0.65247000  1.0
  C  C219  1  0.56393000  0.66730000  0.34752000  1.0
  C  C220  1  0.43606000  0.83269000  0.84753000  1.0
  C  C221  1  0.43606000  0.16730000  0.15248000  1.0
  N  N222  1  0.26709000  0.20272000  0.39639000  1.0
  N  N223  1  0.26711000  0.79728000  0.60361000  1.0
  N  N224  1  0.73290000  0.70272000  0.10361000  1.0
  N  N225  1  0.73290000  0.29728000  0.89639000  1.0
  N  N226  1  0.73290000  0.79728000  0.60361000  1.0
  N  N227  1  0.73290000  0.20272000  0.39639000  1.0
  N  N228  1  0.26709000  0.29728000  0.89639000  1.0
  N  N229  1  0.26709000  0.70271000  0.10361000  1.0
  N  N230  1  0.00000000  0.29463000  0.23821000  1.0
  N  N231  1  0.00000000  0.70538000  0.76179000  1.0
  N  N232  1  0.00000000  0.79462000  0.26179000  1.0
  N  N233  1  0.00000000  0.20538000  0.73821000  1.0
  N  N234  1  0.00000000  0.38030000  0.45250000  1.0
  N  N235  1  0.00000000  0.61970000  0.54750000  1.0
  N  N236  1  0.00000000  0.88030000  0.04749000  1.0
  N  N237  1  0.00000000  0.11970000  0.95250000  1.0
  N  N238  1  0.00000000  0.12741000  0.55518000  1.0
  N  N239  1  0.00000000  0.87259000  0.44482000  1.0
  N  N240  1  0.00000000  0.62741000  0.94482000  1.0
  N  N241  1  0.00000000  0.37259000  0.05518000  1.0
  N  N242  1  0.00000000  0.01876000  0.31784000  1.0
  N  N243  1  0.00000000  0.98124000  0.68216000  1.0
  N  N244  1  0.00000000  0.51876000  0.18216000  1.0
  N  N245  1  0.00000000  0.48124000  0.81784000  1.0
  N  N246  1  0.19342000  0.10143000  0.67534000  1.0
  N  N247  1  0.19343000  0.89856000  0.32465000  1.0
  N  N248  1  0.80658000  0.60143000  0.82466000  1.0
  N  N249  1  0.80657000  0.39857000  0.17535000  1.0
  N  N250  1  0.80657000  0.89857000  0.32466000  1.0
  N  N251  1  0.80657000  0.10144000  0.67535000  1.0
  N  N252  1  0.19342000  0.39857000  0.17534000  1.0
  N  N253  1  0.19343000  0.60143000  0.82465000  1.0
  N  N254  1  0.80757000  0.50000000  0.50000000  1.0
  N  N255  1  0.19243000  0.00000000  0.00000000  1.0
  N  N256  1  0.19243000  0.50000000  0.50000000  1.0
  N  N257  1  0.80757000  0.00000000  0.00000000  1.0
  N  N258  1  0.19424000  0.64933000  0.35502000  1.0
  N  N259  1  0.19423000  0.35067000  0.64498000  1.0
  N  N260  1  0.80576000  0.14933000  0.14498000  1.0
  N  N261  1  0.80577000  0.85066000  0.85502000  1.0
  N  N262  1  0.80577000  0.35067000  0.64498000  1.0
  N  N263  1  0.80577000  0.64934000  0.35502000  1.0
  N  N264  1  0.19423000  0.85067000  0.85502000  1.0
  N  N265  1  0.19423000  0.14934000  0.14498000  1.0
  O  O266  1  0.00000000  0.44418000  0.61468000  1.0
  O  O267  1  0.00000000  0.55582000  0.38532000  1.0
  O  O268  1  0.00000000  0.94418000  0.88532000  1.0
  O  O269  1  0.00000000  0.05582000  0.11468000  1.0
