# generated using pymatgen
data_Mn3H22(C6N7)4
_symmetry_space_group_name_H-M   'P 1'
_cell_length_a   10.02510000
_cell_length_b   10.02480000
_cell_length_c   11.19544040
_cell_angle_alpha   100.33594905
_cell_angle_beta   109.07020459
_cell_angle_gamma   115.77000000
_symmetry_Int_Tables_number   1
_chemical_formula_structural   Mn3H22(C6N7)4
_chemical_formula_sum   'Mn3 H22 C24 N28'
_cell_volume   886.69857921
_cell_formula_units_Z   1
loop_
 _symmetry_equiv_pos_site_id
 _symmetry_equiv_pos_as_xyz
  1  'x, y, z'
loop_
 _atom_site_type_symbol
 _atom_site_label
 _atom_site_symmetry_multiplicity
 _atom_site_fract_x
 _atom_site_fract_y
 _atom_site_fract_z
 _atom_site_occupancy
  Mn  Mn0  1  0.73944000  0.43532000  0.52534000  1.0
  Mn  Mn1  1  0.91002000  0.21412000  0.47473000  1.0
  Mn  Mn2  1  0.36074000  0.86071000  0.49991000  1.0
  H  H3  1  0.22172000  0.05371000  0.49552000  1.0
  H  H4  1  0.55811000  0.72609000  0.50440000  1.0
  H  H5  1  0.11366000  0.11126000  0.38087000  1.0
  H  H6  1  0.73029000  0.73277000  0.61918000  1.0
  H  H7  1  0.65393000  0.58507000  0.29950000  1.0
  H  H8  1  0.28549000  0.35443000  0.70072000  1.0
  H  H9  1  0.40480000  0.53903000  0.10699000  1.0
  H  H10  1  0.43196000  0.29764000  0.89310000  1.0
  H  H11  1  0.12102000  0.32826000  0.06296000  1.0
  H  H12  1  0.26517000  0.05777000  0.93701000  1.0
  H  H13  1  0.09836000  0.17281000  0.21611000  1.0
  H  H14  1  0.95656000  0.88214000  0.78396000  1.0
  H  H15  1  0.70826000  0.33581000  0.76148000  1.0
  H  H16  1  0.57449000  0.94709000  0.23856000  1.0
  H  H17  1  0.82158000  0.30462000  0.97771000  1.0
  H  H18  1  0.32696000  0.84380000  0.02216000  1.0
  H  H19  1  0.83110000  0.12372000  0.10619000  1.0
  H  H20  1  0.01760000  0.72476000  0.89364000  1.0
  H  H21  1  0.64732000  0.82532000  0.97581000  1.0
  H  H22  1  0.84960000  0.67161000  0.02405000  1.0
  H  H23  1  0.46159000  0.72176000  0.72797000  1.0
  H  H24  1  0.99386000  0.73368000  0.27188000  1.0
  C  C25  1  0.52883000  0.49497000  0.27805000  1.0
  C  C26  1  0.21683000  0.25076000  0.72214000  1.0
  C  C27  1  0.38896000  0.46868000  0.17056000  1.0
  C  C28  1  0.29803000  0.21828000  0.82956000  1.0
  C  C29  1  0.23186000  0.35176000  0.14729000  1.0
  C  C30  1  0.20436000  0.08441000  0.85277000  1.0
  C  C31  1  0.21963000  0.26527000  0.23210000  1.0
  C  C32  1  0.03303000  0.98745000  0.76801000  1.0
  C  C33  1  0.36576000  0.30003000  0.33869000  1.0
  C  C34  1  0.96122000  0.02707000  0.66146000  1.0
  C  C35  1  0.36523000  0.21327000  0.43267000  1.0
  C  C36  1  0.78050000  0.93255000  0.56740000  1.0
  C  C37  1  0.62100000  0.20660000  0.71082000  1.0
  C  C38  1  0.49589000  0.91042000  0.28916000  1.0
  C  C39  1  0.63383000  0.10661000  0.78706000  1.0
  C  C40  1  0.31964000  0.84692000  0.21285000  1.0
  C  C41  1  0.74397000  0.17481000  0.92654000  1.0
  C  C42  1  0.24835000  0.81743000  0.07334000  1.0
  C  C43  1  0.74979000  0.07466000  0.99690000  1.0
  C  C44  1  0.07782000  0.75283000  0.00294000  1.0
  C  C45  1  0.64712000  0.90912000  0.92593000  1.0
  C  C46  1  0.98326000  0.72126000  0.07392000  1.0
  C  C47  1  0.54178000  0.85029000  0.78668000  1.0
  C  C48  1  0.06369000  0.75520000  0.21318000  1.0
  N  N49  1  0.51809000  0.41380000  0.36108000  1.0
  N  N50  1  0.05264000  0.15703000  0.63911000  1.0
  N  N51  1  0.51191000  0.23837000  0.51298000  1.0
  N  N52  1  0.72536000  0.99893000  0.48705000  1.0
  N  N53  1  0.50648000  0.14157000  0.58499000  1.0
  N  N54  1  0.55657000  0.92151000  0.41495000  1.0
  N  N55  1  0.53446000  0.94554000  0.71809000  1.0
  N  N56  1  0.22753000  0.81652000  0.28180000  1.0
  N  N57  1  0.22342000  0.11752000  0.43379000  1.0
  N  N58  1  0.68362000  0.78961000  0.56625000  1.0
  N  N59  1  0.91465000  0.38135000  0.63955000  1.0
  N  N60  1  0.74188000  0.27518000  0.36051000  1.0
  N  N61  1  0.99345000  0.41397000  0.75966000  1.0
  N  N62  1  0.65442000  0.23388000  0.24039000  1.0
  N  N63  1  0.06930000  0.44255000  0.87492000  1.0
  N  N64  1  0.56777000  0.19446000  0.12512000  1.0
  N  N65  1  0.75795000  0.59252000  0.69597000  1.0
  N  N66  1  0.89660000  0.06203000  0.30410000  1.0
  N  N67  1  0.66625000  0.56129000  0.74841000  1.0
  N  N68  1  0.81297000  0.91789000  0.25163000  1.0
  N  N69  1  0.57957000  0.53247000  0.80130000  1.0
  N  N70  1  0.73131000  0.77831000  0.19871000  1.0
  N  N71  1  0.16508000  0.84788000  0.54171000  1.0
  N  N72  1  0.30599000  0.62320000  0.45808000  1.0
  N  N73  1  0.03252000  0.74237000  0.51973000  1.0
  N  N74  1  0.22258000  0.51271000  0.48023000  1.0
  N  N75  1  0.89942000  0.64177000  0.49731000  1.0
  N  N76  1  0.14453000  0.40212000  0.50281000  1.0
