# generated using pymatgen
data_VH2C2NOF2
_symmetry_space_group_name_H-M   'P 1'
_cell_length_a   4.95791000
_cell_length_b   7.24392000
_cell_length_c   10.90280000
_cell_angle_alpha   90.00000000
_cell_angle_beta   90.00000000
_cell_angle_gamma   95.77690000
_symmetry_Int_Tables_number   1
_chemical_formula_structural   VH2C2NOF2
_chemical_formula_sum   'V4 H8 C8 N4 O4 F8'
_cell_volume   389.58218532
_cell_formula_units_Z   4
loop_
 _symmetry_equiv_pos_site_id
 _symmetry_equiv_pos_as_xyz
  1  'x, y, z'
loop_
 _atom_site_type_symbol
 _atom_site_label
 _atom_site_symmetry_multiplicity
 _atom_site_fract_x
 _atom_site_fract_y
 _atom_site_fract_z
 _atom_site_occupancy
  V  V0  1  0.22005000  0.90587000  0.93028000  1.0
  V  V1  1  0.77995000  0.59413000  0.43029000  1.0
  V  V2  1  0.77996000  0.09413000  0.06971000  1.0
  V  V3  1  0.22004000  0.40586000  0.56972000  1.0
  H  H4  1  0.56519000  0.64563000  0.79959000  1.0
  H  H5  1  0.43481000  0.85437000  0.29960000  1.0
  H  H6  1  0.43481000  0.35437000  0.20040000  1.0
  H  H7  1  0.56519000  0.14563000  0.70040000  1.0
  H  H8  1  0.20594000  0.63581000  0.14713000  1.0
  H  H9  1  0.79406000  0.86419000  0.64714000  1.0
  H  H10  1  0.79406000  0.36419000  0.85286000  1.0
  H  H11  1  0.20593000  0.13581000  0.35287000  1.0
  C  C12  1  0.53518000  0.58053000  0.88893000  1.0
  C  C13  1  0.46481000  0.91947000  0.38893000  1.0
  C  C14  1  0.46482000  0.41947000  0.11106000  1.0
  C  C15  1  0.53518000  0.08053000  0.61107000  1.0
  C  C16  1  0.33929000  0.57611000  0.08186000  1.0
  C  C17  1  0.66071000  0.92389000  0.58187000  1.0
  C  C18  1  0.66072000  0.42389000  0.91813000  1.0
  C  C19  1  0.33929000  0.07611000  0.41813000  1.0
  N  N20  1  0.37484000  0.65696000  0.97061000  1.0
  N  N21  1  0.62516000  0.84304000  0.47062000  1.0
  N  N22  1  0.62516000  0.34304000  0.02939000  1.0
  N  N23  1  0.37484000  0.15696000  0.52939000  1.0
  O  O24  1  0.11144000  0.84569000  0.79672000  1.0
  O  O25  1  0.88856000  0.65432000  0.29673000  1.0
  O  O26  1  0.88856000  0.15431000  0.20327000  1.0
  O  O27  1  0.11143000  0.34569000  0.70328000  1.0
  F  F28  1  0.91333000  0.84513000  0.04178000  1.0
  F  F29  1  0.08667000  0.65487000  0.54178000  1.0
  F  F30  1  0.08668000  0.15487000  0.95821000  1.0
  F  F31  1  0.91333000  0.34513000  0.45822000  1.0
  F  F32  1  0.42396000  0.97877000  0.10872000  1.0
  F  F33  1  0.57604000  0.52123000  0.60872000  1.0
  F  F34  1  0.57605000  0.02123000  0.89128000  1.0
  F  F35  1  0.42396000  0.47877000  0.39128000  1.0
