# generated using pymatgen
data_Al2H8C13(SO6)2
_symmetry_space_group_name_H-M   'P 1'
_cell_length_a   6.86861000
_cell_length_b   8.84081000
_cell_length_c   12.57129858
_cell_angle_alpha   100.15689049
_cell_angle_beta   102.88975585
_cell_angle_gamma   105.46200000
_symmetry_Int_Tables_number   1
_chemical_formula_structural   Al2H8C13(SO6)2
_chemical_formula_sum   'Al2 H8 C13 S2 O12'
_cell_volume   694.25237218
_cell_formula_units_Z   1
loop_
 _symmetry_equiv_pos_site_id
 _symmetry_equiv_pos_as_xyz
  1  'x, y, z'
loop_
 _atom_site_type_symbol
 _atom_site_label
 _atom_site_symmetry_multiplicity
 _atom_site_fract_x
 _atom_site_fract_y
 _atom_site_fract_z
 _atom_site_occupancy
  Al  Al0  1  0.00148000  0.50159000  0.50345000  1.0
  Al  Al1  1  0.50128000  0.50094000  0.50185000  1.0
  H  H2  1  0.85158000  0.63580000  0.63679000  1.0
  H  H3  1  0.14176000  0.33065000  0.38424000  1.0
  H  H4  1  0.12009000  0.51651000  0.87495000  1.0
  H  H5  1  0.70729000  0.86759000  0.50238000  1.0
  H  H6  1  0.29876000  0.13426000  0.50399000  1.0
  H  H7  1  0.02101000  0.50461000  0.21506000  1.0
  H  H8  1  0.03482000  0.58873000  0.09704000  1.0
  H  H9  1  0.94554000  0.37489000  0.07709000  1.0
  C  C10  1  0.33577000  0.51428000  0.70059000  1.0
  C  C11  1  0.35101000  0.78671000  0.51144000  1.0
  C  C12  1  0.67023000  0.49132000  0.30546000  1.0
  C  C13  1  0.65174000  0.21406000  0.49267000  1.0
  C  C14  1  0.59953000  0.04304000  0.49848000  1.0
  C  C15  1  0.40370000  0.95779000  0.50582000  1.0
  C  C16  1  0.72611000  0.49529000  0.10797000  1.0
  C  C17  1  0.28033000  0.51169000  0.89661000  1.0
  C  C18  1  0.61349000  0.49674000  0.18680000  1.0
  C  C19  1  0.39596000  0.51025000  0.81936000  1.0
  C  C20  1  0.39944000  0.50659000  0.00265000  1.0
  C  C21  1  0.60259000  0.50070000  0.00337000  1.0
  C  C22  1  0.94370000  0.49028000  0.12636000  1.0
  S  S23  1  0.36366000  0.50592000  0.13385000  1.0
  S  S24  1  0.64781000  0.50169000  0.87433000  1.0
  O  O25  1  0.14927000  0.51338000  0.65632000  1.0
  O  O26  1  0.49745000  0.72000000  0.51056000  1.0
  O  O27  1  0.52184000  0.48512000  0.35270000  1.0
  O  O28  1  0.83546000  0.28324000  0.48769000  1.0
  O  O29  1  0.85525000  0.49190000  0.35223000  1.0
  O  O30  1  0.50442000  0.28048000  0.49274000  1.0
  O  O31  1  0.48221000  0.51931000  0.65207000  1.0
  O  O32  1  0.16790000  0.71776000  0.51707000  1.0
  O  O33  1  0.79928000  0.57826000  0.55773000  1.0
  O  O34  1  0.20301000  0.42333000  0.44895000  1.0
  O  O35  1  0.75943000  0.98167000  0.49711000  1.0
  O  O36  1  0.24429000  0.01961000  0.50765000  1.0
