# generated using pymatgen
data_YH4C8N2Cl3
_symmetry_space_group_name_H-M   'P 1'
_cell_length_a   11.01690000
_cell_length_b   11.23440000
_cell_length_c   19.12410000
_cell_angle_alpha   106.80700000
_cell_angle_beta   90.00000000
_cell_angle_gamma   90.00000000
_symmetry_Int_Tables_number   1
_chemical_formula_structural   YH4C8N2Cl3
_chemical_formula_sum   'Y8 H32 C64 N16 Cl24'
_cell_volume   2265.85011113
_cell_formula_units_Z   8
loop_
 _symmetry_equiv_pos_site_id
 _symmetry_equiv_pos_as_xyz
  1  'x, y, z'
loop_
 _atom_site_type_symbol
 _atom_site_label
 _atom_site_symmetry_multiplicity
 _atom_site_fract_x
 _atom_site_fract_y
 _atom_site_fract_z
 _atom_site_occupancy
  Y  Y0  1  0.17564000  0.68983000  0.23800000  1.0
  Y  Y1  1  0.67564000  0.81017000  0.76200000  1.0
  Y  Y2  1  0.82436000  0.31017000  0.76200000  1.0
  Y  Y3  1  0.32436000  0.18983000  0.23800000  1.0
  Y  Y4  1  0.51872000  0.55022000  0.26875000  1.0
  Y  Y5  1  0.01872000  0.94978000  0.73125000  1.0
  Y  Y6  1  0.48128000  0.44978000  0.73125000  1.0
  Y  Y7  1  0.98128000  0.05022000  0.26875000  1.0
  H  H8  1  0.36222000  0.14039000  0.68863000  1.0
  H  H9  1  0.86222000  0.35962000  0.31137000  1.0
  H  H10  1  0.63778000  0.85962000  0.31138000  1.0
  H  H11  1  0.13777000  0.64038000  0.68862000  1.0
  H  H12  1  0.14829000  0.09281000  0.49342000  1.0
  H  H13  1  0.64829000  0.40720000  0.50658000  1.0
  H  H14  1  0.85171000  0.90720000  0.50658000  1.0
  H  H15  1  0.35171000  0.59280000  0.49342000  1.0
  H  H16  1  0.78338000  0.34243000  0.17712000  1.0
  H  H17  1  0.28338000  0.15757000  0.82288000  1.0
  H  H18  1  0.21662000  0.65757000  0.82288000  1.0
  H  H19  1  0.71663000  0.84243000  0.17712000  1.0
  H  H20  1  0.41533000  0.81609000  0.50257000  1.0
  H  H21  1  0.91533000  0.68392000  0.49743000  1.0
  H  H22  1  0.58467000  0.18392000  0.49744000  1.0
  H  H23  1  0.08467000  0.31608000  0.50256000  1.0
  H  H24  1  0.20696000  0.21970000  0.62075000  1.0
  H  H25  1  0.70696000  0.28030000  0.37925000  1.0
  H  H26  1  0.79304000  0.78030000  0.37925000  1.0
  H  H27  1  0.29304000  0.71970000  0.62075000  1.0
  H  H28  1  0.76155000  0.02357000  0.98569000  1.0
  H  H29  1  0.26155000  0.47643000  0.01431000  1.0
  H  H30  1  0.23845000  0.97643000  0.01431000  1.0
  H  H31  1  0.73845000  0.52357000  0.98569000  1.0
  H  H32  1  0.06696000  0.27473000  0.01404000  1.0
  H  H33  1  0.56696000  0.22527000  0.98596000  1.0
  H  H34  1  0.93304000  0.72527000  0.98596000  1.0
  H  H35  1  0.43304000  0.77473000  0.01404000  1.0
  H  H36  1  0.67693000  0.15112000  0.10647000  1.0
  H  H37  1  0.17693000  0.34888000  0.89353000  1.0
  H  H38  1  0.32307000  0.84888000  0.89353000  1.0
  H  H39  1  0.82307000  0.65112000  0.10647000  1.0
  C  C40  1  0.48399000  0.92720000  0.64083000  1.0
  C  C41  1  0.98398000  0.57280000  0.35917000  1.0
  C  C42  1  0.51601000  0.07280000  0.35917000  1.0
  C  C43  1  0.01601000  0.42720000  0.64083000  1.0
  C  C44  1  0.99365000  0.42866000  0.13987000  1.0
  C  C45  1  0.49365000  0.07134000  0.86013000  1.0
  C  C46  1  0.00635000  0.57134000  0.86013000  1.0
  C  C47  1  0.50635000  0.92866000  0.13987000  1.0
  C  C48  1  0.93108000  0.31966000  0.09976000  1.0
  C  C49  1  0.43108000  0.18034000  0.90024000  1.0
  C  C50  1  0.06892000  0.68034000  0.90024000  1.0
  C  C51  1  0.56892000  0.81966000  0.09976000  1.0
  C  C52  1  0.91812000  0.14265000  0.99317000  1.0
  C  C53  1  0.41812000  0.35735000  0.00683000  1.0
  C  C54  1  0.08189000  0.85736000  0.00683000  1.0
  C  C55  1  0.58188000  0.64264000  0.99317000  1.0
  C  C56  1  0.39781000  0.97394000  0.60018000  1.0
  C  C57  1  0.89781000  0.52606000  0.39982000  1.0
  C  C58  1  0.60219000  0.02606000  0.39982000  1.0
  C  C59  1  0.10219000  0.47394000  0.60018000  1.0
  C  C60  1  0.98130000  0.24823000  0.03361000  1.0
  C  C61  1  0.48130000  0.25176000  0.96639000  1.0
  C  C62  1  0.01870000  0.75177000  0.96639000  1.0
  C  C63  1  0.51870000  0.74824000  0.03361000  1.0
  C  C64  1  0.27835000  0.94842000  0.49177000  1.0
  C  C65  1  0.77835000  0.55158000  0.50823000  1.0
  C  C66  1  0.72165000  0.05158000  0.50823000  1.0
  C  C67  1  0.22165000  0.44842000  0.49177000  1.0
  C  C68  1  0.24298000  0.87602000  0.42097000  1.0
  C  C69  1  0.74298000  0.62398000  0.57903000  1.0
  C  C70  1  0.75702000  0.12398000  0.57904000  1.0
  C  C71  1  0.25702000  0.37602000  0.42097000  1.0
  C  C72  1  0.33887000  0.08756000  0.63306000  1.0
  C  C73  1  0.83887000  0.41244000  0.36694000  1.0
  C  C74  1  0.66112000  0.91244000  0.36694000  1.0
  C  C75  1  0.16112000  0.58756000  0.63306000  1.0
  C  C76  1  0.36908000  0.90348000  0.52886000  1.0
  C  C77  1  0.86908000  0.59652000  0.47114000  1.0
  C  C78  1  0.63092000  0.09652000  0.47114000  1.0
  C  C79  1  0.13092000  0.40348000  0.52886000  1.0
  C  C80  1  0.82102000  0.28508000  0.12577000  1.0
  C  C81  1  0.32102000  0.21492000  0.87422000  1.0
  C  C82  1  0.17898000  0.71492000  0.87422000  1.0
  C  C83  1  0.67898000  0.78508000  0.12578000  1.0
  C  C84  1  0.96348000  0.07502000  0.92354000  1.0
  C  C85  1  0.46348000  0.42498000  0.07646000  1.0
  C  C86  1  0.03652000  0.92498000  0.07646000  1.0
  C  C87  1  0.53652000  0.57502000  0.92354000  1.0
  C  C88  1  0.80802000  0.10686000  0.01871000  1.0
  C  C89  1  0.30801000  0.39314000  0.98130000  1.0
  C  C90  1  0.19199000  0.89314000  0.98129000  1.0
  C  C91  1  0.69199000  0.60686000  0.01871000  1.0
  C  C92  1  0.21919000  0.06213000  0.52407000  1.0
  C  C93  1  0.71919000  0.43787000  0.47593000  1.0
  C  C94  1  0.78081000  0.93787000  0.47593000  1.0
  C  C95  1  0.28081000  0.56213000  0.52407000  1.0
  C  C96  1  0.25113000  0.13143000  0.59442000  1.0
  C  C97  1  0.75113000  0.36857000  0.40558000  1.0
  C  C98  1  0.74887000  0.86857000  0.40558000  1.0
  C  C99  1  0.24887000  0.63143000  0.59442000  1.0
  C  C100  1  0.76093000  0.17830000  0.08519000  1.0
  C  C101  1  0.26093000  0.32170000  0.91481000  1.0
  C  C102  1  0.23907000  0.82170000  0.91481000  1.0
  C  C103  1  0.73907000  0.67830000  0.08519000  1.0
  N  N104  1  0.21362000  0.81698000  0.36290000  1.0
  N  N105  1  0.71362000  0.68302000  0.63710000  1.0
  N  N106  1  0.78638000  0.18302000  0.63710000  1.0
  N  N107  1  0.28638000  0.31698000  0.36290000  1.0
  N  N108  1  0.55211000  0.88734000  0.67476000  1.0
  N  N109  1  0.05210000  0.61266000  0.32524000  1.0
  N  N110  1  0.44789000  0.11266000  0.32525000  1.0
  N  N111  1  0.94789000  0.38734000  0.67475000  1.0
  N  N112  1  0.04663000  0.51803000  0.17056000  1.0
  N  N113  1  0.54663000  0.98197000  0.82944000  1.0
  N  N114  1  0.95337000  0.48197000  0.82944000  1.0
  N  N115  1  0.45337000  0.01803000  0.17056000  1.0
  N  N116  1  0.99974000  0.02248000  0.86569000  1.0
  N  N117  1  0.49974000  0.47752000  0.13431000  1.0
  N  N118  1  0.00026000  0.97752000  0.13431000  1.0
  N  N119  1  0.50025000  0.52248000  0.86569000  1.0
  Cl  Cl120  1  0.28400000  0.48080000  0.25179000  1.0
  Cl  Cl121  1  0.78400000  0.01920000  0.74821000  1.0
  Cl  Cl122  1  0.71600000  0.51920000  0.74821000  1.0
  Cl  Cl123  1  0.21600000  0.98080000  0.25179000  1.0
  Cl  Cl124  1  0.74041000  0.58456000  0.24844000  1.0
  Cl  Cl125  1  0.24041000  0.91544000  0.75157000  1.0
  Cl  Cl126  1  0.25958000  0.41544000  0.75156000  1.0
  Cl  Cl127  1  0.75959000  0.08456000  0.24844000  1.0
  Cl  Cl128  1  0.42233000  0.75167000  0.24935000  1.0
  Cl  Cl129  1  0.92233000  0.74833000  0.75065000  1.0
  Cl  Cl130  1  0.57767000  0.24833000  0.75065000  1.0
  Cl  Cl131  1  0.07767000  0.25167000  0.24935000  1.0
  Cl  Cl132  1  0.54017000  0.30784000  0.24865000  1.0
  Cl  Cl133  1  0.04017000  0.19216000  0.75135000  1.0
  Cl  Cl134  1  0.45983000  0.69216000  0.75135000  1.0
  Cl  Cl135  1  0.95983000  0.80784000  0.24865000  1.0
  Cl  Cl136  1  0.51437000  0.62674000  0.40819000  1.0
  Cl  Cl137  1  0.01437000  0.87326000  0.59181000  1.0
  Cl  Cl138  1  0.48563000  0.37326000  0.59181000  1.0
  Cl  Cl139  1  0.98563000  0.12674000  0.40819000  1.0
  Cl  Cl140  1  0.21237000  0.68421000  0.10482000  1.0
  Cl  Cl141  1  0.71237000  0.81579000  0.89518000  1.0
  Cl  Cl142  1  0.78763000  0.31579000  0.89518000  1.0
  Cl  Cl143  1  0.28763000  0.18421000  0.10482000  1.0
