# generated using pymatgen
data_MnHC3N3Cl
_symmetry_space_group_name_H-M   'P 1'
_cell_length_a   8.31307000
_cell_length_b   14.91760000
_cell_length_c   14.91760000
_cell_angle_alpha   116.63000000
_cell_angle_beta   100.71100000
_cell_angle_gamma   100.71100000
_symmetry_Int_Tables_number   1
_chemical_formula_structural   MnHC3N3Cl
_chemical_formula_sum   'Mn6 H6 C18 N18 Cl6'
_cell_volume   1546.71804667
_cell_formula_units_Z   6
loop_
 _symmetry_equiv_pos_site_id
 _symmetry_equiv_pos_as_xyz
  1  'x, y, z'
loop_
 _atom_site_type_symbol
 _atom_site_label
 _atom_site_symmetry_multiplicity
 _atom_site_fract_x
 _atom_site_fract_y
 _atom_site_fract_z
 _atom_site_occupancy
  Mn  Mn0  1  0.28824000  0.57651000  0.28823000  1.0
  Mn  Mn1  1  0.00000000  0.71175000  0.28825000  1.0
  Mn  Mn2  1  0.71177000  0.71177000  0.42349000  1.0
  Mn  Mn3  1  0.71176000  0.42349000  0.71177000  1.0
  Mn  Mn4  1  0.00000000  0.28825000  0.71175000  1.0
  Mn  Mn5  1  0.28823000  0.28823000  0.57651000  1.0
  H  H6  1  0.19841000  0.41998000  0.99997000  1.0
  H  H7  1  0.19841000  0.99996000  0.41997000  1.0
  H  H8  1  0.77844000  0.57995000  0.57994000  1.0
  H  H9  1  0.80159000  0.58003000  0.00003000  1.0
  H  H10  1  0.22156000  0.42006000  0.42006000  1.0
  H  H11  1  0.80159000  0.00003000  0.58002000  1.0
  C  C12  1  0.46194000  0.52296000  0.09211000  1.0
  C  C13  1  0.36982000  0.90787000  0.43086000  1.0
  C  C14  1  0.93895000  0.56912000  0.47699000  1.0
  C  C15  1  0.63018000  0.56914000  0.09212000  1.0
  C  C16  1  0.06105000  0.52301000  0.43088000  1.0
  C  C17  1  0.53806000  0.90789000  0.47704000  1.0
  C  C18  1  0.53806000  0.47704000  0.90789000  1.0
  C  C19  1  0.63018000  0.09213000  0.56914000  1.0
  C  C20  1  0.06105000  0.43088000  0.52301000  1.0
  C  C21  1  0.36982000  0.43087000  0.90788000  1.0
  C  C22  1  0.93895000  0.47699000  0.56912000  1.0
  C  C23  1  0.46193000  0.09211000  0.52296000  1.0
  C  C24  1  0.32671000  0.45267000  0.99998000  1.0
  C  C25  1  0.32671000  0.99998000  0.45267000  1.0
  C  C26  1  0.87398000  0.54723000  0.54723000  1.0
  C  C27  1  0.67329000  0.54733000  0.00002000  1.0
  C  C28  1  0.12602000  0.45277000  0.45277000  1.0
  C  C29  1  0.67329000  0.00002000  0.54733000  1.0
  N  N30  1  0.46836000  0.56187000  0.19598000  1.0
  N  N31  1  0.27238000  0.80400000  0.36588000  1.0
  N  N32  1  0.90648000  0.63409000  0.43809000  1.0
  N  N33  1  0.72762000  0.63411000  0.19600000  1.0
  N  N34  1  0.09353000  0.56190000  0.36591000  1.0
  N  N35  1  0.53165000  0.80403000  0.43813000  1.0
  N  N36  1  0.53164000  0.43813000  0.80403000  1.0
  N  N37  1  0.72762000  0.19600000  0.63412000  1.0
  N  N38  1  0.09352000  0.36591000  0.56190000  1.0
  N  N39  1  0.27238000  0.36589000  0.80400000  1.0
  N  N40  1  0.90647000  0.43810000  0.63409000  1.0
  N  N41  1  0.46835000  0.19597000  0.56187000  1.0
  N  N42  1  0.62676000  0.62677000  0.25353000  1.0
  N  N43  1  0.37325000  0.74647000  0.37323000  1.0
  N  N44  1  0.00000000  0.62676000  0.37323000  1.0
  N  N45  1  0.37324000  0.37323000  0.74647000  1.0
  N  N46  1  0.62675000  0.25353000  0.62677000  1.0
  N  N47  1  0.00000000  0.37324000  0.62677000  1.0
  Cl  Cl48  1  0.50000000  0.57446000  0.42554000  1.0
  Cl  Cl49  1  0.07441000  0.57443000  0.14886000  1.0
  Cl  Cl50  1  0.92560000  0.85114000  0.42557000  1.0
  Cl  Cl51  1  0.50000000  0.42554000  0.57446000  1.0
  Cl  Cl52  1  0.92559000  0.42557000  0.85114000  1.0
  Cl  Cl53  1  0.07440000  0.14886000  0.57443000  1.0
