# generated using pymatgen
data_Li2H3C6N3O7
_symmetry_space_group_name_H-M   'P 1'
_cell_length_a   4.71934000
_cell_length_b   6.02297000
_cell_length_c   15.91890000
_cell_angle_alpha   90.00170000
_cell_angle_beta   90.00300000
_cell_angle_gamma   96.65720000
_symmetry_Int_Tables_number   1
_chemical_formula_structural   Li2H3C6N3O7
_chemical_formula_sum   'Li4 H6 C12 N6 O14'
_cell_volume   449.43499418
_cell_formula_units_Z   2
loop_
 _symmetry_equiv_pos_site_id
 _symmetry_equiv_pos_as_xyz
  1  'x, y, z'
loop_
 _atom_site_type_symbol
 _atom_site_label
 _atom_site_symmetry_multiplicity
 _atom_site_fract_x
 _atom_site_fract_y
 _atom_site_fract_z
 _atom_site_occupancy
  Li  Li0  1  0.28711000  0.66054000  0.55280000  1.0
  Li  Li1  1  0.71290000  0.33947000  0.05281000  1.0
  Li  Li2  1  0.39056000  0.21439000  0.48534000  1.0
  Li  Li3  1  0.60945000  0.78560000  0.98535000  1.0
  H  H4  1  0.25549000  0.03900000  0.85216000  1.0
  H  H5  1  0.74452000  0.96100000  0.35215000  1.0
  H  H6  1  0.12440000  0.98380000  0.69742000  1.0
  H  H7  1  0.87558000  0.01619000  0.19742000  1.0
  H  H8  1  0.85387000  0.29559000  0.75133000  1.0
  H  H9  1  0.14611000  0.70441000  0.25133000  1.0
  C  C10  1  0.51471000  0.57193000  0.72333000  1.0
  C  C11  1  0.48528000  0.42807000  0.22333000  1.0
  C  C12  1  0.76309000  0.45844000  0.86377000  1.0
  C  C13  1  0.23689000  0.54154000  0.36377000  1.0
  C  C14  1  0.58814000  0.60142000  0.80908000  1.0
  C  C15  1  0.41186000  0.39857000  0.30908000  1.0
  C  C16  1  0.33188000  0.90613000  0.81493000  1.0
  C  C17  1  0.66812000  0.09387000  0.31493000  1.0
  C  C18  1  0.59037000  0.39170000  0.66232000  1.0
  C  C19  1  0.40963000  0.60831000  0.16232000  1.0
  C  C20  1  0.25848000  0.87588000  0.73023000  1.0
  C  C21  1  0.74152000  0.12412000  0.23023000  1.0
  N  N22  1  0.49269000  0.76910000  0.85315000  1.0
  N  N23  1  0.50730000  0.23090000  0.35314000  1.0
  N  N24  1  0.34856000  0.71026000  0.68616000  1.0
  N  N25  1  0.65144000  0.28975000  0.18616000  1.0
  N  N26  1  0.81827000  0.93327000  0.52325000  1.0
  N  N27  1  0.18174000  0.06673000  0.02325000  1.0
  O  O28  1  0.46314000  0.37731000  0.59376000  1.0
  O  O29  1  0.53688000  0.62271000  0.09378000  1.0
  O  O30  1  0.54816000  0.92605000  0.51444000  1.0
  O  O31  1  0.45186000  0.07396000  0.01444000  1.0
  O  O32  1  0.77924000  0.26248000  0.68357000  1.0
  O  O33  1  0.22074000  0.73751000  0.18357000  1.0
  O  O34  1  0.91684000  0.78306000  0.56538000  1.0
  O  O35  1  0.08318000  0.21695000  0.06538000  1.0
  O  O36  1  0.97549000  0.09086000  0.48942000  1.0
  O  O37  1  0.02453000  0.90912000  0.98942000  1.0
  O  O38  1  0.74795000  0.48731000  0.94116000  1.0
  O  O39  1  0.25201000  0.51266000  0.44115000  1.0
  O  O40  1  0.91558000  0.32153000  0.82838000  1.0
  O  O41  1  0.08441000  0.67847000  0.32837000  1.0
