# generated using pymatgen
data_Zn4H4C24S4Br4O13
_symmetry_space_group_name_H-M   'P 1'
_cell_length_a   19.77910000
_cell_length_b   19.78770000
_cell_length_c   33.63970000
_cell_angle_alpha   78.57200000
_cell_angle_beta   78.59860000
_cell_angle_gamma   63.56620000
_symmetry_Int_Tables_number   1
_chemical_formula_structural   Zn4H4C24S4Br4O13
_chemical_formula_sum   'Zn16 H16 C96 S16 Br16 O52'
_cell_volume   11465.50823236
_cell_formula_units_Z   4
loop_
 _symmetry_equiv_pos_site_id
 _symmetry_equiv_pos_as_xyz
  1  'x, y, z'
loop_
 _atom_site_type_symbol
 _atom_site_label
 _atom_site_symmetry_multiplicity
 _atom_site_fract_x
 _atom_site_fract_y
 _atom_site_fract_z
 _atom_site_occupancy
  Zn  Zn0  1  0.05623000  0.40131000  0.47879000  1.0
  Zn  Zn1  1  0.98260000  0.48249000  0.55989000  1.0
  Zn  Zn2  1  0.05990000  0.55996000  0.48246000  1.0
  Zn  Zn3  1  0.90132000  0.55605000  0.47882000  1.0
  Zn  Zn4  1  0.69372000  0.34870000  0.27120000  1.0
  Zn  Zn5  1  0.69008000  0.19005000  0.26749000  1.0
  Zn  Zn6  1  0.76752000  0.26749000  0.19008000  1.0
  Zn  Zn7  1  0.84860000  0.19391000  0.27124000  1.0
  Zn  Zn8  1  0.26743000  0.76752000  0.69011000  1.0
  Zn  Zn9  1  0.34869000  0.69388000  0.77121000  1.0
  Zn  Zn10  1  0.19373000  0.84867000  0.77123000  1.0
  Zn  Zn11  1  0.19010000  0.69005000  0.76753000  1.0
  Zn  Zn12  1  0.55992000  0.05996000  0.98250000  1.0
  Zn  Zn13  1  0.40142000  0.05602000  0.97876000  1.0
  Zn  Zn14  1  0.55624000  0.90128000  0.97882000  1.0
  Zn  Zn15  1  0.48251000  0.98253000  0.05991000  1.0
  H  H16  1  0.28630000  0.51000000  0.40925000  1.0
  H  H17  1  0.46364000  0.24005000  0.34074000  1.0
  H  H18  1  0.77116000  0.54750000  0.64821000  1.0
  H  H19  1  0.47889000  0.70253000  0.60179000  1.0
  H  H20  1  0.04755000  0.27109000  0.64817000  1.0
  H  H21  1  0.20250000  0.97895000  0.60183000  1.0
  H  H22  1  0.80137000  0.77923000  0.40220000  1.0
  H  H23  1  0.94854000  0.97078000  0.34786000  1.0
  H  H24  1  0.70255000  0.47895000  0.10182000  1.0
  H  H25  1  0.54749000  0.77110000  0.14817000  1.0
  H  H26  1  0.08665000  0.10895000  0.20964000  1.0
  H  H27  1  0.16331000  0.14103000  0.04034000  1.0
  H  H28  1  0.44857000  0.47078000  0.84784000  1.0
  H  H29  1  0.30141000  0.27922000  0.90218000  1.0
  H  H30  1  0.96364000  0.74005000  0.84074000  1.0
  H  H31  1  0.78630000  0.01000000  0.90926000  1.0
  C  C32  1  0.06129000  0.31593000  0.56169000  1.0
  C  C33  1  0.06846000  0.56853000  0.56847000  1.0
  C  C34  1  0.18430000  0.43903000  0.43858000  1.0
  C  C35  1  0.93807000  0.68427000  0.43857000  1.0
  C  C36  1  0.93149000  0.43146000  0.43156000  1.0
  C  C37  1  0.81593000  0.56127000  0.56171000  1.0
  C  C38  1  0.56566000  0.31102000  0.31143000  1.0
  C  C39  1  0.68161000  0.18147000  0.18150000  1.0
  C  C40  1  0.68881000  0.43409000  0.18833000  1.0
  C  C41  1  0.93457000  0.18837000  0.18877000  1.0
  C  C42  1  0.81846000  0.31849000  0.31848000  1.0
  C  C43  1  0.81190000  0.06567000  0.31147000  1.0
  C  C44  1  0.43411000  0.68879000  0.68831000  1.0
  C  C45  1  0.31847000  0.81849000  0.81846000  1.0
  C  C46  1  0.18879000  0.93410000  0.68832000  1.0
  C  C47  1  0.06564000  0.81102000  0.81143000  1.0
  C  C48  1  0.18158000  0.68150000  0.68150000  1.0
  C  C49  1  0.31192000  0.56566000  0.81144000  1.0
  C  C50  1  0.43808000  0.18428000  0.93855000  1.0
  C  C51  1  0.43151000  0.93145000  0.93154000  1.0
  C  C52  1  0.68427000  0.93904000  0.93858000  1.0
  C  C53  1  0.56126000  0.81593000  0.06169000  1.0
  C  C54  1  0.56843000  0.06856000  0.06847000  1.0
  C  C55  1  0.31545000  0.06169000  0.06122000  1.0
  C  C56  1  0.90253000  0.40250000  0.40250000  1.0
  C  C57  1  0.84749000  0.34755000  0.34747000  1.0
  C  C58  1  0.83022000  0.44660000  0.38840000  1.0
  C  C59  1  0.91979000  0.30344000  0.36157000  1.0
  C  C60  1  0.80335000  0.41982000  0.36154000  1.0
  C  C61  1  0.94668000  0.33025000  0.38840000  1.0
  C  C62  1  0.09748000  0.59752000  0.59748000  1.0
  C  C63  1  0.15255000  0.65249000  0.65248000  1.0
  C  C64  1  0.14066000  0.64073000  0.58246000  1.0
  C  C65  1  0.10935000  0.60928000  0.66750000  1.0
  C  C66  1  0.16754000  0.66755000  0.60929000  1.0
  C  C67  1  0.08247000  0.58246000  0.64066000  1.0
  C  C68  1  0.30361000  0.45355000  0.40121000  1.0
  C  C69  1  0.44634000  0.29647000  0.34882000  1.0
  C  C70  1  0.25902000  0.41367000  0.41366000  1.0
  C  C71  1  0.49094000  0.33632000  0.33640000  1.0
  C  C72  1  0.37812000  0.33903000  0.37242000  1.0
  C  C73  1  0.37182000  0.41097000  0.37762000  1.0
  C  C74  1  0.72621000  0.57628000  0.62862000  1.0
  C  C75  1  0.52383000  0.67372000  0.62139000  1.0
  C  C76  1  0.74095000  0.58636000  0.58640000  1.0
  C  C77  1  0.50906000  0.66365000  0.66361000  1.0
  C  C78  1  0.60284000  0.64193000  0.60860000  1.0
  C  C79  1  0.64720000  0.60803000  0.64142000  1.0
  C  C80  1  0.07631000  0.22616000  0.62861000  1.0
  C  C81  1  0.17371000  0.02387000  0.62140000  1.0
  C  C82  1  0.08637000  0.24095000  0.58639000  1.0
  C  C83  1  0.16365000  0.00905000  0.66363000  1.0
  C  C84  1  0.14192000  0.10286000  0.60859000  1.0
  C  C85  1  0.10805000  0.14716000  0.64142000  1.0
  C  C86  1  0.84518000  0.79997000  0.39759000  1.0
  C  C87  1  0.90477000  0.95000000  0.35247000  1.0
  C  C88  1  0.91354000  0.75904000  0.41367000  1.0
  C  C89  1  0.83637000  0.99093000  0.33641000  1.0
  C  C90  1  0.90811000  0.88044000  0.37473000  1.0
  C  C91  1  0.84191000  0.86945000  0.37527000  1.0
  C  C92  1  0.65258000  0.15246000  0.15248000  1.0
  C  C93  1  0.59746000  0.09754000  0.09748000  1.0
  C  C94  1  0.66760000  0.16751000  0.10929000  1.0
  C  C95  1  0.58242000  0.08249000  0.14067000  1.0
  C  C96  1  0.64067000  0.14072000  0.08246000  1.0
  C  C97  1  0.60935000  0.10928000  0.16749000  1.0
  C  C98  1  0.67372000  0.52387000  0.12140000  1.0
  C  C99  1  0.57629000  0.72616000  0.12861000  1.0
  C  C100  1  0.66366000  0.50904000  0.16363000  1.0
  C  C101  1  0.58635000  0.74096000  0.08639000  1.0
  C  C102  1  0.60804000  0.64716000  0.14142000  1.0
  C  C103  1  0.64192000  0.60287000  0.10860000  1.0
  C  C104  1  0.07978000  0.12499000  0.17737000  1.0
  C  C105  1  0.17021000  0.12490000  0.07261000  1.0
  C  C106  1  0.00908000  0.16358000  0.16362000  1.0
  C  C107  1  0.24092000  0.08637000  0.08635000  1.0
  C  C108  1  0.11149000  0.13899000  0.10569000  1.0
  C  C109  1  0.13851000  0.11084000  0.14428000  1.0
  C  C110  1  0.34750000  0.84751000  0.84745000  1.0
  C  C111  1  0.40254000  0.90246000  0.90249000  1.0
  C  C112  1  0.30335000  0.91978000  0.86154000  1.0
  C  C113  1  0.44668000  0.83020000  0.88840000  1.0
  C  C114  1  0.33025000  0.94657000  0.88838000  1.0
  C  C115  1  0.41981000  0.80341000  0.86154000  1.0
  C  C116  1  0.40478000  0.45001000  0.85247000  1.0
  C  C117  1  0.34520000  0.29999000  0.89758000  1.0
  C  C118  1  0.33639000  0.49095000  0.83640000  1.0
  C  C119  1  0.41356000  0.25906000  0.91366000  1.0
  C  C120  1  0.34192000  0.36947000  0.87527000  1.0
  C  C121  1  0.40812000  0.38047000  0.87473000  1.0
  C  C122  1  0.94633000  0.79648000  0.84883000  1.0
  C  C123  1  0.80360000  0.95355000  0.90121000  1.0
  C  C124  1  0.99093000  0.83633000  0.83640000  1.0
  C  C125  1  0.75901000  0.91368000  0.91365000  1.0
  C  C126  1  0.87181000  0.91097000  0.87762000  1.0
  C  C127  1  0.87812000  0.83903000  0.87242000  1.0
  S  S128  1  0.29954000  0.32459000  0.39683000  1.0
  S  S129  1  0.45040000  0.42540000  0.35323000  1.0
  S  S130  1  0.65928000  0.63426000  0.56212000  1.0
  S  S131  1  0.59074000  0.61569000  0.68790000  1.0
  S  S132  1  0.13426000  0.15934000  0.56211000  1.0
  S  S133  1  0.11572000  0.09066000  0.68791000  1.0
  S  S134  1  0.97401000  0.80455000  0.40181000  1.0
  S  S135  1  0.77599000  0.94535000  0.34822000  1.0
  S  S136  1  0.61570000  0.59066000  0.18791000  1.0
  S  S137  1  0.63427000  0.65935000  0.06211000  1.0
  S  S138  1  0.01351000  0.18285000  0.11064000  1.0
  S  S139  1  0.23648000  0.06708000  0.13932000  1.0
  S  S140  1  0.27600000  0.44537000  0.84822000  1.0
  S  S141  1  0.47402000  0.30457000  0.90181000  1.0
  S  S142  1  0.95040000  0.92541000  0.85324000  1.0
  S  S143  1  0.79953000  0.82460000  0.89683000  1.0
  Br  Br144  1  0.76404000  0.54443000  0.40438000  1.0
  Br  Br145  1  0.98587000  0.20547000  0.34571000  1.0
  Br  Br146  1  0.70543000  0.48585000  0.34563000  1.0
  Br  Br147  1  0.04466000  0.26423000  0.40427000  1.0
  Br  Br148  1  0.16557000  0.66600000  0.52553000  1.0
  Br  Br149  1  0.08446000  0.58403000  0.72442000  1.0
  Br  Br150  1  0.22450000  0.72448000  0.58417000  1.0
  Br  Br151  1  0.02552000  0.52552000  0.66580000  1.0
  Br  Br152  1  0.72473000  0.22426000  0.08418000  1.0
  Br  Br153  1  0.52528000  0.02574000  0.16578000  1.0
  Br  Br154  1  0.66558000  0.16602000  0.02553000  1.0
  Br  Br155  1  0.58446000  0.08401000  0.22441000  1.0
  Br  Br156  1  0.20539000  0.98580000  0.84566000  1.0
  Br  Br157  1  0.54461000  0.76415000  0.90431000  1.0
  Br  Br158  1  0.26415000  0.04455000  0.90423000  1.0
  Br  Br159  1  0.48598000  0.70558000  0.84557000  1.0
  O  O160  1  0.00003000  0.49996000  0.49999000  1.0
  O  O161  1  0.07818000  0.31611000  0.52291000  1.0
  O  O162  1  0.03030000  0.53045000  0.58415000  1.0
  O  O163  1  0.15647000  0.50551000  0.44943000  1.0
  O  O164  1  0.02503000  0.37394000  0.58102000  1.0
  O  O165  1  0.15386000  0.39187000  0.44715000  1.0
  O  O166  1  0.08413000  0.58415000  0.53035000  1.0
  O  O167  1  0.00473000  0.65631000  0.44947000  1.0
  O  O168  1  0.88896000  0.49643000  0.44278000  1.0
  O  O169  1  0.89095000  0.65399000  0.44708000  1.0
  O  O170  1  0.99644000  0.38890000  0.44285000  1.0
  O  O171  1  0.87398000  0.52498000  0.58103000  1.0
  O  O172  1  0.81606000  0.57818000  0.52293000  1.0
  O  O173  1  0.74999000  0.25003000  0.25001000  1.0
  O  O174  1  0.59609000  0.35817000  0.30291000  1.0
  O  O175  1  0.66594000  0.16582000  0.21961000  1.0
  O  O176  1  0.72506000  0.37605000  0.16903000  1.0
  O  O177  1  0.59347000  0.24458000  0.30051000  1.0
  O  O178  1  0.67199000  0.43393000  0.22712000  1.0
  O  O179  1  0.71974000  0.21958000  0.16584000  1.0
  O  O180  1  0.87631000  0.22476000  0.16945000  1.0
  O  O181  1  0.86102000  0.25351000  0.30729000  1.0
  O  O182  1  0.93455000  0.17149000  0.22745000  1.0
  O  O183  1  0.75344000  0.36096000  0.30726000  1.0
  O  O184  1  0.74530000  0.09361000  0.30046000  1.0
  O  O185  1  0.85901000  0.09594000  0.30301000  1.0
  O  O186  1  0.24999000  0.75003000  0.75001000  1.0
  O  O187  1  0.37606000  0.72505000  0.66899000  1.0
  O  O188  1  0.36098000  0.75349000  0.80727000  1.0
  O  O189  1  0.17197000  0.93390000  0.72711000  1.0
  O  O190  1  0.43398000  0.67193000  0.72710000  1.0
  O  O191  1  0.22501000  0.87608000  0.66900000  1.0
  O  O192  1  0.25348000  0.86101000  0.80721000  1.0
  O  O193  1  0.09608000  0.85817000  0.80290000  1.0
  O  O194  1  0.16590000  0.66589000  0.71962000  1.0
  O  O195  1  0.09344000  0.74460000  0.80050000  1.0
  O  O196  1  0.21974000  0.71957000  0.66582000  1.0
  O  O197  1  0.35900000  0.59597000  0.80298000  1.0
  O  O198  1  0.24534000  0.59356000  0.80043000  1.0
  O  O199  1  0.50003000  0.99996000  0.99999000  1.0
  O  O200  1  0.50475000  0.15628000  0.94945000  1.0
  O  O201  1  0.38891000  0.99639000  0.94277000  1.0
  O  O202  1  0.65385000  0.89188000  0.94714000  1.0
  O  O203  1  0.39095000  0.15403000  0.94704000  1.0
  O  O204  1  0.65644000  0.00553000  0.94941000  1.0
  O  O205  1  0.49650000  0.88896000  0.94279000  1.0
  O  O206  1  0.57815000  0.81608000  0.02291000  1.0
  O  O207  1  0.53029000  0.03045000  0.08412000  1.0
  O  O208  1  0.52498000  0.87398000  0.08100000  1.0
  O  O209  1  0.58410000  0.08421000  0.03035000  1.0
  O  O210  1  0.31547000  0.07863000  0.02253000  1.0
  O  O211  1  0.37372000  0.02536000  0.08053000  1.0
