# generated using pymatgen
data_CdH32C40(N9O4)2
_symmetry_space_group_name_H-M   'P 1'
_cell_length_a   7.74074000
_cell_length_b   8.57475000
_cell_length_c   17.33980000
_cell_angle_alpha   78.94010000
_cell_angle_beta   83.58340000
_cell_angle_gamma   65.99020000
_symmetry_Int_Tables_number   1
_chemical_formula_structural   CdH32C40(N9O4)2
_chemical_formula_sum   'Cd1 H32 C40 N18 O8'
_cell_volume   1031.08893897
_cell_formula_units_Z   1
loop_
 _symmetry_equiv_pos_site_id
 _symmetry_equiv_pos_as_xyz
  1  'x, y, z'
loop_
 _atom_site_type_symbol
 _atom_site_label
 _atom_site_symmetry_multiplicity
 _atom_site_fract_x
 _atom_site_fract_y
 _atom_site_fract_z
 _atom_site_occupancy
  Cd  Cd0  1  0.00000000  0.00000000  0.00000000  1.0
  H  H1  1  0.20013000  0.09921000  0.27517000  1.0
  H  H2  1  0.79987000  0.90078000  0.72483000  1.0
  H  H3  1  0.96426000  0.37300000  0.20697000  1.0
  H  H4  1  0.03574000  0.62699000  0.79303000  1.0
  H  H5  1  0.75992000  0.54926000  0.42881000  1.0
  H  H6  1  0.24008000  0.45073000  0.57119000  1.0
  H  H7  1  0.99451000  0.27446000  0.49815000  1.0
  H  H8  1  0.00549000  0.72553000  0.50185000  1.0
  H  H9  1  0.62747000  0.61999000  0.23068000  1.0
  H  H10  1  0.37253000  0.38001000  0.76932000  1.0
  H  H11  1  0.60703000  0.72491000  0.31255000  1.0
  H  H12  1  0.39297000  0.27509000  0.68744000  1.0
  H  H13  1  0.73436000  0.75674000  0.10467000  1.0
  H  H14  1  0.26563000  0.24326000  0.89533000  1.0
  H  H15  1  0.06356000  0.95783000  0.19922000  1.0
  H  H16  1  0.93644000  0.04217000  0.80078000  1.0
  H  H17  1  0.29694000  0.98521000  0.65177000  1.0
  H  H18  1  0.70305000  0.01479000  0.34823000  1.0
  H  H19  1  0.39482000  0.85922000  0.78770000  1.0
  H  H20  1  0.60519000  0.14079000  0.21230000  1.0
  H  H21  1  0.73852000  0.36860000  0.71434000  1.0
  H  H22  1  0.26148000  0.63141000  0.28566000  1.0
  H  H23  1  0.63940000  0.49351000  0.57779000  1.0
  H  H24  1  0.36060000  0.50649000  0.42222000  1.0
  H  H25  1  0.69326000  0.38685000  0.85380000  1.0
  H  H26  1  0.30675000  0.61315000  0.14620000  1.0
  H  H27  1  0.71542000  0.58080000  0.86555000  1.0
  H  H28  1  0.28458000  0.41920000  0.13445000  1.0
  H  H29  1  0.46606000  0.77447000  0.95165000  1.0
  H  H30  1  0.53393000  0.22554000  0.04835000  1.0
  H  H31  1  0.04449000  0.58539000  0.94733000  1.0
  H  H32  1  0.95551000  0.41461000  0.05266000  1.0
  C  C33  1  0.24613000  0.00673000  0.43001000  1.0
  C  C34  1  0.75387000  0.99327000  0.56999000  1.0
  C  C35  1  0.11074000  0.16863000  0.39107000  1.0
  C  C36  1  0.88926000  0.83136000  0.60893000  1.0
  C  C37  1  0.10219000  0.19718000  0.30866000  1.0
  C  C38  1  0.89782000  0.80282000  0.69133000  1.0
  C  C39  1  0.97177000  0.35133000  0.27078000  1.0
  C  C40  1  0.02823000  0.64866000  0.72922000  1.0
  C  C41  1  0.84855000  0.47924000  0.31360000  1.0
  C  C42  1  0.15144000  0.52075000  0.68640000  1.0
  C  C43  1  0.85831000  0.45084000  0.39549000  1.0
  C  C44  1  0.14169000  0.54915000  0.60450000  1.0
  C  C45  1  0.98815000  0.29660000  0.43425000  1.0
  C  C46  1  0.01185000  0.70340000  0.56575000  1.0
  C  C47  1  0.70734000  0.64600000  0.27139000  1.0
  C  C48  1  0.29266000  0.35400000  0.72861000  1.0
  C  C49  1  0.80727000  0.79185000  0.14398000  1.0
  C  C50  1  0.19272000  0.20815000  0.85602000  1.0
  C  C51  1  0.97195000  0.89300000  0.19389000  1.0
  C  C52  1  0.02805000  0.10699000  0.80611000  1.0
  C  C53  1  0.40398000  0.81938000  0.52550000  1.0
  C  C54  1  0.59602000  0.18062000  0.47450000  1.0
  C  C55  1  0.46386000  0.74793000  0.60537000  1.0
  C  C56  1  0.53614000  0.25207000  0.39463000  1.0
  C  C57  1  0.39404000  0.85024000  0.66508000  1.0
  C  C58  1  0.60596000  0.14976000  0.33492000  1.0
  C  C59  1  0.44813000  0.77856000  0.74186000  1.0
  C  C60  1  0.55186000  0.22144000  0.25814000  1.0
  C  C61  1  0.57109000  0.60484000  0.76083000  1.0
  C  C62  1  0.42891000  0.39516000  0.23917000  1.0
  C  C63  1  0.64206000  0.50380000  0.70093000  1.0
  C  C64  1  0.35794000  0.49620000  0.29907000  1.0
  C  C65  1  0.58939000  0.57416000  0.62367000  1.0
  C  C66  1  0.41061000  0.42584000  0.37633000  1.0
  C  C67  1  0.62313000  0.52841000  0.84553000  1.0
  C  C68  1  0.37687000  0.47159000  0.15447000  1.0
  C  C69  1  0.38534000  0.70383000  0.94036000  1.0
  C  C70  1  0.61466000  0.29617000  0.05964000  1.0
  C  C71  1  0.17718000  0.60214000  0.93752000  1.0
  C  C72  1  0.82283000  0.39786000  0.06248000  1.0
  N  N73  1  0.35805000  0.86838000  0.40023000  1.0
  N  N74  1  0.64195000  0.13162000  0.59977000  1.0
  N  N75  1  0.45997000  0.74806000  0.46177000  1.0
  N  N76  1  0.54004000  0.25194000  0.53823000  1.0
  N  N77  1  0.32193000  0.50850000  0.89477000  1.0
  N  N78  1  0.67807000  0.49150000  0.10523000  1.0
  N  N79  1  0.45358000  0.57492000  0.89743000  1.0
  N  N80  1  0.54642000  0.42508000  0.10257000  1.0
  N  N81  1  0.20913000  0.72485000  0.96671000  1.0
  N  N82  1  0.79087000  0.27515000  0.03329000  1.0
  N  N83  1  0.80242000  0.74905000  0.22265000  1.0
  N  N84  1  0.19758000  0.25094000  0.77735000  1.0
  N  N85  1  0.90664000  0.81240000  0.25564000  1.0
  N  N86  1  0.09336000  0.18760000  0.74436000  1.0
  N  N87  1  0.91466000  0.88360000  0.12369000  1.0
  N  N88  1  0.08533000  0.11640000  0.87632000  1.0
  N  N89  1  0.69375000  0.92935000  0.91350000  1.0
  N  N90  1  0.30625000  0.07065000  0.08650000  1.0
  O  O91  1  0.26805000  0.98466000  0.50952000  1.0
  O  O92  1  0.73195000  0.01535000  0.49048000  1.0
  O  O93  1  0.72957000  0.05464000  0.92813000  1.0
  O  O94  1  0.27043000  0.94536000  0.07187000  1.0
  O  O95  1  0.74299000  0.78824000  0.96137000  1.0
  O  O96  1  0.25701000  0.21176000  0.03863000  1.0
  O  O97  1  0.60985000  0.95008000  0.85212000  1.0
  O  O98  1  0.39015000  0.04992000  0.14788000  1.0
