# generated using pymatgen
data_Zn3H21(C23O15)2
_symmetry_space_group_name_H-M   'P 1'
_cell_length_a   18.17900000
_cell_length_b   18.37460000
_cell_length_c   18.70800000
_cell_angle_alpha   109.56000000
_cell_angle_beta   108.10600000
_cell_angle_gamma   107.90600000
_symmetry_Int_Tables_number   1
_chemical_formula_structural   Zn3H21(C23O15)2
_chemical_formula_sum   'Zn6 H42 C92 O60'
_cell_volume   4971.14409243
_cell_formula_units_Z   2
loop_
 _symmetry_equiv_pos_site_id
 _symmetry_equiv_pos_as_xyz
  1  'x, y, z'
loop_
 _atom_site_type_symbol
 _atom_site_label
 _atom_site_symmetry_multiplicity
 _atom_site_fract_x
 _atom_site_fract_y
 _atom_site_fract_z
 _atom_site_occupancy
  Zn  Zn0  1  0.43477000  0.48480000  0.43721000  1.0
  Zn  Zn1  1  0.58217000  0.49303000  0.56363000  1.0
  Zn  Zn2  1  0.99166000  0.94499000  0.43335000  1.0
  Zn  Zn3  1  0.98357000  0.06958000  0.55608000  1.0
  Zn  Zn4  1  0.55048000  0.06160000  0.98270000  1.0
  Zn  Zn5  1  0.42924000  0.92473000  0.99570000  1.0
  H  H6  1  0.89071000  0.74105000  0.52088000  1.0
  H  H7  1  0.60580000  0.73209000  0.64614000  1.0
  H  H8  1  0.71282000  0.88790000  0.71980000  1.0
  H  H9  1  0.68114000  0.00000000  0.80626000  1.0
  H  H10  1  0.96780000  0.04125000  0.31835000  1.0
  H  H11  1  0.87726000  0.96593000  0.05301000  1.0
  H  H12  1  0.63316000  0.05538000  0.24858000  1.0
  H  H13  1  0.02928000  0.72802000  0.56569000  1.0
  H  H14  1  0.22168000  0.86426000  0.82938000  1.0
  H  H15  1  0.70048000  0.79427000  0.59681000  1.0
  H  H16  1  0.80618000  0.89703000  0.59145000  1.0
  H  H17  1  0.77565000  0.75789000  0.63660000  1.0
  H  H18  1  0.82647000  0.69370000  0.41102000  1.0
  H  H19  1  0.48769000  0.75229000  0.37491000  1.0
  H  H20  1  0.95878000  0.92833000  0.65382000  1.0
  H  H21  1  0.38211000  0.31296000  0.10953000  1.0
  H  H22  1  0.73992000  0.47318000  0.47868000  1.0
  H  H23  1  0.57097000  0.05580000  0.50585000  1.0
  H  H24  1  0.41651000  0.19375000  0.35734000  1.0
  H  H25  1  0.53645000  0.45142000  0.75961000  1.0
  H  H26  1  0.04586000  0.31317000  0.58848000  1.0
  H  H27  1  0.20310000  0.95780000  0.33202000  1.0
  H  H28  1  0.62794000  0.25175000  0.50901000  1.0
  H  H29  1  0.47993000  0.96924000  0.79175000  1.0
  H  H30  1  0.76062000  0.75848000  0.31519000  1.0
  H  H31  1  0.20646000  0.70349000  0.75324000  1.0
  H  H32  1  0.70119000  0.95919000  0.37972000  1.0
  H  H33  1  0.06266000  0.02597000  0.26131000  1.0
  H  H34  1  0.80293000  0.03820000  0.00422000  1.0
  H  H35  1  0.25984000  0.25711000  0.71836000  1.0
  H  H36  1  0.15072000  0.89360000  0.52611000  1.0
  H  H37  1  0.69989000  0.95164000  0.48069000  1.0
  H  H38  1  0.00042000  0.67301000  0.66844000  1.0
  H  H39  1  0.48498000  0.04727000  0.24945000  1.0
  H  H40  1  0.48209000  0.28033000  0.91881000  1.0
  H  H41  1  0.84183000  0.69343000  0.60845000  1.0
  H  H42  1  0.58592000  0.47846000  0.29866000  1.0
  H  H43  1  0.42617000  0.19233000  0.08337000  1.0
  H  H44  1  0.60837000  0.64733000  0.36646000  1.0
  H  H45  1  0.31222000  0.50243000  0.71786000  1.0
  H  H46  1  0.15440000  0.41706000  0.62436000  1.0
  H  H47  1  0.32941000  0.57412000  0.62364000  1.0
  C  C48  1  0.48131000  0.38256000  0.35355000  1.0
  C  C49  1  0.52518000  0.26219000  0.32715000  1.0
  C  C50  1  0.49228000  0.31279000  0.29569000  1.0
  C  C51  1  0.62495000  0.61633000  0.50602000  1.0
  C  C52  1  0.45681000  0.28690000  0.20823000  1.0
  C  C53  1  0.44737000  0.20839000  0.15029000  1.0
  C  C54  1  0.46626000  0.15242000  0.17807000  1.0
  C  C55  1  0.34179000  0.40837000  0.64385000  1.0
  C  C56  1  0.28643000  0.43819000  0.66467000  1.0
  C  C57  1  0.19578000  0.38644000  0.61466000  1.0
  C  C58  1  0.16045000  0.30023000  0.55418000  1.0
  C  C59  1  0.81025000  0.80173000  0.48912000  1.0
  C  C60  1  0.21755000  0.26425000  0.53925000  1.0
  C  C61  1  0.30669000  0.32403000  0.57331000  1.0
  C  C62  1  0.35482000  0.29847000  0.53076000  1.0
  C  C63  1  0.46452000  0.59767000  0.58882000  1.0
  C  C64  1  0.32556000  0.21094000  0.47921000  1.0
  C  C65  1  0.24860000  0.14753000  0.46877000  1.0
  C  C66  1  0.19186000  0.17316000  0.49260000  1.0
  C  C67  1  0.59603000  0.78115000  0.68860000  1.0
  C  C68  1  0.65492000  0.86770000  0.72890000  1.0
  C  C69  1  0.63825000  0.93094000  0.77875000  1.0
  C  C70  1  0.81557000  0.83859000  0.57986000  1.0
  C  C71  1  0.56566000  0.90735000  0.79201000  1.0
  C  C72  1  0.50725000  0.81739000  0.75787000  1.0
  C  C73  1  0.52068000  0.75393000  0.70044000  1.0
  C  C74  1  0.45576000  0.66533000  0.65348000  1.0
  C  C75  1  0.42250000  0.36949000  0.52774000  1.0
  C  C76  1  0.38136000  0.64066000  0.66364000  1.0
  C  C77  1  0.37337000  0.69989000  0.72783000  1.0
  C  C78  1  0.43760000  0.78652000  0.77820000  1.0
  C  C79  1  0.87798000  0.03770000  0.40123000  1.0
  C  C80  1  0.87690000  0.87160000  0.48271000  1.0
  C  C81  1  0.82544000  0.72141000  0.47228000  1.0
  C  C82  1  0.10688000  0.03085000  0.63269000  1.0
  C  C83  1  0.11176000  0.10594000  0.48120000  1.0
  C  C84  1  0.62665000  0.01022000  0.09911000  1.0
  C  C85  1  0.46359000  0.07574000  0.11286000  1.0
  C  C86  1  0.36959000  0.01660000  0.89423000  1.0
  C  C87  1  0.64590000  0.70670000  0.42885000  1.0
  C  C88  1  0.44029000  0.84355000  0.85799000  1.0
  C  C89  1  0.91641000  0.02505000  0.25830000  1.0
  C  C90  1  0.93129000  0.00666000  0.18790000  1.0
  C  C91  1  0.86571000  0.98541000  0.10876000  1.0
  C  C92  1  0.57967000  0.29015000  0.41571000  1.0
  C  C93  1  0.78826000  0.98658000  0.10177000  1.0
  C  C94  1  0.77316000  0.01076000  0.17545000  1.0
  C  C95  1  0.83726000  0.02555000  0.25414000  1.0
  C  C96  1  0.82195000  0.04324000  0.32756000  1.0
  C  C97  1  0.75042000  0.05670000  0.32554000  1.0
  C  C98  1  0.68990000  0.04631000  0.24949000  1.0
  C  C99  1  0.71568000  0.77056000  0.41739000  1.0
  C  C100  1  0.69871000  0.02148000  0.17534000  1.0
  C  C101  1  0.10797000  0.86314000  0.61488000  1.0
  C  C102  1  0.07662000  0.78971000  0.62352000  1.0
  C  C103  1  0.58711000  0.22993000  0.44198000  1.0
  C  C104  1  0.11243000  0.79202000  0.70355000  1.0
  C  C105  1  0.18789000  0.86500000  0.77065000  1.0
  C  C106  1  0.21882000  0.94343000  0.76578000  1.0
  C  C107  1  0.16850000  0.94530000  0.69059000  1.0
  C  C108  1  0.17824000  0.02769000  0.69696000  1.0
  C  C109  1  0.24742000  0.10398000  0.76765000  1.0
  C  C110  1  0.31034000  0.10001000  0.83189000  1.0
  C  C111  1  0.74550000  0.77009000  0.58418000  1.0
  C  C112  1  0.29666000  0.02133000  0.83209000  1.0
  C  C113  1  0.75296000  0.64918000  0.47357000  1.0
  C  C114  1  0.54644000  0.14034000  0.38185000  1.0
  C  C115  1  0.69102000  0.68535000  0.49797000  1.0
  C  C116  1  0.57922000  0.73694000  0.44050000  1.0
  C  C117  1  0.90749000  0.87139000  0.64813000  1.0
  C  C118  1  0.44048000  0.34449000  0.17220000  1.0
  C  C119  1  0.64579000  0.38344000  0.47656000  1.0
  C  C120  1  0.54482000  0.07253000  0.40888000  1.0
  C  C121  1  0.37316000  0.17926000  0.43416000  1.0
  C  C122  1  0.43672000  0.46266000  0.70575000  1.0
  C  C123  1  0.06452000  0.25188000  0.49506000  1.0
  C  C124  1  0.23223000  0.05398000  0.43397000  1.0
  C  C125  1  0.51012000  0.11500000  0.29558000  1.0
  C  C126  1  0.54474000  0.97772000  0.83147000  1.0
  C  C127  1  0.70928000  0.72154000  0.32716000  1.0
  C  C128  1  0.29188000  0.66752000  0.73655000  1.0
  C  C129  1  0.73124000  0.07966000  0.40053000  1.0
  C  C130  1  0.01533000  0.00791000  0.19589000  1.0
  C  C131  1  0.71980000  0.95139000  0.01241000  1.0
  C  C132  1  0.25754000  0.19164000  0.77793000  1.0
  C  C133  1  0.09455000  0.84847000  0.52719000  1.0
  C  C134  1  0.70419000  0.84887000  0.41630000  1.0
  C  C135  1  0.07183000  0.71382000  0.71113000  1.0
  C  C136  1  0.50028000  0.17515000  0.26629000  1.0
  C  C137  1  0.38889000  0.18378000  0.90202000  1.0
  C  C138  1  0.80433000  0.63478000  0.54489000  1.0
  C  C139  1  0.70661000  0.56634000  0.38576000  1.0
  O  O140  1  0.41892000  0.40025000  0.32485000  1.0
  O  O141  1  0.55109000  0.95407000  0.07597000  1.0
  O  O142  1  0.51084000  0.09784000  0.07877000  1.0
  O  O143  1  0.53170000  0.41814000  0.43276000  1.0
  O  O144  1  0.41722000  0.99776000  0.09494000  1.0
  O  O145  1  0.44581000  0.06692000  0.91000000  1.0
  O  O146  1  0.35068000  0.96262000  0.92152000  1.0
  O  O147  1  0.48712000  0.92561000  0.89049000  1.0
  O  O148  1  0.40184000  0.81465000  0.89657000  1.0
  O  O149  1  0.54481000  0.58901000  0.46227000  1.0
  O  O150  1  0.66034000  0.59306000  0.55973000  1.0
  O  O151  1  0.89782000  0.08863000  0.47832000  1.0
  O  O152  1  0.40547000  0.56258000  0.51102000  1.0
  O  O153  1  0.52657000  0.57987000  0.61356000  1.0
  O  O154  1  0.38718000  0.39199000  0.47516000  1.0
  O  O155  1  0.50377000  0.40039000  0.57547000  1.0
  O  O156  1  0.90042000  0.97762000  0.38118000  1.0
  O  O157  1  0.57024000  0.76483000  0.50439000  1.0
  O  O158  1  0.52816000  0.73003000  0.36506000  1.0
  O  O159  1  0.92660000  0.84062000  0.69555000  1.0
  O  O160  1  0.49228000  0.42156000  0.20444000  1.0
  O  O161  1  0.66260000  0.42572000  0.55241000  1.0
  O  O162  1  0.90514000  0.84610000  0.42941000  1.0
  O  O163  1  0.69199000  0.41109000  0.44024000  1.0
  O  O164  1  0.51686000  0.99565000  0.35974000  1.0
  O  O165  1  0.57647000  0.10512000  0.49476000  1.0
  O  O166  1  0.39742000  0.12583000  0.44068000  1.0
  O  O167  1  0.38361000  0.21567000  0.38388000  1.0
  O  O168  1  0.47445000  0.54183000  0.74413000  1.0
  O  O169  1  0.47454000  0.41203000  0.72012000  1.0
  O  O170  1  0.03293000  0.19969000  0.41972000  1.0
  O  O171  1  0.01209000  0.27292000  0.52718000  1.0
  O  O172  1  0.24446000  0.01923000  0.47854000  1.0
  O  O173  1  0.89745000  0.95008000  0.53035000  1.0
  O  O174  1  0.20592000  0.01559000  0.34872000  1.0
  O  O175  1  0.60102000  0.05141000  0.89430000  1.0
  O  O176  1  0.65242000  0.64857000  0.27434000  1.0
  O  O177  1  0.25952000  0.59788000  0.73572000  1.0
  O  O178  1  0.25593000  0.72154000  0.73950000  1.0
  O  O179  1  0.73408000  0.14942000  0.43819000  1.0
  O  O180  1  0.70474000  0.01448000  0.41990000  1.0
  O  O181  1  0.03337000  0.99051000  0.13635000  1.0
  O  O182  1  0.64735000  0.89125000  0.97946000  1.0
  O  O183  1  0.74666000  0.98645000  0.96589000  1.0
  O  O184  1  0.07978000  0.97989000  0.55459000  1.0
  O  O185  1  0.26879000  0.24924000  0.84271000  1.0
  O  O186  1  0.25484000  0.19936000  0.70776000  1.0
  O  O187  1  0.03267000  0.78592000  0.46118000  1.0
  O  O188  1  0.70055000  0.86426000  0.35620000  1.0
  O  O189  1  0.70192000  0.89985000  0.48522000  1.0
  O  O190  1  0.11105000  0.69165000  0.75955000  1.0
  O  O191  1  0.40640000  0.21411000  0.97739000  1.0
  O  O192  1  0.43535000  0.22418000  0.87051000  1.0
  O  O193  1  0.81468000  0.57007000  0.53655000  1.0
  O  O194  1  0.74508000  0.54581000  0.34596000  1.0
  O  O195  1  0.07472000  0.08081000  0.65976000  1.0
  O  O196  1  0.62189000  0.52306000  0.36098000  1.0
  O  O197  1  0.08009000  0.02731000  0.42224000  1.0
  O  O198  1  0.08207000  0.12941000  0.53326000  1.0
  O  O199  1  0.64747000  0.06167000  0.06850000  1.0
