# generated using pymatgen
data_MgH7(C4O)3
_symmetry_space_group_name_H-M   'P 1'
_cell_length_a   6.80212000
_cell_length_b   37.69810000
_cell_length_c   37.69380000
_cell_angle_alpha   119.64400000
_cell_angle_beta   93.44690000
_cell_angle_gamma   93.44290000
_symmetry_Int_Tables_number   1
_chemical_formula_structural   MgH7(C4O)3
_chemical_formula_sum   'Mg6 H42 C72 O18'
_cell_volume   8340.38311827
_cell_formula_units_Z   6
loop_
 _symmetry_equiv_pos_site_id
 _symmetry_equiv_pos_as_xyz
  1  'x, y, z'
loop_
 _atom_site_type_symbol
 _atom_site_label
 _atom_site_symmetry_multiplicity
 _atom_site_fract_x
 _atom_site_fract_y
 _atom_site_fract_z
 _atom_site_occupancy
  Mg  Mg0  1  0.78664000  0.67090000  0.36310000  1.0
  Mg  Mg1  1  0.61559000  0.33264000  0.63840000  1.0
  Mg  Mg2  1  0.42361000  0.63694000  0.30783000  1.0
  Mg  Mg3  1  0.97709000  0.36157000  0.69420000  1.0
  Mg  Mg4  1  0.11571000  0.69219000  0.32913000  1.0
  Mg  Mg5  1  0.28283000  0.30577000  0.66731000  1.0
  H  H6  1  0.92941000  0.18972000  0.60137000  1.0
  H  H7  1  0.85873000  0.11741000  0.56167000  1.0
  H  H8  1  0.42989000  0.08417000  0.52211000  1.0
  H  H9  1  0.35015000  0.01406000  0.48157000  1.0
  H  H10  1  0.43241000  0.94285000  0.44896000  1.0
  H  H11  1  0.03730000  0.98614000  0.50294000  1.0
  H  H12  1  0.95519000  0.05731000  0.53548000  1.0
  H  H13  1  0.95746000  0.91635000  0.46346000  1.0
  H  H14  1  0.53096000  0.88201000  0.42280000  1.0
  H  H15  1  0.46337000  0.80905000  0.38666000  1.0
  H  H16  1  0.16521000  0.79096000  0.41055000  1.0
  H  H17  1  0.06594000  0.86059000  0.43653000  1.0
  H  H18  1  0.32711000  0.14113000  0.54863000  1.0
  H  H19  1  0.23193000  0.21149000  0.57937000  1.0
  H  H20  1  0.32825000  0.39867000  0.58836000  1.0
  H  H21  1  0.29691000  0.43840000  0.55572000  1.0
  H  H22  1  0.90747000  0.47793000  0.56209000  1.0
  H  H23  1  0.86858000  0.51859000  0.53258000  1.0
  H  H24  1  0.98355000  0.55116000  0.49395000  1.0
  H  H25  1  0.53407000  0.49699000  0.48319000  1.0
  H  H26  1  0.41914000  0.46446000  0.52179000  1.0
  H  H27  1  0.49423000  0.53651000  0.45291000  1.0
  H  H28  1  0.10837000  0.57717000  0.45920000  1.0
  H  H29  1  0.07687000  0.61338000  0.42240000  1.0
  H  H30  1  0.75467000  0.58938000  0.38036000  1.0
  H  H31  1  0.62928000  0.56335000  0.42394000  1.0
  H  H32  1  0.77844000  0.45133000  0.59244000  1.0
  H  H33  1  0.65261000  0.42065000  0.63211000  1.0
  H  H34  1  0.73956000  0.41165000  0.81025000  1.0
  H  H35  1  0.74106000  0.44427000  0.88261000  1.0
  H  H36  1  0.34546000  0.43793000  0.91586000  1.0
  H  H37  1  0.33617000  0.46742000  0.98599000  1.0
  H  H38  1  0.48954000  0.50604000  0.05719000  1.0
  H  H39  1  0.05092000  0.51682000  0.01385000  1.0
  H  H40  1  0.89773000  0.47814000  0.94269000  1.0
  H  H41  1  0.04127000  0.54709000  0.08363000  1.0
  H  H42  1  0.64917000  0.54079000  0.11801000  1.0
  H  H43  1  0.65458000  0.57759000  0.19100000  1.0
  H  H44  1  0.37433000  0.61960000  0.20904000  1.0
  H  H45  1  0.20536000  0.57604000  0.13943000  1.0
  H  H46  1  0.18582000  0.40750000  0.85885000  1.0
  H  H47  1  0.02041000  0.36782000  0.78849000  1.0
  C  C48  1  0.52376000  0.24109000  0.60697000  1.0
  C  C49  1  0.72440000  0.23428000  0.61326000  1.0
  C  C50  1  0.77546000  0.19377000  0.59571000  1.0
  C  C51  1  0.63841000  0.15940000  0.57201000  1.0
  C  C52  1  0.70201000  0.11841000  0.55413000  1.0
  C  C53  1  0.58618000  0.08277000  0.52959000  1.0
  C  C54  1  0.64522000  0.04147000  0.51117000  1.0
  C  C55  1  0.50162000  0.00793000  0.48634000  1.0
  C  C56  1  0.54818000  0.96772000  0.46791000  1.0
  C  C57  1  0.74229000  0.95871000  0.47331000  1.0
  C  C58  1  0.88593000  0.99225000  0.49810000  1.0
  C  C59  1  0.83945000  0.03244000  0.51651000  1.0
  C  C60  1  0.80167000  0.91746000  0.45533000  1.0
  C  C61  1  0.68763000  0.88153000  0.43092000  1.0
  C  C62  1  0.75386000  0.84083000  0.41457000  1.0
  C  C63  1  0.61826000  0.80584000  0.39273000  1.0
  C  C64  1  0.67176000  0.76576000  0.37796000  1.0
  C  C65  1  0.87341000  0.76009000  0.38511000  1.0
  C  C66  1  0.01104000  0.79549000  0.40595000  1.0
  C  C67  1  0.95361000  0.83437000  0.42028000  1.0
  C  C68  1  0.51603000  0.73112000  0.35543000  1.0
  C  C69  1  0.44019000  0.16687000  0.56664000  1.0
  C  C70  1  0.38517000  0.20619000  0.58359000  1.0
  C  C71  1  0.88170000  0.26804000  0.63797000  1.0
  C  C72  1  0.91688000  0.39303000  0.63410000  1.0
  C  C73  1  0.11132000  0.38677000  0.62102000  1.0
  C  C74  1  0.17991000  0.40432000  0.59807000  1.0
  C  C75  1  0.06642000  0.42800000  0.58737000  1.0
  C  C76  1  0.14768000  0.44590000  0.56426000  1.0
  C  C77  1  0.05623000  0.47044000  0.55318000  1.0
  C  C78  1  0.13369000  0.48887000  0.53031000  1.0
  C  C79  1  0.01519000  0.51377000  0.52165000  1.0
  C  C80  1  0.08026000  0.53219000  0.49987000  1.0
  C  C81  1  0.26897000  0.52673000  0.48543000  1.0
  C  C82  1  0.38758000  0.50188000  0.49417000  1.0
  C  C83  1  0.32251000  0.48347000  0.51593000  1.0
  C  C84  1  0.34656000  0.54467000  0.46215000  1.0
  C  C85  1  0.25689000  0.56904000  0.45058000  1.0
  C  C86  1  0.33927000  0.58536000  0.42619000  1.0
  C  C87  1  0.22564000  0.60726000  0.41311000  1.0
  C  C88  1  0.29395000  0.62207000  0.38783000  1.0
  C  C89  1  0.48838000  0.61488000  0.37496000  1.0
  C  C90  1  0.60505000  0.59398000  0.38947000  1.0
  C  C91  1  0.53329000  0.57963000  0.41401000  1.0
  C  C92  1  0.16074000  0.64463000  0.37575000  1.0
  C  C93  1  0.87352000  0.43334000  0.60020000  1.0
  C  C94  1  0.80160000  0.41640000  0.62258000  1.0
  C  C95  1  0.24381000  0.36204000  0.63007000  1.0
  C  C96  1  0.28257000  0.36584000  0.75886000  1.0
  C  C97  1  0.49007000  0.37895000  0.76569000  1.0
  C  C98  1  0.58156000  0.40193000  0.80621000  1.0
  C  C99  1  0.47888000  0.41263000  0.84059000  1.0
  C  C100  1  0.58335000  0.43573000  0.88161000  1.0
  C  C101  1  0.50314000  0.44680000  0.91725000  1.0
  C  C102  1  0.60359000  0.46965000  0.95855000  1.0
  C  C103  1  0.49372000  0.47833000  0.99211000  1.0
  C  C104  1  0.58045000  0.50012000  0.03231000  1.0
  C  C105  1  0.78356000  0.51456000  0.04132000  1.0
  C  C106  1  0.89347000  0.50582000  0.00774000  1.0
  C  C107  1  0.80682000  0.48400000  0.96755000  1.0
  C  C108  1  0.88438000  0.53786000  0.08255000  1.0
  C  C109  1  0.80629000  0.54940000  0.11848000  1.0
  C  C110  1  0.91310000  0.57378000  0.15919000  1.0
  C  C111  1  0.81261000  0.58690000  0.19420000  1.0
  C  C112  1  0.90615000  0.61220000  0.23428000  1.0
  C  C113  1  0.11345000  0.62504000  0.23995000  1.0
  C  C114  1  0.21559000  0.61050000  0.20453000  1.0
  C  C115  1  0.11927000  0.58596000  0.16565000  1.0
  C  C116  1  0.78493000  0.62429000  0.26890000  1.0
  C  C117  1  0.27322000  0.39978000  0.83311000  1.0
  C  C118  1  0.17893000  0.37737000  0.79378000  1.0
  C  C119  1  0.61360000  0.36991000  0.73192000  1.0
  O  O120  1  0.34107000  0.73679000  0.34679000  1.0
  O  O121  1  0.56079000  0.69450000  0.34496000  1.0
  O  O122  1  0.93962000  0.72345000  0.37324000  1.0
  O  O123  1  0.05561000  0.26093000  0.64535000  1.0
  O  O124  1  0.83965000  0.30545000  0.65183000  1.0
  O  O125  1  0.45928000  0.27830000  0.62196000  1.0
  O  O126  1  0.99451000  0.65330000  0.39010000  1.0
  O  O127  1  0.21591000  0.65510000  0.34959000  1.0
  O  O128  1  0.56656000  0.62677000  0.35021000  1.0
  O  O129  1  0.41037000  0.35466000  0.61559000  1.0
  O  O130  1  0.18773000  0.34815000  0.65358000  1.0
  O  O131  1  0.83737000  0.37801000  0.65629000  1.0
  O  O132  1  0.60430000  0.60997000  0.26321000  1.0
  O  O133  1  0.86625000  0.65042000  0.30554000  1.0
  O  O134  1  0.21629000  0.64980000  0.27659000  1.0
  O  O135  1  0.79459000  0.38441000  0.73901000  1.0
  O  O136  1  0.53410000  0.34637000  0.69451000  1.0
  O  O137  1  0.18083000  0.34364000  0.72165000  1.0
