# generated using pymatgen
data_TbH15(C7O3)3
_symmetry_space_group_name_H-M   'P 1'
_cell_length_a   5.27638000
_cell_length_b   12.11580000
_cell_length_c   16.22730000
_cell_angle_alpha   92.85150000
_cell_angle_beta   92.97200000
_cell_angle_gamma   102.30400000
_symmetry_Int_Tables_number   1
_chemical_formula_structural   TbH15(C7O3)3
_chemical_formula_sum   'Tb2 H30 C42 O18'
_cell_volume   1010.21406079
_cell_formula_units_Z   2
loop_
 _symmetry_equiv_pos_site_id
 _symmetry_equiv_pos_as_xyz
  1  'x, y, z'
loop_
 _atom_site_type_symbol
 _atom_site_label
 _atom_site_symmetry_multiplicity
 _atom_site_fract_x
 _atom_site_fract_y
 _atom_site_fract_z
 _atom_site_occupancy
  Tb  Tb0  1  0.07899000  0.87265000  0.42987000  1.0
  Tb  Tb1  1  0.92103000  0.12734000  0.57011000  1.0
  H  H2  1  0.72464000  0.62123000  0.90632000  1.0
  H  H3  1  0.27533000  0.37875000  0.09365000  1.0
  H  H4  1  0.70733000  0.34320000  0.71308000  1.0
  H  H5  1  0.29266000  0.65680000  0.28690000  1.0
  H  H6  1  0.73938000  0.34572000  0.10159000  1.0
  H  H7  1  0.26058000  0.65429000  0.89842000  1.0
  H  H8  1  0.10480000  0.62560000  0.16741000  1.0
  H  H9  1  0.89519000  0.37434000  0.83259000  1.0
  H  H10  1  0.93684000  0.56233000  0.02356000  1.0
  H  H11  1  0.06312000  0.43763000  0.97643000  1.0
  H  H12  1  0.43695000  0.80051000  0.02792000  1.0
  H  H13  1  0.56310000  0.19949000  0.97206000  1.0
  H  H14  1  0.60996000  0.86593000  0.17277000  1.0
  H  H15  1  0.39002000  0.13407000  0.82724000  1.0
  H  H16  1  0.87404000  0.59653000  0.51219000  1.0
  H  H17  1  0.12599000  0.40350000  0.48779000  1.0
  H  H18  1  0.89834000  0.44428000  0.60764000  1.0
  H  H19  1  0.10168000  0.55573000  0.39234000  1.0
  H  H20  1  0.24885000  0.51954000  0.73228000  1.0
  H  H21  1  0.75120000  0.48047000  0.26771000  1.0
  H  H22  1  0.21729000  0.66800000  0.63343000  1.0
  H  H23  1  0.78279000  0.33204000  0.36658000  1.0
  H  H24  1  0.14092000  0.16921000  0.35506000  1.0
  H  H25  1  0.85906000  0.83081000  0.64494000  1.0
  H  H26  1  0.23705000  0.30522000  0.24598000  1.0
  H  H27  1  0.76292000  0.69480000  0.75403000  1.0
  H  H28  1  0.45718000  0.18530000  0.13674000  1.0
  H  H29  1  0.54279000  0.81472000  0.86328000  1.0
  H  H30  1  0.35935000  0.05374000  0.24938000  1.0
  H  H31  1  0.64063000  0.94627000  0.75063000  1.0
  C  C32  1  0.86885000  0.75122000  0.17926000  1.0
  C  C33  1  0.13116000  0.24875000  0.82073000  1.0
  C  C34  1  0.96035000  0.66503000  0.13737000  1.0
  C  C35  1  0.03964000  0.33492000  0.86264000  1.0
  C  C36  1  0.86730000  0.62936000  0.05659000  1.0
  C  C37  1  0.13272000  0.37060000  0.94342000  1.0
  C  C38  1  0.68106000  0.67874000  0.01717000  1.0
  C  C39  1  0.31895000  0.32123000  0.98283000  1.0
  C  C40  1  0.58423000  0.76331000  0.05879000  1.0
  C  C41  1  0.41578000  0.23668000  0.94121000  1.0
  C  C42  1  0.68031000  0.79949000  0.13920000  1.0
  C  C43  1  0.31967000  0.20051000  0.86081000  1.0
  C  C44  1  0.95840000  0.79209000  0.26563000  1.0
  C  C45  1  0.04159000  0.20787000  0.73436000  1.0
  C  C46  1  0.54217000  0.64184000  0.56603000  1.0
  C  C47  1  0.45786000  0.35818000  0.43396000  1.0
  C  C48  1  0.73624000  0.57899000  0.56008000  1.0
  C  C49  1  0.26378000  0.42103000  0.43991000  1.0
  C  C50  1  0.75049000  0.49418000  0.61327000  1.0
  C  C51  1  0.24954000  0.50583000  0.38671000  1.0
  C  C52  1  0.57423000  0.47205000  0.67563000  1.0
  C  C53  1  0.42579000  0.52795000  0.32435000  1.0
  C  C54  1  0.38398000  0.53677000  0.68354000  1.0
  C  C55  1  0.61604000  0.46323000  0.31644000  1.0
  C  C56  1  0.36736000  0.61943000  0.62853000  1.0
  C  C57  1  0.63268000  0.38059000  0.37146000  1.0
  C  C58  1  0.51930000  0.72776000  0.50625000  1.0
  C  C59  1  0.48073000  0.27225000  0.49376000  1.0
  C  C60  1  0.74197000  0.10532000  0.31101000  1.0
  C  C61  1  0.25802000  0.89470000  0.68900000  1.0
  C  C62  1  0.99141000  0.17337000  0.30738000  1.0
  C  C63  1  0.00860000  0.82664000  0.69263000  1.0
  C  C64  1  0.04626000  0.24887000  0.24580000  1.0
  C  C65  1  0.95371000  0.75116000  0.75422000  1.0
  C  C66  1  0.85062000  0.25564000  0.18593000  1.0
  C  C67  1  0.14937000  0.74438000  0.81409000  1.0
  C  C68  1  0.60593000  0.18177000  0.18503000  1.0
  C  C69  1  0.39404000  0.81825000  0.81498000  1.0
  C  C70  1  0.55184000  0.10833000  0.24790000  1.0
  C  C71  1  0.44813000  0.89168000  0.75212000  1.0
  C  C72  1  0.67422000  0.03627000  0.38198000  1.0
  C  C73  1  0.32576000  0.96374000  0.61803000  1.0
  O  O74  1  0.10674000  0.74363000  0.31083000  1.0
  O  O75  1  0.89334000  0.25636000  0.68916000  1.0
  O  O76  1  0.88543000  0.87802000  0.29696000  1.0
  O  O77  1  0.11438000  0.12189000  0.70305000  1.0
  O  O78  1  0.58634000  0.64437000  0.93700000  1.0
  O  O79  1  0.41368000  0.35558000  0.06300000  1.0
  O  O80  1  0.71220000  0.76333000  0.46265000  1.0
  O  O81  1  0.28783000  0.23668000  0.53735000  1.0
  O  O82  1  0.30925000  0.76404000  0.49940000  1.0
  O  O83  1  0.69078000  0.23598000  0.50060000  1.0
  O  O84  1  0.58164000  0.39120000  0.72940000  1.0
  O  O85  1  0.41840000  0.60882000  0.27058000  1.0
  O  O86  1  0.44009000  0.98887000  0.38959000  1.0
  O  O87  1  0.55989000  0.01117000  0.61043000  1.0
  O  O88  1  0.85790000  0.02835000  0.43719000  1.0
  O  O89  1  0.14208000  0.97164000  0.56282000  1.0
  O  O90  1  0.90486000  0.33683000  0.12943000  1.0
  O  O91  1  0.09513000  0.66321000  0.87058000  1.0
