# generated using pymatgen
data_NiH14C16(NO)4
_symmetry_space_group_name_H-M   'P 1'
_cell_length_a   13.39360000
_cell_length_b   16.66770000
_cell_length_c   18.92110000
_cell_angle_alpha   89.99980000
_cell_angle_beta   89.99950000
_cell_angle_gamma   109.44300000
_symmetry_Int_Tables_number   1
_chemical_formula_structural   NiH14C16(NO)4
_chemical_formula_sum   'Ni6 H84 C96 N24 O24'
_cell_volume   3983.07687247
_cell_formula_units_Z   6
loop_
 _symmetry_equiv_pos_site_id
 _symmetry_equiv_pos_as_xyz
  1  'x, y, z'
loop_
 _atom_site_type_symbol
 _atom_site_label
 _atom_site_symmetry_multiplicity
 _atom_site_fract_x
 _atom_site_fract_y
 _atom_site_fract_z
 _atom_site_occupancy
  Ni  Ni0  1  0.45149000  0.53738000  0.76122000  1.0
  Ni  Ni1  1  0.04851000  0.96262000  0.26121000  1.0
  Ni  Ni2  1  0.54851000  0.46263000  0.23879000  1.0
  Ni  Ni3  1  0.95149000  0.03738000  0.73878000  1.0
  Ni  Ni4  1  0.00000000  0.50000000  0.00000000  1.0
  Ni  Ni5  1  0.50000000  0.00000000  0.50000000  1.0
  H  H6  1  0.77126000  0.57714000  0.89120000  1.0
  H  H7  1  0.72873000  0.92286000  0.39120000  1.0
  H  H8  1  0.22873000  0.42286000  0.10880000  1.0
  H  H9  1  0.27128000  0.07714000  0.60880000  1.0
  H  H10  1  0.73494000  0.77902000  0.76348000  1.0
  H  H11  1  0.76506000  0.72099000  0.26348000  1.0
  H  H12  1  0.26506000  0.22099000  0.23652000  1.0
  H  H13  1  0.23495000  0.27902000  0.73652000  1.0
  H  H14  1  0.02681000  0.81636000  0.87308000  1.0
  H  H15  1  0.47319000  0.68363000  0.37309000  1.0
  H  H16  1  0.97318000  0.18363000  0.12691000  1.0
  H  H17  1  0.52682000  0.31637000  0.62691000  1.0
  H  H18  1  0.13268000  0.39880000  0.94151000  1.0
  H  H19  1  0.36731000  0.10121000  0.44151000  1.0
  H  H20  1  0.86731000  0.60120000  0.05849000  1.0
  H  H21  1  0.63268000  0.89879000  0.55849000  1.0
  H  H22  1  0.14458000  0.31929000  0.83343000  1.0
  H  H23  1  0.35542000  0.18071000  0.33343000  1.0
  H  H24  1  0.85542000  0.68071000  0.16657000  1.0
  H  H25  1  0.64457000  0.81928000  0.66657000  1.0
  H  H26  1  0.89728000  0.40238000  0.74413000  1.0
  H  H27  1  0.60272000  0.09763000  0.24413000  1.0
  H  H28  1  0.10271000  0.59761000  0.25588000  1.0
  H  H29  1  0.39727000  0.90238000  0.75587000  1.0
  H  H30  1  0.90253000  0.48358000  0.85449000  1.0
  H  H31  1  0.59746000  0.01642000  0.35449000  1.0
  H  H32  1  0.09745000  0.51641000  0.14552000  1.0
  H  H33  1  0.40254000  0.98359000  0.64551000  1.0
  H  H34  1  0.51037000  0.67555000  0.66271000  1.0
  H  H35  1  0.98964000  0.82445000  0.16271000  1.0
  H  H36  1  0.48964000  0.32445000  0.33729000  1.0
  H  H37  1  0.01037000  0.17555000  0.83729000  1.0
  H  H38  1  0.45504000  0.71598000  0.54656000  1.0
  H  H39  1  0.04497000  0.78402000  0.04656000  1.0
  H  H40  1  0.54497000  0.28402000  0.45344000  1.0
  H  H41  1  0.95504000  0.21597000  0.95344000  1.0
  H  H42  1  0.18290000  0.48560000  0.55709000  1.0
  H  H43  1  0.31712000  0.01439000  0.05709000  1.0
  H  H44  1  0.81711000  0.51440000  0.44291000  1.0
  H  H45  1  0.68289000  0.98560000  0.94291000  1.0
  H  H46  1  0.24780000  0.45746000  0.67433000  1.0
  H  H47  1  0.25221000  0.04253000  0.17433000  1.0
  H  H48  1  0.75220000  0.54253000  0.32567000  1.0
  H  H49  1  0.74780000  0.95747000  0.82566000  1.0
  H  H50  1  0.28543000  0.62192000  0.76985000  1.0
  H  H51  1  0.21456000  0.87807000  0.26985000  1.0
  H  H52  1  0.71457000  0.37808000  0.23015000  1.0
  H  H53  1  0.78543000  0.12192000  0.73015000  1.0
  H  H54  1  0.16369000  0.64301000  0.86263000  1.0
  H  H55  1  0.33630000  0.85699000  0.36263000  1.0
  H  H56  1  0.83631000  0.35699000  0.13738000  1.0
  H  H57  1  0.66369000  0.14301000  0.63737000  1.0
  H  H58  1  0.32210000  0.53015000  0.01245000  1.0
  H  H59  1  0.17790000  0.96986000  0.51245000  1.0
  H  H60  1  0.67790000  0.46985000  0.98755000  1.0
  H  H61  1  0.82210000  0.03015000  0.48755000  1.0
  H  H62  1  0.43775000  0.51537000  0.91316000  1.0
  H  H63  1  0.06225000  0.98464000  0.41316000  1.0
  H  H64  1  0.56225000  0.48464000  0.08684000  1.0
  H  H65  1  0.93775000  0.01537000  0.58684000  1.0
  H  H66  1  0.04832000  0.25387000  0.72280000  1.0
  H  H67  1  0.45167000  0.24613000  0.22280000  1.0
  H  H68  1  0.95168000  0.74613000  0.27720000  1.0
  H  H69  1  0.54832000  0.75387000  0.77720000  1.0
  H  H70  1  0.95786000  0.29442000  0.68520000  1.0
  H  H71  1  0.54213000  0.20558000  0.18519000  1.0
  H  H72  1  0.04214000  0.70558000  0.31480000  1.0
  H  H73  1  0.45786000  0.79442000  0.81481000  1.0
  H  H74  1  0.33284000  0.67676000  0.45123000  1.0
  H  H75  1  0.16717000  0.82323000  0.95123000  1.0
  H  H76  1  0.66717000  0.32324000  0.54878000  1.0
  H  H77  1  0.83283000  0.17677000  0.04877000  1.0
  H  H78  1  0.22928000  0.57954000  0.44785000  1.0
  H  H79  1  0.27074000  0.92045000  0.94784000  1.0
  H  H80  1  0.77073000  0.42047000  0.55216000  1.0
  H  H81  1  0.72927000  0.07955000  0.05215000  1.0
  H  H82  1  0.13135000  0.64445000  0.98731000  1.0
  H  H83  1  0.36864000  0.85555000  0.48731000  1.0
  H  H84  1  0.86864000  0.35554000  0.01269000  1.0
  H  H85  1  0.63136000  0.14446000  0.51268000  1.0
  H  H86  1  0.18699000  0.59254000  0.04747000  1.0
  H  H87  1  0.31301000  0.90746000  0.54747000  1.0
  H  H88  1  0.81301000  0.40745000  0.95253000  1.0
  H  H89  1  0.68699000  0.09255000  0.45253000  1.0
  C  C90  1  0.97503000  0.65669000  0.93045000  1.0
  C  C91  1  0.52496000  0.84331000  0.43045000  1.0
  C  C92  1  0.02496000  0.34331000  0.06955000  1.0
  C  C93  1  0.47505000  0.15670000  0.56955000  1.0
  C  C94  1  0.90683000  0.69227000  0.88620000  1.0
  C  C95  1  0.59317000  0.80772000  0.38620000  1.0
  C  C96  1  0.09317000  0.30772000  0.11380000  1.0
  C  C97  1  0.40683000  0.19228000  0.61380000  1.0
  C  C98  1  0.80290000  0.64142000  0.87013000  1.0
  C  C99  1  0.69709000  0.85858000  0.37014000  1.0
  C  C100  1  0.19708000  0.35858000  0.12987000  1.0
  C  C101  1  0.30292000  0.14142000  0.62987000  1.0
  C  C102  1  0.73984000  0.67260000  0.82670000  1.0
  C  C103  1  0.76015000  0.82740000  0.32670000  1.0
  C  C104  1  0.26015000  0.32740000  0.17330000  1.0
  C  C105  1  0.23985000  0.17261000  0.67330000  1.0
  C  C106  1  0.62951000  0.61989000  0.80823000  1.0
  C  C107  1  0.87048000  0.88011000  0.30823000  1.0
  C  C108  1  0.37048000  0.38011000  0.19177000  1.0
  C  C109  1  0.12952000  0.11990000  0.69177000  1.0
  C  C110  1  0.78188000  0.75447000  0.79875000  1.0
  C  C111  1  0.71812000  0.74554000  0.29875000  1.0
  C  C112  1  0.21812000  0.24554000  0.20125000  1.0
  C  C113  1  0.28189000  0.25447000  0.70125000  1.0
  C  C114  1  0.88455000  0.80636000  0.81548000  1.0
  C  C115  1  0.61545000  0.69364000  0.31549000  1.0
  C  C116  1  0.11545000  0.19364000  0.18452000  1.0
  C  C117  1  0.38455000  0.30636000  0.68451000  1.0
  C  C118  1  0.92251000  0.89426000  0.78600000  1.0
  C  C119  1  0.57749000  0.60574000  0.28600000  1.0
  C  C120  1  0.07749000  0.10574000  0.21400000  1.0
  C  C121  1  0.42251000  0.39426000  0.71400000  1.0
  C  C122  1  0.94692000  0.77549000  0.85980000  1.0
  C  C123  1  0.55308000  0.72450000  0.35981000  1.0
  C  C124  1  0.05308000  0.22450000  0.14020000  1.0
  C  C125  1  0.44693000  0.27550000  0.64020000  1.0
  C  C126  1  0.08170000  0.39787000  0.89651000  1.0
  C  C127  1  0.41830000  0.10213000  0.39651000  1.0
  C  C128  1  0.91829000  0.60213000  0.10349000  1.0
  C  C129  1  0.58170000  0.89787000  0.60349000  1.0
  C  C130  1  0.08716000  0.35258000  0.83634000  1.0
  C  C131  1  0.41283000  0.14741000  0.33634000  1.0
  C  C132  1  0.91284000  0.64741000  0.16366000  1.0
  C  C133  1  0.58716000  0.85259000  0.66365000  1.0
  C  C134  1  0.01799000  0.34970000  0.77918000  1.0
  C  C135  1  0.48201000  0.15030000  0.27919000  1.0
  C  C136  1  0.98201000  0.65029000  0.22081000  1.0
  C  C137  1  0.51799000  0.84970000  0.72081000  1.0
  C  C138  1  0.95114000  0.39944000  0.78651000  1.0
  C  C139  1  0.54886000  0.10057000  0.28651000  1.0
  C  C140  1  0.04885000  0.60055000  0.21349000  1.0
  C  C141  1  0.45114000  0.89944000  0.71349000  1.0
  C  C142  1  0.95273000  0.44415000  0.84833000  1.0
  C  C143  1  0.54727000  0.05586000  0.34833000  1.0
  C  C144  1  0.04726000  0.55584000  0.15167000  1.0
  C  C145  1  0.45273000  0.94415000  0.65167000  1.0
  C  C146  1  0.43714000  0.63630000  0.63798000  1.0
  C  C147  1  0.06287000  0.86369000  0.13798000  1.0
  C  C148  1  0.56287000  0.36369000  0.36203000  1.0
  C  C149  1  0.93715000  0.13630000  0.86202000  1.0
  C  C150  1  0.40699000  0.65813000  0.57317000  1.0
  C  C151  1  0.09303000  0.84186000  0.07318000  1.0
  C  C152  1  0.59303000  0.34187000  0.42683000  1.0
  C  C153  1  0.90699000  0.15813000  0.92683000  1.0
  C  C154  1  0.31391000  0.60405000  0.54072000  1.0
  C  C155  1  0.18610000  0.89594000  0.04073000  1.0
  C  C156  1  0.68610000  0.39595000  0.45928000  1.0
  C  C157  1  0.81391000  0.10406000  0.95928000  1.0
  C  C158  1  0.25563000  0.53030000  0.57878000  1.0
  C  C159  1  0.24437000  0.96970000  0.07878000  1.0
  C  C160  1  0.74437000  0.46970000  0.42121000  1.0
  C  C161  1  0.75563000  0.03031000  0.92122000  1.0
  C  C162  1  0.29133000  0.51422000  0.64424000  1.0
  C  C163  1  0.20868000  0.98578000  0.14423000  1.0
  C  C164  1  0.70867000  0.48578000  0.35576000  1.0
  C  C165  1  0.79133000  0.01422000  0.85576000  1.0
  C  C166  1  0.29114000  0.60322000  0.82452000  1.0
  C  C167  1  0.20886000  0.89678000  0.32452000  1.0
  C  C168  1  0.70886000  0.39679000  0.17548000  1.0
  C  C169  1  0.79114000  0.10322000  0.67548000  1.0
  C  C170  1  0.22357000  0.61453000  0.87591000  1.0
  C  C171  1  0.27642000  0.88547000  0.37591000  1.0
  C  C172  1  0.77643000  0.38547000  0.12409000  1.0
  C  C173  1  0.72357000  0.11453000  0.62409000  1.0
  C  C174  1  0.23231000  0.58801000  0.94559000  1.0
  C  C175  1  0.26768000  0.91199000  0.44559000  1.0
  C  C176  1  0.76768000  0.41199000  0.05441000  1.0
  C  C177  1  0.73231000  0.08801000  0.55441000  1.0
  C  C178  1  0.31112000  0.55177000  0.95951000  1.0
  C  C179  1  0.18887000  0.94823000  0.45951000  1.0
  C  C180  1  0.68887000  0.44823000  0.04049000  1.0
  C  C181  1  0.81112000  0.05177000  0.54049000  1.0
  C  C182  1  0.37557000  0.54308000  0.90472000  1.0
  C  C183  1  0.12442000  0.95692000  0.40472000  1.0
  C  C184  1  0.62442000  0.45692000  0.09528000  1.0
  C  C185  1  0.87557000  0.04308000  0.59528000  1.0
  N  N186  1  0.01503000  0.44299000  0.90429000  1.0
  N  N187  1  0.48497000  0.05701000  0.40430000  1.0
  N  N188  1  0.98496000  0.55700000  0.09571000  1.0
  N  N189  1  0.51503000  0.94299000  0.59570000  1.0
  N  N190  1  0.01755000  0.30273000  0.72033000  1.0
  N  N191  1  0.48244000  0.19727000  0.22033000  1.0
  N  N192  1  0.98245000  0.69727000  0.27967000  1.0
  N  N193  1  0.51755000  0.80274000  0.77967000  1.0
  N  N194  1  0.38129000  0.56583000  0.67438000  1.0
  N  N195  1  0.11872000  0.93417000  0.17437000  1.0
  N  N196  1  0.61871000  0.43416000  0.32563000  1.0
  N  N197  1  0.88129000  0.06583000  0.82563000  1.0
  N  N198  1  0.28305000  0.62468000  0.47669000  1.0
  N  N199  1  0.21697000  0.87532000  0.97669000  1.0
  N  N200  1  0.71697000  0.37533000  0.52331000  1.0
  N  N201  1  0.78304000  0.12468000  0.02331000  1.0
  N  N202  1  0.36644000  0.56793000  0.83783000  1.0
  N  N203  1  0.13356000  0.93207000  0.33783000  1.0
  N  N204  1  0.63356000  0.43208000  0.16217000  1.0
  N  N205  1  0.86644000  0.06793000  0.66217000  1.0
  N  N206  1  0.16153000  0.59487000  0.99707000  1.0
  N  N207  1  0.33846000  0.90514000  0.49707000  1.0
  N  N208  1  0.83846000  0.40513000  0.00293000  1.0
  N  N209  1  0.66154000  0.09487000  0.50292000  1.0
  O  O210  1  0.93477000  0.57777000  0.94681000  1.0
  O  O211  1  0.56522000  0.92223000  0.44680000  1.0
  O  O212  1  0.06522000  0.42222000  0.05320000  1.0
  O  O213  1  0.43478000  0.07778000  0.55319000  1.0
  O  O214  1  0.06687000  0.70501000  0.94835000  1.0
  O  O215  1  0.43311000  0.79498000  0.44834000  1.0
  O  O216  1  0.93311000  0.29498000  0.05166000  1.0
  O  O217  1  0.56689000  0.20502000  0.55165000  1.0
  O  O218  1  0.58652000  0.54571000  0.83304000  1.0
  O  O219  1  0.91346000  0.95429000  0.33303000  1.0
  O  O220  1  0.41347000  0.45430000  0.16697000  1.0
  O  O221  1  0.08655000  0.04571000  0.66697000  1.0
  O  O222  1  0.57791000  0.65156000  0.76480000  1.0
  O  O223  1  0.92210000  0.84845000  0.26480000  1.0
  O  O224  1  0.42209000  0.34845000  0.23520000  1.0
  O  O225  1  0.07790000  0.15155000  0.73520000  1.0
  O  O226  1  0.86317000  0.91255000  0.73934000  1.0
  O  O227  1  0.63683000  0.58745000  0.23934000  1.0
  O  O228  1  0.13684000  0.08745000  0.26066000  1.0
  O  O229  1  0.36317000  0.41255000  0.76066000  1.0
  O  O230  1  0.00682000  0.95018000  0.80739000  1.0
  O  O231  1  0.49318000  0.54982000  0.30739000  1.0
  O  O232  1  0.99319000  0.04982000  0.19262000  1.0
  O  O233  1  0.50682000  0.45018000  0.69262000  1.0
