# generated using pymatgen
data_CoH20(C13N5)2
_symmetry_space_group_name_H-M   'P 1'
_cell_length_a   9.72690000
_cell_length_b   16.01340000
_cell_length_c   16.01414554
_cell_angle_alpha   115.95181357
_cell_angle_beta   101.68707945
_cell_angle_gamma   101.72800000
_symmetry_Int_Tables_number   1
_chemical_formula_structural   CoH20(C13N5)2
_chemical_formula_sum   'Co3 H60 C78 N30'
_cell_volume   2072.14188004
_cell_formula_units_Z   3
loop_
 _symmetry_equiv_pos_site_id
 _symmetry_equiv_pos_as_xyz
  1  'x, y, z'
loop_
 _atom_site_type_symbol
 _atom_site_label
 _atom_site_symmetry_multiplicity
 _atom_site_fract_x
 _atom_site_fract_y
 _atom_site_fract_z
 _atom_site_occupancy
  Co  Co0  1  0.49999000  0.99999000  0.49999000  1.0
  Co  Co1  1  0.50000000  0.50000000  0.00000000  1.0
  Co  Co2  1  0.00000000  0.50000000  0.50000000  1.0
  H  H3  1  0.48861000  0.14901000  0.42908000  1.0
  H  H4  1  0.62989000  0.21027000  0.34081000  1.0
  H  H5  1  0.82103000  0.13690000  0.28511000  1.0
  H  H6  1  0.76868000  0.78340000  0.60410000  1.0
  H  H7  1  0.88284000  0.66349000  0.62274000  1.0
  H  H8  1  0.04618000  0.62523000  0.39344000  1.0
  H  H9  1  0.94507000  0.74743000  0.36894000  1.0
  H  H10  1  0.93582000  0.95661000  0.34834000  1.0
  H  H11  1  0.99586000  0.05011000  0.31793000  1.0
  H  H12  1  0.85101000  0.93820000  0.22984000  1.0
  H  H13  1  0.33916000  0.28004000  0.85132000  1.0
  H  H14  1  0.41921000  0.13068000  0.78985000  1.0
  H  H15  1  0.68390000  0.14836000  0.86323000  1.0
  H  H16  1  0.98492000  0.82062000  0.21688000  1.0
  H  H17  1  0.21937000  0.95914000  0.33648000  1.0
  H  H18  1  0.42179000  0.76821000  0.37431000  1.0
  H  H19  1  0.19822000  0.62155000  0.25231000  1.0
  H  H20  1  0.97944000  0.39173000  0.04318000  1.0
  H  H21  1  0.94560000  0.26780000  0.95000000  1.0
  H  H22  1  0.91324000  0.29194000  0.06209000  1.0
  H  H23  1  0.05957000  0.57123000  0.71995000  1.0
  H  H24  1  0.28926000  0.65940000  0.86931000  1.0
  H  H25  1  0.53620000  0.71527000  0.85154000  1.0
  H  H26  1  0.16403000  0.39576000  0.17928000  1.0
  H  H27  1  0.25968000  0.37716000  0.04077000  1.0
  H  H28  1  0.65319000  0.60598000  0.23159000  1.0
  H  H29  1  0.57650000  0.63038000  0.37825000  1.0
  H  H30  1  0.58757000  0.65220000  0.60802000  1.0
  H  H31  1  0.67818000  0.68245000  0.73177000  1.0
  H  H32  1  0.62156000  0.77066000  0.70812000  1.0
  H  H33  1  0.51136000  0.85097000  0.57089000  1.0
  H  H34  1  0.37007000  0.78970000  0.65915000  1.0
  H  H35  1  0.17895000  0.86308000  0.71487000  1.0
  H  H36  1  0.23133000  0.21659000  0.39590000  1.0
  H  H37  1  0.11717000  0.33652000  0.37727000  1.0
  H  H38  1  0.95379000  0.37475000  0.60656000  1.0
  H  H39  1  0.05493000  0.25255000  0.63106000  1.0
  H  H40  1  0.06415000  0.04337000  0.65165000  1.0
  H  H41  1  0.00413000  0.94988000  0.68207000  1.0
  H  H42  1  0.14897000  0.06180000  0.77017000  1.0
  H  H43  1  0.66085000  0.71998000  0.14868000  1.0
  H  H44  1  0.58079000  0.86934000  0.21016000  1.0
  H  H45  1  0.31609000  0.85165000  0.13678000  1.0
  H  H46  1  0.01510000  0.17941000  0.78312000  1.0
  H  H47  1  0.78067000  0.04088000  0.66351000  1.0
  H  H48  1  0.57821000  0.23180000  0.62569000  1.0
  H  H49  1  0.80177000  0.37846000  0.74769000  1.0
  H  H50  1  0.02056000  0.60828000  0.95684000  1.0
  H  H51  1  0.05440000  0.73221000  0.05001000  1.0
  H  H52  1  0.08676000  0.70807000  0.93792000  1.0
  H  H53  1  0.94044000  0.42876000  0.28005000  1.0
  H  H54  1  0.71075000  0.34060000  0.13070000  1.0
  H  H55  1  0.46382000  0.28476000  0.14848000  1.0
  H  H56  1  0.83596000  0.60424000  0.82071000  1.0
  H  H57  1  0.74032000  0.62286000  0.95923000  1.0
  H  H58  1  0.34680000  0.39401000  0.76840000  1.0
  H  H59  1  0.42350000  0.36962000  0.62175000  1.0
  H  H60  1  0.41242000  0.34780000  0.39198000  1.0
  H  H61  1  0.32184000  0.31756000  0.26823000  1.0
  H  H62  1  0.37844000  0.22934000  0.29188000  1.0
  C  C63  1  0.57381000  0.11985000  0.40426000  1.0
  C  C64  1  0.65174000  0.15252000  0.35427000  1.0
  C  C65  1  0.75791000  0.11175000  0.32366000  1.0
  C  C66  1  0.78659000  0.03894000  0.34339000  1.0
  C  C67  1  0.70468000  0.01055000  0.39528000  1.0
  C  C68  1  0.72200000  0.94065000  0.42725000  1.0
  C  C69  1  0.77864000  0.84228000  0.47019000  1.0
  C  C70  1  0.84661000  0.77450000  0.48404000  1.0
  C  C71  1  0.83091000  0.75038000  0.55685000  1.0
  C  C72  1  0.89360000  0.68349000  0.56683000  1.0
  C  C73  1  0.98537000  0.66261000  0.43967000  1.0
  C  C74  1  0.92857000  0.73010000  0.42554000  1.0
  C  C75  1  0.89939000  0.99358000  0.30887000  1.0
  C  C76  1  0.45365000  0.28438000  0.88042000  1.0
  C  C77  1  0.49889000  0.20181000  0.84768000  1.0
  C  C78  1  0.64596000  0.21201000  0.88842000  1.0
  C  C79  1  0.74762000  0.30449000  0.96118000  1.0
  C  C80  1  0.69412000  0.38472000  0.98953000  1.0
  C  C81  1  0.78147000  0.48653000  0.05931000  1.0
  C  C82  1  0.93650000  0.62780000  0.15765000  1.0
  C  C83  1  0.07227000  0.70947000  0.22542000  1.0
  C  C84  1  0.08046000  0.80637000  0.24968000  1.0
  C  C85  1  0.21022000  0.88324000  0.31644000  1.0
  C  C86  1  0.32334000  0.77706000  0.33708000  1.0
  C  C87  1  0.19894000  0.69546000  0.26968000  1.0
  C  C88  1  0.90594000  0.31538000  0.00650000  1.0
  C  C89  1  0.16969000  0.59608000  0.71557000  1.0
  C  C90  1  0.29769000  0.64605000  0.79815000  1.0
  C  C91  1  0.43450000  0.67670000  0.78791000  1.0
  C  C92  1  0.44342000  0.65696000  0.69538000  1.0
  C  C93  1  0.30957000  0.60496000  0.61518000  1.0
  C  C94  1  0.29492000  0.57282000  0.51332000  1.0
  C  C95  1  0.30850000  0.52953000  0.37201000  1.0
  C  C96  1  0.36256000  0.51556000  0.29034000  1.0
  C  C97  1  0.27377000  0.44292000  0.19350000  1.0
  C  C98  1  0.32652000  0.43297000  0.11664000  1.0
  C  C99  1  0.54595000  0.55985000  0.22279000  1.0
  C  C100  1  0.50326000  0.57391000  0.30437000  1.0
  C  C101  1  0.59076000  0.69158000  0.68444000  1.0
  C  C102  1  0.42617000  0.88014000  0.59573000  1.0
  C  C103  1  0.34823000  0.84746000  0.64571000  1.0
  C  C104  1  0.24208000  0.88824000  0.67633000  1.0
  C  C105  1  0.21343000  0.96106000  0.65662000  1.0
  C  C106  1  0.29533000  0.98945000  0.60473000  1.0
  C  C107  1  0.27800000  0.05935000  0.57276000  1.0
  C  C108  1  0.22137000  0.15771000  0.52981000  1.0
  C  C109  1  0.15339000  0.22548000  0.51596000  1.0
  C  C110  1  0.16909000  0.24961000  0.44316000  1.0
  C  C111  1  0.10639000  0.31649000  0.43317000  1.0
  C  C112  1  0.01462000  0.33737000  0.56033000  1.0
  C  C113  1  0.07143000  0.26988000  0.57445000  1.0
  C  C114  1  0.10060000  0.00642000  0.69113000  1.0
  C  C115  1  0.54634000  0.71562000  0.11958000  1.0
  C  C116  1  0.50111000  0.79820000  0.15233000  1.0
  C  C117  1  0.35404000  0.78800000  0.11159000  1.0
  C  C118  1  0.25237000  0.69552000  0.03883000  1.0
  C  C119  1  0.30588000  0.61529000  0.01048000  1.0
  C  C120  1  0.21853000  0.51348000  0.94070000  1.0
  C  C121  1  0.06349000  0.37221000  0.84235000  1.0
  C  C122  1  0.92772000  0.29054000  0.77457000  1.0
  C  C123  1  0.91954000  0.19364000  0.75031000  1.0
  C  C124  1  0.78980000  0.11677000  0.68355000  1.0
  C  C125  1  0.67666000  0.22295000  0.66292000  1.0
  C  C126  1  0.80106000  0.30456000  0.73032000  1.0
  C  C127  1  0.09405000  0.68463000  0.99351000  1.0
  C  C128  1  0.83032000  0.40392000  0.28443000  1.0
  C  C129  1  0.70233000  0.35397000  0.20186000  1.0
  C  C130  1  0.56552000  0.32331000  0.21210000  1.0
  C  C131  1  0.55658000  0.34304000  0.30462000  1.0
  C  C132  1  0.69045000  0.39504000  0.38483000  1.0
  C  C133  1  0.70509000  0.42717000  0.48668000  1.0
  C  C134  1  0.69152000  0.47046000  0.62800000  1.0
  C  C135  1  0.63744000  0.48442000  0.70965000  1.0
  C  C136  1  0.72623000  0.55707000  0.80649000  1.0
  C  C137  1  0.67348000  0.56704000  0.88336000  1.0
  C  C138  1  0.45406000  0.44016000  0.77722000  1.0
  C  C139  1  0.49675000  0.42609000  0.69563000  1.0
  C  C140  1  0.40925000  0.30843000  0.31557000  1.0
  N  N141  1  0.59872000  0.05017000  0.42464000  1.0
  N  N142  1  0.63841000  0.93102000  0.48343000  1.0
  N  N143  1  0.67501000  0.86893000  0.51198000  1.0
  N  N144  1  0.81037000  0.88474000  0.41621000  1.0
  N  N145  1  0.96808000  0.63833000  0.50850000  1.0
  N  N146  1  0.54838000  0.37443000  0.94999000  1.0
  N  N147  1  0.70739000  0.55225000  0.06897000  1.0
  N  N148  1  0.80609000  0.64287000  0.13104000  1.0
  N  N149  1  0.92586000  0.53144000  0.11517000  1.0
  N  N150  1  0.33017000  0.87013000  0.36143000  1.0
  N  N151  1  0.17418000  0.57563000  0.62551000  1.0
  N  N152  1  0.15501000  0.51678000  0.44766000  1.0
  N  N153  1  0.16299000  0.48802000  0.35704000  1.0
  N  N154  1  0.39440000  0.58354000  0.46835000  1.0
  N  N155  1  0.45956000  0.49121000  0.12973000  1.0
  N  N156  1  0.40127000  0.94982000  0.57536000  1.0
  N  N157  1  0.36158000  0.06898000  0.51657000  1.0
  N  N158  1  0.32497000  0.13106000  0.48800000  1.0
  N  N159  1  0.18964000  0.11526000  0.58380000  1.0
  N  N160  1  0.03191000  0.36167000  0.49150000  1.0
  N  N161  1  0.45161000  0.62558000  0.05001000  1.0
  N  N162  1  0.29261000  0.44776000  0.93103000  1.0
  N  N163  1  0.19391000  0.35715000  0.86896000  1.0
  N  N164  1  0.07413000  0.46857000  0.88484000  1.0
  N  N165  1  0.66984000  0.12988000  0.63856000  1.0
  N  N166  1  0.82584000  0.42438000  0.37450000  1.0
  N  N167  1  0.84501000  0.48322000  0.55235000  1.0
  N  N168  1  0.83702000  0.51197000  0.64297000  1.0
  N  N169  1  0.60560000  0.41644000  0.53164000  1.0
  N  N170  1  0.54044000  0.50880000  0.87027000  1.0
