# generated using pymatgen
data_GdH10(C3O4)2
_symmetry_space_group_name_H-M   'P 1'
_cell_length_a   8.58796000
_cell_length_b   9.30228000
_cell_length_c   12.52270000
_cell_angle_alpha   89.99990000
_cell_angle_beta   90.00000000
_cell_angle_gamma   101.95700000
_symmetry_Int_Tables_number   1
_chemical_formula_structural   GdH10(C3O4)2
_chemical_formula_sum   'Gd4 H40 C24 O32'
_cell_volume   978.70305252
_cell_formula_units_Z   4
loop_
 _symmetry_equiv_pos_site_id
 _symmetry_equiv_pos_as_xyz
  1  'x, y, z'
loop_
 _atom_site_type_symbol
 _atom_site_label
 _atom_site_symmetry_multiplicity
 _atom_site_fract_x
 _atom_site_fract_y
 _atom_site_fract_z
 _atom_site_occupancy
  Gd  Gd0  1  0.59724000  0.22081000  0.90711000  1.0
  Gd  Gd1  1  0.90276000  0.77918000  0.40711000  1.0
  Gd  Gd2  1  0.40276000  0.77918000  0.09289000  1.0
  Gd  Gd3  1  0.09724000  0.22081000  0.59289000  1.0
  H  H4  1  0.02475000  0.10062000  0.16741000  1.0
  H  H5  1  0.47525000  0.89938000  0.66741000  1.0
  H  H6  1  0.97525000  0.89938000  0.83259000  1.0
  H  H7  1  0.52475000  0.10062000  0.33259000  1.0
  H  H8  1  0.03818000  0.29111000  0.18647000  1.0
  H  H9  1  0.46182000  0.70889000  0.68647000  1.0
  H  H10  1  0.96182000  0.70889000  0.81353000  1.0
  H  H11  1  0.53818000  0.29111000  0.31353000  1.0
  H  H12  1  0.14513000  0.34188000  0.00086000  1.0
  H  H13  1  0.35487000  0.65812000  0.50086000  1.0
  H  H14  1  0.85487000  0.65811000  0.99914000  1.0
  H  H15  1  0.64513000  0.34188000  0.49914000  1.0
  H  H16  1  0.12684000  0.15287000  0.97743000  1.0
  H  H17  1  0.37316000  0.84713000  0.47743000  1.0
  H  H18  1  0.87316000  0.84713000  0.02257000  1.0
  H  H19  1  0.62684000  0.15287000  0.52257000  1.0
  H  H20  1  0.33174000  0.33961000  0.15716000  1.0
  H  H21  1  0.16826000  0.66039000  0.65716000  1.0
  H  H22  1  0.66826000  0.66039000  0.84284000  1.0
  H  H23  1  0.83174000  0.33961000  0.34284000  1.0
  H  H24  1  0.26779000  0.22171000  0.26714000  1.0
  H  H25  1  0.23221000  0.77829000  0.76715000  1.0
  H  H26  1  0.73221000  0.77828000  0.73286000  1.0
  H  H27  1  0.76779000  0.22171000  0.23285000  1.0
  H  H28  1  0.30316000  0.99156000  0.88870000  1.0
  H  H29  1  0.19684000  0.00844000  0.38870000  1.0
  H  H30  1  0.69683000  0.00844000  0.11130000  1.0
  H  H31  1  0.80316000  0.99157000  0.61130000  1.0
  H  H32  1  0.74112000  0.34829000  0.69276000  1.0
  H  H33  1  0.75888000  0.65171000  0.19276000  1.0
  H  H34  1  0.25888000  0.65171000  0.30724000  1.0
  H  H35  1  0.24112000  0.34829000  0.80724000  1.0
  H  H36  1  0.30434000  0.05531000  0.77144000  1.0
  H  H37  1  0.19565000  0.94468000  0.27144000  1.0
  H  H38  1  0.69565000  0.94468000  0.22856000  1.0
  H  H39  1  0.80435000  0.05531000  0.72856000  1.0
  H  H40  1  0.55032000  0.32328000  0.68589000  1.0
  H  H41  1  0.94968000  0.67672000  0.18589000  1.0
  H  H42  1  0.44968000  0.67672000  0.31411000  1.0
  H  H43  1  0.05032000  0.32328000  0.81411000  1.0
  C  C44  1  0.34557000  0.11433000  0.13195000  1.0
  C  C45  1  0.15443000  0.88567000  0.63195000  1.0
  C  C46  1  0.65443000  0.88567000  0.86805000  1.0
  C  C47  1  0.84557000  0.11433000  0.36805000  1.0
  C  C48  1  0.09090000  0.20993000  0.14345000  1.0
  C  C49  1  0.40910000  0.79007000  0.64345000  1.0
  C  C50  1  0.90910000  0.79007000  0.85655000  1.0
  C  C51  1  0.59090000  0.20993000  0.35655000  1.0
  C  C52  1  0.90985000  0.22557000  0.98312000  1.0
  C  C53  1  0.59015000  0.77444000  0.48312000  1.0
  C  C54  1  0.09015000  0.77444000  0.01688000  1.0
  C  C55  1  0.40985000  0.22557000  0.51689000  1.0
  C  C56  1  0.07620000  0.23331000  0.02375000  1.0
  C  C57  1  0.42380000  0.76669000  0.52374000  1.0
  C  C58  1  0.92379000  0.76669000  0.97626000  1.0
  C  C59  1  0.57620000  0.23331000  0.47626000  1.0
  C  C60  1  0.26527000  0.22992000  0.17967000  1.0
  C  C61  1  0.23473000  0.77007000  0.67967000  1.0
  C  C62  1  0.73473000  0.77007000  0.82033000  1.0
  C  C63  1  0.76527000  0.22993000  0.32033000  1.0
  C  C64  1  0.57480000  0.51144000  0.03663000  1.0
  C  C65  1  0.92521000  0.48856000  0.53662000  1.0
  C  C66  1  0.42521000  0.48856000  0.96338000  1.0
  C  C67  1  0.07479000  0.51144000  0.46337000  1.0
  O  O68  1  0.58541000  0.61069000  0.10771000  1.0
  O  O69  1  0.91460000  0.38932000  0.60770000  1.0
  O  O70  1  0.41460000  0.38931000  0.89230000  1.0
  O  O71  1  0.08541000  0.61069000  0.39229000  1.0
  O  O72  1  0.44337000  0.14617000  0.05575000  1.0
  O  O73  1  0.05662000  0.85383000  0.55575000  1.0
  O  O74  1  0.55663000  0.85384000  0.94425000  1.0
  O  O75  1  0.94337000  0.14617000  0.44425000  1.0
  O  O76  1  0.30794000  0.98316000  0.16900000  1.0
  O  O77  1  0.19206000  0.01684000  0.66900000  1.0
  O  O78  1  0.69206000  0.01684000  0.83100000  1.0
  O  O79  1  0.80794000  0.98316000  0.33100000  1.0
  O  O80  1  0.89036000  0.28816000  0.89408000  1.0
  O  O81  1  0.60964000  0.71184000  0.39408000  1.0
  O  O82  1  0.10964000  0.71184000  0.10592000  1.0
  O  O83  1  0.39036000  0.28817000  0.60592000  1.0
  O  O84  1  0.78771000  0.15813000  0.03457000  1.0
  O  O85  1  0.71228000  0.84187000  0.53457000  1.0
  O  O86  1  0.21229000  0.84187000  0.96543000  1.0
  O  O87  1  0.28771000  0.15813000  0.46543000  1.0
  O  O88  1  0.64202000  0.32466000  0.73595000  1.0
  O  O89  1  0.85799000  0.67534000  0.23595000  1.0
  O  O90  1  0.35799000  0.67534000  0.26405000  1.0
  O  O91  1  0.14201000  0.32466000  0.76405000  1.0
  O  O92  1  0.35974000  0.07200000  0.84252000  1.0
  O  O93  1  0.14026000  0.92800000  0.34252000  1.0
  O  O94  1  0.64026000  0.92800000  0.15748000  1.0
  O  O95  1  0.85974000  0.07200000  0.65748000  1.0
  O  O96  1  0.67461000  0.43211000  0.01930000  1.0
  O  O97  1  0.82539000  0.56789000  0.51930000  1.0
  O  O98  1  0.32539000  0.56789000  0.98071000  1.0
  O  O99  1  0.17461000  0.43211000  0.48070000  1.0
