# generated using pymatgen
data_Al6H77C96S3N15O37
_symmetry_space_group_name_H-M   'P 1'
_cell_length_a   13.38550000
_cell_length_b   13.44080000
_cell_length_c   27.34430000
_cell_angle_alpha   88.30240000
_cell_angle_beta   87.48700000
_cell_angle_gamma   61.40810000
_symmetry_Int_Tables_number   1
_chemical_formula_structural   Al6H77C96S3N15O37
_chemical_formula_sum   'Al6 H77 C96 S3 N15 O37'
_cell_volume   4315.26187887
_cell_formula_units_Z   1
loop_
 _symmetry_equiv_pos_site_id
 _symmetry_equiv_pos_as_xyz
  1  'x, y, z'
loop_
 _atom_site_type_symbol
 _atom_site_label
 _atom_site_symmetry_multiplicity
 _atom_site_fract_x
 _atom_site_fract_y
 _atom_site_fract_z
 _atom_site_occupancy
  Al  Al0  1  0.14754000  0.41136000  0.50136000  1.0
  Al  Al1  1  0.38946000  0.18431000  0.50408000  1.0
  Al  Al2  1  0.39009000  0.40706000  0.49758000  1.0
  Al  Al3  1  0.16213000  0.92188000  0.01343000  1.0
  Al  Al4  1  0.92970000  0.15385000  0.01674000  1.0
  Al  Al5  1  0.91918000  0.93744000  0.01297000  1.0
  H  H6  1  0.51941000  0.31778000  0.82399000  1.0
  H  H7  1  0.83080000  0.03606000  0.77248000  1.0
  H  H8  1  0.21022000  0.80684000  0.78300000  1.0
  H  H9  1  0.98732000  0.29322000  0.81062000  1.0
  H  H10  1  0.79571000  0.25473000  0.14488000  1.0
  H  H11  1  0.93143000  0.79032000  0.14586000  1.0
  H  H12  1  0.23554000  0.94990000  0.14899000  1.0
  H  H13  1  0.64298000  0.32214000  0.38531000  1.0
  H  H14  1  0.03404000  0.61275000  0.38139000  1.0
  H  H15  1  0.33517000  0.01503000  0.38312000  1.0
  H  H16  1  0.78884000  0.34156000  0.22416000  1.0
  H  H17  1  0.13068000  0.53475000  0.81129000  1.0
  H  H18  1  0.85987000  0.76407000  0.22782000  1.0
  H  H19  1  0.33625000  0.86612000  0.22573000  1.0
  H  H20  1  0.73426000  0.36553000  0.31244000  1.0
  H  H21  1  0.89696000  0.70012000  0.31425000  1.0
  H  H22  1  0.37266000  0.88958000  0.31160000  1.0
  H  H23  1  0.56814000  0.97921000  0.20778000  1.0
  H  H24  1  0.42229000  0.61446000  0.19082000  1.0
  H  H25  1  0.97495000  0.43587000  0.20985000  1.0
  H  H26  1  0.51631000  0.00268000  0.29432000  1.0
  H  H27  1  0.45673000  0.55163000  0.27540000  1.0
  H  H28  1  0.35113000  0.09779000  0.80721000  1.0
  H  H29  1  0.01107000  0.45669000  0.29409000  1.0
  H  H30  1  0.42587000  0.30913000  0.75507000  1.0
  H  H31  1  0.21628000  0.45244000  0.73615000  1.0
  H  H32  1  0.35872000  0.13630000  0.72350000  1.0
  H  H33  1  0.51662000  0.08319000  0.37546000  1.0
  H  H34  1  0.38564000  0.52673000  0.35785000  1.0
  H  H35  1  0.09598000  0.37034000  0.37388000  1.0
  H  H36  1  0.80730000  0.19812000  0.75570000  1.0
  H  H37  1  0.02733000  0.83737000  0.76504000  1.0
  H  H38  1  0.06863000  0.10194000  0.80108000  1.0
  H  H39  1  0.49142000  0.15891000  0.75715000  1.0
  H  H40  1  0.76326000  0.08742000  0.69762000  1.0
  H  H41  1  0.20229000  0.77423000  0.70404000  1.0
  H  H42  1  0.99817000  0.26289000  0.73212000  1.0
  H  H43  1  0.71218000  0.97356000  0.09501000  1.0
  H  H44  1  0.64590000  0.94223000  0.14514000  1.0
  H  H45  1  0.28847000  0.74526000  0.08201000  1.0
  H  H46  1  0.37841000  0.68607000  0.13091000  1.0
  H  H47  1  0.96701000  0.31277000  0.09882000  1.0
  H  H48  1  0.95366000  0.40529000  0.14537000  1.0
  H  H49  1  0.88826000  0.26189000  0.68582000  1.0
  H  H50  1  0.33273000  0.47727000  0.74315000  1.0
  H  H51  1  0.95689000  0.64421000  0.68935000  1.0
  H  H52  1  0.09930000  0.90344000  0.66235000  1.0
  H  H53  1  0.49415000  0.45795000  0.71375000  1.0
  H  H54  1  0.57664000  0.46511000  0.75394000  1.0
  H  H55  1  0.04873000  0.53503000  0.72390000  1.0
  H  H56  1  0.94775000  0.65839000  0.75409000  1.0
  H  H57  1  0.31643000  0.97248000  0.69219000  1.0
  H  H58  1  0.30568000  0.90667000  0.74354000  1.0
  H  H59  1  0.76251000  0.38475000  0.77732000  1.0
  H  H60  1  0.66759000  0.39003000  0.82008000  1.0
  H  H61  1  0.26559000  0.28263000  0.73123000  1.0
  H  H62  1  0.95189000  0.73623000  0.83225000  1.0
  H  H63  1  0.86714000  0.82990000  0.79182000  1.0
  H  H64  1  0.19265000  0.97068000  0.85346000  1.0
  H  H65  1  0.30776000  0.95562000  0.82279000  1.0
  H  H66  1  0.72176000  0.94056000  0.70035000  1.0
  H  H67  1  0.61050000  0.04455000  0.67572000  1.0
  H  H68  1  0.41479000  0.66666667  0.71990000  1.0
  H  H69  1  0.37325000  0.64661000  0.66633000  1.0
  H  H70  1  0.95259000  0.42812000  0.70247000  1.0
  H  H71  1  0.07969000  0.37216000  0.67859000  1.0
  H  H72  1  0.53542000  0.18120000  0.83667000  1.0
  H  H73  1  0.70707000  0.98878000  0.83608000  1.0
  H  H74  1  0.65189000  0.97614000  0.78401000  1.0
  H  H75  1  0.34543000  0.68205000  0.83626000  1.0
  H  H76  1  0.39127000  0.57333000  0.79848000  1.0
  H  H77  1  0.00200000  0.46584000  0.79729000  1.0
  H  H78  1  0.06028000  0.40038000  0.84821000  1.0
  H  H79  1  0.26588000  0.51353000  0.82509000  1.0
  H  H80  1  0.29205000  0.24582000  0.81516000  1.0
  H  H81  1  0.95823000  0.52801000  0.52878000  1.0
  H  H82  1  0.35894000  0.86370000  0.00121000  1.0
  C  C83  1  0.22847000  0.53257000  0.56652000  1.0
  C  C84  1  0.73051000  0.16123000  0.85348000  1.0
  C  C85  1  0.12713000  0.72490000  0.85201000  1.0
  C  C86  1  0.15684000  0.18233000  0.86766000  1.0
  C  C87  1  0.54755000  0.23611000  0.66979000  1.0
  C  C88  1  0.21515000  0.58314000  0.66013000  1.0
  C  C89  1  0.19182000  0.18562000  0.66734000  1.0
  C  C90  1  0.52167000  0.24075000  0.62730000  1.0
  C  C91  1  0.22293000  0.56350000  0.61672000  1.0
  C  C92  1  0.20635000  0.18945000  0.62337000  1.0
  C  C93  1  0.09258000  0.09864000  0.08979000  1.0
  C  C94  1  0.22350000  0.21508000  0.57336000  1.0
  C  C95  1  0.78442000  0.11601000  0.08273000  1.0
  C  C96  1  0.07265000  0.79862000  0.07855000  1.0
  C  C97  1  0.10365000  0.13790000  0.95557000  1.0
  C  C98  1  0.80200000  0.11273000  0.94433000  1.0
  C  C99  1  0.08540000  0.81694000  0.94009000  1.0
  C  C100  1  0.62898000  0.26389000  0.36328000  1.0
  C  C101  1  0.10149000  0.60980000  0.35658000  1.0
  C  C102  1  0.27623000  0.08704000  0.36133000  1.0
  C  C103  1  0.66132000  0.25111000  0.31344000  1.0
  C  C104  1  0.07817000  0.64789000  0.30809000  1.0
  C  C105  1  0.49460000  0.24959000  0.57640000  1.0
  C  C106  1  0.25910000  0.07181000  0.31252000  1.0
  C  C107  1  0.72387000  0.22417000  0.21175000  1.0
  C  C108  1  0.03522000  0.72123000  0.20878000  1.0
  C  C109  1  0.21841000  0.04471000  0.21384000  1.0
  C  C110  1  0.23459000  0.52087000  0.42508000  1.0
  C  C111  1  0.23503000  0.21384000  0.43395000  1.0
  C  C112  1  0.53484000  0.22430000  0.43710000  1.0
  C  C113  1  0.74585000  0.29741000  0.24145000  1.0
  C  C114  1  0.94569000  0.72834000  0.24172000  1.0
  C  C115  1  0.29551000  0.94980000  0.24246000  1.0
  C  C116  1  0.73873000  0.06618000  0.77560000  1.0
  C  C117  1  0.71581000  0.31069000  0.29010000  1.0
  C  C118  1  0.96582000  0.69336000  0.28932000  1.0
  C  C119  1  0.31537000  0.96256000  0.28978000  1.0
  C  C120  1  0.75432000  0.20917000  0.16208000  1.0
  C  C121  1  0.01660000  0.75624000  0.16010000  1.0
  C  C122  1  0.19415000  0.03300000  0.16607000  1.0
  C  C123  1  0.73819000  0.13306000  0.13331000  1.0
  C  C124  1  0.10321000  0.75274000  0.12805000  1.0
  C  C125  1  0.11472000  0.12484000  0.13872000  1.0
  C  C126  1  0.55803000  0.12839000  0.35790000  1.0
  C  C127  1  0.24325000  0.71532000  0.77794000  1.0
  C  C128  1  0.30047000  0.56102000  0.34364000  1.0
  C  C129  1  0.14094000  0.28827000  0.35601000  1.0
  C  C130  1  0.58605000  0.11584000  0.30747000  1.0
  C  C131  1  0.28111000  0.59646000  0.29449000  1.0
  C  C132  1  0.12465000  0.27746000  0.30661000  1.0
  C  C133  1  0.63921000  0.17656000  0.28477000  1.0
  C  C134  1  0.16918000  0.64071000  0.27615000  1.0
  C  C135  1  0.18236000  0.16824000  0.28454000  1.0
  C  C136  1  0.56150000  0.04511000  0.27766000  1.0
  C  C137  1  0.37068000  0.58845000  0.26178000  1.0
  C  C138  1  0.06444000  0.29506000  0.79545000  1.0
  C  C139  1  0.05125000  0.37289000  0.27763000  1.0
  C  C140  1  0.59175000  0.03204000  0.22888000  1.0
  C  C141  1  0.34990000  0.62453000  0.21416000  1.0
  C  C142  1  0.03190000  0.35991000  0.23018000  1.0
  C  C143  1  0.64912000  0.08807000  0.20550000  1.0
  C  C144  1  0.23854000  0.67118000  0.19488000  1.0
  C  C145  1  0.08413000  0.25096000  0.20764000  1.0
  C  C146  1  0.50643000  0.23180000  0.75998000  1.0
  C  C147  1  0.23973000  0.51657000  0.74668000  1.0
  C  C148  1  0.27865000  0.19773000  0.74122000  1.0
  C  C149  1  0.69328000  0.09404000  0.72207000  1.0
  C  C150  1  0.67023000  0.16289000  0.23385000  1.0
  C  C151  1  0.14827000  0.67741000  0.22638000  1.0
  C  C152  1  0.16193000  0.15525000  0.23508000  1.0
  C  C153  1  0.68674000  0.06963000  0.15505000  1.0
  C  C154  1  0.21645000  0.71201000  0.14513000  1.0
  C  C155  1  0.05799000  0.23570000  0.15916000  1.0
  C  C156  1  0.57872000  0.20232000  0.38547000  1.0
  C  C157  1  0.21160000  0.56700000  0.37421000  1.0
  C  C158  1  0.21630000  0.19400000  0.38286000  1.0
  C  C159  1  0.63769000  0.30583000  0.72914000  1.0
  C  C160  1  0.25162000  0.69222000  0.72199000  1.0
  C  C161  1  0.06364000  0.69148000  0.72062000  1.0
  C  C162  1  0.18729000  0.07230000  0.73951000  1.0
  C  C163  1  0.72318000  0.25629000  0.77183000  1.0
  C  C164  1  0.04113000  0.75068000  0.77169000  1.0
  C  C165  1  0.15825000  0.08121000  0.79546000  1.0
  C  C166  1  0.75754000  0.14198000  0.89613000  1.0
  C  C167  1  0.10768000  0.76097000  0.89359000  1.0
  C  C168  1  0.13952000  0.17208000  0.91103000  1.0
  C  C169  1  0.59398000  0.21918000  0.71845000  1.0
  C  C170  1  0.19325000  0.61875000  0.71070000  1.0
  C  C171  1  0.06392000  0.28634000  0.73877000  1.0
  C  C172  1  0.17894000  0.18602000  0.72010000  1.0
  C  C173  1  0.55563000  0.23158000  0.80965000  1.0
  C  C174  1  0.19697000  0.55672000  0.79928000  1.0
  C  C175  1  0.28059000  0.18060000  0.79692000  1.0
  C  C176  1  0.68721000  0.18014000  0.80440000  1.0
  C  C177  1  0.15129000  0.68602000  0.80185000  1.0
  C  C178  1  0.16754000  0.18629000  0.81510000  1.0
  S  S179  1  0.71315000  0.32505000  0.67062000  1.0
  S  S180  1  0.98471000  0.80146000  0.67126000  1.0
  S  S181  1  0.06846000  0.05123000  0.70872000  1.0
  N  N182  1  0.67191000  0.99421000  0.12842000  1.0
  N  N183  1  0.65146000  0.01643000  0.70799000  1.0
  N  N184  1  0.36920000  0.63521000  0.70327000  1.0
  N  N185  1  0.03605000  0.39302000  0.71181000  1.0
  N  N186  1  0.72012000  0.97701000  0.79915000  1.0
  N  N187  1  0.35386000  0.65965000  0.80036000  1.0
  N  N188  1  0.06977000  0.39556000  0.81086000  1.0
  N  N189  1  0.30175000  0.71110000  0.11652000  1.0
  N  N190  1  0.97762000  0.32591000  0.13416000  1.0
  N  N191  1  0.54564000  0.41412000  0.74217000  1.0
  N  N192  1  0.00220000  0.62349000  0.72152000  1.0
  N  N193  1  0.29688000  0.98087000  0.72881000  1.0
  N  N194  1  0.73866000  0.33754000  0.79995000  1.0
  N  N195  1  0.94026000  0.75205000  0.79558000  1.0
  N  N196  1  0.22542000  0.97273000  0.81930000  1.0
  O  O197  1  0.15368000  0.31243000  0.55841000  1.0
  O  O198  1  0.15934000  0.30240000  0.45449000  1.0
  O  O199  1  0.51180000  0.15198000  0.45926000  1.0
  O  O200  1  0.33138000  0.49856000  0.44250000  1.0
  O  O201  1  0.15969000  0.50305000  0.44718000  1.0
  O  O202  1  0.32987000  0.14190000  0.45296000  1.0
  O  O203  1  0.51539000  0.31853000  0.45582000  1.0
  O  O204  1  0.31101000  0.33322000  0.50130000  1.0
  O  O205  1  0.14734000  0.80492000  0.04996000  1.0
  O  O206  1  0.01071000  0.17833000  0.06498000  1.0
  O  O207  1  0.79667000  0.02993000  0.05798000  1.0
  O  O208  1  0.48212000  0.16932000  0.55841000  1.0
  O  O209  1  0.15316000  0.99896000  0.07384000  1.0
  O  O210  1  0.81636000  0.18650000  0.06470000  1.0
  O  O211  1  0.96852000  0.83518000  0.06492000  1.0
  O  O212  1  0.00223000  0.00605000  0.01326000  1.0
  O  O213  1  0.17159000  0.04269000  0.97383000  1.0
  O  O214  1  0.82325000  0.18283000  0.96632000  1.0
  O  O215  1  0.99975000  0.82412000  0.96636000  1.0
  O  O216  1  0.76305000  0.22491000  0.64071000  1.0
  O  O217  1  0.63629000  0.43458000  0.65061000  1.0
  O  O218  1  0.81709000  0.33751000  0.69232000  1.0
  O  O219  1  0.31150000  0.52859000  0.53926000  1.0
  O  O220  1  0.89674000  0.89506000  0.69904000  1.0
  O  O221  1  0.06742000  0.83034000  0.64500000  1.0
  O  O222  1  0.94538000  0.74227000  0.63980000  1.0
  O  O223  1  0.00590000  0.02366000  0.74685000  1.0
  O  O224  1  0.99931000  0.14719000  0.67659000  1.0
  O  O225  1  0.14293000  0.94880000  0.67598000  1.0
  O  O226  1  0.15076000  0.85645000  0.95042000  1.0
  O  O227  1  0.00097000  0.20513000  0.97088000  1.0
  O  O228  1  0.82061000  0.01525000  0.96134000  1.0
  O  O229  1  0.15384000  0.50778000  0.55362000  1.0
  O  O230  1  0.31132000  0.13953000  0.54965000  1.0
  O  O231  1  0.48209000  0.33852000  0.55332000  1.0
  O  O232  1  0.99860000  0.48111000  0.50097000  1.0
  O  O233  1  0.31119000  0.83405000  0.01553000  1.0
