# generated using pymatgen
data_Zn4C24S4Br4N4O21
_symmetry_space_group_name_H-M   'P 1'
_cell_length_a   19.45220000
_cell_length_b   19.48700000
_cell_length_c   33.02190000
_cell_angle_alpha   79.44950000
_cell_angle_beta   79.54540000
_cell_angle_gamma   64.11920000
_symmetry_Int_Tables_number   1
_chemical_formula_structural   Zn4C24S4Br4N4O21
_chemical_formula_sum   'Zn16 C96 S16 Br16 N16 O84'
_cell_volume   10998.41472159
_cell_formula_units_Z   4
loop_
 _symmetry_equiv_pos_site_id
 _symmetry_equiv_pos_as_xyz
  1  'x, y, z'
loop_
 _atom_site_type_symbol
 _atom_site_label
 _atom_site_symmetry_multiplicity
 _atom_site_fract_x
 _atom_site_fract_y
 _atom_site_fract_z
 _atom_site_occupancy
  Zn  Zn0  1  0.59735000  0.94122000  0.52490000  1.0
  Zn  Zn1  1  0.51150000  0.01835000  0.43989000  1.0
  Zn  Zn2  1  0.44198000  0.93668000  0.51726000  1.0
  Zn  Zn3  1  0.45052000  0.10108000  0.51995000  1.0
  Zn  Zn4  1  0.64821000  0.30297000  0.73116000  1.0
  Zn  Zn5  1  0.81686000  0.30381000  0.73534000  1.0
  Zn  Zn6  1  0.73034000  0.23565000  0.81113000  1.0
  Zn  Zn7  1  0.80499000  0.15321000  0.72558000  1.0
  Zn  Zn8  1  0.23114000  0.73809000  0.31131000  1.0
  Zn  Zn9  1  0.30617000  0.65186000  0.22710000  1.0
  Zn  Zn10  1  0.14867000  0.80217000  0.23094000  1.0
  Zn  Zn11  1  0.31716000  0.80386000  0.23516000  1.0
  Zn  Zn12  1  0.94232000  0.43611000  0.01692000  1.0
  Zn  Zn13  1  0.94889000  0.60040000  0.02115000  1.0
  Zn  Zn14  1  0.09684000  0.44175000  0.02479000  1.0
  Zn  Zn15  1  0.00844000  0.52129000  0.93990000  1.0
  C  C16  1  0.67776000  0.93684000  0.44123000  1.0
  C  C17  1  0.43008000  0.93162000  0.43374000  1.0
  C  C18  1  0.56008000  0.81422000  0.56328000  1.0
  C  C19  1  0.32245000  0.06199000  0.55974000  1.0
  C  C20  1  0.57143000  0.06568000  0.56829000  1.0
  C  C21  1  0.44147000  0.18398000  0.43791000  1.0
  C  C22  1  0.69197000  0.42748000  0.69232000  1.0
  C  C23  1  0.81729000  0.31602000  0.81974000  1.0
  C  C24  1  0.56410000  0.31005000  0.81292000  1.0
  C  C25  1  0.80837000  0.07094000  0.80897000  1.0
  C  C26  1  0.68003000  0.18469000  0.68187000  1.0
  C  C27  1  0.93596000  0.18628000  0.68912000  1.0
  C  C28  1  0.31028000  0.57202000  0.31044000  1.0
  C  C29  1  0.18246000  0.68207000  0.18206000  1.0
  C  C30  1  0.06520000  0.80948000  0.31295000  1.0
  C  C31  1  0.19166000  0.92731000  0.19228000  1.0
  C  C32  1  0.31833000  0.81837000  0.31892000  1.0
  C  C33  1  0.43627000  0.68596000  0.18921000  1.0
  C  C34  1  0.82265000  0.55978000  0.06017000  1.0
  C  C35  1  0.07068000  0.56729000  0.06767000  1.0
  C  C36  1  0.06046000  0.31422000  0.06320000  1.0
  C  C37  1  0.17573000  0.43979000  0.94041000  1.0
  C  C38  1  0.93017000  0.43105000  0.93323000  1.0
  C  C39  1  0.93601000  0.68558000  0.93905000  1.0
  C  C40  1  0.59892000  0.09554000  0.59819000  1.0
  C  C41  1  0.65157000  0.15359000  0.65313000  1.0
  C  C42  1  0.55081000  0.16616000  0.61374000  1.0
  C  C43  1  0.69719000  0.07997000  0.64031000  1.0
  C  C44  1  0.57912000  0.19735000  0.63846000  1.0
  C  C45  1  0.67325000  0.05398000  0.61073000  1.0
  C  C46  1  0.40183000  0.90189000  0.40422000  1.0
  C  C47  1  0.34706000  0.84751000  0.34851000  1.0
  C  C48  1  0.35922000  0.85752000  0.41932000  1.0
  C  C49  1  0.38519000  0.89589000  0.33349000  1.0
  C  C50  1  0.33660000  0.82637000  0.39162000  1.0
  C  C51  1  0.41701000  0.91845000  0.36084000  1.0
  C  C52  1  0.54718000  0.68851000  0.59997000  1.0
  C  C53  1  0.70908000  0.54826000  0.65099000  1.0
  C  C54  1  0.58514000  0.73632000  0.58658000  1.0
  C  C55  1  0.67046000  0.50121000  0.66488000  1.0
  C  C56  1  0.66306000  0.61818000  0.62879000  1.0
  C  C57  1  0.59101000  0.62144000  0.62492000  1.0
  C  C58  1  0.42127000  0.27728000  0.36878000  1.0
  C  C59  1  0.32209000  0.47912000  0.37950000  1.0
  C  C60  1  0.41351000  0.25886000  0.41165000  1.0
  C  C61  1  0.33088000  0.49710000  0.33664000  1.0
  C  C62  1  0.35793000  0.39900000  0.39155000  1.0
  C  C63  1  0.39096000  0.35757000  0.35718000  1.0
  C  C64  1  0.77015000  0.92678000  0.37213000  1.0
  C  C65  1  0.97262000  0.82829000  0.38225000  1.0
  C  C66  1  0.75263000  0.91702000  0.41499000  1.0
  C  C67  1  0.99045000  0.83688000  0.33936000  1.0
  C  C68  1  0.89231000  0.85796000  0.39409000  1.0
  C  C69  1  0.85028000  0.89141000  0.35990000  1.0
  C  C70  1  0.20073000  0.15932000  0.60044000  1.0
  C  C71  1  0.05381000  0.09321000  0.64433000  1.0
  C  C72  1  0.24473000  0.09082000  0.58329000  1.0
  C  C73  1  0.00994000  0.16128000  0.66194000  1.0
  C  C74  1  0.12487000  0.09110000  0.62351000  1.0
  C  C75  1  0.13252000  0.15918000  0.62434000  1.0
  C  C76  1  0.84568000  0.34616000  0.84904000  1.0
  C  C77  1  0.90154000  0.40085000  0.90408000  1.0
  C  C78  1  0.83237000  0.32866000  0.89237000  1.0
  C  C79  1  0.91956000  0.41356000  0.86075000  1.0
  C  C80  1  0.85545000  0.36032000  0.91959000  1.0
  C  C81  1  0.88707000  0.39150000  0.83354000  1.0
  C  C82  1  0.47095000  0.32952000  0.88211000  1.0
  C  C83  1  0.26874000  0.42919000  0.87140000  1.0
  C  C84  1  0.48923000  0.33811000  0.83925000  1.0
  C  C85  1  0.25073000  0.41957000  0.91422000  1.0
  C  C86  1  0.34895000  0.39349000  0.85941000  1.0
  C  C87  1  0.39054000  0.35980000  0.89375000  1.0
  C  C88  1  0.87771000  0.92096000  0.82073000  1.0
  C  C89  1  0.87522000  0.83576000  0.92703000  1.0
  C  C90  1  0.83856000  0.99413000  0.83325000  1.0
  C  C91  1  0.91351000  0.76235000  0.91472000  1.0
  C  C92  1  0.85919000  0.89339000  0.89270000  1.0
  C  C93  1  0.88831000  0.86272000  0.85474000  1.0
  C  C94  1  0.15382000  0.65265000  0.15246000  1.0
  C  C95  1  0.09946000  0.59701000  0.09701000  1.0
  C  C96  1  0.08095000  0.69702000  0.13827000  1.0
  C  C97  1  0.17456000  0.55558000  0.10844000  1.0
  C  C98  1  0.05166000  0.66680000  0.11347000  1.0
  C  C99  1  0.19928000  0.57999000  0.13837000  1.0
  C  C100  1  0.55343000  0.59257000  0.14418000  1.0
  C  C101  1  0.70088000  0.65776000  0.10007000  1.0
  C  C102  1  0.50980000  0.66088000  0.16163000  1.0
  C  C103  1  0.74469000  0.58895000  0.08325000  1.0
  C  C104  1  0.63241000  0.65816000  0.12383000  1.0
  C  C105  1  0.62451000  0.59013000  0.12323000  1.0
  C  C106  1  0.20890000  0.04820000  0.15108000  1.0
  C  C107  1  0.04731000  0.18870000  0.09990000  1.0
  C  C108  1  0.17016000  0.00122000  0.16493000  1.0
  C  C109  1  0.08547000  0.23634000  0.08651000  1.0
  C  C110  1  0.09091000  0.12163000  0.12493000  1.0
  C  C111  1  0.16300000  0.11817000  0.12886000  1.0
  S  S112  1  0.67511000  0.69823000  0.60384000  1.0
  S  S113  1  0.57850000  0.54174000  0.64994000  1.0
  S  S114  1  0.36753000  0.33999000  0.43760000  1.0
  S  S115  1  0.38144000  0.41610000  0.31101000  1.0
  S  S116  1  0.83424000  0.86629000  0.44037000  1.0
  S  S117  1  0.90869000  0.88284000  0.31370000  1.0
  S  S118  1  0.20194000  0.02685000  0.59567000  1.0
  S  S119  1  0.05512000  0.22327000  0.65216000  1.0
  S  S120  1  0.40786000  0.38465000  0.81337000  1.0
  S  S121  1  0.33198000  0.36835000  0.93985000  1.0
  S  S122  1  0.81621000  0.99186000  0.88663000  1.0
  S  S123  1  0.93137000  0.76416000  0.86114000  1.0
  S  S124  1  0.55517000  0.72264000  0.15151000  1.0
  S  S125  1  0.70149000  0.52537000  0.09564000  1.0
  S  S126  1  0.07824000  0.04195000  0.14994000  1.0
  S  S127  1  0.17537000  0.19806000  0.10391000  1.0
  Br  Br128  1  0.44590000  0.21815000  0.60420000  1.0
  Br  Br129  1  0.78871000  0.01243000  0.66386000  1.0
  Br  Br130  1  0.52009000  0.30102000  0.64876000  1.0
  Br  Br131  1  0.74494000  0.96509000  0.58617000  1.0
  Br  Br132  1  0.32694000  0.84188000  0.47661000  1.0
  Br  Br133  1  0.38994000  0.93594000  0.27667000  1.0
  Br  Br134  1  0.29600000  0.75284000  0.41314000  1.0
  Br  Br135  1  0.48389000  0.96656000  0.33786000  1.0
  Br  Br136  1  0.78743000  0.25916000  0.91531000  1.0
  Br  Br137  1  0.99202000  0.45522000  0.83801000  1.0
  Br  Br138  1  0.81973000  0.35076000  0.97676000  1.0
  Br  Br139  1  0.89533000  0.42872000  0.77643000  1.0
  Br  Br140  1  0.02232000  0.80041000  0.14914000  1.0
  Br  Br141  1  0.24593000  0.46911000  0.08175000  1.0
  Br  Br142  1  0.94654000  0.71917000  0.10472000  1.0
  Br  Br143  1  0.29178000  0.51101000  0.16058000  1.0
  N  N144  1  0.47376000  0.69790000  0.58944000  1.0
  N  N145  1  0.78837000  0.53139000  0.65512000  1.0
  N  N146  1  0.45064000  0.22582000  0.33662000  1.0
  N  N147  1  0.27850000  0.53157000  0.41049000  1.0
  N  N148  1  0.71757000  0.97111000  0.34115000  1.0
  N  N149  1  0.02472000  0.79876000  0.41421000  1.0
  N  N150  1  0.21583000  0.22763000  0.59452000  1.0
  N  N151  1  0.03300000  0.03033000  0.64285000  1.0
  N  N152  1  0.52291000  0.29870000  0.91410000  1.0
  N  N153  1  0.21652000  0.47304000  0.84019000  1.0
  N  N154  1  0.91020000  0.90094000  0.77892000  1.0
  N  N155  1  0.85601000  0.85806000  0.96889000  1.0
  N  N156  1  0.53258000  0.52963000  0.14318000  1.0
  N  N157  1  0.71636000  0.72590000  0.09386000  1.0
  N  N158  1  0.28821000  0.03139000  0.15514000  1.0
  N  N159  1  0.97387000  0.19821000  0.08930000  1.0
  O  O160  1  0.50058000  0.99941000  0.50072000  1.0
  O  O161  1  0.68095000  0.93565000  0.47980000  1.0
  O  O162  1  0.42999000  0.99802000  0.42341000  1.0
  O  O163  1  0.48863000  0.85413000  0.56161000  1.0
  O  O164  1  0.61945000  0.95031000  0.42377000  1.0
  O  O165  1  0.61463000  0.83458000  0.54783000  1.0
  O  O166  1  0.45217000  0.88887000  0.46725000  1.0
  O  O167  1  0.33865000  0.00360000  0.54115000  1.0
  O  O168  1  0.53317000  0.11453000  0.54032000  1.0
  O  O169  1  0.36535000  0.09508000  0.56113000  1.0
  O  O170  1  0.58842000  0.99400000  0.57294000  1.0
  O  O171  1  0.49322000  0.12609000  0.42162000  1.0
  O  O172  1  0.41100000  0.18591000  0.47574000  1.0
  O  O173  1  0.74979000  0.24974000  0.75054000  1.0
  O  O174  1  0.64980000  0.39217000  0.69213000  1.0
  O  O175  1  0.86145000  0.29332000  0.78677000  1.0
  O  O176  1  0.62132000  0.25593000  0.82874000  1.0
  O  O177  1  0.74685000  0.40806000  0.71379000  1.0
  O  O178  1  0.56280000  0.34271000  0.77552000  1.0
  O  O179  1  0.75140000  0.31480000  0.82991000  1.0
  O  O180  1  0.79149000  0.12685000  0.82971000  1.0
  O  O181  1  0.75153000  0.16955000  0.67676000  1.0
  O  O182  1  0.79974000  0.07454000  0.77135000  1.0
  O  O183  1  0.63099000  0.22396000  0.70937000  1.0
  O  O184  1  0.90342000  0.25817000  0.69300000  1.0
  O  O185  1  0.91251000  0.13557000  0.70679000  1.0
  O  O186  1  0.25015000  0.74960000  0.25044000  1.0
  O  O187  1  0.29854000  0.62999000  0.32755000  1.0
  O  O188  1  0.25434000  0.66483000  0.17806000  1.0
  O  O189  1  0.06331000  0.84120000  0.27533000  1.0
  O  O190  1  0.30916000  0.56923000  0.27209000  1.0
  O  O191  1  0.12302000  0.75675000  0.32900000  1.0
  O  O192  1  0.13303000  0.72208000  0.20919000  1.0
  O  O193  1  0.14972000  0.89184000  0.19193000  1.0
  O  O194  1  0.36238000  0.79564000  0.28593000  1.0
  O  O195  1  0.24639000  0.90797000  0.21381000  1.0
  O  O196  1  0.25201000  0.81811000  0.32894000  1.0
  O  O197  1  0.41377000  0.63507000  0.20776000  1.0
  O  O198  1  0.40331000  0.75804000  0.19254000  1.0
  O  O199  1  0.00016000  0.49962000  0.00044000  1.0
  O  O200  1  0.83869000  0.50251000  0.04069000  1.0
  O  O201  1  0.03101000  0.61615000  0.04017000  1.0
  O  O202  1  0.11481000  0.33501000  0.04797000  1.0
  O  O203  1  0.86611000  0.59154000  0.06287000  1.0
  O  O204  1  0.98902000  0.35382000  0.06126000  1.0
  O  O205  1  0.08784000  0.49553000  0.07243000  1.0
  O  O206  1  0.17952000  0.43654000  0.97911000  1.0
  O  O207  1  0.92975000  0.49745000  0.92247000  1.0
  O  O208  1  0.11703000  0.45558000  0.92275000  1.0
  O  O209  1  0.95252000  0.38855000  0.96674000  1.0
  O  O210  1  0.90475000  0.68128000  0.97610000  1.0
  O  O211  1  0.98446000  0.62966000  0.91930000  1.0
  O  O212  1  0.44126000  0.66235000  0.61481000  1.0
  O  O213  1  0.45039000  0.73612000  0.55667000  1.0
  O  O214  1  0.80117000  0.58884000  0.65492000  1.0
  O  O215  1  0.83694000  0.46420000  0.65681000  1.0
  O  O216  1  0.47543000  0.25219000  0.30276000  1.0
  O  O217  1  0.44604000  0.16355000  0.34379000  1.0
  O  O218  1  0.29974000  0.50855000  0.44582000  1.0
  O  O219  1  0.22342000  0.59201000  0.40076000  1.0
  O  O220  1  0.74045000  0.95036000  0.30575000  1.0
  O  O221  1  0.65745000  0.02638000  0.35091000  1.0
  O  O222  1  0.99875000  0.77372000  0.44813000  1.0
  O  O223  1  0.08703000  0.80346000  0.40684000  1.0
  O  O224  1  0.18693000  0.26888000  0.62327000  1.0
  O  O225  1  0.25244000  0.24175000  0.56196000  1.0
  O  O226  1  0.08868000  0.96706000  0.63853000  1.0
  O  O227  1  0.96472000  0.04357000  0.64388000  1.0
  O  O228  1  0.49619000  0.27450000  0.94805000  1.0
  O  O229  1  0.58635000  0.30107000  0.90672000  1.0
  O  O230  1  0.23910000  0.45092000  0.80509000  1.0
  O  O231  1  0.15687000  0.52918000  0.84947000  1.0
  O  O232  1  0.91773000  0.83672000  0.77264000  1.0
  O  O233  1  0.93034000  0.94566000  0.75364000  1.0
  O  O234  1  0.80115000  0.92205000  0.97274000  1.0
  O  O235  1  0.89568000  0.81603000  0.99634000  1.0
  O  O236  1  0.58821000  0.46648000  0.13831000  1.0
  O  O237  1  0.46417000  0.54239000  0.14527000  1.0
  O  O238  1  0.68696000  0.76785000  0.12229000  1.0
  O  O239  1  0.75371000  0.73911000  0.06140000  1.0
  O  O240  1  0.30116000  0.08897000  0.15429000  1.0
  O  O241  1  0.33668000  0.96416000  0.15738000  1.0
  O  O242  1  0.94086000  0.16339000  0.11483000  1.0
  O  O243  1  0.95102000  0.23577000  0.05629000  1.0
