# generated using pymatgen
data_TbH7C13(NO3)2
_symmetry_space_group_name_H-M   'P 1'
_cell_length_a   6.75267000
_cell_length_b   12.91050000
_cell_length_c   14.58600000
_cell_angle_alpha   90.00000000
_cell_angle_beta   92.44580000
_cell_angle_gamma   90.00000000
_symmetry_Int_Tables_number   1
_chemical_formula_structural   TbH7C13(NO3)2
_chemical_formula_sum   'Tb4 H28 C52 N8 O24'
_cell_volume   1270.45413548
_cell_formula_units_Z   4
loop_
 _symmetry_equiv_pos_site_id
 _symmetry_equiv_pos_as_xyz
  1  'x, y, z'
loop_
 _atom_site_type_symbol
 _atom_site_label
 _atom_site_symmetry_multiplicity
 _atom_site_fract_x
 _atom_site_fract_y
 _atom_site_fract_z
 _atom_site_occupancy
  Tb  Tb0  1  0.38615000  0.62755000  0.44658000  1.0
  Tb  Tb1  1  0.11384000  0.12755000  0.55342000  1.0
  Tb  Tb2  1  0.61384000  0.37245000  0.55342000  1.0
  Tb  Tb3  1  0.88616000  0.87245000  0.44658000  1.0
  H  H4  1  0.80275000  0.49579000  0.75842000  1.0
  H  H5  1  0.69724000  0.99578000  0.24158000  1.0
  H  H6  1  0.19725000  0.50422000  0.24158000  1.0
  H  H7  1  0.30275000  0.00422000  0.75842000  1.0
  H  H8  1  0.72304000  0.52142000  0.92551000  1.0
  H  H9  1  0.77697000  0.02142000  0.07449000  1.0
  H  H10  1  0.27697000  0.47858000  0.07449000  1.0
  H  H11  1  0.22304000  0.97858000  0.92552000  1.0
  H  H12  1  0.09462000  0.21243000  0.83977000  1.0
  H  H13  1  0.40538000  0.71243000  0.16023000  1.0
  H  H14  1  0.90538000  0.78757000  0.16023000  1.0
  H  H15  1  0.59462000  0.28757000  0.83977000  1.0
  H  H16  1  0.94809000  0.24739000  0.10963000  1.0
  H  H17  1  0.55192000  0.74739000  0.89038000  1.0
  H  H18  1  0.05191000  0.75261000  0.89038000  1.0
  H  H19  1  0.44809000  0.25261000  0.10962000  1.0
  H  H20  1  0.85651000  0.27718000  0.27474000  1.0
  H  H21  1  0.64349000  0.77718000  0.72526000  1.0
  H  H22  1  0.14349000  0.72282000  0.72526000  1.0
  H  H23  1  0.35651000  0.22282000  0.27474000  1.0
  H  H24  1  0.58708000  0.56383000  0.18542000  1.0
  H  H25  1  0.91292000  0.06383000  0.81458000  1.0
  H  H26  1  0.41292000  0.43617000  0.81458000  1.0
  H  H27  1  0.08708000  0.93617000  0.18542000  1.0
  H  H28  1  0.94469000  0.63034000  0.55811000  1.0
  H  H29  1  0.55531000  0.13035000  0.44190000  1.0
  H  H30  1  0.05531000  0.36965000  0.44190000  1.0
  H  H31  1  0.44469000  0.86966000  0.55811000  1.0
  C  C32  1  0.98761000  0.32582000  0.68956000  1.0
  C  C33  1  0.51238000  0.82581000  0.31044000  1.0
  C  C34  1  0.01239000  0.67418000  0.31044000  1.0
  C  C35  1  0.48761000  0.17418000  0.68956000  1.0
  C  C36  1  0.95432000  0.35149000  0.78711000  1.0
  C  C37  1  0.54568000  0.85149000  0.21289000  1.0
  C  C38  1  0.04568000  0.64851000  0.21289000  1.0
  C  C39  1  0.45432000  0.14851000  0.78711000  1.0
  C  C40  1  0.85013000  0.44043000  0.81125000  1.0
  C  C41  1  0.64987000  0.94043000  0.18875000  1.0
  C  C42  1  0.14987000  0.55957000  0.18875000  1.0
  C  C43  1  0.35013000  0.05957000  0.81125000  1.0
  C  C44  1  0.80571000  0.45475000  0.90228000  1.0
  C  C45  1  0.69429000  0.95475000  0.09771000  1.0
  C  C46  1  0.19429000  0.54525000  0.09772000  1.0
  C  C47  1  0.30571000  0.04525000  0.90229000  1.0
  C  C48  1  0.86599000  0.37902000  0.96691000  1.0
  C  C49  1  0.63401000  0.87901000  0.03309000  1.0
  C  C50  1  0.13401000  0.62099000  0.03309000  1.0
  C  C51  1  0.36599000  0.12098000  0.96691000  1.0
  C  C52  1  0.01274000  0.28195000  0.85714000  1.0
  C  C53  1  0.48726000  0.78196000  0.14286000  1.0
  C  C54  1  0.98726000  0.71804000  0.14285000  1.0
  C  C55  1  0.51274000  0.21804000  0.85714000  1.0
  C  C56  1  0.81346000  0.39072000  0.06375000  1.0
  C  C57  1  0.68655000  0.89072000  0.93625000  1.0
  C  C58  1  0.18655000  0.60928000  0.93625000  1.0
  C  C59  1  0.31345000  0.10928000  0.06375000  1.0
  C  C60  1  0.86768000  0.31597000  0.13035000  1.0
  C  C61  1  0.63232000  0.81597000  0.86965000  1.0
  C  C62  1  0.13232000  0.68403000  0.86965000  1.0
  C  C63  1  0.36768000  0.18403000  0.13035000  1.0
  C  C64  1  0.81727000  0.33270000  0.22054000  1.0
  C  C65  1  0.68273000  0.83270000  0.77946000  1.0
  C  C66  1  0.18273000  0.66730000  0.77946000  1.0
  C  C67  1  0.31727000  0.16730000  0.22054000  1.0
  C  C68  1  0.65549000  0.44946000  0.33600000  1.0
  C  C69  1  0.84450000  0.94946000  0.66401000  1.0
  C  C70  1  0.34451000  0.55054000  0.66401000  1.0
  C  C71  1  0.15549000  0.05054000  0.33599000  1.0
  C  C72  1  0.71472000  0.42336000  0.24172000  1.0
  C  C73  1  0.78528000  0.92336000  0.75828000  1.0
  C  C74  1  0.28529000  0.57664000  0.75828000  1.0
  C  C75  1  0.21471000  0.07664000  0.24172000  1.0
  C  C76  1  0.66650000  0.49279000  0.17013000  1.0
  C  C77  1  0.83350000  0.99279000  0.82987000  1.0
  C  C78  1  0.33350000  0.50721000  0.82987000  1.0
  C  C79  1  0.16650000  0.00721000  0.17013000  1.0
  C  C80  1  0.79077000  0.63037000  0.52937000  1.0
  C  C81  1  0.70924000  0.13038000  0.47063000  1.0
  C  C82  1  0.20924000  0.36962000  0.47063000  1.0
  C  C83  1  0.29076000  0.86963000  0.52937000  1.0
  N  N84  1  0.97058000  0.29437000  0.94488000  1.0
  N  N85  1  0.52942000  0.79437000  0.05511000  1.0
  N  N86  1  0.02942000  0.70563000  0.05511000  1.0
  N  N87  1  0.47058000  0.20563000  0.94489000  1.0
  N  N88  1  0.71279000  0.47753000  0.08358000  1.0
  N  N89  1  0.78722000  0.97753000  0.91642000  1.0
  N  N90  1  0.28722000  0.52247000  0.91642000  1.0
  N  N91  1  0.21278000  0.02247000  0.08358000  1.0
  O  O92  1  0.08086000  0.24360000  0.67219000  1.0
  O  O93  1  0.41914000  0.74360000  0.32781000  1.0
  O  O94  1  0.91914000  0.75640000  0.32781000  1.0
  O  O95  1  0.58086000  0.25640000  0.67219000  1.0
  O  O96  1  0.56969000  0.53633000  0.34593000  1.0
  O  O97  1  0.93031000  0.03633000  0.65407000  1.0
  O  O98  1  0.43031000  0.46367000  0.65407000  1.0
  O  O99  1  0.06968000  0.96367000  0.34593000  1.0
  O  O100  1  0.91347000  0.38664000  0.62719000  1.0
  O  O101  1  0.58653000  0.88664000  0.37281000  1.0
  O  O102  1  0.08654000  0.61336000  0.37281000  1.0
  O  O103  1  0.41347000  0.11336000  0.62719000  1.0
  O  O104  1  0.68713000  0.54891000  0.53382000  1.0
  O  O105  1  0.81286000  0.04892000  0.46618000  1.0
  O  O106  1  0.31286000  0.45109000  0.46618000  1.0
  O  O107  1  0.18713000  0.95109000  0.53382000  1.0
  O  O108  1  0.69235000  0.38365000  0.40004000  1.0
  O  O109  1  0.80764000  0.88365000  0.59996000  1.0
  O  O110  1  0.30764000  0.61634000  0.59996000  1.0
  O  O111  1  0.19235000  0.11635000  0.40004000  1.0
  O  O112  1  0.71685000  0.71203000  0.49258000  1.0
  O  O113  1  0.78316000  0.21204000  0.50742000  1.0
  O  O114  1  0.28316000  0.28796000  0.50742000  1.0
  O  O115  1  0.21685000  0.78797000  0.49258000  1.0
