# generated using pymatgen
data_NiH18C18N4O5
_symmetry_space_group_name_H-M   'P 1'
_cell_length_a   8.79588000
_cell_length_b   9.73340000
_cell_length_c   11.52660000
_cell_angle_alpha   73.25730000
_cell_angle_beta   80.08550000
_cell_angle_gamma   66.71570000
_symmetry_Int_Tables_number   1
_chemical_formula_structural   NiH18C18N4O5
_chemical_formula_sum   'Ni2 H36 C36 N8 O10'
_cell_volume   866.12739199
_cell_formula_units_Z   2
loop_
 _symmetry_equiv_pos_site_id
 _symmetry_equiv_pos_as_xyz
  1  'x, y, z'
loop_
 _atom_site_type_symbol
 _atom_site_label
 _atom_site_symmetry_multiplicity
 _atom_site_fract_x
 _atom_site_fract_y
 _atom_site_fract_z
 _atom_site_occupancy
  Ni  Ni0  1  0.79270000  0.18955000  0.37239000  1.0
  Ni  Ni1  1  0.20730000  0.81046000  0.62762000  1.0
  H  H2  1  0.28994000  0.77947000  0.88914000  1.0
  H  H3  1  0.71006000  0.22053000  0.11086000  1.0
  H  H4  1  0.30461000  0.59982000  0.40719000  1.0
  H  H5  1  0.69539000  0.40018000  0.59282000  1.0
  H  H6  1  0.02035000  0.95415000  0.12043000  1.0
  H  H7  1  0.97965000  0.04585000  0.87957000  1.0
  H  H8  1  0.45113000  0.58213000  0.03253000  1.0
  H  H9  1  0.54887000  0.41786000  0.96748000  1.0
  H  H10  1  0.91683000  0.45323000  0.35783000  1.0
  H  H11  1  0.08318000  0.54677000  0.64218000  1.0
  H  H12  1  0.15822000  0.50688000  0.17836000  1.0
  H  H13  1  0.84179000  0.49311000  0.82164000  1.0
  H  H14  1  0.02308000  0.15706000  0.12690000  1.0
  H  H15  1  0.97691000  0.84295000  0.87309000  1.0
  H  H16  1  0.37153000  0.26250000  0.05447000  1.0
  H  H17  1  0.62847000  0.73749000  0.94553000  1.0
  H  H18  1  0.23368000  0.42941000  0.96199000  1.0
  H  H19  1  0.76633000  0.57059000  0.03801000  1.0
  H  H20  1  0.10930000  0.26919000  0.90535000  1.0
  H  H21  1  0.89069000  0.73082000  0.09465000  1.0
  H  H22  1  0.24546000  0.09966000  0.99573000  1.0
  H  H23  1  0.75453000  0.90034000  0.00426000  1.0
  H  H24  1  0.37431000  0.31662000  0.79165000  1.0
  H  H25  1  0.62569000  0.68339000  0.20834000  1.0
  H  H26  1  0.48891000  0.12742000  0.86909000  1.0
  H  H27  1  0.51108000  0.87259000  0.13090000  1.0
  H  H28  1  0.29608000  0.03992000  0.78126000  1.0
  H  H29  1  0.70391000  0.96009000  0.21873000  1.0
  H  H30  1  0.22350000  0.22884000  0.68864000  1.0
  H  H31  1  0.77649000  0.77116000  0.31135000  1.0
  H  H32  1  0.46696000  0.31484000  0.53580000  1.0
  H  H33  1  0.53304000  0.68517000  0.46420000  1.0
  H  H34  1  0.55693000  0.84929000  0.72240000  1.0
  H  H35  1  0.44306000  0.15071000  0.27760000  1.0
  H  H36  1  0.80735000  0.86340000  0.53848000  1.0
  H  H37  1  0.19264000  0.13660000  0.46152000  1.0
  C  C38  1  0.53257000  0.42136000  0.25665000  1.0
  C  C39  1  0.46743000  0.57864000  0.74336000  1.0
  C  C40  1  0.39269000  0.57348000  0.22391000  1.0
  C  C41  1  0.60731000  0.42651000  0.77610000  1.0
  C  C42  1  0.28700000  0.64779000  0.31060000  1.0
  C  C43  1  0.71300000  0.35221000  0.68940000  1.0
  C  C44  1  0.15322000  0.78591000  0.27255000  1.0
  C  C45  1  0.84678000  0.21409000  0.72746000  1.0
  C  C46  1  0.12751000  0.84994000  0.14903000  1.0
  C  C47  1  0.87249000  0.15006000  0.85096000  1.0
  C  C48  1  0.23703000  0.77783000  0.06206000  1.0
  C  C49  1  0.76297000  0.22216000  0.93795000  1.0
  C  C50  1  0.36772000  0.63858000  0.10014000  1.0
  C  C51  1  0.63228000  0.36141000  0.89986000  1.0
  C  C52  1  0.03930000  0.86470000  0.36717000  1.0
  C  C53  1  0.96070000  0.13530000  0.63284000  1.0
  C  C54  1  0.97209000  0.40308000  0.28103000  1.0
  C  C55  1  0.02791000  0.59692000  0.71897000  1.0
  C  C56  1  0.09146000  0.42984000  0.19363000  1.0
  C  C57  1  0.90855000  0.57015000  0.80638000  1.0
  C  C58  1  0.02599000  0.24505000  0.16488000  1.0
  C  C59  1  0.97402000  0.75495000  0.83512000  1.0
  C  C60  1  0.24824000  0.31291000  0.01797000  1.0
  C  C61  1  0.75176000  0.68709000  0.98203000  1.0
  C  C62  1  0.23343000  0.21603000  0.94066000  1.0
  C  C63  1  0.76656000  0.78397000  0.05933000  1.0
  C  C64  1  0.36610000  0.20321000  0.83518000  1.0
  C  C65  1  0.63389000  0.79680000  0.16481000  1.0
  C  C66  1  0.32937000  0.14157000  0.73950000  1.0
  C  C67  1  0.67063000  0.85844000  0.26050000  1.0
  C  C68  1  0.52576000  0.19045000  0.55965000  1.0
  C  C69  1  0.47424000  0.80955000  0.44035000  1.0
  C  C70  1  0.57907000  0.94623000  0.65759000  1.0
  C  C71  1  0.42092000  0.05377000  0.34241000  1.0
  C  C72  1  0.69737000  0.95366000  0.56399000  1.0
  C  C73  1  0.30263000  0.04634000  0.43601000  1.0
  N  N74  1  0.47162000  0.09605000  0.65338000  1.0
  N  N75  1  0.52837000  0.90396000  0.34662000  1.0
  N  N76  1  0.66245000  0.10680000  0.50297000  1.0
  N  N77  1  0.33754000  0.89320000  0.49703000  1.0
  N  N78  1  0.93292000  0.28735000  0.26203000  1.0
  N  N79  1  0.06708000  0.71265000  0.73797000  1.0
  N  N80  1  0.12336000  0.32961000  0.12041000  1.0
  N  N81  1  0.87664000  0.67039000  0.87959000  1.0
  O  O82  1  0.56529000  0.32945000  0.18946000  1.0
  O  O83  1  0.43471000  0.67053000  0.81054000  1.0
  O  O84  1  0.61053000  0.39460000  0.35066000  1.0
  O  O85  1  0.38948000  0.60540000  0.64934000  1.0
  O  O86  1  0.05293000  0.79332000  0.47652000  1.0
  O  O87  1  0.94707000  0.20668000  0.52348000  1.0
  O  O88  1  0.93581000  0.00173000  0.32351000  1.0
  O  O89  1  0.06419000  0.99827000  0.67649000  1.0
  O  O90  1  0.21146000  0.84655000  0.94258000  1.0
  O  O91  1  0.78854000  0.15345000  0.05742000  1.0
