# generated using pymatgen
data_ZnH18C16Br2(NO)4
_symmetry_space_group_name_H-M   'P 1'
_cell_length_a   7.92162000
_cell_length_b   7.92161000
_cell_length_c   15.99390000
_cell_angle_alpha   84.43880000
_cell_angle_beta   84.43900000
_cell_angle_gamma   80.97720000
_symmetry_Int_Tables_number   1
_chemical_formula_structural   ZnH18C16Br2(NO)4
_chemical_formula_sum   'Zn2 H36 C32 Br4 N8 O8'
_cell_volume   983.15019252
_cell_formula_units_Z   2
loop_
 _symmetry_equiv_pos_site_id
 _symmetry_equiv_pos_as_xyz
  1  'x, y, z'
loop_
 _atom_site_type_symbol
 _atom_site_label
 _atom_site_symmetry_multiplicity
 _atom_site_fract_x
 _atom_site_fract_y
 _atom_site_fract_z
 _atom_site_occupancy
  Zn  Zn0  1  0.56569000  0.43431000  0.75000000  1.0
  Zn  Zn1  1  0.43431000  0.56569000  0.25000000  1.0
  H  H2  1  0.52797000  0.86112000  0.39634000  1.0
  H  H3  1  0.13888000  0.47203000  0.10366000  1.0
  H  H4  1  0.47203000  0.13889000  0.60366000  1.0
  H  H5  1  0.86112000  0.52797000  0.89634000  1.0
  H  H6  1  0.68189000  0.66416000  0.60413000  1.0
  H  H7  1  0.33585000  0.31811000  0.89587000  1.0
  H  H8  1  0.31811000  0.33585000  0.39587000  1.0
  H  H9  1  0.66415000  0.68189000  0.10413000  1.0
  H  H10  1  0.26416000  0.77501000  0.44278000  1.0
  H  H11  1  0.22500000  0.73584000  0.05722000  1.0
  H  H12  1  0.73584000  0.22499000  0.55722000  1.0
  H  H13  1  0.77501000  0.26416000  0.94278000  1.0
  H  H14  1  0.08994000  0.61324000  0.55151000  1.0
  H  H15  1  0.38675000  0.91006000  0.94850000  1.0
  H  H16  1  0.91006000  0.38675000  0.44850000  1.0
  H  H17  1  0.61325000  0.08994000  0.05150000  1.0
  H  H18  1  0.22569000  0.47527000  0.68198000  1.0
  H  H19  1  0.52473000  0.77431000  0.81802000  1.0
  H  H20  1  0.77431000  0.52473000  0.31802000  1.0
  H  H21  1  0.47527000  0.22569000  0.18198000  1.0
  H  H22  1  0.04685000  0.82710000  0.36757000  1.0
  H  H23  1  0.17290000  0.95315000  0.13243000  1.0
  H  H24  1  0.95315000  0.17290000  0.63243000  1.0
  H  H25  1  0.82710000  0.04685000  0.86757000  1.0
  H  H26  1  0.01372000  0.01837000  0.42278000  1.0
  H  H27  1  0.98163000  0.98628000  0.07722000  1.0
  H  H28  1  0.98628000  0.98163000  0.57722000  1.0
  H  H29  1  0.01837000  0.01371000  0.92278000  1.0
  H  H30  1  0.14754000  0.05705000  0.27606000  1.0
  H  H31  1  0.94295000  0.85246000  0.22394000  1.0
  H  H32  1  0.85246000  0.94295000  0.72394000  1.0
  H  H33  1  0.05705000  0.14754000  0.77606000  1.0
  H  H34  1  0.95471000  0.19736000  0.29192000  1.0
  H  H35  1  0.80264000  0.04529000  0.20808000  1.0
  H  H36  1  0.04529000  0.80264000  0.70808000  1.0
  H  H37  1  0.19736000  0.95471000  0.79192000  1.0
  C  C38  1  0.55212000  0.65609000  0.58986000  1.0
  C  C39  1  0.34391000  0.44788000  0.91014000  1.0
  C  C40  1  0.44788000  0.34391000  0.41014000  1.0
  C  C41  1  0.65609000  0.55212000  0.08986000  1.0
  C  C42  1  0.48716000  0.73343000  0.51438000  1.0
  C  C43  1  0.26657000  0.51284000  0.98562000  1.0
  C  C44  1  0.51284000  0.26658000  0.48562000  1.0
  C  C45  1  0.73343000  0.48716000  0.01438000  1.0
  C  C46  1  0.31838000  0.71616000  0.50064000  1.0
  C  C47  1  0.28384000  0.68163000  0.99936000  1.0
  C  C48  1  0.68163000  0.28384000  0.49936000  1.0
  C  C49  1  0.71616000  0.31837000  0.00064000  1.0
  C  C50  1  0.22185000  0.62479000  0.56073000  1.0
  C  C51  1  0.37521000  0.77814000  0.93927000  1.0
  C  C52  1  0.77815000  0.37521000  0.43927000  1.0
  C  C53  1  0.62479000  0.22185000  0.06073000  1.0
  C  C54  1  0.29553000  0.54997000  0.63349000  1.0
  C  C55  1  0.45003000  0.70448000  0.86651000  1.0
  C  C56  1  0.70448000  0.45003000  0.36651000  1.0
  C  C57  1  0.54997000  0.29552000  0.13349000  1.0
  C  C58  1  0.74883000  0.84896000  0.45368000  1.0
  C  C59  1  0.15104000  0.25117000  0.04632000  1.0
  C  C60  1  0.25117000  0.15104000  0.54632000  1.0
  C  C61  1  0.84897000  0.74883000  0.95368000  1.0
  C  C62  1  0.97663000  0.95827000  0.36969000  1.0
  C  C63  1  0.04174000  0.02337000  0.13031000  1.0
  C  C64  1  0.02337000  0.04174000  0.63031000  1.0
  C  C65  1  0.95827000  0.97663000  0.86969000  1.0
  C  C66  1  0.00756000  0.06177000  0.28695000  1.0
  C  C67  1  0.93823000  0.99244000  0.21305000  1.0
  C  C68  1  0.99244000  0.93823000  0.71305000  1.0
  C  C69  1  0.06177000  0.00756000  0.78695000  1.0
  Br  Br70  1  0.85782000  0.47937000  0.74602000  1.0
  Br  Br71  1  0.52063000  0.14218000  0.75398000  1.0
  Br  Br72  1  0.14218000  0.52063000  0.25398000  1.0
  Br  Br73  1  0.47937000  0.85782000  0.24602000  1.0
  N  N74  1  0.45733000  0.56616000  0.64682000  1.0
  N  N75  1  0.43384000  0.54268000  0.85317000  1.0
  N  N76  1  0.54268000  0.43384000  0.35317000  1.0
  N  N77  1  0.56616000  0.45732000  0.14682000  1.0
  N  N78  1  0.58087000  0.82442000  0.45272000  1.0
  N  N79  1  0.17559000  0.41912000  0.04728000  1.0
  N  N80  1  0.41912000  0.17559000  0.54728000  1.0
  N  N81  1  0.82441000  0.58087000  0.95272000  1.0
  O  O82  1  0.84325000  0.79408000  0.51005000  1.0
  O  O83  1  0.20593000  0.15674000  0.98994000  1.0
  O  O84  1  0.15674000  0.20593000  0.48994000  1.0
  O  O85  1  0.79407000  0.84325000  0.01006000  1.0
  O  O86  1  0.79432000  0.94365000  0.38278000  1.0
  O  O87  1  0.05635000  0.20568000  0.11722000  1.0
  O  O88  1  0.20568000  0.05635000  0.61722000  1.0
  O  O89  1  0.94365000  0.79432000  0.88278000  1.0
