# generated using pymatgen
data_Zn5H16(C3O2)8
_symmetry_space_group_name_H-M   'P 1'
_cell_length_a   6.33163000
_cell_length_b   14.29940000
_cell_length_c   19.42500000
_cell_angle_alpha   89.99960000
_cell_angle_beta   92.40410000
_cell_angle_gamma   89.99960000
_symmetry_Int_Tables_number   1
_chemical_formula_structural   Zn5H16(C3O2)8
_chemical_formula_sum   'Zn10 H32 C48 O32'
_cell_volume   1757.16259454
_cell_formula_units_Z   2
loop_
 _symmetry_equiv_pos_site_id
 _symmetry_equiv_pos_as_xyz
  1  'x, y, z'
loop_
 _atom_site_type_symbol
 _atom_site_label
 _atom_site_symmetry_multiplicity
 _atom_site_fract_x
 _atom_site_fract_y
 _atom_site_fract_z
 _atom_site_occupancy
  Zn  Zn0  1  0.99012000  0.19608000  0.94179000  1.0
  Zn  Zn1  1  0.50177000  0.60440000  0.54170000  1.0
  Zn  Zn2  1  0.00986000  0.69609000  0.55822000  1.0
  Zn  Zn3  1  0.49822000  0.10439000  0.95830000  1.0
  Zn  Zn4  1  0.00986000  0.80392000  0.05821000  1.0
  Zn  Zn5  1  0.49823000  0.39561000  0.45830000  1.0
  Zn  Zn6  1  0.99013000  0.30392000  0.44179000  1.0
  Zn  Zn7  1  0.50177000  0.89561000  0.04169000  1.0
  Zn  Zn8  1  0.00000000  0.50001000  0.50000000  1.0
  Zn  Zn9  1  0.00000000  0.00000000  0.00000000  1.0
  H  H10  1  0.11805000  0.28257000  0.67155000  1.0
  H  H11  1  0.27344000  0.18670000  0.76911000  1.0
  H  H12  1  0.84963000  0.34487000  0.76424000  1.0
  H  H13  1  0.70045000  0.43629000  0.66397000  1.0
  H  H14  1  0.72109000  0.37174000  0.95509000  1.0
  H  H15  1  0.13508000  0.46625000  0.03572000  1.0
  H  H16  1  0.20935000  0.63847000  0.45528000  1.0
  H  H17  1  0.82931000  0.55730000  0.61189000  1.0
  H  H18  1  0.88196000  0.78256000  0.82845000  1.0
  H  H19  1  0.72655000  0.68669000  0.73088000  1.0
  H  H20  1  0.15039000  0.84487000  0.73576000  1.0
  H  H21  1  0.29958000  0.93630000  0.83603000  1.0
  H  H22  1  0.27890000  0.87175000  0.54491000  1.0
  H  H23  1  0.86492000  0.96625000  0.46429000  1.0
  H  H24  1  0.79064000  0.13847000  0.04473000  1.0
  H  H25  1  0.17068000  0.05730000  0.88812000  1.0
  H  H26  1  0.88194000  0.71743000  0.32844000  1.0
  H  H27  1  0.72654000  0.81329000  0.23088000  1.0
  H  H28  1  0.15037000  0.65512000  0.23575000  1.0
  H  H29  1  0.29956000  0.56370000  0.33602000  1.0
  H  H30  1  0.27892000  0.62825000  0.04489000  1.0
  H  H31  1  0.86491000  0.53375000  0.96426000  1.0
  H  H32  1  0.79065000  0.36154000  0.54472000  1.0
  H  H33  1  0.17069000  0.44270000  0.38811000  1.0
  H  H34  1  0.11806000  0.21744000  0.17156000  1.0
  H  H35  1  0.27348000  0.31330000  0.26912000  1.0
  H  H36  1  0.84961000  0.15511000  0.26425000  1.0
  H  H37  1  0.70041000  0.06369000  0.16398000  1.0
  H  H38  1  0.72109000  0.12826000  0.45511000  1.0
  H  H39  1  0.13508000  0.03375000  0.53574000  1.0
  H  H40  1  0.20934000  0.86154000  0.95527000  1.0
  H  H41  1  0.82930000  0.94270000  0.11188000  1.0
  C  C42  1  0.31518000  0.42248000  0.60263000  1.0
  C  C43  1  0.39981000  0.36552000  0.66198000  1.0
  C  C44  1  0.27860000  0.29540000  0.69178000  1.0
  C  C45  1  0.36495000  0.24211000  0.74601000  1.0
  C  C46  1  0.57091000  0.25994000  0.77219000  1.0
  C  C47  1  0.69121000  0.33074000  0.74278000  1.0
  C  C48  1  0.60703000  0.38201000  0.68753000  1.0
  C  C49  1  0.66117000  0.20664000  0.83292000  1.0
  C  C50  1  0.33274000  0.31210000  0.98785000  1.0
  C  C51  1  0.41911000  0.40913000  0.99496000  1.0
  C  C52  1  0.62516000  0.42800000  0.97498000  1.0
  C  C53  1  0.29443000  0.48163000  0.01996000  1.0
  C  C54  1  0.68483000  0.92249000  0.89737000  1.0
  C  C55  1  0.60019000  0.86552000  0.83802000  1.0
  C  C56  1  0.72142000  0.79540000  0.80822000  1.0
  C  C57  1  0.63505000  0.74210000  0.75400000  1.0
  C  C58  1  0.42910000  0.75994000  0.72782000  1.0
  C  C59  1  0.30878000  0.83074000  0.75723000  1.0
  C  C60  1  0.39298000  0.88200000  0.81248000  1.0
  C  C61  1  0.33882000  0.70664000  0.66708000  1.0
  C  C62  1  0.66726000  0.81210000  0.51216000  1.0
  C  C63  1  0.58089000  0.90913000  0.50504000  1.0
  C  C64  1  0.37483000  0.92800000  0.52501000  1.0
  C  C65  1  0.70557000  0.98163000  0.48005000  1.0
  C  C66  1  0.68483000  0.57751000  0.39737000  1.0
  C  C67  1  0.60018000  0.63448000  0.33801000  1.0
  C  C68  1  0.72140000  0.70459000  0.30821000  1.0
  C  C69  1  0.63503000  0.75789000  0.25399000  1.0
  C  C70  1  0.42908000  0.74005000  0.22781000  1.0
  C  C71  1  0.30877000  0.66925000  0.25722000  1.0
  C  C72  1  0.39296000  0.61799000  0.31247000  1.0
  C  C73  1  0.33882000  0.79335000  0.16707000  1.0
  C  C74  1  0.66726000  0.68790000  0.01214000  1.0
  C  C75  1  0.58090000  0.59087000  0.00501000  1.0
  C  C76  1  0.37485000  0.57200000  0.02500000  1.0
  C  C77  1  0.70557000  0.51837000  0.98002000  1.0
  C  C78  1  0.31518000  0.07751000  0.10263000  1.0
  C  C79  1  0.39982000  0.13448000  0.16199000  1.0
  C  C80  1  0.27860000  0.20461000  0.19178000  1.0
  C  C81  1  0.36496000  0.25789000  0.24601000  1.0
  C  C82  1  0.57091000  0.24005000  0.27218000  1.0
  C  C83  1  0.69123000  0.16925000  0.24278000  1.0
  C  C84  1  0.60703000  0.11799000  0.18753000  1.0
  C  C85  1  0.66118000  0.29336000  0.33292000  1.0
  C  C86  1  0.33275000  0.18790000  0.48785000  1.0
  C  C87  1  0.41909000  0.09088000  0.49498000  1.0
  C  C88  1  0.62515000  0.07200000  0.47500000  1.0
  C  C89  1  0.29443000  0.01837000  0.51998000  1.0
  O  O90  1  0.45331000  0.45683000  0.56269000  1.0
  O  O91  1  0.11757000  0.43393000  0.59357000  1.0
  O  O92  1  0.84361000  0.23452000  0.85632000  1.0
  O  O93  1  0.55480000  0.14000000  0.85690000  1.0
  O  O94  1  0.46211000  0.24475000  0.98848000  1.0
  O  O95  1  0.12977000  0.30540000  0.98087000  1.0
  O  O96  1  0.19816000  0.61793000  0.50280000  1.0
  O  O97  1  0.81621000  0.58564000  0.56635000  1.0
  O  O98  1  0.54671000  0.95683000  0.93732000  1.0
  O  O99  1  0.88244000  0.93394000  0.90643000  1.0
  O  O100  1  0.15636000  0.73452000  0.64369000  1.0
  O  O101  1  0.44520000  0.64001000  0.64310000  1.0
  O  O102  1  0.53789000  0.74475000  0.51152000  1.0
  O  O103  1  0.87023000  0.80541000  0.51914000  1.0
  O  O104  1  0.80185000  0.11793000  0.99720000  1.0
  O  O105  1  0.18380000  0.08564000  0.93366000  1.0
  O  O106  1  0.54670000  0.54317000  0.43732000  1.0
  O  O107  1  0.88244000  0.56608000  0.40643000  1.0
  O  O108  1  0.15638000  0.76548000  0.14367000  1.0
  O  O109  1  0.44521000  0.86000000  0.14310000  1.0
  O  O110  1  0.53791000  0.75525000  0.01152000  1.0
  O  O111  1  0.87023000  0.69459000  0.01913000  1.0
  O  O112  1  0.80185000  0.38208000  0.49720000  1.0
  O  O113  1  0.18381000  0.41437000  0.43365000  1.0
  O  O114  1  0.45330000  0.04317000  0.06268000  1.0
  O  O115  1  0.11754000  0.06608000  0.09357000  1.0
  O  O116  1  0.84364000  0.26548000  0.35632000  1.0
  O  O117  1  0.55480000  0.36000000  0.35690000  1.0
  O  O118  1  0.46211000  0.25525000  0.48848000  1.0
  O  O119  1  0.12978000  0.19460000  0.48087000  1.0
  O  O120  1  0.19815000  0.88207000  0.00280000  1.0
  O  O121  1  0.81619000  0.91436000  0.06634000  1.0
