# generated using pymatgen
data_CuH6C5(NO3)2
_symmetry_space_group_name_H-M   'P 1'
_cell_length_a   6.88583000
_cell_length_b   7.99965000
_cell_length_c   8.39052000
_cell_angle_alpha   106.13500000
_cell_angle_beta   91.89440000
_cell_angle_gamma   112.94200000
_symmetry_Int_Tables_number   1
_chemical_formula_structural   CuH6C5(NO3)2
_chemical_formula_sum   'Cu2 H12 C10 N4 O12'
_cell_volume   403.60521824
_cell_formula_units_Z   2
loop_
 _symmetry_equiv_pos_site_id
 _symmetry_equiv_pos_as_xyz
  1  'x, y, z'
loop_
 _atom_site_type_symbol
 _atom_site_label
 _atom_site_symmetry_multiplicity
 _atom_site_fract_x
 _atom_site_fract_y
 _atom_site_fract_z
 _atom_site_occupancy
  Cu  Cu0  1  0.20988000  0.23817000  0.56362000  1.0
  Cu  Cu1  1  0.79012000  0.76182000  0.43638000  1.0
  H  H2  1  0.54198000  0.24607000  0.11176000  1.0
  H  H3  1  0.45803000  0.75394000  0.88824000  1.0
  H  H4  1  0.96572000  0.24140000  0.90551000  1.0
  H  H5  1  0.03428000  0.75860000  0.09449000  1.0
  H  H6  1  0.16913000  0.80799000  0.39777000  1.0
  H  H7  1  0.83088000  0.19201000  0.60223000  1.0
  H  H8  1  0.15835000  0.60303000  0.66349000  1.0
  H  H9  1  0.84164000  0.39697000  0.33650000  1.0
  H  H10  1  0.33002000  0.61618000  0.54012000  1.0
  H  H11  1  0.66998000  0.38381000  0.45987000  1.0
  H  H12  1  0.12483000  0.83095000  0.59506000  1.0
  H  H13  1  0.87517000  0.16905000  0.40495000  1.0
  C  C14  1  0.12538000  0.22502000  0.21801000  1.0
  C  C15  1  0.87462000  0.77498000  0.78199000  1.0
  C  C16  1  0.21946000  0.23708000  0.06301000  1.0
  C  C17  1  0.78055000  0.76292000  0.93699000  1.0
  C  C18  1  0.41809000  0.24355000  0.02685000  1.0
  C  C19  1  0.58191000  0.75646000  0.97316000  1.0
  C  C20  1  0.42062000  0.25208000  0.86250000  1.0
  C  C21  1  0.57938000  0.74792000  0.13750000  1.0
  C  C22  1  0.57744000  0.26406000  0.74535000  1.0
  C  C23  1  0.42256000  0.73593000  0.25466000  1.0
  N  N24  1  0.11461000  0.24074000  0.92398000  1.0
  N  N25  1  0.88539000  0.75926000  0.07602000  1.0
  N  N26  1  0.23423000  0.24970000  0.80241000  1.0
  N  N27  1  0.76577000  0.75030000  0.19759000  1.0
  O  O28  1  0.94270000  0.22652000  0.22659000  1.0
  O  O29  1  0.05730000  0.77348000  0.77341000  1.0
  O  O30  1  0.24390000  0.20986000  0.32897000  1.0
  O  O31  1  0.75610000  0.79013000  0.67103000  1.0
  O  O32  1  0.75604000  0.26394000  0.78296000  1.0
  O  O33  1  0.24396000  0.73606000  0.21704000  1.0
  O  O34  1  0.51631000  0.27365000  0.60221000  1.0
  O  O35  1  0.48368000  0.72634000  0.39779000  1.0
  O  O36  1  0.10797000  0.86887000  0.49293000  1.0
  O  O37  1  0.89202000  0.13114000  0.50707000  1.0
  O  O38  1  0.24949000  0.54202000  0.61084000  1.0
  O  O39  1  0.75050000  0.45797000  0.38915000  1.0
