# generated using pymatgen
data_BiH10C8S2Cl3
_symmetry_space_group_name_H-M   'P 1'
_cell_length_a   7.19769000
_cell_length_b   8.90218000
_cell_length_c   20.82360000
_cell_angle_alpha   81.95800000
_cell_angle_beta   89.99990000
_cell_angle_gamma   89.99990000
_symmetry_Int_Tables_number   1
_chemical_formula_structural   BiH10C8S2Cl3
_chemical_formula_sum   'Bi4 H40 C32 S8 Cl12'
_cell_volume   1321.15336953
_cell_formula_units_Z   4
loop_
 _symmetry_equiv_pos_site_id
 _symmetry_equiv_pos_as_xyz
  1  'x, y, z'
loop_
 _atom_site_type_symbol
 _atom_site_label
 _atom_site_symmetry_multiplicity
 _atom_site_fract_x
 _atom_site_fract_y
 _atom_site_fract_z
 _atom_site_occupancy
  Bi  Bi0  1  0.24714000  0.47254000  0.55690000  1.0
  Bi  Bi1  1  0.74715000  0.52745000  0.94310000  1.0
  Bi  Bi2  1  0.75286000  0.52746000  0.44310000  1.0
  Bi  Bi3  1  0.25286000  0.47255000  0.05690000  1.0
  H  H4  1  0.65695000  0.48994000  0.74584000  1.0
  H  H5  1  0.15695000  0.51006000  0.75416000  1.0
  H  H6  1  0.34306000  0.51006000  0.25416000  1.0
  H  H7  1  0.84305000  0.48994000  0.24584000  1.0
  H  H8  1  0.53562000  0.62106000  0.68775000  1.0
  H  H9  1  0.03563000  0.37894000  0.81225000  1.0
  H  H10  1  0.46438000  0.37894000  0.31225000  1.0
  H  H11  1  0.96438000  0.62106000  0.18775000  1.0
  H  H12  1  0.71714000  0.50806000  0.66027000  1.0
  H  H13  1  0.21714000  0.49194000  0.83973000  1.0
  H  H14  1  0.28287000  0.49193000  0.33973000  1.0
  H  H15  1  0.78286000  0.50806000  0.16027000  1.0
  H  H16  1  0.79185000  0.25885000  0.73498000  1.0
  H  H17  1  0.29184000  0.74115000  0.76502000  1.0
  H  H18  1  0.20815000  0.74115000  0.26502000  1.0
  H  H19  1  0.70816000  0.25885000  0.23498000  1.0
  H  H20  1  0.96036000  0.02252000  0.72211000  1.0
  H  H21  1  0.46036000  0.97748000  0.77789000  1.0
  H  H22  1  0.03964000  0.97748000  0.27789000  1.0
  H  H23  1  0.53964000  0.02252000  0.22211000  1.0
  H  H24  1  0.82015000  0.83542000  0.65745000  1.0
  H  H25  1  0.32015000  0.16458000  0.84255000  1.0
  H  H26  1  0.17986000  0.16458000  0.34255000  1.0
  H  H27  1  0.67985000  0.83542000  0.15745000  1.0
  H  H28  1  0.50853000  0.88214000  0.60897000  1.0
  H  H29  1  0.00853000  0.11786000  0.89103000  1.0
  H  H30  1  0.49147000  0.11786000  0.39103000  1.0
  H  H31  1  0.99147000  0.88214000  0.10897000  1.0
  H  H32  1  0.35125000  0.04687000  0.51576000  1.0
  H  H33  1  0.85125000  0.95313000  0.98424000  1.0
  H  H34  1  0.64875000  0.95313000  0.48424000  1.0
  H  H35  1  0.14875000  0.04687000  0.01576000  1.0
  H  H36  1  0.10553000  0.07160000  0.52030000  1.0
  H  H37  1  0.60553000  0.92840000  0.97970000  1.0
  H  H38  1  0.89447000  0.92841000  0.47970000  1.0
  H  H39  1  0.39447000  0.07159000  0.02030000  1.0
  H  H40  1  0.21020000  0.90571000  0.56477000  1.0
  H  H41  1  0.71020000  0.09429000  0.93524000  1.0
  H  H42  1  0.78980000  0.09429000  0.43523000  1.0
  H  H43  1  0.28980000  0.90571000  0.06476000  1.0
  C  C44  1  0.60567000  0.51064000  0.69590000  1.0
  C  C45  1  0.10567000  0.48936000  0.80409000  1.0
  C  C46  1  0.39433000  0.48936000  0.30410000  1.0
  C  C47  1  0.89433000  0.51064000  0.19591000  1.0
  C  C48  1  0.55640000  0.20704000  0.67766000  1.0
  C  C49  1  0.05640000  0.79296000  0.82234000  1.0
  C  C50  1  0.44360000  0.79296000  0.32235000  1.0
  C  C51  1  0.94360000  0.20704000  0.17766000  1.0
  C  C52  1  0.73034000  0.17745000  0.70676000  1.0
  C  C53  1  0.23034000  0.82255000  0.79324000  1.0
  C  C54  1  0.26965000  0.82254000  0.29325000  1.0
  C  C55  1  0.76966000  0.17745000  0.20676000  1.0
  C  C56  1  0.82444000  0.04388000  0.69982000  1.0
  C  C57  1  0.32444000  0.95612000  0.80018000  1.0
  C  C58  1  0.17556000  0.95612000  0.30018000  1.0
  C  C59  1  0.67556000  0.04387000  0.19982000  1.0
  C  C60  1  0.74544000  0.93884000  0.66390000  1.0
  C  C61  1  0.24544000  0.06116000  0.83610000  1.0
  C  C62  1  0.25456000  0.06115000  0.33611000  1.0
  C  C63  1  0.75456000  0.93884000  0.16390000  1.0
  C  C64  1  0.57028000  0.96561000  0.63609000  1.0
  C  C65  1  0.07028000  0.03439000  0.86391000  1.0
  C  C66  1  0.42972000  0.03438000  0.36391000  1.0
  C  C67  1  0.92973000  0.96561000  0.13609000  1.0
  C  C68  1  0.47374000  0.09889000  0.64302000  1.0
  C  C69  1  0.97373000  0.90112000  0.85698000  1.0
  C  C70  1  0.52626000  0.90111000  0.35698000  1.0
  C  C71  1  0.02626000  0.09888000  0.14302000  1.0
  C  C72  1  0.22906000  0.02660000  0.54708000  1.0
  C  C73  1  0.72907000  0.97341000  0.95292000  1.0
  C  C74  1  0.77094000  0.97341000  0.45292000  1.0
  C  C75  1  0.27093000  0.02659000  0.04708000  1.0
  S  S76  1  0.42907000  0.37319000  0.68513000  1.0
  S  S77  1  0.92907000  0.62682000  0.81487000  1.0
  S  S78  1  0.57093000  0.62681000  0.31487000  1.0
  S  S79  1  0.07093000  0.37318000  0.18513000  1.0
  S  S80  1  0.24565000  0.13355000  0.61426000  1.0
  S  S81  1  0.74565000  0.86645000  0.88575000  1.0
  S  S82  1  0.75435000  0.86645000  0.38574000  1.0
  S  S83  1  0.25435000  0.13355000  0.11425000  1.0
  Cl  Cl84  1  0.10731000  0.64786000  0.63431000  1.0
  Cl  Cl85  1  0.60731000  0.35214000  0.86570000  1.0
  Cl  Cl86  1  0.89269000  0.35213000  0.36569000  1.0
  Cl  Cl87  1  0.39269000  0.64786000  0.13430000  1.0
  Cl  Cl88  1  0.10760000  0.65973000  0.45166000  1.0
  Cl  Cl89  1  0.60760000  0.34027000  0.04834000  1.0
  Cl  Cl90  1  0.89239000  0.34028000  0.54834000  1.0
  Cl  Cl91  1  0.39239000  0.65973000  0.95166000  1.0
  Cl  Cl92  1  0.54211000  0.66528000  0.53763000  1.0
  Cl  Cl93  1  0.04211000  0.33472000  0.96237000  1.0
  Cl  Cl94  1  0.45789000  0.33473000  0.46237000  1.0
  Cl  Cl95  1  0.95789000  0.66528000  0.03763000  1.0
