# generated using pymatgen
data_ZnH11C17N3O4
_symmetry_space_group_name_H-M   'P 1'
_cell_length_a   7.69765000
_cell_length_b   9.23350000
_cell_length_c   10.53550000
_cell_angle_alpha   89.99990000
_cell_angle_beta   95.95960000
_cell_angle_gamma   90.00000000
_symmetry_Int_Tables_number   1
_chemical_formula_structural   ZnH11C17N3O4
_chemical_formula_sum   'Zn2 H22 C34 N6 O8'
_cell_volume   744.77671639
_cell_formula_units_Z   2
loop_
 _symmetry_equiv_pos_site_id
 _symmetry_equiv_pos_as_xyz
  1  'x, y, z'
loop_
 _atom_site_type_symbol
 _atom_site_label
 _atom_site_symmetry_multiplicity
 _atom_site_fract_x
 _atom_site_fract_y
 _atom_site_fract_z
 _atom_site_occupancy
  Zn  Zn0  1  0.54609000  0.25725000  0.76692000  1.0
  Zn  Zn1  1  0.04609000  0.74275000  0.26692000  1.0
  H  H2  1  0.55069000  0.34066000  0.05950000  1.0
  H  H3  1  0.05069000  0.65934000  0.55950000  1.0
  H  H4  1  0.57648000  0.20891000  0.26726000  1.0
  H  H5  1  0.07648000  0.79109000  0.76726000  1.0
  H  H6  1  0.61133000  0.93445000  0.26460000  1.0
  H  H7  1  0.11132000  0.06555000  0.76460000  1.0
  H  H8  1  0.62210000  0.81066000  0.06010000  1.0
  H  H9  1  0.12210000  0.18934000  0.56010000  1.0
  H  H10  1  0.64524000  0.72170000  0.88005000  1.0
  H  H11  1  0.14525000  0.27830000  0.38005000  1.0
  H  H12  1  0.65230000  0.63063000  0.66205000  1.0
  H  H13  1  0.15230000  0.36937000  0.16205000  1.0
  H  H14  1  0.59871000  0.80461000  0.47553000  1.0
  H  H15  1  0.09871000  0.19539000  0.97553000  1.0
  H  H16  1  0.54828000  0.06640000  0.52483000  1.0
  H  H17  1  0.04828000  0.93360000  0.02483000  1.0
  H  H18  1  0.31723000  0.41252000  0.54889000  1.0
  H  H19  1  0.81723000  0.58748000  0.04889000  1.0
  H  H20  1  0.90873000  0.43511000  0.41254000  1.0
  H  H21  1  0.40873000  0.56489000  0.91254000  1.0
  H  H22  1  0.83757000  0.28506000  0.59759000  1.0
  H  H23  1  0.33757000  0.71494000  0.09759000  1.0
  C  C24  1  0.56477000  0.22302000  0.06264000  1.0
  C  C25  1  0.06477000  0.77698000  0.56264000  1.0
  C  C26  1  0.58016000  0.14861000  0.17866000  1.0
  C  C27  1  0.08016000  0.85139000  0.67867000  1.0
  C  C28  1  0.59963000  0.99858000  0.17735000  1.0
  C  C29  1  0.09963000  0.00142000  0.67735000  1.0
  C  C30  1  0.60504000  0.92776000  0.06084000  1.0
  C  C31  1  0.10504000  0.07225000  0.56084000  1.0
  C  C32  1  0.58948000  0.00936000  0.94836000  1.0
  C  C33  1  0.08948000  0.99064000  0.44836000  1.0
  C  C34  1  0.59479000  0.94451000  0.81986000  1.0
  C  C35  1  0.09479000  0.05549000  0.31986000  1.0
  C  C36  1  0.62436000  0.79696000  0.80045000  1.0
  C  C37  1  0.12437000  0.20304000  0.30045000  1.0
  C  C38  1  0.62781000  0.74532000  0.67654000  1.0
  C  C39  1  0.12781000  0.25468000  0.17654000  1.0
  C  C40  1  0.60009000  0.84099000  0.57394000  1.0
  C  C41  1  0.10009000  0.15901000  0.07394000  1.0
  C  C42  1  0.57112000  0.98607000  0.60064000  1.0
  C  C43  1  0.07112000  0.01393000  0.10064000  1.0
  C  C44  1  0.44613000  0.41684000  0.51422000  1.0
  C  C45  1  0.94613000  0.58316000  0.01422000  1.0
  C  C46  1  0.47433000  0.50505000  0.41085000  1.0
  C  C47  1  0.97433000  0.49495000  0.91085000  1.0
  C  C48  1  0.64260000  0.51107000  0.37067000  1.0
  C  C49  1  0.14260000  0.48893000  0.87067000  1.0
  C  C50  1  0.77512000  0.42962000  0.43768000  1.0
  C  C51  1  0.27512000  0.57038000  0.93768000  1.0
  C  C52  1  0.73636000  0.34558000  0.54045000  1.0
  C  C53  1  0.23636000  0.65442000  0.04045000  1.0
  C  C54  1  0.33083000  0.60127000  0.35255000  1.0
  C  C55  1  0.83083000  0.39873000  0.85254000  1.0
  C  C56  1  0.68123000  0.59828000  0.25602000  1.0
  C  C57  1  0.18123000  0.40173000  0.75602000  1.0
  N  N58  1  0.57460000  0.33927000  0.57910000  1.0
  N  N59  1  0.07460000  0.66073000  0.07910000  1.0
  N  N60  1  0.56886000  0.15450000  0.95102000  1.0
  N  N61  1  0.06886000  0.84550000  0.45102000  1.0
  N  N62  1  0.56967000  0.03651000  0.71978000  1.0
  N  N63  1  0.06967000  0.96349000  0.21978000  1.0
  O  O64  1  0.37053000  0.72610000  0.31612000  1.0
  O  O65  1  0.87053000  0.27390000  0.81612000  1.0
  O  O66  1  0.17319000  0.55341000  0.34504000  1.0
  O  O67  1  0.67319000  0.44659000  0.84503000  1.0
  O  O68  1  0.79137000  0.70171000  0.27860000  1.0
  O  O69  1  0.29137000  0.29830000  0.77860000  1.0
  O  O70  1  0.60749000  0.56100000  0.14968000  1.0
  O  O71  1  0.10749000  0.43900000  0.64968000  1.0
