# generated using pymatgen
data_CaH12C16S2N4(ClO4)2
_symmetry_space_group_name_H-M   'P 1'
_cell_length_a   5.60488000
_cell_length_b   10.64350000
_cell_length_c   18.35966824
_cell_angle_alpha   73.34412051
_cell_angle_beta   86.98306959
_cell_angle_gamma   76.08650000
_symmetry_Int_Tables_number   1
_chemical_formula_structural   CaH12C16S2N4(ClO4)2
_chemical_formula_sum   'Ca2 H24 C32 S4 N8 Cl4 O16'
_cell_volume   1018.35984507
_cell_formula_units_Z   2
loop_
 _symmetry_equiv_pos_site_id
 _symmetry_equiv_pos_as_xyz
  1  'x, y, z'
loop_
 _atom_site_type_symbol
 _atom_site_label
 _atom_site_symmetry_multiplicity
 _atom_site_fract_x
 _atom_site_fract_y
 _atom_site_fract_z
 _atom_site_occupancy
  Ca  Ca0  1  0.00000000  0.50000000  0.50000000  1.0
  Ca  Ca1  1  0.50000000  0.00000000  0.50000000  1.0
  H  H2  1  0.99684000  0.02358000  0.24669000  1.0
  H  H3  1  0.00312000  0.97644000  0.75331000  1.0
  H  H4  1  0.23334000  0.36261000  0.94909000  1.0
  H  H5  1  0.76674000  0.63733000  0.05092000  1.0
  H  H6  1  0.92061000  0.36066000  0.97382000  1.0
  H  H7  1  0.07945000  0.63933000  0.02616000  1.0
  H  H8  1  0.13253000  0.20962000  0.97023000  1.0
  H  H9  1  0.86754000  0.79034000  0.02978000  1.0
  H  H10  1  0.63497000  0.02377000  0.08538000  1.0
  H  H11  1  0.36506000  0.97621000  0.91461000  1.0
  H  H12  1  0.34848000  0.26558000  0.31516000  1.0
  H  H13  1  0.65151000  0.73441000  0.68485000  1.0
  H  H14  1  0.68459000  0.43258000  0.10466000  1.0
  H  H15  1  0.31539000  0.56743000  0.89534000  1.0
  H  H16  1  0.51817000  0.70138000  0.33243000  1.0
  H  H17  1  0.48180000  0.29863000  0.66757000  1.0
  H  H18  1  0.94773000  0.51941000  0.17443000  1.0
  H  H19  1  0.05225000  0.48060000  0.82557000  1.0
  H  H20  1  0.91109000  0.47995000  0.31537000  1.0
  H  H21  1  0.08890000  0.52006000  0.68463000  1.0
  H  H22  1  0.02353000  0.86544000  0.56371000  1.0
  H  H23  1  0.97647000  0.13457000  0.43629000  1.0
  H  H24  1  0.85539000  0.91596000  0.62650000  1.0
  H  H25  1  0.14459000  0.08405000  0.37350000  1.0
  C  C26  1  0.09994000  0.18514000  0.13164000  1.0
  C  C27  1  0.90006000  0.81487000  0.86835000  1.0
  C  C28  1  0.22304000  0.19471000  0.19759000  1.0
  C  C29  1  0.77692000  0.80530000  0.80242000  1.0
  C  C30  1  0.18208000  0.27656000  0.06632000  1.0
  C  C31  1  0.81796000  0.72343000  0.93368000  1.0
  C  C32  1  0.11333000  0.30419000  0.98529000  1.0
  C  C33  1  0.88673000  0.69578000  0.01471000  1.0
  C  C34  1  0.73710000  0.94775000  0.20411000  1.0
  C  C35  1  0.26291000  0.05224000  0.79589000  1.0
  C  C36  1  0.50616000  0.34016000  0.20567000  1.0
  C  C37  1  0.49382000  0.65984000  0.79433000  1.0
  C  C38  1  0.70229000  0.85615000  0.27447000  1.0
  C  C39  1  0.29770000  0.14385000  0.72553000  1.0
  C  C40  1  0.60953000  0.95275000  0.13932000  1.0
  C  C41  1  0.39050000  0.04723000  0.86068000  1.0
  C  C42  1  0.48116000  0.31958000  0.28423000  1.0
  C  C43  1  0.51882000  0.68043000  0.71577000  1.0
  C  C44  1  0.67244000  0.41435000  0.16601000  1.0
  C  C45  1  0.32754000  0.58565000  0.83400000  1.0
  C  C46  1  0.54465000  0.77160000  0.27823000  1.0
  C  C47  1  0.45534000  0.22841000  0.72177000  1.0
  C  C48  1  0.45275000  0.86759000  0.14383000  1.0
  C  C49  1  0.54728000  0.13241000  0.85616000  1.0
  C  C50  1  0.62590000  0.37195000  0.32181000  1.0
  C  C51  1  0.37409000  0.62805000  0.67819000  1.0
  C  C52  1  0.81727000  0.46333000  0.20556000  1.0
  C  C53  1  0.18270000  0.53668000  0.79444000  1.0
  C  C54  1  0.41933000  0.77591000  0.21367000  1.0
  C  C55  1  0.58066000  0.22409000  0.78633000  1.0
  C  C56  1  0.79806000  0.44202000  0.28419000  1.0
  C  C57  1  0.20192000  0.55799000  0.71582000  1.0
  S  S58  1  0.85126000  0.84107000  0.36154000  1.0
  S  S59  1  0.14873000  0.15894000  0.63846000  1.0
  S  S60  1  0.57526000  0.34736000  0.42063000  1.0
  S  S61  1  0.42473000  0.65264000  0.57937000  1.0
  N  N62  1  0.94193000  0.11076000  0.13211000  1.0
  N  N63  1  0.05808000  0.88924000  0.86789000  1.0
  N  N64  1  0.89906000  0.03125000  0.19826000  1.0
  N  N65  1  0.10093000  0.96876000  0.80174000  1.0
  N  N66  1  0.36025000  0.28923000  0.16670000  1.0
  N  N67  1  0.63975000  0.71077000  0.83330000  1.0
  N  N68  1  0.33592000  0.33637000  0.08712000  1.0
  N  N69  1  0.66410000  0.66361000  0.91289000  1.0
  Cl  Cl70  1  0.29789000  0.87626000  0.06338000  1.0
  Cl  Cl71  1  0.70216000  0.12371000  0.93662000  1.0
  Cl  Cl72  1  0.22433000  0.67123000  0.22076000  1.0
  Cl  Cl73  1  0.77566000  0.32876000  0.77925000  1.0
  O  O74  1  0.20755000  0.13211000  0.26566000  1.0
  O  O75  1  0.79238000  0.86792000  0.73434000  1.0
  O  O76  1  0.67523000  0.92896000  0.39871000  1.0
  O  O77  1  0.32474000  0.07104000  0.60129000  1.0
  O  O78  1  0.07862000  0.88495000  0.34158000  1.0
  O  O79  1  0.92136000  0.11506000  0.65842000  1.0
  O  O80  1  0.88784000  0.69779000  0.40359000  1.0
  O  O81  1  0.11214000  0.30222000  0.59641000  1.0
  O  O82  1  0.65691000  0.19983000  0.45612000  1.0
  O  O83  1  0.34308000  0.80017000  0.54388000  1.0
  O  O84  1  0.72514000  0.42226000  0.44606000  1.0
  O  O85  1  0.27485000  0.57774000  0.55394000  1.0
  O  O86  1  0.31069000  0.39764000  0.42883000  1.0
  O  O87  1  0.68929000  0.60237000  0.57117000  1.0
  O  O88  1  0.85209000  0.90001000  0.57658000  1.0
  O  O89  1  0.14791000  0.09998000  0.42343000  1.0
