# generated using pymatgen
data_CdH20C22(NO2)2
_symmetry_space_group_name_H-M   'P 1'
_cell_length_a   9.85781000
_cell_length_b   10.55790000
_cell_length_c   10.59030000
_cell_angle_alpha   81.89750000
_cell_angle_beta   70.92720000
_cell_angle_gamma   65.19980000
_symmetry_Int_Tables_number   1
_chemical_formula_structural   CdH20C22(NO2)2
_chemical_formula_sum   'Cd2 H40 C44 N4 O8'
_cell_volume   945.62769327
_cell_formula_units_Z   2
loop_
 _symmetry_equiv_pos_site_id
 _symmetry_equiv_pos_as_xyz
  1  'x, y, z'
loop_
 _atom_site_type_symbol
 _atom_site_label
 _atom_site_symmetry_multiplicity
 _atom_site_fract_x
 _atom_site_fract_y
 _atom_site_fract_z
 _atom_site_occupancy
  Cd  Cd0  1  0.52872000  0.62808000  0.36015000  1.0
  Cd  Cd1  1  0.47128000  0.37193000  0.63985000  1.0
  H  H2  1  0.57304000  0.83630000  0.51668000  1.0
  H  H3  1  0.42696000  0.16370000  0.48333000  1.0
  H  H4  1  0.43487000  0.00773000  0.70472000  1.0
  H  H5  1  0.56513000  0.99227000  0.29528000  1.0
  H  H6  1  0.02035000  0.93662000  0.75047000  1.0
  H  H7  1  0.97965000  0.06338000  0.24953000  1.0
  H  H8  1  0.17510000  0.76892000  0.56254000  1.0
  H  H9  1  0.82490000  0.23108000  0.43746000  1.0
  H  H10  1  0.21338000  0.11563000  0.88325000  1.0
  H  H11  1  0.78662000  0.88437000  0.11675000  1.0
  H  H12  1  0.08324000  0.03102000  0.94778000  1.0
  H  H13  1  0.91676000  0.96898000  0.05222000  1.0
  H  H14  1  0.04298000  0.28492000  0.76210000  1.0
  H  H15  1  0.95702000  0.71508000  0.23790000  1.0
  H  H16  1  0.91989000  0.19376000  0.79369000  1.0
  H  H17  1  0.08011000  0.80624000  0.20631000  1.0
  H  H18  1  0.07383000  0.33554000  0.00629000  1.0
  H  H19  1  0.92617000  0.66447000  0.99371000  1.0
  H  H20  1  0.89293000  0.47743000  0.20924000  1.0
  H  H21  1  0.10707000  0.52257000  0.79076000  1.0
  H  H22  1  0.51301000  0.43421000  0.16412000  1.0
  H  H23  1  0.48699000  0.56579000  0.83588000  1.0
  H  H24  1  0.67821000  0.29206000  0.95659000  1.0
  H  H25  1  0.32179000  0.70794000  0.04341000  1.0
  H  H26  1  0.05480000  0.54601000  0.41683000  1.0
  H  H27  1  0.94520000  0.45399000  0.58317000  1.0
  H  H28  1  0.22446000  0.55591000  0.29743000  1.0
  H  H29  1  0.77554000  0.44409000  0.70256000  1.0
  H  H30  1  0.12478000  0.25894000  0.49539000  1.0
  H  H31  1  0.87523000  0.74106000  0.50461000  1.0
  H  H32  1  0.17841000  0.04237000  0.38990000  1.0
  H  H33  1  0.82160000  0.95763000  0.61010000  1.0
  H  H34  1  0.35495000  0.20379000  0.00380000  1.0
  H  H35  1  0.64506000  0.79621000  0.99620000  1.0
  H  H36  1  0.30176000  0.42058000  0.11004000  1.0
  H  H37  1  0.69824000  0.57942000  0.88996000  1.0
  H  H38  1  0.38487000  0.96806000  0.02115000  1.0
  H  H39  1  0.61514000  0.03193000  0.97885000  1.0
  H  H40  1  0.20306000  0.96582000  0.12111000  1.0
  H  H41  1  0.79693000  0.03418000  0.87889000  1.0
  C  C42  1  0.45007000  0.86214000  0.57108000  1.0
  C  C43  1  0.54993000  0.13785000  0.42892000  1.0
  C  C44  1  0.37290000  0.95734000  0.67567000  1.0
  C  C45  1  0.62710000  0.04266000  0.32434000  1.0
  C  C46  1  0.21512000  0.98754000  0.74373000  1.0
  C  C47  1  0.78488000  0.01246000  0.25627000  1.0
  C  C48  1  0.14254000  0.91911000  0.70138000  1.0
  C  C49  1  0.85746000  0.08089000  0.29862000  1.0
  C  C50  1  0.22806000  0.82494000  0.59627000  1.0
  C  C51  1  0.77194000  0.17506000  0.40373000  1.0
  C  C52  1  0.12953000  0.08664000  0.85990000  1.0
  C  C53  1  0.87047000  0.91336000  0.14010000  1.0
  C  C54  1  0.99299000  0.21958000  0.83627000  1.0
  C  C55  1  0.00701000  0.78041000  0.16373000  1.0
  C  C56  1  0.89084000  0.30170000  0.96257000  1.0
  C  C57  1  0.10916000  0.69830000  0.03743000  1.0
  C  C58  1  0.95028000  0.35436000  0.03668000  1.0
  C  C59  1  0.04972000  0.64564000  0.96332000  1.0
  C  C60  1  0.85049000  0.43397000  0.15003000  1.0
  C  C61  1  0.14951000  0.56603000  0.84997000  1.0
  C  C62  1  0.63814000  0.41002000  0.12532000  1.0
  C  C63  1  0.36186000  0.58998000  0.87468000  1.0
  C  C64  1  0.73061000  0.32954000  0.01109000  1.0
  C  C65  1  0.26939000  0.67046000  0.98891000  1.0
  C  C66  1  0.25876000  0.46055000  0.48360000  1.0
  C  C67  1  0.74124000  0.53945000  0.51640000  1.0
  C  C68  1  0.18172000  0.48842000  0.37335000  1.0
  C  C69  1  0.81828000  0.51158000  0.62665000  1.0
  C  C70  1  0.21023000  0.35585000  0.31064000  1.0
  C  C71  1  0.78977000  0.64415000  0.68936000  1.0
  C  C72  1  0.17354000  0.24816000  0.38724000  1.0
  C  C73  1  0.82647000  0.75184000  0.61276000  1.0
  C  C74  1  0.20471000  0.12564000  0.32744000  1.0
  C  C75  1  0.79529000  0.87436000  0.67256000  1.0
  C  C76  1  0.27266000  0.10659000  0.18893000  1.0
  C  C77  1  0.72734000  0.89341000  0.81107000  1.0
  C  C78  1  0.30546000  0.21503000  0.11213000  1.0
  C  C79  1  0.69454000  0.78497000  0.88787000  1.0
  C  C80  1  0.27499000  0.33752000  0.17227000  1.0
  C  C81  1  0.72502000  0.66248000  0.82773000  1.0
  C  C82  1  0.31012000  0.97218000  0.12493000  1.0
  C  C83  1  0.68988000  0.02782000  0.87507000  1.0
  C  C84  1  0.39430000  0.84398000  0.19946000  1.0
  C  C85  1  0.60569000  0.15602000  0.80054000  1.0
  N  N86  1  0.37998000  0.79631000  0.53167000  1.0
  N  N87  1  0.62001000  0.20369000  0.46834000  1.0
  N  N88  1  0.69588000  0.46339000  0.19323000  1.0
  N  N89  1  0.30412000  0.53661000  0.80678000  1.0
  O  O90  1  0.52412000  0.82949000  0.21270000  1.0
  O  O91  1  0.47588000  0.17051000  0.78730000  1.0
  O  O92  1  0.33149000  0.75676000  0.24612000  1.0
  O  O93  1  0.66851000  0.24324000  0.75389000  1.0
  O  O94  1  0.36711000  0.50447000  0.46624000  1.0
  O  O95  1  0.63289000  0.49553000  0.53376000  1.0
  O  O96  1  0.21967000  0.39218000  0.58678000  1.0
  O  O97  1  0.78033000  0.60782000  0.41322000  1.0
