# generated using pymatgen
data_CuH12C16(ClO3)2
_symmetry_space_group_name_H-M   'P 1'
_cell_length_a   5.04339000
_cell_length_b   11.51250000
_cell_length_c   29.10780000
_cell_angle_alpha   99.04480000
_cell_angle_beta   90.00000000
_cell_angle_gamma   90.00000000
_symmetry_Int_Tables_number   1
_chemical_formula_structural   CuH12C16(ClO3)2
_chemical_formula_sum   'Cu4 H48 C64 Cl8 O24'
_cell_volume   1669.04322989
_cell_formula_units_Z   4
loop_
 _symmetry_equiv_pos_site_id
 _symmetry_equiv_pos_as_xyz
  1  'x, y, z'
loop_
 _atom_site_type_symbol
 _atom_site_label
 _atom_site_symmetry_multiplicity
 _atom_site_fract_x
 _atom_site_fract_y
 _atom_site_fract_z
 _atom_site_occupancy
  Cu  Cu0  1  0.71356000  0.00921000  0.02283000  1.0
  Cu  Cu1  1  0.21356000  0.49079000  0.47718000  1.0
  Cu  Cu2  1  0.28641000  0.99079000  0.97718000  1.0
  Cu  Cu3  1  0.78641000  0.50921000  0.52282000  1.0
  H  H4  1  0.02014000  0.53914000  0.17577000  1.0
  H  H5  1  0.52013000  0.96087000  0.32423000  1.0
  H  H6  1  0.97985000  0.46086000  0.82423000  1.0
  H  H7  1  0.47987000  0.03914000  0.67577000  1.0
  H  H8  1  0.71757000  0.41433000  0.21552000  1.0
  H  H9  1  0.21757000  0.08567000  0.28448000  1.0
  H  H10  1  0.28241000  0.58567000  0.78448000  1.0
  H  H11  1  0.78242000  0.91433000  0.71551000  1.0
  H  H12  1  0.36648000  0.29577000  0.16988000  1.0
  H  H13  1  0.86647000  0.20423000  0.33012000  1.0
  H  H14  1  0.63352000  0.70423000  0.83012000  1.0
  H  H15  1  0.13353000  0.79577000  0.66988000  1.0
  H  H16  1  0.32265000  0.29722000  0.08556000  1.0
  H  H17  1  0.82263000  0.20278000  0.41445000  1.0
  H  H18  1  0.67737000  0.70277000  0.91444000  1.0
  H  H19  1  0.17738000  0.79723000  0.58555000  1.0
  H  H20  1  0.47122000  0.37934000  0.97300000  1.0
  H  H21  1  0.97122000  0.12066000  0.52701000  1.0
  H  H22  1  0.52881000  0.62066000  0.02700000  1.0
  H  H23  1  0.02880000  0.87933000  0.47299000  1.0
  H  H24  1  0.25194000  0.37579000  0.02010000  1.0
  H  H25  1  0.75193000  0.12421000  0.47990000  1.0
  H  H26  1  0.74809000  0.62422000  0.97989000  1.0
  H  H27  1  0.24809000  0.87579000  0.52010000  1.0
  H  H28  1  0.89958000  0.92072000  0.25174000  1.0
  H  H29  1  0.39959000  0.57926000  0.24826000  1.0
  H  H30  1  0.10042000  0.07926000  0.74826000  1.0
  H  H31  1  0.60040000  0.42075000  0.75174000  1.0
  H  H32  1  0.80383000  0.71287000  0.21764000  1.0
  H  H33  1  0.30387000  0.78712000  0.28236000  1.0
  H  H34  1  0.19616000  0.28712000  0.78236000  1.0
  H  H35  1  0.69612000  0.21289000  0.71764000  1.0
  H  H36  1  0.45636000  0.66951000  0.15572000  1.0
  H  H37  1  0.95638000  0.83049000  0.34428000  1.0
  H  H38  1  0.54364000  0.33049000  0.84428000  1.0
  H  H39  1  0.04360000  0.16951000  0.65572000  1.0
  H  H40  1  0.20259000  0.83022000  0.13039000  1.0
  H  H41  1  0.70259000  0.66979000  0.36961000  1.0
  H  H42  1  0.79742000  0.16978000  0.86961000  1.0
  H  H43  1  0.29741000  0.33021000  0.63039000  1.0
  H  H44  1  0.96260000  0.97710000  0.12523000  1.0
  H  H45  1  0.46260000  0.52291000  0.37477000  1.0
  H  H46  1  0.03738000  0.02290000  0.87477000  1.0
  H  H47  1  0.53739000  0.47710000  0.62523000  1.0
  H  H48  1  0.99249000  0.13064000  0.12759000  1.0
  H  H49  1  0.49248000  0.36937000  0.37241000  1.0
  H  H50  1  0.00751000  0.86936000  0.87242000  1.0
  H  H51  1  0.50751000  0.63064000  0.62759000  1.0
  C  C52  1  0.64996000  0.41687000  0.08227000  1.0
  C  C53  1  0.14995000  0.08313000  0.41773000  1.0
  C  C54  1  0.35005000  0.58312000  0.91773000  1.0
  C  C55  1  0.85007000  0.91688000  0.58226000  1.0
  C  C56  1  0.84100000  0.48733000  0.10880000  1.0
  C  C57  1  0.34099000  0.01267000  0.39120000  1.0
  C  C58  1  0.15901000  0.51266000  0.89120000  1.0
  C  C59  1  0.65902000  0.98734000  0.60880000  1.0
  C  C60  1  0.86641000  0.48593000  0.15637000  1.0
  C  C61  1  0.36640000  0.01407000  0.34363000  1.0
  C  C62  1  0.13360000  0.51406000  0.84363000  1.0
  C  C63  1  0.63362000  0.98594000  0.65637000  1.0
  C  C64  1  0.69616000  0.41659000  0.17845000  1.0
  C  C65  1  0.19615000  0.08341000  0.32155000  1.0
  C  C66  1  0.30384000  0.58341000  0.82155000  1.0
  C  C67  1  0.80386000  0.91659000  0.67845000  1.0
  C  C68  1  0.50025000  0.34967000  0.15277000  1.0
  C  C69  1  0.00023000  0.15033000  0.34724000  1.0
  C  C70  1  0.49976000  0.65033000  0.84723000  1.0
  C  C71  1  0.99977000  0.84967000  0.65276000  1.0
  C  C72  1  0.47687000  0.34974000  0.10507000  1.0
  C  C73  1  0.97685000  0.15026000  0.39494000  1.0
  C  C74  1  0.52315000  0.65026000  0.89494000  1.0
  C  C75  1  0.02317000  0.84974000  0.60506000  1.0
  C  C76  1  0.45436000  0.35350000  0.00753000  1.0
  C  C77  1  0.95435000  0.14650000  0.49247000  1.0
  C  C78  1  0.54567000  0.64650000  0.99247000  1.0
  C  C79  1  0.04566000  0.85350000  0.50753000  1.0
  C  C80  1  0.48805000  0.22017000  0.00241000  1.0
  C  C81  1  0.98804000  0.27983000  0.49759000  1.0
  C  C82  1  0.51194000  0.77983000  0.99759000  1.0
  C  C83  1  0.01196000  0.72017000  0.50241000  1.0
  C  C84  1  0.40450000  0.96818000  0.17666000  1.0
  C  C85  1  0.90450000  0.53182000  0.32334000  1.0
  C  C86  1  0.59551000  0.03181000  0.82334000  1.0
  C  C87  1  0.09551000  0.46819000  0.67666000  1.0
  C  C88  1  0.60550000  0.99176000  0.21055000  1.0
  C  C89  1  0.10550000  0.50823000  0.28945000  1.0
  C  C90  1  0.39451000  0.00823000  0.78945000  1.0
  C  C91  1  0.89450000  0.49177000  0.71055000  1.0
  C  C92  1  0.74603000  0.90008000  0.22538000  1.0
  C  C93  1  0.24605000  0.59991000  0.27462000  1.0
  C  C94  1  0.25397000  0.09991000  0.77462000  1.0
  C  C95  1  0.75395000  0.40010000  0.72538000  1.0
  C  C96  1  0.69182000  0.78372000  0.20598000  1.0
  C  C97  1  0.19185000  0.71627000  0.29402000  1.0
  C  C98  1  0.30818000  0.21627000  0.79402000  1.0
  C  C99  1  0.80815000  0.28374000  0.70598000  1.0
  C  C100  1  0.49773000  0.75987000  0.17163000  1.0
  C  C101  1  0.99774000  0.74012000  0.32837000  1.0
  C  C102  1  0.50227000  0.24012000  0.82837000  1.0
  C  C103  1  0.00224000  0.25988000  0.67163000  1.0
  C  C104  1  0.35438000  0.85122000  0.15702000  1.0
  C  C105  1  0.85439000  0.64878000  0.34298000  1.0
  C  C106  1  0.64563000  0.14878000  0.84298000  1.0
  C  C107  1  0.14561000  0.35122000  0.65702000  1.0
  C  C108  1  0.10729000  0.04894000  0.12594000  1.0
  C  C109  1  0.60728000  0.45106000  0.37407000  1.0
  C  C110  1  0.89270000  0.95106000  0.87407000  1.0
  C  C111  1  0.39271000  0.54894000  0.62593000  1.0
  C  C112  1  0.26712000  0.03065000  0.08065000  1.0
  C  C113  1  0.76711000  0.46935000  0.41935000  1.0
  C  C114  1  0.73286000  0.96935000  0.91936000  1.0
  C  C115  1  0.23287000  0.53065000  0.58065000  1.0
  Cl  Cl116  1  0.04125000  0.57859000  0.08169000  1.0
  Cl  Cl117  1  0.54124000  0.92141000  0.41831000  1.0
  Cl  Cl118  1  0.95878000  0.42139000  0.91831000  1.0
  Cl  Cl119  1  0.45878000  0.07860000  0.58169000  1.0
  Cl  Cl120  1  0.68135000  0.13616000  0.23285000  1.0
  Cl  Cl121  1  0.18134000  0.36383000  0.26716000  1.0
  Cl  Cl122  1  0.31866000  0.86383000  0.76715000  1.0
  Cl  Cl123  1  0.81866000  0.63618000  0.73284000  1.0
  O  O124  1  0.64846000  0.42005000  0.03553000  1.0
  O  O125  1  0.14845000  0.07995000  0.46448000  1.0
  O  O126  1  0.35156000  0.57995000  0.96448000  1.0
  O  O127  1  0.85156000  0.92004000  0.53552000  1.0
  O  O128  1  0.68687000  0.18001000  0.02141000  1.0
  O  O129  1  0.18685000  0.31998000  0.47859000  1.0
  O  O130  1  0.31312000  0.81999000  0.97859000  1.0
  O  O131  1  0.81313000  0.68001000  0.52140000  1.0
  O  O132  1  0.69725000  0.83707000  0.02055000  1.0
  O  O133  1  0.19727000  0.66294000  0.47945000  1.0
  O  O134  1  0.30273000  0.16294000  0.97946000  1.0
  O  O135  1  0.80273000  0.33706000  0.52055000  1.0
  O  O136  1  0.26977000  0.06364000  0.16605000  1.0
  O  O137  1  0.76976000  0.43637000  0.33395000  1.0
  O  O138  1  0.73023000  0.93636000  0.83395000  1.0
  O  O139  1  0.23023000  0.56363000  0.66605000  1.0
  O  O140  1  0.51653000  0.03128000  0.08306000  1.0
  O  O141  1  0.01652000  0.46872000  0.41695000  1.0
  O  O142  1  0.48345000  0.96873000  0.91695000  1.0
  O  O143  1  0.98346000  0.53128000  0.58305000  1.0
  O  O144  1  0.86882000  0.98252000  0.95692000  1.0
  O  O145  1  0.36882000  0.51748000  0.54308000  1.0
  O  O146  1  0.13116000  0.01748000  0.04309000  1.0
  O  O147  1  0.63116000  0.48252000  0.45692000  1.0
