# generated using pymatgen
data_Zn4H6C24S4N2O19
_symmetry_space_group_name_H-M   'P 1'
_cell_length_a   19.61650000
_cell_length_b   19.62880000
_cell_length_c   33.37690000
_cell_angle_alpha   79.12810000
_cell_angle_beta   79.11270000
_cell_angle_gamma   63.83290000
_symmetry_Int_Tables_number   1
_chemical_formula_structural   Zn4H6C24S4N2O19
_chemical_formula_sum   'Zn16 H24 C96 S16 N8 O76'
_cell_volume   11245.79055757
_cell_formula_units_Z   4
loop_
 _symmetry_equiv_pos_site_id
 _symmetry_equiv_pos_as_xyz
  1  'x, y, z'
loop_
 _atom_site_type_symbol
 _atom_site_label
 _atom_site_symmetry_multiplicity
 _atom_site_fract_x
 _atom_site_fract_y
 _atom_site_fract_z
 _atom_site_occupancy
  Zn  Zn0  1  0.59902000  0.94587000  0.52183000  1.0
  Zn  Zn1  1  0.51724000  0.01201000  0.43978000  1.0
  Zn  Zn2  1  0.43489000  0.94376000  0.51806000  1.0
  Zn  Zn3  1  0.44446000  0.09878000  0.52132000  1.0
  Zn  Zn4  1  0.64991000  0.30682000  0.72791000  1.0
  Zn  Zn5  1  0.80731000  0.31368000  0.73449000  1.0
  Zn  Zn6  1  0.73505000  0.22959000  0.81061000  1.0
  Zn  Zn7  1  0.80372000  0.15321000  0.72847000  1.0
  Zn  Zn8  1  0.23503000  0.73076000  0.31133000  1.0
  Zn  Zn9  1  0.30519000  0.64821000  0.22992000  1.0
  Zn  Zn10  1  0.15263000  0.80484000  0.22904000  1.0
  Zn  Zn11  1  0.31178000  0.80827000  0.23420000  1.0
  Zn  Zn12  1  0.93922000  0.43907000  0.01746000  1.0
  Zn  Zn13  1  0.94565000  0.59830000  0.02280000  1.0
  Zn  Zn14  1  0.09942000  0.44280000  0.02192000  1.0
  Zn  Zn15  1  0.01780000  0.51529000  0.94066000  1.0
  H  H16  1  0.54805000  0.25582000  0.64776000  1.0
  H  H17  1  0.70078000  0.99994000  0.60001000  1.0
  H  H18  1  0.30970000  0.78630000  0.40157000  1.0
  H  H19  1  0.44697000  0.95259000  0.35171000  1.0
  H  H20  1  0.75957000  0.53848000  0.65759000  1.0
  H  H21  1  0.29656000  0.51613000  0.40012000  1.0
  H  H22  1  0.02130000  0.79660000  0.39910000  1.0
  H  H23  1  0.03280000  0.04992000  0.65761000  1.0
  H  H24  1  0.84184000  0.35430000  0.95237000  1.0
  H  H25  1  0.89640000  0.40147000  0.80077000  1.0
  H  H26  1  0.23096000  0.45298000  0.85174000  1.0
  H  H27  1  0.85826000  0.83756000  0.95931000  1.0
  H  H28  1  0.99969000  0.69902000  0.10132000  1.0
  H  H29  1  0.25749000  0.54898000  0.14741000  1.0
  H  H30  1  0.71690000  0.70216000  0.09703000  1.0
  H  H31  1  0.98766000  0.21322000  0.09375000  1.0
  H  H32  1  0.47303000  0.19951000  0.57817000  1.0
  H  H33  1  0.77984000  0.05986000  0.66574000  1.0
  H  H34  1  0.37153000  0.84699000  0.47541000  1.0
  H  H35  1  0.39455000  0.88239000  0.27808000  1.0
  H  H36  1  0.76106000  0.28824000  0.89073000  1.0
  H  H37  1  0.97546000  0.46842000  0.86294000  1.0
  H  H38  1  0.05641000  0.77483000  0.17032000  1.0
  H  H39  1  0.19951000  0.47137000  0.07990000  1.0
  C  C40  1  0.68292000  0.93561000  0.43963000  1.0
  C  C41  1  0.42764000  0.92770000  0.43326000  1.0
  C  C42  1  0.55803000  0.82145000  0.56217000  1.0
  C  C43  1  0.31459000  0.06485000  0.56141000  1.0
  C  C44  1  0.56835000  0.07320000  0.56872000  1.0
  C  C45  1  0.44093000  0.17829000  0.43860000  1.0
  C  C46  1  0.68870000  0.43494000  0.68716000  1.0
  C  C47  1  0.80936000  0.32524000  0.82218000  1.0
  C  C48  1  0.56860000  0.30520000  0.81059000  1.0
  C  C49  1  0.81540000  0.06532000  0.81018000  1.0
  C  C50  1  0.68066000  0.18214000  0.67914000  1.0
  C  C51  1  0.93460000  0.18886000  0.69263000  1.0
  C  C52  1  0.30838000  0.56356000  0.31309000  1.0
  C  C53  1  0.18170000  0.67988000  0.18045000  1.0
  C  C54  1  0.06709000  0.81268000  0.31217000  1.0
  C  C55  1  0.18913000  0.93266000  0.19096000  1.0
  C  C56  1  0.32767000  0.81252000  0.32000000  1.0
  C  C57  1  0.43073000  0.68971000  0.18842000  1.0
  C  C58  1  0.81568000  0.56280000  0.06196000  1.0
  C  C59  1  0.07424000  0.56757000  0.06916000  1.0
  C  C60  1  0.06001000  0.31517000  0.06236000  1.0
  C  C61  1  0.18518000  0.43680000  0.93869000  1.0
  C  C62  1  0.93011000  0.42973000  0.93070000  1.0
  C  C63  1  0.93800000  0.68312000  0.93932000  1.0
  C  C64  1  0.59620000  0.10262000  0.59680000  1.0
  C  C65  1  0.65313000  0.15350000  0.65056000  1.0
  C  C66  1  0.55227000  0.17647000  0.60997000  1.0
  C  C67  1  0.69775000  0.08032000  0.63669000  1.0
  C  C68  1  0.58148000  0.19992000  0.63706000  1.0
  C  C69  1  0.66771000  0.05610000  0.61042000  1.0
  C  C70  1  0.40251000  0.89639000  0.40486000  1.0
  C  C71  1  0.35544000  0.84122000  0.34847000  1.0
  C  C72  1  0.36398000  0.84801000  0.41948000  1.0
  C  C73  1  0.39582000  0.88788000  0.33384000  1.0
  C  C74  1  0.34030000  0.82231000  0.39083000  1.0
  C  C75  1  0.41756000  0.91548000  0.36251000  1.0
  C  C76  1  0.54465000  0.69566000  0.59644000  1.0
  C  C77  1  0.70268000  0.55502000  0.64959000  1.0
  C  C78  1  0.58270000  0.74309000  0.58413000  1.0
  C  C79  1  0.66303000  0.50975000  0.66180000  1.0
  C  C80  1  0.65867000  0.62329000  0.62612000  1.0
  C  C81  1  0.58686000  0.62802000  0.62108000  1.0
  C  C82  1  0.42092000  0.27003000  0.36961000  1.0
  C  C83  1  0.32517000  0.47193000  0.37969000  1.0
  C  C84  1  0.41287000  0.25212000  0.41218000  1.0
  C  C85  1  0.33424000  0.48780000  0.33735000  1.0
  C  C86  1  0.35786000  0.39218000  0.39134000  1.0
  C  C87  1  0.39099000  0.34974000  0.35751000  1.0
  C  C88  1  0.77402000  0.92840000  0.37088000  1.0
  C  C89  1  0.97651000  0.82652000  0.37908000  1.0
  C  C90  1  0.75703000  0.91704000  0.41339000  1.0
  C  C91  1  0.99147000  0.83806000  0.33676000  1.0
  C  C92  1  0.89686000  0.85881000  0.39131000  1.0
  C  C93  1  0.85346000  0.89406000  0.35796000  1.0
  C  C94  1  0.19409000  0.16317000  0.60142000  1.0
  C  C95  1  0.05154000  0.09579000  0.65190000  1.0
  C  C96  1  0.23795000  0.09394000  0.58534000  1.0
  C  C97  1  0.00944000  0.16507000  0.66741000  1.0
  C  C98  1  0.11968000  0.09499000  0.62838000  1.0
  C  C99  1  0.12738000  0.16366000  0.62666000  1.0
  C  C100  1  0.83864000  0.35229000  0.85074000  1.0
  C  C101  1  0.89958000  0.40344000  0.90239000  1.0
  C  C102  1  0.82260000  0.33855000  0.89419000  1.0
  C  C103  1  0.91539000  0.41738000  0.85891000  1.0
  C  C104  1  0.85372000  0.36443000  0.91911000  1.0
  C  C105  1  0.88447000  0.39139000  0.83402000  1.0
  C  C106  1  0.47838000  0.32507000  0.88018000  1.0
  C  C107  1  0.27573000  0.42289000  0.87177000  1.0
  C  C108  1  0.49526000  0.33415000  0.83754000  1.0
  C  C109  1  0.26080000  0.41174000  0.91411000  1.0
  C  C110  1  0.35537000  0.39005000  0.85955000  1.0
  C  C111  1  0.39876000  0.35522000  0.89294000  1.0
  C  C112  1  0.88438000  0.91595000  0.82176000  1.0
  C  C113  1  0.87569000  0.82916000  0.92704000  1.0
  C  C114  1  0.84510000  0.98886000  0.83418000  1.0
  C  C115  1  0.91415000  0.75764000  0.91370000  1.0
  C  C116  1  0.86377000  0.88680000  0.89321000  1.0
  C  C117  1  0.89376000  0.85746000  0.85509000  1.0
  C  C118  1  0.15344000  0.65226000  0.15165000  1.0
  C  C119  1  0.10335000  0.59540000  0.09738000  1.0
  C  C120  1  0.07941000  0.69573000  0.13855000  1.0
  C  C121  1  0.17735000  0.55192000  0.11048000  1.0
  C  C122  1  0.05608000  0.66633000  0.11154000  1.0
  C  C123  1  0.20096000  0.58157000  0.13733000  1.0
  C  C124  1  0.54650000  0.59635000  0.14364000  1.0
  C  C125  1  0.69708000  0.65725000  0.10136000  1.0
  C  C126  1  0.50314000  0.66491000  0.16046000  1.0
  C  C127  1  0.73949000  0.58794000  0.08589000  1.0
  C  C128  1  0.62692000  0.65964000  0.12288000  1.0
  C  C129  1  0.61788000  0.59216000  0.12302000  1.0
  C  C130  1  0.20772000  0.05137000  0.14924000  1.0
  C  C131  1  0.04534000  0.19593000  0.10080000  1.0
  C  C132  1  0.16827000  0.00570000  0.16365000  1.0
  C  C133  1  0.08582000  0.24023000  0.08746000  1.0
  C  C134  1  0.08974000  0.12750000  0.12403000  1.0
  C  C135  1  0.16278000  0.12161000  0.12747000  1.0
  S  S136  1  0.67146000  0.70305000  0.60165000  1.0
  S  S137  1  0.57260000  0.54949000  0.64541000  1.0
  S  S138  1  0.36626000  0.33333333  0.43720000  1.0
  S  S139  1  0.38295000  0.40707000  0.31148000  1.0
  S  S140  1  0.83896000  0.86664000  0.43754000  1.0
  S  S141  1  0.90982000  0.88692000  0.31160000  1.0
  S  S142  1  0.19577000  0.03063000  0.60016000  1.0
  S  S143  1  0.05209000  0.22888000  0.65428000  1.0
  S  S144  1  0.41325000  0.38248000  0.81334000  1.0
  S  S145  1  0.34235000  0.36132000  0.93924000  1.0
  S  S146  1  0.82226000  0.98530000  0.88699000  1.0
  S  S147  1  0.93519000  0.75952000  0.86047000  1.0
  S  S148  1  0.54885000  0.72540000  0.14939000  1.0
  S  S149  1  0.69540000  0.52531000  0.09745000  1.0
  S  S150  1  0.07698000  0.04802000  0.14906000  1.0
  S  S151  1  0.17680000  0.20023000  0.10316000  1.0
  N  N152  1  0.47203000  0.70726000  0.58473000  1.0
  N  N153  1  0.45065000  0.21716000  0.33859000  1.0
  N  N154  1  0.72038000  0.97432000  0.34109000  1.0
  N  N155  1  0.20766000  0.23201000  0.59251000  1.0
  N  N156  1  0.53253000  0.29340000  0.91049000  1.0
  N  N157  1  0.91894000  0.89669000  0.78043000  1.0
  N  N158  1  0.52405000  0.53474000  0.14353000  1.0
  N  N159  1  0.28769000  0.03171000  0.15202000  1.0
  O  O160  1  0.49956000  0.99935000  0.50045000  1.0
  O  O161  1  0.68487000  0.93525000  0.47783000  1.0
  O  O162  1  0.45560000  0.97575000  0.41807000  1.0
  O  O163  1  0.48693000  0.86114000  0.56048000  1.0
  O  O164  1  0.62520000  0.94757000  0.42273000  1.0
  O  O165  1  0.61214000  0.84247000  0.54804000  1.0
  O  O166  1  0.41938000  0.90425000  0.47217000  1.0
  O  O167  1  0.33141000  0.00637000  0.54334000  1.0
  O  O168  1  0.50544000  0.12017000  0.55370000  1.0
  O  O169  1  0.35748000  0.09768000  0.56186000  1.0
  O  O170  1  0.60699000  0.00446000  0.56094000  1.0
  O  O171  1  0.49335000  0.12051000  0.42287000  1.0
  O  O172  1  0.41017000  0.18091000  0.47614000  1.0
  O  O173  1  0.74847000  0.25173000  0.75043000  1.0
  O  O174  1  0.64273000  0.40270000  0.69404000  1.0
  O  O175  1  0.82734000  0.33868000  0.78383000  1.0
  O  O176  1  0.62609000  0.25119000  0.82586000  1.0
  O  O177  1  0.75400000  0.40927000  0.69991000  1.0
  O  O178  1  0.56592000  0.33664000  0.77327000  1.0
  O  O179  1  0.76717000  0.28902000  0.83817000  1.0
  O  O180  1  0.79618000  0.12163000  0.83050000  1.0
  O  O181  1  0.74948000  0.14033000  0.68855000  1.0
  O  O182  1  0.80895000  0.06923000  0.77258000  1.0
  O  O183  1  0.63608000  0.24536000  0.69287000  1.0
  O  O184  1  0.90622000  0.25590000  0.70367000  1.0
  O  O185  1  0.90490000  0.14077000  0.70085000  1.0
  O  O186  1  0.25088000  0.74841000  0.25100000  1.0
  O  O187  1  0.27603000  0.62181000  0.33286000  1.0
  O  O188  1  0.24900000  0.63951000  0.19014000  1.0
  O  O189  1  0.06699000  0.83022000  0.27319000  1.0
  O  O190  1  0.32081000  0.56364000  0.27405000  1.0
  O  O191  1  0.12529000  0.77598000  0.33174000  1.0
  O  O192  1  0.13532000  0.74427000  0.19420000  1.0
  O  O193  1  0.14696000  0.89763000  0.19182000  1.0
  O  O194  1  0.34753000  0.82569000  0.28098000  1.0
  O  O195  1  0.24413000  0.91226000  0.21188000  1.0
  O  O196  1  0.28602000  0.77714000  0.33511000  1.0
  O  O197  1  0.40838000  0.63891000  0.20646000  1.0
  O  O198  1  0.39864000  0.76108000  0.19285000  1.0
  O  O199  1  0.00018000  0.49923000  0.00067000  1.0
  O  O200  1  0.84330000  0.49595000  0.05068000  1.0
  O  O201  1  0.00801000  0.60965000  0.05829000  1.0
  O  O202  1  0.10672000  0.34668000  0.05499000  1.0
  O  O203  1  0.84705000  0.60942000  0.05459000  1.0
  O  O204  1  0.99423000  0.34161000  0.05012000  1.0
  O  O205  1  0.11852000  0.50113000  0.05714000  1.0
  O  O206  1  0.18512000  0.41910000  0.97760000  1.0
  O  O207  1  0.97234000  0.46572000  0.91427000  1.0
  O  O208  1  0.12690000  0.47380000  0.91914000  1.0
  O  O209  1  0.91351000  0.41595000  0.96916000  1.0
  O  O210  1  0.92325000  0.68384000  0.97816000  1.0
  O  O211  1  0.97199000  0.62434000  0.91980000  1.0
  O  O212  1  0.48322000  0.22523000  0.59779000  1.0
  O  O213  1  0.76790000  0.03252000  0.64779000  1.0
  O  O214  1  0.34845000  0.82587000  0.45981000  1.0
  O  O215  1  0.41375000  0.90761000  0.29348000  1.0
  O  O216  1  0.77870000  0.30165000  0.91284000  1.0
  O  O217  1  0.95915000  0.45463000  0.84036000  1.0
  O  O218  1  0.03022000  0.76449000  0.15099000  1.0
  O  O219  1  0.22632000  0.48304000  0.09825000  1.0
  O  O220  1  0.43629000  0.67486000  0.60944000  1.0
  O  O221  1  0.45218000  0.74451000  0.55145000  1.0
  O  O222  1  0.47827000  0.24046000  0.30507000  1.0
  O  O223  1  0.44364000  0.15642000  0.34650000  1.0
  O  O224  1  0.74104000  0.95514000  0.30572000  1.0
  O  O225  1  0.66150000  0.02946000  0.35189000  1.0
  O  O226  1  0.17849000  0.27628000  0.61949000  1.0
  O  O227  1  0.24309000  0.24387000  0.55922000  1.0
  O  O228  1  0.50991000  0.26540000  0.94410000  1.0
  O  O229  1  0.59421000  0.29874000  0.90206000  1.0
  O  O230  1  0.92643000  0.83355000  0.77323000  1.0
  O  O231  1  0.94115000  0.94089000  0.75637000  1.0
  O  O232  1  0.57790000  0.47004000  0.14185000  1.0
  O  O233  1  0.45595000  0.55020000  0.14323000  1.0
  O  O234  1  0.30305000  0.08701000  0.15162000  1.0
  O  O235  1  0.33445000  0.96411000  0.15264000  1.0
