# generated using pymatgen
data_Zn2H17C27N2O8F
_symmetry_space_group_name_H-M   'P 1'
_cell_length_a   9.73027000
_cell_length_b   11.10930000
_cell_length_c   24.39670000
_cell_angle_alpha   89.88410000
_cell_angle_beta   91.33750000
_cell_angle_gamma   89.98340000
_symmetry_Int_Tables_number   1
_chemical_formula_structural   Zn2H17C27N2O8F
_chemical_formula_sum   'Zn4 H34 C54 N4 O16 F2'
_cell_volume   2636.47354340
_cell_formula_units_Z   2
loop_
 _symmetry_equiv_pos_site_id
 _symmetry_equiv_pos_as_xyz
  1  'x, y, z'
loop_
 _atom_site_type_symbol
 _atom_site_label
 _atom_site_symmetry_multiplicity
 _atom_site_fract_x
 _atom_site_fract_y
 _atom_site_fract_z
 _atom_site_occupancy
  Zn  Zn0  1  0.36866000  0.49736000  0.50144000  1.0
  Zn  Zn1  1  0.65094000  0.49794000  0.49910000  1.0
  Zn  Zn2  1  0.63326000  0.49537000  0.04271000  1.0
  Zn  Zn3  1  0.35110000  0.49614000  0.04628000  1.0
  H  H4  1  0.13866000  0.61842000  0.43545000  1.0
  H  H5  1  0.87854000  0.62001000  0.43432000  1.0
  H  H6  1  0.88316000  0.38503000  0.61897000  1.0
  H  H7  1  0.87769000  0.26337000  0.57145000  1.0
  H  H8  1  0.13960000  0.25869000  0.57180000  1.0
  H  H9  1  0.14402000  0.38088000  0.61926000  1.0
  H  H10  1  0.27416000  0.88835000  0.50169000  1.0
  H  H11  1  0.27882000  0.11221000  0.50261000  1.0
  H  H12  1  0.81587000  0.10907000  0.45984000  1.0
  H  H13  1  0.82553000  0.10026000  0.53285000  1.0
  H  H14  1  0.82127000  0.87490000  0.52839000  1.0
  H  H15  1  0.80754000  0.88204000  0.45545000  1.0
  H  H16  1  0.67706000  0.49998000  0.86453000  1.0
  H  H17  1  0.23575000  0.50763000  0.87325000  1.0
  H  H18  1  0.32349000  0.50183000  0.68008000  1.0
  H  H19  1  0.76490000  0.50706000  0.67149000  1.0
  H  H20  1  0.72952000  0.49356000  0.32144000  1.0
  H  H21  1  0.71740000  0.49278000  0.21941000  1.0
  H  H22  1  0.17668000  0.58193000  0.22389000  1.0
  H  H23  1  0.17412000  0.42151000  0.22439000  1.0
  H  H24  1  0.18672000  0.42335000  0.32787000  1.0
  H  H25  1  0.19005000  0.58386000  0.32680000  1.0
  H  H26  1  0.86170000  0.61622000  0.10877000  1.0
  H  H27  1  0.12183000  0.61714000  0.11105000  1.0
  H  H28  1  0.12148000  0.38463000  0.92639000  1.0
  H  H29  1  0.12618000  0.26215000  0.97365000  1.0
  H  H30  1  0.86409000  0.25760000  0.97257000  1.0
  H  H31  1  0.86060000  0.37998000  0.92496000  1.0
  H  H32  1  0.72483000  0.88634000  0.04258000  1.0
  H  H33  1  0.72026000  0.11025000  0.04162000  1.0
  H  H34  1  0.18352000  0.10730000  0.08535000  1.0
  H  H35  1  0.17319000  0.09869000  0.01238000  1.0
  H  H36  1  0.17754000  0.87341000  0.01707000  1.0
  H  H37  1  0.19213000  0.88024000  0.08998000  1.0
  C  C38  1  0.49937000  0.26155000  0.50168000  1.0
  C  C39  1  0.53109000  0.50129000  0.60832000  1.0
  C  C40  1  0.49156000  0.73312000  0.49843000  1.0
  C  C41  1  0.51851000  0.49748000  0.39274000  1.0
  C  C42  1  0.49979000  0.25972000  0.04280000  1.0
  C  C43  1  0.47032000  0.50020000  0.93642000  1.0
  C  C44  1  0.50716000  0.73132000  0.04621000  1.0
  C  C45  1  0.49074000  0.49535000  0.15220000  1.0
  C  C46  1  0.93871000  0.43600000  0.53494000  1.0
  C  C47  1  0.08081000  0.56477000  0.46439000  1.0
  C  C48  1  0.08199000  0.43365000  0.53503000  1.0
  C  C49  1  0.93738000  0.56624000  0.46399000  1.0
  C  C50  1  0.92930000  0.34826000  0.58202000  1.0
  C  C51  1  0.09287000  0.34541000  0.58213000  1.0
  C  C52  1  0.49901000  0.12719000  0.50042000  1.0
  C  C53  1  0.49382000  0.86729000  0.49828000  1.0
  C  C54  1  0.61861000  0.05844000  0.49806000  1.0
  C  C55  1  0.37202000  0.93602000  0.50050000  1.0
  C  C56  1  0.61578000  0.93268000  0.49672000  1.0
  C  C57  1  0.37469000  0.06158000  0.50132000  1.0
  C  C58  1  0.77421000  0.06368000  0.49589000  1.0
  C  C59  1  0.77059000  0.92149000  0.49367000  1.0
  C  C60  1  0.57675000  0.50049000  0.84392000  1.0
  C  C61  1  0.32767000  0.50390000  0.84878000  1.0
  C  C62  1  0.31801000  0.50289000  0.79268000  1.0
  C  C63  1  0.43409000  0.50156000  0.75859000  1.0
  C  C64  1  0.42378000  0.50165000  0.70073000  1.0
  C  C65  1  0.67298000  0.50388000  0.69597000  1.0
  C  C66  1  0.68255000  0.50232000  0.75204000  1.0
  C  C67  1  0.56639000  0.50112000  0.78609000  1.0
  C  C68  1  0.45947000  0.50167000  0.87489000  1.0
  C  C69  1  0.54119000  0.50255000  0.66984000  1.0
  C  C70  1  0.49673000  0.49678000  0.21334000  1.0
  C  C71  1  0.51043000  0.49780000  0.33165000  1.0
  C  C72  1  0.37917000  0.49918000  0.24497000  1.0
  C  C73  1  0.63001000  0.49549000  0.29997000  1.0
  C  C74  1  0.38597000  0.49979000  0.30225000  1.0
  C  C75  1  0.62328000  0.49505000  0.24279000  1.0
  C  C76  1  0.22313000  0.50129000  0.24283000  1.0
  C  C77  1  0.23110000  0.50229000  0.30765000  1.0
  C  C78  1  0.06400000  0.43417000  0.01019000  1.0
  C  C79  1  0.92025000  0.56274000  0.08006000  1.0
  C  C80  1  0.92070000  0.43228000  0.00943000  1.0
  C  C81  1  0.06372000  0.56370000  0.08113000  1.0
  C  C82  1  0.07456000  0.34714000  0.96309000  1.0
  C  C83  1  0.91089000  0.34440000  0.96232000  1.0
  C  C84  1  0.50015000  0.12538000  0.04412000  1.0
  C  C85  1  0.50525000  0.86553000  0.04641000  1.0
  C  C86  1  0.38054000  0.05675000  0.04685000  1.0
  C  C87  1  0.62707000  0.93412000  0.04391000  1.0
  C  C88  1  0.38338000  0.93101000  0.04829000  1.0
  C  C89  1  0.62439000  0.05968000  0.04302000  1.0
  C  C90  1  0.22492000  0.06205000  0.04930000  1.0
  C  C91  1  0.22861000  0.91985000  0.05166000  1.0
  N  N92  1  0.86305000  0.50081000  0.49994000  1.0
  N  N93  1  0.15641000  0.49696000  0.50042000  1.0
  N  N94  1  0.13894000  0.49837000  0.04557000  1.0
  N  N95  1  0.84544000  0.49548000  0.04368000  1.0
  O  O96  1  0.38301000  0.31413000  0.50384000  1.0
  O  O97  1  0.61603000  0.31375000  0.50051000  1.0
  O  O98  1  0.64472000  0.49989000  0.58337000  1.0
  O  O99  1  0.41174000  0.50105000  0.58592000  1.0
  O  O100  1  0.60789000  0.68018000  0.49792000  1.0
  O  O101  1  0.37466000  0.68138000  0.49947000  1.0
  O  O102  1  0.40484000  0.49649000  0.41779000  1.0
  O  O103  1  0.63796000  0.49796000  0.41544000  1.0
  O  O104  1  0.61615000  0.31236000  0.04119000  1.0
  O  O105  1  0.38295000  0.31181000  0.04344000  1.0
  O  O106  1  0.35725000  0.50069000  0.96172000  1.0
  O  O107  1  0.59012000  0.49806000  0.95841000  1.0
  O  O108  1  0.39073000  0.67878000  0.04780000  1.0
  O  O109  1  0.62373000  0.67927000  0.04408000  1.0
  O  O110  1  0.60386000  0.49545000  0.12687000  1.0
  O  O111  1  0.37076000  0.49388000  0.12981000  1.0
  F  F112  1  0.80953000  0.50236000  0.77713000  1.0
  F  F113  1  0.19100000  0.50389000  0.76763000  1.0
