# generated using pymatgen
data_NiH14C14(N2O)4
_symmetry_space_group_name_H-M   'P 1'
_cell_length_a   7.67979000
_cell_length_b   8.86429000
_cell_length_c   12.90000000
_cell_angle_alpha   89.99890000
_cell_angle_beta   90.00000000
_cell_angle_gamma   99.15090000
_symmetry_Int_Tables_number   1
_chemical_formula_structural   NiH14C14(N2O)4
_chemical_formula_sum   'Ni2 H28 C28 N16 O8'
_cell_volume   867.00226651
_cell_formula_units_Z   2
loop_
 _symmetry_equiv_pos_site_id
 _symmetry_equiv_pos_as_xyz
  1  'x, y, z'
loop_
 _atom_site_type_symbol
 _atom_site_label
 _atom_site_symmetry_multiplicity
 _atom_site_fract_x
 _atom_site_fract_y
 _atom_site_fract_z
 _atom_site_occupancy
  Ni  Ni0  1  0.00000000  0.00000000  0.00000000  1.0
  Ni  Ni1  1  0.00000000  0.50001000  0.50000000  1.0
  H  H2  1  0.65220000  0.93051000  0.96389000  1.0
  H  H3  1  0.34781000  0.56948000  0.46389000  1.0
  H  H4  1  0.34779000  0.06948000  0.03611000  1.0
  H  H5  1  0.65220000  0.43052000  0.53611000  1.0
  H  H6  1  0.67053000  0.05083000  0.05732000  1.0
  H  H7  1  0.32947000  0.44917000  0.55732000  1.0
  H  H8  1  0.32947000  0.94917000  0.94268000  1.0
  H  H9  1  0.67053000  0.55083000  0.44268000  1.0
  H  H10  1  0.27199000  0.86541000  0.56353000  1.0
  H  H11  1  0.72802000  0.63458000  0.06353000  1.0
  H  H12  1  0.72801000  0.13459000  0.43647000  1.0
  H  H13  1  0.27197000  0.36540000  0.93647000  1.0
  H  H14  1  0.23635000  0.89865000  0.75464000  1.0
  H  H15  1  0.76366000  0.60135000  0.25465000  1.0
  H  H16  1  0.76365000  0.10134000  0.24536000  1.0
  H  H17  1  0.23634000  0.39865000  0.74535000  1.0
  H  H18  1  0.74913000  0.76339000  0.79605000  1.0
  H  H19  1  0.25087000  0.73662000  0.29605000  1.0
  H  H20  1  0.25088000  0.23661000  0.20396000  1.0
  H  H21  1  0.74913000  0.26337000  0.70396000  1.0
  H  H22  1  0.76895000  0.74179000  0.60212000  1.0
  H  H23  1  0.23106000  0.75820000  0.10212000  1.0
  H  H24  1  0.23106000  0.25821000  0.39788000  1.0
  H  H25  1  0.76894000  0.24178000  0.89789000  1.0
  H  H26  1  0.52812000  0.78196000  0.50054000  1.0
  H  H27  1  0.47189000  0.71803000  0.00054000  1.0
  H  H28  1  0.47189000  0.21805000  0.49946000  1.0
  H  H29  1  0.52811000  0.28196000  0.99947000  1.0
  C  C30  1  0.99887000  0.82251000  0.40236000  1.0
  C  C31  1  0.00114000  0.67750000  0.90236000  1.0
  C  C32  1  0.00113000  0.17750000  0.59764000  1.0
  C  C33  1  0.99885000  0.32250000  0.09764000  1.0
  C  C34  1  0.00478000  0.93988000  0.24369000  1.0
  C  C35  1  0.99522000  0.56015000  0.74369000  1.0
  C  C36  1  0.99521000  0.06013000  0.75631000  1.0
  C  C37  1  0.00478000  0.43987000  0.25631000  1.0
  C  C38  1  0.37521000  0.85025000  0.61856000  1.0
  C  C39  1  0.62479000  0.64976000  0.11856000  1.0
  C  C40  1  0.62479000  0.14976000  0.38145000  1.0
  C  C41  1  0.37520000  0.35025000  0.88144000  1.0
  C  C42  1  0.35577000  0.86474000  0.72355000  1.0
  C  C43  1  0.64423000  0.63526000  0.22355000  1.0
  C  C44  1  0.64422000  0.13524000  0.27646000  1.0
  C  C45  1  0.35577000  0.36474000  0.77645000  1.0
  C  C46  1  0.48960000  0.83194000  0.79276000  1.0
  C  C47  1  0.51041000  0.66806000  0.29275000  1.0
  C  C48  1  0.51042000  0.16806000  0.20725000  1.0
  C  C49  1  0.48961000  0.33193000  0.70725000  1.0
  C  C50  1  0.64250000  0.78759000  0.74652000  1.0
  C  C51  1  0.35750000  0.71240000  0.24652000  1.0
  C  C52  1  0.35750000  0.21239000  0.25348000  1.0
  C  C53  1  0.64250000  0.28758000  0.75349000  1.0
  C  C54  1  0.65607000  0.77728000  0.64079000  1.0
  C  C55  1  0.34393000  0.72271000  0.14079000  1.0
  C  C56  1  0.34392000  0.22272000  0.35920000  1.0
  C  C57  1  0.65607000  0.27728000  0.85922000  1.0
  N  N58  1  0.02529000  0.95810000  0.15387000  1.0
  N  N59  1  0.97471000  0.54189000  0.65387000  1.0
  N  N60  1  0.97470000  0.04189000  0.84612000  1.0
  N  N61  1  0.02528000  0.45812000  0.34611000  1.0
  N  N62  1  0.97820000  0.93561000  0.34300000  1.0
  N  N63  1  0.02180000  0.56441000  0.84300000  1.0
  N  N64  1  0.02180000  0.06440000  0.65699000  1.0
  N  N65  1  0.97818000  0.43560000  0.15699000  1.0
  N  N66  1  0.01737000  0.72692000  0.46328000  1.0
  N  N67  1  0.98265000  0.77309000  0.96328000  1.0
  N  N68  1  0.98264000  0.27310000  0.53671000  1.0
  N  N69  1  0.01736000  0.22691000  0.03671000  1.0
  N  N70  1  0.52424000  0.80927000  0.57862000  1.0
  N  N71  1  0.47577000  0.69073000  0.07862000  1.0
  N  N72  1  0.47576000  0.19072000  0.42139000  1.0
  N  N73  1  0.52422000  0.30926000  0.92138000  1.0
  O  O74  1  0.72993000  0.97222000  0.02210000  1.0
  O  O75  1  0.27007000  0.52778000  0.52210000  1.0
  O  O76  1  0.27007000  0.02778000  0.97790000  1.0
  O  O77  1  0.72994000  0.47222000  0.47790000  1.0
  O  O78  1  0.47248000  0.84153000  0.89260000  1.0
  O  O79  1  0.52752000  0.65847000  0.39260000  1.0
  O  O80  1  0.52752000  0.15845000  0.10740000  1.0
  O  O81  1  0.47247000  0.34153000  0.60740000  1.0
