# generated using pymatgen
data_CdH4C8SN10O
_symmetry_space_group_name_H-M   'P 1'
_cell_length_a   7.17330000
_cell_length_b   11.67530000
_cell_length_c   14.72490000
_cell_angle_alpha   89.99910000
_cell_angle_beta   80.29680000
_cell_angle_gamma   89.99810000
_symmetry_Int_Tables_number   1
_chemical_formula_structural   CdH4C8SN10O
_chemical_formula_sum   'Cd4 H16 C32 S4 N40 O4'
_cell_volume   1215.57437107
_cell_formula_units_Z   4
loop_
 _symmetry_equiv_pos_site_id
 _symmetry_equiv_pos_as_xyz
  1  'x, y, z'
loop_
 _atom_site_type_symbol
 _atom_site_label
 _atom_site_symmetry_multiplicity
 _atom_site_fract_x
 _atom_site_fract_y
 _atom_site_fract_z
 _atom_site_occupancy
  Cd  Cd0  1  0.62738000  0.56342000  0.86278000  1.0
  Cd  Cd1  1  0.87262000  0.06342000  0.13722000  1.0
  Cd  Cd2  1  0.37261000  0.43658000  0.13722000  1.0
  Cd  Cd3  1  0.12738000  0.93657000  0.86278000  1.0
  H  H4  1  0.00287000  0.59867000  0.91844000  1.0
  H  H5  1  0.49713000  0.09866000  0.08155000  1.0
  H  H6  1  0.99715000  0.40134000  0.08155000  1.0
  H  H7  1  0.50286000  0.90134000  0.91845000  1.0
  H  H8  1  0.98165000  0.46125000  0.90866000  1.0
  H  H9  1  0.51836000  0.96125000  0.09135000  1.0
  H  H10  1  0.01836000  0.53875000  0.09134000  1.0
  H  H11  1  0.48164000  0.03875000  0.90866000  1.0
  H  H12  1  0.84717000  0.02492000  0.62939000  1.0
  H  H13  1  0.65283000  0.52491000  0.37060000  1.0
  H  H14  1  0.15282000  0.97509000  0.37061000  1.0
  H  H15  1  0.34718000  0.47508000  0.62939000  1.0
  H  H16  1  0.68610000  0.06998000  0.78327000  1.0
  H  H17  1  0.81389000  0.56997000  0.21673000  1.0
  H  H18  1  0.31389000  0.93003000  0.21674000  1.0
  H  H19  1  0.18611000  0.43002000  0.78326000  1.0
  C  C20  1  0.76601000  0.34301000  0.70595000  1.0
  C  C21  1  0.73398000  0.84301000  0.29405000  1.0
  C  C22  1  0.23397000  0.65700000  0.29406000  1.0
  C  C23  1  0.26603000  0.15699000  0.70594000  1.0
  C  C24  1  0.86367000  0.31619000  0.61451000  1.0
  C  C25  1  0.63632000  0.81618000  0.38549000  1.0
  C  C26  1  0.13632000  0.68382000  0.38550000  1.0
  C  C27  1  0.36369000  0.18381000  0.61451000  1.0
  C  C28  1  0.89249000  0.20021000  0.58541000  1.0
  C  C29  1  0.60749000  0.70021000  0.41460000  1.0
  C  C30  1  0.10750000  0.79979000  0.41460000  1.0
  C  C31  1  0.39252000  0.29978000  0.58540000  1.0
  C  C32  1  0.82502000  0.11490000  0.64822000  1.0
  C  C33  1  0.67497000  0.61490000  0.35177000  1.0
  C  C34  1  0.17497000  0.88510000  0.35178000  1.0
  C  C35  1  0.32504000  0.38510000  0.64821000  1.0
  C  C36  1  0.73046000  0.14162000  0.73736000  1.0
  C  C37  1  0.76953000  0.64162000  0.26264000  1.0
  C  C38  1  0.26952000  0.85838000  0.26265000  1.0
  C  C39  1  0.23047000  0.35837000  0.73735000  1.0
  C  C40  1  0.69709000  0.25353000  0.76891000  1.0
  C  C41  1  0.80289000  0.75353000  0.23108000  1.0
  C  C42  1  0.30288000  0.74647000  0.23109000  1.0
  C  C43  1  0.19710000  0.24647000  0.76891000  1.0
  C  C44  1  0.99030000  0.17298000  0.49601000  1.0
  C  C45  1  0.50970000  0.67297000  0.50398000  1.0
  C  C46  1  0.00969000  0.82703000  0.50400000  1.0
  C  C47  1  0.49032000  0.32702000  0.49600000  1.0
  C  C48  1  0.60057000  0.27193000  0.86303000  1.0
  C  C49  1  0.89942000  0.77193000  0.13696000  1.0
  C  C50  1  0.39941000  0.72807000  0.13697000  1.0
  C  C51  1  0.10058000  0.22807000  0.86303000  1.0
  S  S52  1  0.86006000  0.52073000  0.62719000  1.0
  S  S53  1  0.63994000  0.02072000  0.37280000  1.0
  S  S54  1  0.13993000  0.47928000  0.37282000  1.0
  S  S55  1  0.36006000  0.97927000  0.62719000  1.0
  N  N56  1  0.34410000  0.59952000  0.81616000  1.0
  N  N57  1  0.15590000  0.09952000  0.18384000  1.0
  N  N58  1  0.65589000  0.40048000  0.18384000  1.0
  N  N59  1  0.84409000  0.90047000  0.81617000  1.0
  N  N60  1  0.30414000  0.69335000  0.79521000  1.0
  N  N61  1  0.19585000  0.19335000  0.20478000  1.0
  N  N62  1  0.69585000  0.30664000  0.20478000  1.0
  N  N63  1  0.80415000  0.80664000  0.79522000  1.0
  N  N64  1  0.26046000  0.78494000  0.77231000  1.0
  N  N65  1  0.23952000  0.28495000  0.22769000  1.0
  N  N66  1  0.73952000  0.21505000  0.22768000  1.0
  N  N67  1  0.76048000  0.71505000  0.77231000  1.0
  N  N68  1  0.75515000  0.45723000  0.72043000  1.0
  N  N69  1  0.74485000  0.95723000  0.27957000  1.0
  N  N70  1  0.24485000  0.54278000  0.27957000  1.0
  N  N71  1  0.25515000  0.04277000  0.72043000  1.0
  N  N72  1  0.92259000  0.40941000  0.56409000  1.0
  N  N73  1  0.57739000  0.90940000  0.43591000  1.0
  N  N74  1  0.07740000  0.59060000  0.43592000  1.0
  N  N75  1  0.42261000  0.09059000  0.56408000  1.0
  N  N76  1  0.07259000  0.14821000  0.42332000  1.0
  N  N77  1  0.42742000  0.64820000  0.57669000  1.0
  N  N78  1  0.92741000  0.85180000  0.57670000  1.0
  N  N79  1  0.57261000  0.35180000  0.42330000  1.0
  N  N80  1  0.53755000  0.18383000  0.91953000  1.0
  N  N81  1  0.96250000  0.68383000  0.08047000  1.0
  N  N82  1  0.46247000  0.81617000  0.08048000  1.0
  N  N83  1  0.03754000  0.31617000  0.91952000  1.0
  N  N84  1  0.46235000  0.23002000  0.99987000  1.0
  N  N85  1  0.03771000  0.73002000  0.00013000  1.0
  N  N86  1  0.53768000  0.76998000  0.00014000  1.0
  N  N87  1  0.96233000  0.26998000  0.99986000  1.0
  N  N88  1  0.47721000  0.34278000  0.99356000  1.0
  N  N89  1  0.02280000  0.84279000  0.00644000  1.0
  N  N90  1  0.52280000  0.65722000  0.00645000  1.0
  N  N91  1  0.97720000  0.15722000  0.99356000  1.0
  N  N92  1  0.56277000  0.37205000  0.90864000  1.0
  N  N93  1  0.93719000  0.87205000  0.09135000  1.0
  N  N94  1  0.43721000  0.62795000  0.09137000  1.0
  N  N95  1  0.06277000  0.12795000  0.90863000  1.0
  O  O96  1  0.92570000  0.53740000  0.89813000  1.0
  O  O97  1  0.57429000  0.03740000  0.10187000  1.0
  O  O98  1  0.07429000  0.46261000  0.10188000  1.0
  O  O99  1  0.42571000  0.96260000  0.89812000  1.0
