# generated using pymatgen
data_ZnH28C22N6O5
_symmetry_space_group_name_H-M   'P 1'
_cell_length_a   9.78126000
_cell_length_b   10.25240000
_cell_length_c   14.07887021
_cell_angle_alpha   92.49573490
_cell_angle_beta   106.83976345
_cell_angle_gamma   115.99800000
_symmetry_Int_Tables_number   1
_chemical_formula_structural   ZnH28C22N6O5
_chemical_formula_sum   'Zn2 H56 C44 N12 O10'
_cell_volume   1190.46481009
_cell_formula_units_Z   2
loop_
 _symmetry_equiv_pos_site_id
 _symmetry_equiv_pos_as_xyz
  1  'x, y, z'
loop_
 _atom_site_type_symbol
 _atom_site_label
 _atom_site_symmetry_multiplicity
 _atom_site_fract_x
 _atom_site_fract_y
 _atom_site_fract_z
 _atom_site_occupancy
  Zn  Zn0  1  0.69424000  0.31673000  0.37616000  1.0
  Zn  Zn1  1  0.30576000  0.68326000  0.62384000  1.0
  H  H2  1  0.40687000  0.98465000  0.25997000  1.0
  H  H3  1  0.59313000  0.01535000  0.74004000  1.0
  H  H4  1  0.42100000  0.39667000  0.23488000  1.0
  H  H5  1  0.57901000  0.60333000  0.76512000  1.0
  H  H6  1  0.12331000  0.82129000  0.14583000  1.0
  H  H7  1  0.87669000  0.17871000  0.85419000  1.0
  H  H8  1  0.08748000  0.89212000  0.03336000  1.0
  H  H9  1  0.91252000  0.10787000  0.96665000  1.0
  H  H10  1  0.90045000  0.96138000  0.07454000  1.0
  H  H11  1  0.09957000  0.03864000  0.92547000  1.0
  H  H12  1  0.95368000  0.92801000  0.19858000  1.0
  H  H13  1  0.04631000  0.07199000  0.80143000  1.0
  H  H14  1  0.80430000  0.68927000  0.00760000  1.0
  H  H15  1  0.19569000  0.31075000  0.99240000  1.0
  H  H16  1  0.84386000  0.66252000  0.13407000  1.0
  H  H17  1  0.15610000  0.33747000  0.86592000  1.0
  H  H18  1  0.59824000  0.76053000  0.02055000  1.0
  H  H19  1  0.40178000  0.23951000  0.97944000  1.0
  H  H20  1  0.64905000  0.75528000  0.15096000  1.0
  H  H21  1  0.35093000  0.24475000  0.84902000  1.0
  H  H22  1  0.56148000  0.48396000  0.10995000  1.0
  H  H23  1  0.43849000  0.51606000  0.89003000  1.0
  H  H24  1  0.40340000  0.52830000  0.05983000  1.0
  H  H25  1  0.59656000  0.47173000  0.94014000  1.0
  H  H26  1  0.91826000  0.57849000  0.56350000  1.0
  H  H27  1  0.08175000  0.42150000  0.43651000  1.0
  H  H28  1  0.55788000  0.15603000  0.56621000  1.0
  H  H29  1  0.44212000  0.84395000  0.43379000  1.0
  H  H30  1  0.00674000  0.69477000  0.74096000  1.0
  H  H31  1  0.99326000  0.30522000  0.25904000  1.0
  H  H32  1  0.86671000  0.61693000  0.80598000  1.0
  H  H33  1  0.13329000  0.38306000  0.19402000  1.0
  H  H34  1  0.12731000  0.52884000  0.80097000  1.0
  H  H35  1  0.87270000  0.47116000  0.19904000  1.0
  H  H36  1  0.99111000  0.45667000  0.86813000  1.0
  H  H37  1  0.00890000  0.54334000  0.13188000  1.0
  H  H38  1  0.10947000  0.72171000  0.96540000  1.0
  H  H39  1  0.89053000  0.27829000  0.03460000  1.0
  H  H40  1  0.23444000  0.63708000  0.99440000  1.0
  H  H41  1  0.76556000  0.36293000  0.00560000  1.0
  H  H42  1  0.26444000  0.85770000  0.85058000  1.0
  H  H43  1  0.73556000  0.14230000  0.14942000  1.0
  H  H44  1  0.38830000  0.77319000  0.88791000  1.0
  H  H45  1  0.61170000  0.22682000  0.11209000  1.0
  H  H46  1  0.35423000  0.98948000  0.02553000  1.0
  H  H47  1  0.64578000  0.01052000  0.97447000  1.0
  H  H48  1  0.46197000  0.89265000  0.07280000  1.0
  H  H49  1  0.53803000  0.10735000  0.92720000  1.0
  H  H50  1  0.63919000  0.79274000  0.35258000  1.0
  H  H51  1  0.36082000  0.20725000  0.64742000  1.0
  H  H52  1  0.07721000  0.76665000  0.38327000  1.0
  H  H53  1  0.92281000  0.23335000  0.61673000  1.0
  H  H54  1  0.08256000  0.18984000  0.39468000  1.0
  H  H55  1  0.91745000  0.81016000  0.60533000  1.0
  H  H56  1  0.30630000  0.15694000  0.42332000  1.0
  H  H57  1  0.69370000  0.84305000  0.57668000  1.0
  C  C58  1  0.37547000  0.06992000  0.23559000  1.0
  C  C59  1  0.62453000  0.93008000  0.76442000  1.0
  C  C60  1  0.37863000  0.27820000  0.22076000  1.0
  C  C61  1  0.62137000  0.72178000  0.77923000  1.0
  C  C62  1  0.09599000  0.90618000  0.11308000  1.0
  C  C63  1  0.90401000  0.09381000  0.88693000  1.0
  C  C64  1  0.93728000  0.89028000  0.12001000  1.0
  C  C65  1  0.06271000  0.10971000  0.87999000  1.0
  C  C66  1  0.80810000  0.72895000  0.08274000  1.0
  C  C67  1  0.19188000  0.27105000  0.91725000  1.0
  C  C68  1  0.64046000  0.70373000  0.07771000  1.0
  C  C69  1  0.35954000  0.29630000  0.92228000  1.0
  C  C70  1  0.51707000  0.53964000  0.05266000  1.0
  C  C71  1  0.48291000  0.46039000  0.94732000  1.0
  C  C72  1  0.83472000  0.48343000  0.58491000  1.0
  C  C73  1  0.16528000  0.51657000  0.41510000  1.0
  C  C74  1  0.65488000  0.26971000  0.58920000  1.0
  C  C75  1  0.34513000  0.73029000  0.41081000  1.0
  C  C76  1  0.94214000  0.59599000  0.76932000  1.0
  C  C77  1  0.05786000  0.40401000  0.23068000  1.0
  C  C78  1  0.06115000  0.55678000  0.84258000  1.0
  C  C79  1  0.93886000  0.44323000  0.15743000  1.0
  C  C80  1  0.17904000  0.68242000  0.93435000  1.0
  C  C81  1  0.82097000  0.31760000  0.06566000  1.0
  C  C82  1  0.31499000  0.81364000  0.91373000  1.0
  C  C83  1  0.68501000  0.18636000  0.08627000  1.0
  C  C84  1  0.42458000  0.93908000  0.00677000  1.0
  C  C85  1  0.57543000  0.06092000  0.99323000  1.0
  C  C86  1  0.85066000  0.00042000  0.37072000  1.0
  C  C87  1  0.14934000  0.99957000  0.62928000  1.0
  C  C88  1  0.76700000  0.84699000  0.36106000  1.0
  C  C89  1  0.23300000  0.15300000  0.63893000  1.0
  C  C90  1  0.84819000  0.76288000  0.36509000  1.0
  C  C91  1  0.15183000  0.23712000  0.63491000  1.0
  C  C92  1  0.01335000  0.83168000  0.37824000  1.0
  C  C93  1  0.98666000  0.16831000  0.62175000  1.0
  C  C94  1  0.09729000  0.98564000  0.38945000  1.0
  C  C95  1  0.90272000  0.01436000  0.61055000  1.0
  C  C96  1  0.01610000  0.06973000  0.38470000  1.0
  C  C97  1  0.98389000  0.93026000  0.61529000  1.0
  C  C98  1  0.76304000  0.08893000  0.37167000  1.0
  C  C99  1  0.23696000  0.91106000  0.62833000  1.0
  C  C100  1  0.75656000  0.60030000  0.36357000  1.0
  C  C101  1  0.24346000  0.39971000  0.63644000  1.0
  N  N102  1  0.47005000  0.21585000  0.27067000  1.0
  N  N103  1  0.52995000  0.78414000  0.72933000  1.0
  N  N104  1  0.23535000  0.04762000  0.16792000  1.0
  N  N105  1  0.76465000  0.95237000  0.83208000  1.0
  N  N106  1  0.23443000  0.17899000  0.15709000  1.0
  N  N107  1  0.76558000  0.82101000  0.84291000  1.0
  N  N108  1  0.72139000  0.35250000  0.52507000  1.0
  N  N109  1  0.27861000  0.64749000  0.47493000  1.0
  N  N110  1  0.72144000  0.34322000  0.68445000  1.0
  N  N111  1  0.27857000  0.65678000  0.31556000  1.0
  N  N112  1  0.83483000  0.47878000  0.67971000  1.0
  N  N113  1  0.16519000  0.52122000  0.32030000  1.0
  O  O114  1  0.83795000  0.22762000  0.36595000  1.0
  O  O115  1  0.16205000  0.77237000  0.63406000  1.0
  O  O116  1  0.62448000  0.02930000  0.37823000  1.0
  O  O117  1  0.37553000  0.97068000  0.62177000  1.0
  O  O118  1  0.61991000  0.54914000  0.37285000  1.0
  O  O119  1  0.38011000  0.45085000  0.62715000  1.0
  O  O120  1  0.82816000  0.52108000  0.35571000  1.0
  O  O121  1  0.17187000  0.47892000  0.64430000  1.0
  O  O122  1  0.25997000  0.04970000  0.40533000  1.0
  O  O123  1  0.74004000  0.95030000  0.59467000  1.0
