# generated using pymatgen
data_ZnH11C16I2NO5
_symmetry_space_group_name_H-M   'P 1'
_cell_length_a   9.70186000
_cell_length_b   10.96700000
_cell_length_c   16.17270000
_cell_angle_alpha   91.16600000
_cell_angle_beta   90.86660000
_cell_angle_gamma   90.46290000
_symmetry_Int_Tables_number   1
_chemical_formula_structural   ZnH11C16I2NO5
_chemical_formula_sum   'Zn2 H22 C32 I4 N2 O10'
_cell_volume   1720.16647311
_cell_formula_units_Z   2
loop_
 _symmetry_equiv_pos_site_id
 _symmetry_equiv_pos_as_xyz
  1  'x, y, z'
loop_
 _atom_site_type_symbol
 _atom_site_label
 _atom_site_symmetry_multiplicity
 _atom_site_fract_x
 _atom_site_fract_y
 _atom_site_fract_z
 _atom_site_occupancy
  Zn  Zn0  1  0.35367000  0.49916000  0.49698000  1.0
  Zn  Zn1  1  0.64550000  0.50324000  0.50180000  1.0
  H  H2  1  0.67082000  0.64740000  0.05417000  1.0
  H  H3  1  0.33029000  0.35228000  0.94401000  1.0
  H  H4  1  0.70141000  0.88024000  0.45565000  1.0
  H  H5  1  0.29543000  0.12303000  0.54171000  1.0
  H  H6  1  0.71144000  0.10979000  0.45613000  1.0
  H  H7  1  0.28563000  0.89325000  0.54160000  1.0
  H  H8  1  0.85516000  0.37374000  0.40755000  1.0
  H  H9  1  0.14420000  0.62353000  0.59436000  1.0
  H  H10  1  0.19011000  0.39264000  0.26950000  1.0
  H  H11  1  0.01928000  0.43952000  0.29316000  1.0
  H  H12  1  0.11578000  0.17368000  0.27980000  1.0
  H  H13  1  0.94578000  0.21972000  0.30215000  1.0
  H  H14  1  0.92766000  0.32138000  0.16286000  1.0
  H  H15  1  0.96541000  0.16439000  0.15099000  1.0
  H  H16  1  0.09800000  0.27534000  0.14032000  1.0
  H  H17  1  0.81351000  0.83103000  0.59867000  1.0
  H  H18  1  0.98256000  0.79797000  0.56333000  1.0
  H  H19  1  0.88818000  0.78774000  0.74367000  1.0
  H  H20  1  0.05679000  0.75487000  0.71030000  1.0
  H  H21  1  0.08215000  0.96999000  0.65789000  1.0
  H  H22  1  0.04331000  0.97155000  0.76466000  1.0
  H  H23  1  0.91243000  0.00356000  0.69067000  1.0
  C  C24  1  0.48871000  0.73772000  0.49929000  1.0
  C  C25  1  0.50834000  0.26546000  0.49859000  1.0
  C  C26  1  0.61892000  0.06135000  0.47497000  1.0
  C  C27  1  0.37825000  0.94180000  0.52304000  1.0
  C  C28  1  0.50389000  0.12907000  0.49908000  1.0
  C  C29  1  0.49332000  0.87407000  0.49906000  1.0
  C  C30  1  0.92110000  0.43156000  0.44717000  1.0
  C  C31  1  0.07821000  0.57172000  0.55110000  1.0
  C  C32  1  0.06515000  0.43048000  0.44221000  1.0
  C  C33  1  0.93407000  0.57844000  0.55245000  1.0
  C  C34  1  0.48776000  0.50168000  0.66116000  1.0
  C  C35  1  0.51429000  0.50039000  0.33694000  1.0
  C  C36  1  0.37341000  0.53021000  0.02568000  1.0
  C  C37  1  0.62787000  0.46943000  0.97258000  1.0
  C  C38  1  0.46982000  0.61283000  0.97244000  1.0
  C  C39  1  0.53127000  0.38687000  0.02576000  1.0
  C  C40  1  0.49255000  0.50010000  0.75080000  1.0
  C  C41  1  0.50901000  0.50013000  0.24732000  1.0
  C  C42  1  0.40593000  0.41793000  0.96890000  1.0
  C  C43  1  0.59517000  0.58172000  0.02929000  1.0
  C  C44  1  0.50086000  0.49889000  0.91315000  1.0
  C  C45  1  0.50030000  0.50078000  0.08499000  1.0
  C  C46  1  0.49754000  0.49866000  0.82602000  1.0
  C  C47  1  0.50346000  0.50097000  0.17209000  1.0
  C  C48  1  0.61361000  0.93460000  0.47495000  1.0
  C  C49  1  0.38354000  0.06857000  0.52315000  1.0
  C  C50  1  0.09503000  0.36616000  0.30102000  1.0
  C  C51  1  0.03898000  0.24486000  0.26812000  1.0
  C  C52  1  0.00577000  0.25182000  0.17552000  1.0
  C  C53  1  0.90729000  0.77862000  0.61183000  1.0
  C  C54  1  0.96539000  0.81056000  0.69720000  1.0
  C  C55  1  0.00280000  0.94636000  0.70290000  1.0
  I  I56  1  0.42530000  0.78907000  0.93123000  1.0
  I  I57  1  0.57540000  0.21069000  0.06730000  1.0
  I  I58  1  0.17498000  0.57479000  0.06630000  1.0
  I  I59  1  0.82680000  0.42501000  0.93300000  1.0
  N  N60  1  0.14086000  0.49907000  0.49613000  1.0
  N  N61  1  0.85837000  0.50516000  0.50144000  1.0
  O  O62  1  0.37075000  0.68614000  0.50048000  1.0
  O  O63  1  0.62520000  0.31699000  0.48958000  1.0
  O  O64  1  0.60460000  0.68382000  0.49835000  1.0
  O  O65  1  0.39373000  0.31977000  0.50727000  1.0
  O  O66  1  0.36968000  0.51362000  0.62736000  1.0
  O  O67  1  0.63318000  0.50125000  0.37081000  1.0
  O  O68  1  0.60327000  0.49076000  0.62572000  1.0
  O  O69  1  0.39786000  0.49983000  0.37215000  1.0
  O  O70  1  0.13513000  0.36124000  0.38848000  1.0
  O  O71  1  0.86327000  0.65139000  0.60345000  1.0
