# generated using pymatgen
data_ZnH18C26(NO3)2
_symmetry_space_group_name_H-M   'P 1'
_cell_length_a   9.81925000
_cell_length_b   11.19960000
_cell_length_c   27.80493774
_cell_angle_alpha   88.17099849
_cell_angle_beta   81.57532055
_cell_angle_gamma   85.23260000
_symmetry_Int_Tables_number   1
_chemical_formula_structural   ZnH18C26(NO3)2
_chemical_formula_sum   'Zn2 H36 C52 N4 O12'
_cell_volume   3013.69108182
_cell_formula_units_Z   2
loop_
 _symmetry_equiv_pos_site_id
 _symmetry_equiv_pos_as_xyz
  1  'x, y, z'
loop_
 _atom_site_type_symbol
 _atom_site_label
 _atom_site_symmetry_multiplicity
 _atom_site_fract_x
 _atom_site_fract_y
 _atom_site_fract_z
 _atom_site_occupancy
  Zn  Zn0  1  0.87024000  0.48556000  0.48877000  1.0
  Zn  Zn1  1  0.12745000  0.51519000  0.51245000  1.0
  H  H2  1  0.80392000  0.89862000  0.49389000  1.0
  H  H3  1  0.40825000  0.76004000  0.86428000  1.0
  H  H4  1  0.72872000  0.35540000  0.64532000  1.0
  H  H5  1  0.27713000  0.64426000  0.36256000  1.0
  H  H6  1  0.64589000  0.35517000  0.73491000  1.0
  H  H7  1  0.37333000  0.65788000  0.27428000  1.0
  H  H8  1  0.84039000  0.27426000  0.89185000  1.0
  H  H9  1  0.21752000  0.77747000  0.11281000  1.0
  H  H10  1  0.76207000  0.26947000  0.98059000  1.0
  H  H11  1  0.29490000  0.78139000  0.02401000  1.0
  H  H12  1  0.67993000  0.25660000  0.04884000  1.0
  H  H13  1  0.18391000  0.10232000  0.52020000  1.0
  H  H14  1  0.33148000  0.76581000  0.95306000  1.0
  H  H15  1  0.10112000  0.89526000  0.51793000  1.0
  H  H16  1  0.87942000  0.10655000  0.50399000  1.0
  H  H17  1  0.92287000  0.14216000  0.40816000  1.0
  H  H18  1  0.98076000  0.06914000  0.35212000  1.0
  H  H19  1  0.06894000  0.03674000  0.40296000  1.0
  H  H20  1  0.20275000  0.17514000  0.34447000  1.0
  H  H21  1  0.14074000  0.24836000  0.39952000  1.0
  H  H22  1  0.94008000  0.34548000  0.36246000  1.0
  H  H23  1  0.00201000  0.27106000  0.30723000  1.0
  H  H24  1  0.59103000  0.56884000  0.53174000  1.0
  H  H25  1  0.15640000  0.87357000  0.64554000  1.0
  H  H26  1  0.30402000  0.77021000  0.63558000  1.0
  H  H27  1  0.18638000  0.78789000  0.59203000  1.0
  H  H28  1  0.12237000  0.68125000  0.69594000  1.0
  H  H29  1  0.14880000  0.59831000  0.64197000  1.0
  H  H30  1  0.94653000  0.72014000  0.61349000  1.0
  H  H31  1  0.91430000  0.79188000  0.67014000  1.0
  H  H32  1  0.40665000  0.43343000  0.46987000  1.0
  H  H33  1  0.65031000  0.40396000  0.45035000  1.0
  H  H34  1  0.34569000  0.59956000  0.55094000  1.0
  H  H35  1  0.15704000  0.35347000  0.24813000  1.0
  H  H36  1  0.84362000  0.67933000  0.74644000  1.0
  H  H37  1  0.59330000  0.25621000  0.13696000  1.0
  C  C38  1  0.05787000  0.26954000  0.50864000  1.0
  C  C39  1  0.70750000  0.42859000  0.87853000  1.0
  C  C40  1  0.15950000  0.49452000  0.35447000  1.0
  C  C41  1  0.83766000  0.51410000  0.64641000  1.0
  C  C42  1  0.61691000  0.42549000  0.98032000  1.0
  C  C43  1  0.42047000  0.61333000  0.02312000  1.0
  C  C44  1  0.46294000  0.61083000  0.97043000  1.0
  C  C45  1  0.56630000  0.42293000  0.03251000  1.0
  C  C46  1  0.56194000  0.51808000  0.95034000  1.0
  C  C47  1  0.47048000  0.51767000  0.05279000  1.0
  C  C48  1  0.71696000  0.33972000  0.95847000  1.0
  C  C49  1  0.93690000  0.73206000  0.49938000  1.0
  C  C50  1  0.33158000  0.70600000  0.04564000  1.0
  C  C51  1  0.76217000  0.34127000  0.90845000  1.0
  C  C52  1  0.28737000  0.70517000  0.09573000  1.0
  C  C53  1  0.10196000  0.49664000  0.40762000  1.0
  C  C54  1  0.89129000  0.50525000  0.59321000  1.0
  C  C55  1  0.60836000  0.33046000  0.06349000  1.0
  C  C56  1  0.40920000  0.69589000  0.93875000  1.0
  C  C57  1  0.08082000  0.13789000  0.51409000  1.0
  C  C58  1  0.90581000  0.86349000  0.50146000  1.0
  C  C59  1  0.98032000  0.06498000  0.51015000  1.0
  C  C60  1  0.42321000  0.51656000  0.10400000  1.0
  C  C61  1  0.00080000  0.93666000  0.51103000  1.0
  C  C62  1  0.42684000  0.49285000  0.49825000  1.0
  C  C63  1  0.57044000  0.51004000  0.50323000  1.0
  C  C64  1  0.41887000  0.41643000  0.18673000  1.0
  C  C65  1  0.59357000  0.60686000  0.81514000  1.0
  C  C66  1  0.27772000  0.61046000  0.17766000  1.0
  C  C67  1  0.75696000  0.42715000  0.82565000  1.0
  C  C68  1  0.30506000  0.58869000  0.28797000  1.0
  C  C69  1  0.70785000  0.42535000  0.71769000  1.0
  C  C70  1  0.25059000  0.58123000  0.33698000  1.0
  C  C71  1  0.60674000  0.51771000  0.89897000  1.0
  C  C72  1  0.75470000  0.42544000  0.66800000  1.0
  C  C73  1  0.12379000  0.41063000  0.32246000  1.0
  C  C74  1  0.87120000  0.60766000  0.67421000  1.0
  C  C75  1  0.18134000  0.41820000  0.27346000  1.0
  C  C76  1  0.82134000  0.60722000  0.72403000  1.0
  C  C77  1  0.26954000  0.50625000  0.25641000  1.0
  C  C78  1  0.74256000  0.51667000  0.74540000  1.0
  C  C79  1  0.03404000  0.31006000  0.33925000  1.0
  C  C80  1  0.10766000  0.21012000  0.36749000  1.0
  C  C81  1  0.01526000  0.10876000  0.38351000  1.0
  C  C82  1  0.46854000  0.42098000  0.13384000  1.0
  C  C83  1  0.95615000  0.70747000  0.65226000  1.0
  C  C84  1  0.11036000  0.68629000  0.65714000  1.0
  C  C85  1  0.19429000  0.78456000  0.63118000  1.0
  C  C86  1  0.55024000  0.60629000  0.86843000  1.0
  C  C87  1  0.56022000  0.32906000  0.11331000  1.0
  C  C88  1  0.45146000  0.69363000  0.88855000  1.0
  C  C89  1  0.33074000  0.61089000  0.12498000  1.0
  N  N90  1  0.32413000  0.51141000  0.20531000  1.0
  N  N91  1  0.69613000  0.51720000  0.79712000  1.0
  N  N92  1  0.32266000  0.54397000  0.52507000  1.0
  N  N93  1  0.67432000  0.45881000  0.47627000  1.0
  O  O94  1  0.93879000  0.31190000  0.50006000  1.0
  O  O95  1  0.54395000  0.68082000  0.78756000  1.0
  O  O96  1  0.84641000  0.35234000  0.80702000  1.0
  O  O97  1  0.19637000  0.69067000  0.19674000  1.0
  O  O98  1  0.05606000  0.69048000  0.50817000  1.0
  O  O99  1  0.15980000  0.33078000  0.51241000  1.0
  O  O100  1  0.84219000  0.67017000  0.48881000  1.0
  O  O101  1  0.97336000  0.48445000  0.41929000  1.0
  O  O102  1  0.02149000  0.50667000  0.58135000  1.0
  O  O103  1  0.18599000  0.51322000  0.43719000  1.0
  O  O104  1  0.80395000  0.49541000  0.56426000  1.0
  O  O105  1  0.45658000  0.33462000  0.21354000  1.0
