# generated using pymatgen
data_CdH19C17N9O4
_symmetry_space_group_name_H-M   'P 1'
_cell_length_a   11.07420000
_cell_length_b   12.49370000
_cell_length_c   18.18160000
_cell_angle_alpha   89.99990000
_cell_angle_beta   89.99980000
_cell_angle_gamma   77.98000000
_symmetry_Int_Tables_number   1
_chemical_formula_structural   CdH19C17N9O4
_chemical_formula_sum   'Cd4 H76 C68 N36 O16'
_cell_volume   2460.41110356
_cell_formula_units_Z   4
loop_
 _symmetry_equiv_pos_site_id
 _symmetry_equiv_pos_as_xyz
  1  'x, y, z'
loop_
 _atom_site_type_symbol
 _atom_site_label
 _atom_site_symmetry_multiplicity
 _atom_site_fract_x
 _atom_site_fract_y
 _atom_site_fract_z
 _atom_site_occupancy
  Cd  Cd0  1  0.84957000  0.61889000  0.79373000  1.0
  Cd  Cd1  1  0.65044000  0.38112000  0.29373000  1.0
  Cd  Cd2  1  0.15043000  0.38111000  0.20627000  1.0
  Cd  Cd3  1  0.34957000  0.61890000  0.70626000  1.0
  H  H4  1  0.38062000  0.94278000  0.78845000  1.0
  H  H5  1  0.11939000  0.05723000  0.28845000  1.0
  H  H6  1  0.61939000  0.05722000  0.21155000  1.0
  H  H7  1  0.88061000  0.94279000  0.71155000  1.0
  H  H8  1  0.37065000  0.96721000  0.69251000  1.0
  H  H9  1  0.12935000  0.03279000  0.19250000  1.0
  H  H10  1  0.62935000  0.03278000  0.30750000  1.0
  H  H11  1  0.87065000  0.96722000  0.80750000  1.0
  H  H12  1  0.47906000  0.12413000  0.70885000  1.0
  H  H13  1  0.02095000  0.87587000  0.20885000  1.0
  H  H14  1  0.52094000  0.87587000  0.29115000  1.0
  H  H15  1  0.97906000  0.12413000  0.79115000  1.0
  H  H16  1  0.49158000  0.09725000  0.80429000  1.0
  H  H17  1  0.00841000  0.90276000  0.30429000  1.0
  H  H18  1  0.50841000  0.90275000  0.19572000  1.0
  H  H19  1  0.99158000  0.09724000  0.69571000  1.0
  H  H20  1  0.24594000  0.16155000  0.71948000  1.0
  H  H21  1  0.25406000  0.83844000  0.21949000  1.0
  H  H22  1  0.75405000  0.83843000  0.28051000  1.0
  H  H23  1  0.74594000  0.16157000  0.78051000  1.0
  H  H24  1  0.25943000  0.13055000  0.81439000  1.0
  H  H25  1  0.24057000  0.86946000  0.31439000  1.0
  H  H26  1  0.74056000  0.86945000  0.18561000  1.0
  H  H27  1  0.75944000  0.13056000  0.68560000  1.0
  H  H28  1  0.37024000  0.28919000  0.83152000  1.0
  H  H29  1  0.12976000  0.71081000  0.33153000  1.0
  H  H30  1  0.62976000  0.71081000  0.16847000  1.0
  H  H31  1  0.87023000  0.28920000  0.66847000  1.0
  H  H32  1  0.33641000  0.32583000  0.73829000  1.0
  H  H33  1  0.16358000  0.67417000  0.23830000  1.0
  H  H34  1  0.66358000  0.67416000  0.26170000  1.0
  H  H35  1  0.83642000  0.32584000  0.76170000  1.0
  H  H36  1  0.79202000  0.80874000  0.64663000  1.0
  H  H37  1  0.70798000  0.19125000  0.14663000  1.0
  H  H38  1  0.20799000  0.19126000  0.35338000  1.0
  H  H39  1  0.29202000  0.80875000  0.85337000  1.0
  H  H40  1  0.56243000  0.79427000  0.82819000  1.0
  H  H41  1  0.93758000  0.20572000  0.32818000  1.0
  H  H42  1  0.43757000  0.20572000  0.17181000  1.0
  H  H43  1  0.06242000  0.79427000  0.67181000  1.0
  H  H44  1  0.95781000  0.39927000  0.91487000  1.0
  H  H45  1  0.54219000  0.60074000  0.41486000  1.0
  H  H46  1  0.04218000  0.60074000  0.08512000  1.0
  H  H47  1  0.45781000  0.39927000  0.58513000  1.0
  H  H48  1  0.13866000  0.46450000  0.72098000  1.0
  H  H49  1  0.36134000  0.53549000  0.22097000  1.0
  H  H50  1  0.86136000  0.53549000  0.27902000  1.0
  H  H51  1  0.63865000  0.46451000  0.77902000  1.0
  H  H52  1  0.03415000  0.00538000  0.08134000  1.0
  H  H53  1  0.46584000  0.99463000  0.58135000  1.0
  H  H54  1  0.96583000  0.99463000  0.91866000  1.0
  H  H55  1  0.53416000  0.00538000  0.41866000  1.0
  H  H56  1  0.12975000  0.92865000  0.01263000  1.0
  H  H57  1  0.37024000  0.07135000  0.51263000  1.0
  H  H58  1  0.87023000  0.07135000  0.98737000  1.0
  H  H59  1  0.62976000  0.92866000  0.48738000  1.0
  H  H60  1  0.01122000  0.81803000  0.09218000  1.0
  H  H61  1  0.48878000  0.18197000  0.59219000  1.0
  H  H62  1  0.98877000  0.18197000  0.90782000  1.0
  H  H63  1  0.51122000  0.81804000  0.40782000  1.0
  H  H64  1  0.87202000  0.89302000  0.05458000  1.0
  H  H65  1  0.62798000  0.10698000  0.55458000  1.0
  H  H66  1  0.12797000  0.10697000  0.94542000  1.0
  H  H67  1  0.37202000  0.89303000  0.44543000  1.0
  H  H68  1  0.14518000  0.61334000  0.87803000  1.0
  H  H69  1  0.35481000  0.38665000  0.37803000  1.0
  H  H70  1  0.85480000  0.38665000  0.12197000  1.0
  H  H71  1  0.64520000  0.61334000  0.62197000  1.0
  H  H72  1  0.80171000  0.81086000  0.93451000  1.0
  H  H73  1  0.69828000  0.18915000  0.43452000  1.0
  H  H74  1  0.19828000  0.18913000  0.06549000  1.0
  H  H75  1  0.30172000  0.81087000  0.56549000  1.0
  H  H76  1  0.70008000  0.53264000  0.04533000  1.0
  H  H77  1  0.79992000  0.46736000  0.54534000  1.0
  H  H78  1  0.29992000  0.46735000  0.95466000  1.0
  H  H79  1  0.20008000  0.53264000  0.45467000  1.0
  C  C80  1  0.42551000  0.97479000  0.74201000  1.0
  C  C81  1  0.07449000  0.02521000  0.24200000  1.0
  C  C82  1  0.57449000  0.02521000  0.25800000  1.0
  C  C83  1  0.92551000  0.97480000  0.75799000  1.0
  C  C84  1  0.43304000  0.09372000  0.75570000  1.0
  C  C85  1  0.06696000  0.90629000  0.25571000  1.0
  C  C86  1  0.56695000  0.90628000  0.24430000  1.0
  C  C87  1  0.93304000  0.09372000  0.74429000  1.0
  C  C88  1  0.30439000  0.16405000  0.76829000  1.0
  C  C89  1  0.19561000  0.83595000  0.26830000  1.0
  C  C90  1  0.69561000  0.83594000  0.23170000  1.0
  C  C91  1  0.80439000  0.16406000  0.73171000  1.0
  C  C92  1  0.30715000  0.28312000  0.78574000  1.0
  C  C93  1  0.19285000  0.71688000  0.28575000  1.0
  C  C94  1  0.69284000  0.71687000  0.21425000  1.0
  C  C95  1  0.80715000  0.28313000  0.71425000  1.0
  C  C96  1  0.71579000  0.82988000  0.68510000  1.0
  C  C97  1  0.78421000  0.17012000  0.18510000  1.0
  C  C98  1  0.28421000  0.17012000  0.31491000  1.0
  C  C99  1  0.21579000  0.82988000  0.81490000  1.0
  C  C100  1  0.60059000  0.82053000  0.77784000  1.0
  C  C101  1  0.89941000  0.17948000  0.27784000  1.0
  C  C102  1  0.39941000  0.17947000  0.22216000  1.0
  C  C103  1  0.10058000  0.82053000  0.72216000  1.0
  C  C104  1  0.02578000  0.39396000  0.87118000  1.0
  C  C105  1  0.47422000  0.60605000  0.37117000  1.0
  C  C106  1  0.97422000  0.60604000  0.12882000  1.0
  C  C107  1  0.52578000  0.39396000  0.62882000  1.0
  C  C108  1  0.11317000  0.42868000  0.77198000  1.0
  C  C109  1  0.38682000  0.57132000  0.27197000  1.0
  C  C110  1  0.88683000  0.57131000  0.22802000  1.0
  C  C111  1  0.61317000  0.42868000  0.72802000  1.0
  C  C112  1  0.03338000  0.96109000  0.02924000  1.0
  C  C113  1  0.46662000  0.03892000  0.52925000  1.0
  C  C114  1  0.96661000  0.03891000  0.97076000  1.0
  C  C115  1  0.53339000  0.96109000  0.47077000  1.0
  C  C116  1  0.97123000  0.86529000  0.04409000  1.0
  C  C117  1  0.52877000  0.13471000  0.54409000  1.0
  C  C118  1  0.02876000  0.13471000  0.95591000  1.0
  C  C119  1  0.47123000  0.86530000  0.45592000  1.0
  C  C120  1  0.07378000  0.67249000  0.90592000  1.0
  C  C121  1  0.42621000  0.32751000  0.40592000  1.0
  C  C122  1  0.92621000  0.32751000  0.09408000  1.0
  C  C123  1  0.57380000  0.67249000  0.59408000  1.0
  C  C124  1  0.89965000  0.77494000  0.93225000  1.0
  C  C125  1  0.60035000  0.22507000  0.43226000  1.0
  C  C126  1  0.10034000  0.22506000  0.06774000  1.0
  C  C127  1  0.39966000  0.77494000  0.56775000  1.0
  C  C128  1  0.45876000  0.53341000  0.92880000  1.0
  C  C129  1  0.04124000  0.46659000  0.42880000  1.0
  C  C130  1  0.54124000  0.46658000  0.07120000  1.0
  C  C131  1  0.95876000  0.53341000  0.57121000  1.0
  C  C132  1  0.57311000  0.55171000  0.95391000  1.0
  C  C133  1  0.92689000  0.44828000  0.45391000  1.0
  C  C134  1  0.42689000  0.44826000  0.04609000  1.0
  C  C135  1  0.07311000  0.55172000  0.54609000  1.0
  C  C136  1  0.61217000  0.51855000  0.02486000  1.0
  C  C137  1  0.88783000  0.48144000  0.52486000  1.0
  C  C138  1  0.38783000  0.48143000  0.97513000  1.0
  C  C139  1  0.11217000  0.51856000  0.47514000  1.0
  C  C140  1  0.41010000  0.56890000  0.85377000  1.0
  C  C141  1  0.08989000  0.43110000  0.35377000  1.0
  C  C142  1  0.58989000  0.43109000  0.14623000  1.0
  C  C143  1  0.91012000  0.56889000  0.64624000  1.0
  C  C144  1  0.65833000  0.60218000  0.90672000  1.0
  C  C145  1  0.84167000  0.39781000  0.40672000  1.0
  C  C146  1  0.34166000  0.39781000  0.09328000  1.0
  C  C147  1  0.15835000  0.60218000  0.59328000  1.0
  N  N148  1  0.54574000  0.90253000  0.73346000  1.0
  N  N149  1  0.95427000  0.09746000  0.23346000  1.0
  N  N150  1  0.45426000  0.09747000  0.26654000  1.0
  N  N151  1  0.04574000  0.90254000  0.76654000  1.0
  N  N152  1  0.61834000  0.91038000  0.67380000  1.0
  N  N153  1  0.88167000  0.08963000  0.17380000  1.0
  N  N154  1  0.38167000  0.08963000  0.32620000  1.0
  N  N155  1  0.11833000  0.91038000  0.82620000  1.0
  N  N156  1  0.70949000  0.77350000  0.74876000  1.0
  N  N157  1  0.79051000  0.22650000  0.24875000  1.0
  N  N158  1  0.29051000  0.22650000  0.25125000  1.0
  N  N159  1  0.20948000  0.77350000  0.75124000  1.0
  N  N160  1  0.18532000  0.34385000  0.80668000  1.0
  N  N161  1  0.31467000  0.65614000  0.30668000  1.0
  N  N162  1  0.81468000  0.65614000  0.19331000  1.0
  N  N163  1  0.68531000  0.34386000  0.69332000  1.0
  N  N164  1  0.13142000  0.32017000  0.87032000  1.0
  N  N165  1  0.36857000  0.67983000  0.37032000  1.0
  N  N166  1  0.86858000  0.67982000  0.12967000  1.0
  N  N167  1  0.63143000  0.32018000  0.62967000  1.0
  N  N168  1  0.01052000  0.46200000  0.81166000  1.0
  N  N169  1  0.48947000  0.53800000  0.31166000  1.0
  N  N170  1  0.98948000  0.53800000  0.18833000  1.0
  N  N171  1  0.51051000  0.46200000  0.68834000  1.0
  N  N172  1  0.98407000  0.78980000  0.98217000  1.0
  N  N173  1  0.51592000  0.21021000  0.48217000  1.0
  N  N174  1  0.01593000  0.21020000  0.01784000  1.0
  N  N175  1  0.48407000  0.78980000  0.51784000  1.0
  N  N176  1  0.09610000  0.72491000  0.96639000  1.0
  N  N177  1  0.40390000  0.27508000  0.46639000  1.0
  N  N178  1  0.90390000  0.27508000  0.03361000  1.0
  N  N179  1  0.59610000  0.72492000  0.53361000  1.0
  N  N180  1  0.95382000  0.70126000  0.88275000  1.0
  N  N181  1  0.54618000  0.29875000  0.38276000  1.0
  N  N182  1  0.04618000  0.29875000  0.11725000  1.0
  N  N183  1  0.45383000  0.70125000  0.61725000  1.0
  O  O184  1  0.72496000  0.53549000  0.86091000  1.0
  O  O185  1  0.77504000  0.46451000  0.36092000  1.0
  O  O186  1  0.27503000  0.46450000  0.13908000  1.0
  O  O187  1  0.22498000  0.53549000  0.63908000  1.0
  O  O188  1  0.66523000  0.69992000  0.91695000  1.0
  O  O189  1  0.83477000  0.30007000  0.41696000  1.0
  O  O190  1  0.33474000  0.30007000  0.08304000  1.0
  O  O191  1  0.16527000  0.69993000  0.58304000  1.0
  O  O192  1  0.45947000  0.63752000  0.81831000  1.0
  O  O193  1  0.04053000  0.36250000  0.31830000  1.0
  O  O194  1  0.54052000  0.36248000  0.18170000  1.0
  O  O195  1  0.95948000  0.63752000  0.68169000  1.0
  O  O196  1  0.32200000  0.52930000  0.82756000  1.0
  O  O197  1  0.17801000  0.47071000  0.32757000  1.0
  O  O198  1  0.67801000  0.47069000  0.17244000  1.0
  O  O199  1  0.82202000  0.52928000  0.67245000  1.0
