# generated using pymatgen
data_CaH22C16(N2O5)2
_symmetry_space_group_name_H-M   'P 1'
_cell_length_a   9.04185000
_cell_length_b   9.04182000
_cell_length_c   11.70300000
_cell_angle_alpha   95.51890000
_cell_angle_beta   95.51880000
_cell_angle_gamma   91.35380000
_symmetry_Int_Tables_number   1
_chemical_formula_structural   CaH22C16(N2O5)2
_chemical_formula_sum   'Ca2 H44 C32 N8 O20'
_cell_volume   947.40468488
_cell_formula_units_Z   2
loop_
 _symmetry_equiv_pos_site_id
 _symmetry_equiv_pos_as_xyz
  1  'x, y, z'
loop_
 _atom_site_type_symbol
 _atom_site_label
 _atom_site_symmetry_multiplicity
 _atom_site_fract_x
 _atom_site_fract_y
 _atom_site_fract_z
 _atom_site_occupancy
  Ca  Ca0  1  0.57391000  0.42609000  0.25000000  1.0
  Ca  Ca1  1  0.42609000  0.57391000  0.75000000  1.0
  H  H2  1  0.03306000  0.66831000  0.06582000  1.0
  H  H3  1  0.33169000  0.96695000  0.43418000  1.0
  H  H4  1  0.96694000  0.33169000  0.93418000  1.0
  H  H5  1  0.66831000  0.03305000  0.56582000  1.0
  H  H6  1  0.46925000  0.36617000  0.99456000  1.0
  H  H7  1  0.63383000  0.53075000  0.50544000  1.0
  H  H8  1  0.53075000  0.63383000  0.00544000  1.0
  H  H9  1  0.36617000  0.46925000  0.49456000  1.0
  H  H10  1  0.64146000  0.34565000  0.99415000  1.0
  H  H11  1  0.65435000  0.35854000  0.50584000  1.0
  H  H12  1  0.35854000  0.65435000  0.00585000  1.0
  H  H13  1  0.34565000  0.64146000  0.49416000  1.0
  H  H14  1  0.20443000  0.33915000  0.31169000  1.0
  H  H15  1  0.66084000  0.79557000  0.18831000  1.0
  H  H16  1  0.79557000  0.66085000  0.68831000  1.0
  H  H17  1  0.33916000  0.20443000  0.81169000  1.0
  H  H18  1  0.01167000  0.13025000  0.37663000  1.0
  H  H19  1  0.86975000  0.98833000  0.12337000  1.0
  H  H20  1  0.98833000  0.86975000  0.62337000  1.0
  H  H21  1  0.13025000  0.01167000  0.87663000  1.0
  H  H22  1  0.83310000  0.19773000  0.39888000  1.0
  H  H23  1  0.80227000  0.16691000  0.10112000  1.0
  H  H24  1  0.16691000  0.80227000  0.60112000  1.0
  H  H25  1  0.19773000  0.83309000  0.89888000  1.0
  H  H26  1  0.12331000  0.34614000  0.52109000  1.0
  H  H27  1  0.65386000  0.87669000  0.97891000  1.0
  H  H28  1  0.87669000  0.65386000  0.47891000  1.0
  H  H29  1  0.34614000  0.12331000  0.02109000  1.0
  H  H30  1  0.94022000  0.38410000  0.55235000  1.0
  H  H31  1  0.61590000  0.05978000  0.94765000  1.0
  H  H32  1  0.05978000  0.61590000  0.44765000  1.0
  H  H33  1  0.38410000  0.94022000  0.05235000  1.0
  H  H34  1  0.91236000  0.12397000  0.61369000  1.0
  H  H35  1  0.87603000  0.08764000  0.88631000  1.0
  H  H36  1  0.08764000  0.87603000  0.38631000  1.0
  H  H37  1  0.12397000  0.91236000  0.11369000  1.0
  H  H38  1  0.06489000  0.22299000  0.69403000  1.0
  H  H39  1  0.77701000  0.93511000  0.80597000  1.0
  H  H40  1  0.93511000  0.77701000  0.30597000  1.0
  H  H41  1  0.22299000  0.06489000  0.19403000  1.0
  H  H42  1  0.09712000  0.08889000  0.57952000  1.0
  H  H43  1  0.91111000  0.90288000  0.92048000  1.0
  H  H44  1  0.90288000  0.91111000  0.42048000  1.0
  H  H45  1  0.08889000  0.09712000  0.07952000  1.0
  C  C46  1  0.08333000  0.47673000  0.20077000  1.0
  C  C47  1  0.52327000  0.91667000  0.29923000  1.0
  C  C48  1  0.91667000  0.52327000  0.79923000  1.0
  C  C49  1  0.47673000  0.08333000  0.70077000  1.0
  C  C50  1  0.93056000  0.49872000  0.18845000  1.0
  C  C51  1  0.50129000  0.06944000  0.31155000  1.0
  C  C52  1  0.06944000  0.50129000  0.81155000  1.0
  C  C53  1  0.49871000  0.93056000  0.68845000  1.0
  C  C54  1  0.96671000  0.33651000  0.31284000  1.0
  C  C55  1  0.66349000  0.03329000  0.18716000  1.0
  C  C56  1  0.03329000  0.66349000  0.68716000  1.0
  C  C57  1  0.33651000  0.96671000  0.81284000  1.0
  C  C58  1  0.20979000  0.53371000  0.14459000  1.0
  C  C59  1  0.46629000  0.79021000  0.35541000  1.0
  C  C60  1  0.79021000  0.46629000  0.85541000  1.0
  C  C61  1  0.53371000  0.20979000  0.64459000  1.0
  C  C62  1  0.84517000  0.60464000  0.12437000  1.0
  C  C63  1  0.39536000  0.15483000  0.37563000  1.0
  C  C64  1  0.15483000  0.39536000  0.87563000  1.0
  C  C65  1  0.60464000  0.84517000  0.62437000  1.0
  C  C66  1  0.95088000  0.23062000  0.40078000  1.0
  C  C67  1  0.76939000  0.04912000  0.09922000  1.0
  C  C68  1  0.04912000  0.76938000  0.59922000  1.0
  C  C69  1  0.23061000  0.95088000  0.90078000  1.0
  C  C70  1  0.01238000  0.29489000  0.52342000  1.0
  C  C71  1  0.70512000  0.98762000  0.97658000  1.0
  C  C72  1  0.98762000  0.70512000  0.47658000  1.0
  C  C73  1  0.29488000  0.01238000  0.02342000  1.0
  C  C74  1  0.02181000  0.17567000  0.60711000  1.0
  C  C75  1  0.82433000  0.97819000  0.89289000  1.0
  C  C76  1  0.97819000  0.82433000  0.39289000  1.0
  C  C77  1  0.17567000  0.02181000  0.10711000  1.0
  N  N78  1  0.85992000  0.41011000  0.25751000  1.0
  N  N79  1  0.58989000  0.14008000  0.24249000  1.0
  N  N80  1  0.14008000  0.58989000  0.74249000  1.0
  N  N81  1  0.41011000  0.85992000  0.75751000  1.0
  N  N82  1  0.10189000  0.37465000  0.27952000  1.0
  N  N83  1  0.62535000  0.89811000  0.22048000  1.0
  N  N84  1  0.89811000  0.62535000  0.72048000  1.0
  N  N85  1  0.37465000  0.10189000  0.77951000  1.0
  O  O86  1  0.33495000  0.47988000  0.16468000  1.0
  O  O87  1  0.52012000  0.66505000  0.33532000  1.0
  O  O88  1  0.66505000  0.52012000  0.83532000  1.0
  O  O89  1  0.47988000  0.33495000  0.66468000  1.0
  O  O90  1  0.18247000  0.63481000  0.07498000  1.0
  O  O91  1  0.36518000  0.81753000  0.42502000  1.0
  O  O92  1  0.81753000  0.36519000  0.92502000  1.0
  O  O93  1  0.63482000  0.18247000  0.57498000  1.0
  O  O94  1  0.91475000  0.69105000  0.06185000  1.0
  O  O95  1  0.30895000  0.08525000  0.43815000  1.0
  O  O96  1  0.08525000  0.30895000  0.93815000  1.0
  O  O97  1  0.69105000  0.91475000  0.56185000  1.0
  O  O98  1  0.70839000  0.61560000  0.13407000  1.0
  O  O99  1  0.38441000  0.29162000  0.36594000  1.0
  O  O100  1  0.29161000  0.38440000  0.86593000  1.0
  O  O101  1  0.61559000  0.70838000  0.63406000  1.0
  O  O102  1  0.55671000  0.33370000  0.04032000  1.0
  O  O103  1  0.66630000  0.44329000  0.45968000  1.0
  O  O104  1  0.44329000  0.66630000  0.95968000  1.0
  O  O105  1  0.33370000  0.55671000  0.54032000  1.0
