# generated using pymatgen
data_Na3InH6(CO2)6
_symmetry_space_group_name_H-M   'P 1'
_cell_length_a   6.43410000
_cell_length_b   14.20970000
_cell_length_c   14.59810000
_cell_angle_alpha   90.00020000
_cell_angle_beta   89.99990000
_cell_angle_gamma   89.99980000
_symmetry_Int_Tables_number   1
_chemical_formula_structural   Na3InH6(CO2)6
_chemical_formula_sum   'Na12 In4 H24 C24 O48'
_cell_volume   1334.65509863
_cell_formula_units_Z   4
loop_
 _symmetry_equiv_pos_site_id
 _symmetry_equiv_pos_as_xyz
  1  'x, y, z'
loop_
 _atom_site_type_symbol
 _atom_site_label
 _atom_site_symmetry_multiplicity
 _atom_site_fract_x
 _atom_site_fract_y
 _atom_site_fract_z
 _atom_site_occupancy
  Na  Na0  1  0.72963000  0.21789000  0.49774000  1.0
  Na  Na1  1  0.77037000  0.21789000  0.00226000  1.0
  Na  Na2  1  0.22963000  0.28211000  0.50226000  1.0
  Na  Na3  1  0.27037000  0.28211000  0.99774000  1.0
  Na  Na4  1  0.27037000  0.78211000  0.50226000  1.0
  Na  Na5  1  0.22963000  0.78211000  0.99774000  1.0
  Na  Na6  1  0.77037000  0.71789000  0.49774000  1.0
  Na  Na7  1  0.72963000  0.71789000  0.00226000  1.0
  Na  Na8  1  0.25000000  0.92337000  0.75000000  1.0
  Na  Na9  1  0.75000000  0.57663000  0.25000000  1.0
  Na  Na10  1  0.75000000  0.07663000  0.25000000  1.0
  Na  Na11  1  0.25000000  0.42337000  0.75000000  1.0
  In  In12  1  0.75000000  0.06476000  0.75000000  1.0
  In  In13  1  0.25000000  0.43524000  0.25000000  1.0
  In  In14  1  0.25000000  0.93524000  0.25000000  1.0
  In  In15  1  0.75000000  0.56476000  0.75000000  1.0
  H  H16  1  0.82834000  0.92632000  0.58726000  1.0
  H  H17  1  0.67165000  0.92632000  0.91274000  1.0
  H  H18  1  0.32834000  0.57368000  0.41274000  1.0
  H  H19  1  0.17166000  0.57368000  0.08726000  1.0
  H  H20  1  0.17166000  0.07368000  0.41274000  1.0
  H  H21  1  0.32834000  0.07368000  0.08726000  1.0
  H  H22  1  0.67166000  0.42632000  0.58726000  1.0
  H  H23  1  0.82834000  0.42632000  0.91274000  1.0
  H  H24  1  0.49716000  0.24371000  0.77545000  1.0
  H  H25  1  0.00283000  0.24371000  0.72455000  1.0
  H  H26  1  0.99716000  0.25629000  0.22455000  1.0
  H  H27  1  0.50284000  0.25629000  0.27545000  1.0
  H  H28  1  0.50283000  0.75629000  0.22455000  1.0
  H  H29  1  0.99716000  0.75629000  0.27545000  1.0
  H  H30  1  0.00283000  0.74371000  0.77545000  1.0
  H  H31  1  0.49717000  0.74371000  0.72455000  1.0
  H  H32  1  0.27916000  0.06891000  0.58754000  1.0
  H  H33  1  0.22084000  0.06891000  0.91246000  1.0
  H  H34  1  0.77916000  0.43109000  0.41246000  1.0
  H  H35  1  0.72084000  0.43109000  0.08754000  1.0
  H  H36  1  0.72084000  0.93109000  0.41246000  1.0
  H  H37  1  0.77916000  0.93109000  0.08754000  1.0
  H  H38  1  0.22084000  0.56891000  0.58754000  1.0
  H  H39  1  0.27916000  0.56891000  0.91246000  1.0
  C  C40  1  0.66331000  0.91147000  0.60305000  1.0
  C  C41  1  0.83669000  0.91147000  0.89695000  1.0
  C  C42  1  0.16331000  0.58853000  0.39695000  1.0
  C  C43  1  0.33669000  0.58853000  0.10305000  1.0
  C  C44  1  0.33669000  0.08853000  0.39695000  1.0
  C  C45  1  0.16331000  0.08853000  0.10305000  1.0
  C  C46  1  0.83670000  0.41147000  0.60305000  1.0
  C  C47  1  0.66331000  0.41147000  0.89695000  1.0
  C  C48  1  0.49678000  0.23945000  0.69943000  1.0
  C  C49  1  0.00321000  0.23945000  0.80057000  1.0
  C  C50  1  0.99679000  0.26055000  0.30057000  1.0
  C  C51  1  0.50322000  0.26055000  0.19943000  1.0
  C  C52  1  0.50321000  0.76055000  0.30057000  1.0
  C  C53  1  0.99678000  0.76055000  0.19943000  1.0
  C  C54  1  0.00321000  0.73945000  0.69943000  1.0
  C  C55  1  0.49679000  0.73945000  0.80057000  1.0
  C  C56  1  0.11569000  0.08686000  0.60432000  1.0
  C  C57  1  0.38431000  0.08686000  0.89568000  1.0
  C  C58  1  0.61569000  0.41314000  0.39568000  1.0
  C  C59  1  0.88431000  0.41314000  0.10432000  1.0
  C  C60  1  0.88431000  0.91314000  0.39568000  1.0
  C  C61  1  0.61569000  0.91314000  0.10432000  1.0
  C  C62  1  0.38431000  0.58686000  0.60432000  1.0
  C  C63  1  0.11569000  0.58686000  0.89568000  1.0
  O  O64  1  0.58075000  0.95839000  0.66964000  1.0
  O  O65  1  0.91924000  0.95840000  0.83036000  1.0
  O  O66  1  0.08075000  0.54161000  0.33036000  1.0
  O  O67  1  0.41925000  0.54160000  0.16964000  1.0
  O  O68  1  0.41925000  0.04161000  0.33036000  1.0
  O  O69  1  0.08075000  0.04160000  0.16964000  1.0
  O  O70  1  0.91925000  0.45839000  0.66964000  1.0
  O  O71  1  0.58075000  0.45839000  0.83036000  1.0
  O  O72  1  0.60953000  0.17415000  0.66253000  1.0
  O  O73  1  0.89046000  0.17415000  0.83747000  1.0
  O  O74  1  0.10953000  0.32585000  0.33747000  1.0
  O  O75  1  0.39047000  0.32585000  0.16253000  1.0
  O  O76  1  0.39046000  0.82585000  0.33747000  1.0
  O  O77  1  0.10953000  0.82585000  0.16253000  1.0
  O  O78  1  0.89047000  0.67415000  0.66253000  1.0
  O  O79  1  0.60953000  0.67416000  0.83747000  1.0
  O  O80  1  0.04528000  0.04372000  0.67582000  1.0
  O  O81  1  0.45471000  0.04372000  0.82418000  1.0
  O  O82  1  0.54528000  0.45628000  0.32418000  1.0
  O  O83  1  0.95472000  0.45628000  0.17582000  1.0
  O  O84  1  0.95472000  0.95628000  0.32418000  1.0
  O  O85  1  0.54528000  0.95628000  0.17582000  1.0
  O  O86  1  0.45472000  0.54372000  0.67582000  1.0
  O  O87  1  0.04528000  0.54372000  0.82418000  1.0
  O  O88  1  0.56885000  0.85099000  0.55737000  1.0
  O  O89  1  0.93115000  0.85099000  0.94263000  1.0
  O  O90  1  0.06885000  0.64901000  0.44263000  1.0
  O  O91  1  0.43115000  0.64901000  0.05737000  1.0
  O  O92  1  0.43115000  0.14901000  0.44263000  1.0
  O  O93  1  0.06885000  0.14901000  0.05737000  1.0
  O  O94  1  0.93116000  0.35099000  0.55737000  1.0
  O  O95  1  0.56885000  0.35099000  0.94263000  1.0
  O  O96  1  0.39079000  0.29710000  0.65479000  1.0
  O  O97  1  0.10920000  0.29711000  0.84521000  1.0
  O  O98  1  0.89079000  0.20289000  0.34521000  1.0
  O  O99  1  0.60921000  0.20289000  0.15479000  1.0
  O  O100  1  0.60920000  0.70289000  0.34521000  1.0
  O  O101  1  0.89079000  0.70290000  0.15479000  1.0
  O  O102  1  0.10920000  0.79710000  0.65479000  1.0
  O  O103  1  0.39080000  0.79711000  0.84521000  1.0
  O  O104  1  0.01986000  0.14437000  0.55594000  1.0
  O  O105  1  0.48014000  0.14437000  0.94406000  1.0
  O  O106  1  0.51987000  0.35563000  0.44406000  1.0
  O  O107  1  0.98014000  0.35563000  0.05594000  1.0
  O  O108  1  0.98014000  0.85563000  0.44406000  1.0
  O  O109  1  0.51986000  0.85563000  0.05594000  1.0
  O  O110  1  0.48014000  0.64437000  0.55594000  1.0
  O  O111  1  0.01986000  0.64437000  0.94406000  1.0
