# generated using pymatgen
data_Zn4H18C30S2O19
_symmetry_space_group_name_H-M   'P 1'
_cell_length_a   18.00690000
_cell_length_b   18.18760000
_cell_length_c   18.27040000
_cell_angle_alpha   60.83880000
_cell_angle_beta   60.92400000
_cell_angle_gamma   60.39210000
_symmetry_Int_Tables_number   1
_chemical_formula_structural   Zn4H18C30S2O19
_chemical_formula_sum   'Zn8 H36 C60 S4 O38'
_cell_volume   4299.42004206
_cell_formula_units_Z   2
loop_
 _symmetry_equiv_pos_site_id
 _symmetry_equiv_pos_as_xyz
  1  'x, y, z'
loop_
 _atom_site_type_symbol
 _atom_site_label
 _atom_site_symmetry_multiplicity
 _atom_site_fract_x
 _atom_site_fract_y
 _atom_site_fract_z
 _atom_site_occupancy
  Zn  Zn0  1  0.38285000  0.20414000  0.20517000  1.0
  Zn  Zn1  1  0.61836000  0.79392000  0.79503000  1.0
  Zn  Zn2  1  0.20769000  0.19999000  0.20980000  1.0
  Zn  Zn3  1  0.79523000  0.79597000  0.79138000  1.0
  Zn  Zn4  1  0.20915000  0.38090000  0.20708000  1.0
  Zn  Zn5  1  0.79121000  0.61675000  0.79426000  1.0
  Zn  Zn6  1  0.20584000  0.20848000  0.38117000  1.0
  Zn  Zn7  1  0.79480000  0.79123000  0.61975000  1.0
  H  H8  1  0.59726000  0.07343000  0.47415000  1.0
  H  H9  1  0.53139000  0.14124000  0.92576000  1.0
  H  H10  1  0.34263000  0.03262000  0.02272000  1.0
  H  H11  1  0.65958000  0.96790000  0.97460000  1.0
  H  H12  1  0.47571000  0.07420000  0.85553000  1.0
  H  H13  1  0.52650000  0.92604000  0.14216000  1.0
  H  H14  1  0.40476000  0.14158000  0.52925000  1.0
  H  H15  1  0.59575000  0.85644000  0.47154000  1.0
  H  H16  1  0.40223000  0.97022000  0.65589000  1.0
  H  H17  1  0.59820000  0.02809000  0.34501000  1.0
  H  H18  1  0.60098000  0.47000000  0.07438000  1.0
  H  H19  1  0.40308000  0.92459000  0.52697000  1.0
  H  H20  1  0.39894000  0.52838000  0.93042000  1.0
  H  H21  1  0.60044000  0.34240000  0.02734000  1.0
  H  H22  1  0.39948000  0.65608000  0.97701000  1.0
  H  H23  1  0.59146000  0.47341000  0.85949000  1.0
  H  H24  1  0.40846000  0.52532000  0.14509000  1.0
  H  H25  1  0.97269000  0.39996000  0.65426000  1.0
  H  H26  1  0.02656000  0.60038000  0.34527000  1.0
  H  H27  1  0.14567000  0.92377000  0.52734000  1.0
  H  H28  1  0.85456000  0.07627000  0.47473000  1.0
  H  H29  1  0.91314000  0.35239000  0.99791000  1.0
  H  H30  1  0.07550000  0.85958000  0.46814000  1.0
  H  H31  1  0.97843000  0.69133000  0.07781000  1.0
  H  H32  1  0.88684000  0.33532000  0.17554000  1.0
  H  H33  1  0.12621000  0.65616000  0.81818000  1.0
  H  H34  1  0.85452000  0.59526000  0.47336000  1.0
  H  H35  1  0.14470000  0.40495000  0.52651000  1.0
  H  H36  1  0.92466000  0.40470000  0.52459000  1.0
  H  H37  1  0.07475000  0.59578000  0.47468000  1.0
  H  H38  1  0.92457000  0.14034000  0.53446000  1.0
  H  H39  1  0.97419000  0.96632000  0.65759000  1.0
  H  H40  1  0.02638000  0.03339000  0.34467000  1.0
  H  H41  1  0.07882000  0.46455000  0.85852000  1.0
  H  H42  1  0.92981000  0.52781000  0.13770000  1.0
  H  H43  1  0.47053000  0.85905000  0.07187000  1.0
  C  C44  1  0.10940000  0.11023000  0.39115000  1.0
  C  C45  1  0.45111000  0.44330000  0.05442000  1.0
  C  C46  1  0.55013000  0.48397000  0.92370000  1.0
  C  C47  1  0.44979000  0.51456000  0.08097000  1.0
  C  C48  1  0.95725000  0.44772000  0.51441000  1.0
  C  C49  1  0.04216000  0.55265000  0.48510000  1.0
  C  C50  1  0.91976000  0.55241000  0.48417000  1.0
  C  C51  1  0.07963000  0.44789000  0.51541000  1.0
  C  C52  1  0.94738000  0.54830000  0.55641000  1.0
  C  C53  1  0.05242000  0.45201000  0.44313000  1.0
  C  C54  1  0.98511000  0.44395000  0.58544000  1.0
  C  C55  1  0.89118000  0.88937000  0.61091000  1.0
  C  C56  1  0.01424000  0.55637000  0.41411000  1.0
  C  C57  1  0.08034000  0.95692000  0.51641000  1.0
  C  C58  1  0.91979000  0.04310000  0.48585000  1.0
  C  C59  1  0.39344000  0.38644000  0.11143000  1.0
  C  C60  1  0.60686000  0.61180000  0.89244000  1.0
  C  C61  1  0.04274000  0.92261000  0.48205000  1.0
  C  C62  1  0.95740000  0.07747000  0.52026000  1.0
  C  C63  1  0.94805000  0.94713000  0.55475000  1.0
  C  C64  1  0.05169000  0.05330000  0.44757000  1.0
  C  C65  1  0.98611000  0.98190000  0.58780000  1.0
  C  C66  1  0.44514000  0.98336000  0.58660000  1.0
  C  C67  1  0.01409000  0.01809000  0.41450000  1.0
  C  C68  1  0.01842000  0.40981000  0.01442000  1.0
  C  C69  1  0.99030000  0.58318000  0.98140000  1.0
  C  C70  1  0.04519000  0.47870000  0.92086000  1.0
  C  C71  1  0.96314000  0.51434000  0.07498000  1.0
  C  C72  1  0.95117000  0.55263000  0.94443000  1.0
  C  C73  1  0.05735000  0.44050000  0.05121000  1.0
  C  C74  1  0.92375000  0.48352000  0.03947000  1.0
  C  C75  1  0.08489000  0.50959000  0.95611000  1.0
  C  C76  1  0.41322000  0.01756000  0.01190000  1.0
  C  C77  1  0.55534000  0.01467000  0.41432000  1.0
  C  C78  1  0.58898000  0.98265000  0.98574000  1.0
  C  C79  1  0.48322000  0.92241000  0.04012000  1.0
  C  C80  1  0.51893000  0.07776000  0.95759000  1.0
  C  C81  1  0.55746000  0.94631000  0.94785000  1.0
  C  C82  1  0.44483000  0.05352000  0.05013000  1.0
  C  C83  1  0.38772000  0.11022000  0.10788000  1.0
  C  C84  1  0.61468000  0.88844000  0.89124000  1.0
  C  C85  1  0.48616000  0.04204000  0.91991000  1.0
  C  C86  1  0.51610000  0.95807000  0.07778000  1.0
  C  C87  1  0.10979000  0.39479000  0.38571000  1.0
  C  C88  1  0.55634000  0.41228000  0.01595000  1.0
  C  C89  1  0.88986000  0.60534000  0.61402000  1.0
  C  C90  1  0.11220000  0.38353000  0.11281000  1.0
  C  C91  1  0.89392000  0.61030000  0.88493000  1.0
  C  C92  1  0.39167000  0.10941000  0.38826000  1.0
  C  C93  1  0.60894000  0.88873000  0.61256000  1.0
  C  C94  1  0.44784000  0.07757000  0.51725000  1.0
  C  C95  1  0.55266000  0.92040000  0.48365000  1.0
  C  C96  1  0.55355000  0.04106000  0.48508000  1.0
  C  C97  1  0.44687000  0.95695000  0.51587000  1.0
  C  C98  1  0.55047000  0.94613000  0.55570000  1.0
  C  C99  1  0.44365000  0.58624000  0.98864000  1.0
  C  C100  1  0.45004000  0.05157000  0.44520000  1.0
  C  C101  1  0.55550000  0.48222000  0.04314000  1.0
  C  C102  1  0.44452000  0.51630000  0.96147000  1.0
  C  C103  1  0.54890000  0.55525000  0.95055000  1.0
  S  S104  1  0.03066000  0.29933000  0.03371000  1.0
  S  S105  1  0.97239000  0.69533000  0.96223000  1.0
  S  S106  1  0.81997000  0.46251000  0.09838000  1.0
  S  S107  1  0.19178000  0.52513000  0.89318000  1.0
  O  O108  1  0.24971000  0.24992000  0.25058000  1.0
  O  O109  1  0.69210000  0.56987000  0.87395000  1.0
  O  O110  1  0.12356000  0.14207000  0.43019000  1.0
  O  O111  1  0.86625000  0.86858000  0.57090000  1.0
  O  O112  1  0.43234000  0.30204000  0.12801000  1.0
  O  O113  1  0.56803000  0.69630000  0.86500000  1.0
  O  O114  1  0.30226000  0.13569000  0.12738000  1.0
  O  O115  1  0.70017000  0.86882000  0.86596000  1.0
  O  O116  1  0.12534000  0.43366000  0.30213000  1.0
  O  O117  1  0.86364000  0.56583000  0.69759000  1.0
  O  O118  1  0.12513000  0.30062000  0.14250000  1.0
  O  O119  1  0.75163000  0.74769000  0.75049000  1.0
  O  O120  1  0.87484000  0.69374000  0.86139000  1.0
  O  O121  1  0.30656000  0.13018000  0.42873000  1.0
  O  O122  1  0.69372000  0.86032000  0.57232000  1.0
  O  O123  1  0.13695000  0.42671000  0.12913000  1.0
  O  O124  1  0.87240000  0.56735000  0.86490000  1.0
  O  O125  1  0.43101000  0.13339000  0.30462000  1.0
  O  O126  1  0.57012000  0.87291000  0.69598000  1.0
  O  O127  1  0.12268000  0.24920000  0.99876000  1.0
  O  O128  1  0.97886000  0.26522000  0.12615000  1.0
  O  O129  1  0.97925000  0.31999000  0.97236000  1.0
  O  O130  1  0.42936000  0.12791000  0.13418000  1.0
  O  O131  1  0.02568000  0.73025000  0.87205000  1.0
  O  O132  1  0.87823000  0.74179000  0.99730000  1.0
  O  O133  1  0.02377000  0.67932000  0.02298000  1.0
  O  O134  1  0.74824000  0.54104000  0.11660000  1.0
  O  O135  1  0.81454000  0.41921000  0.05291000  1.0
  O  O136  1  0.83749000  0.39192000  0.18847000  1.0
  O  O137  1  0.20972000  0.56187000  0.93436000  1.0
  O  O138  1  0.25409000  0.44515000  0.87118000  1.0
  O  O139  1  0.16938000  0.59924000  0.80488000  1.0
  O  O140  1  0.57309000  0.86351000  0.87212000  1.0
  O  O141  1  0.13855000  0.31083000  0.42556000  1.0
  O  O142  1  0.87164000  0.68957000  0.57428000  1.0
  O  O143  1  0.14042000  0.12206000  0.30818000  1.0
  O  O144  1  0.87206000  0.86534000  0.69460000  1.0
  O  O145  1  0.30860000  0.42787000  0.13940000  1.0
