# generated using pymatgen
data_SnH14(C5O)2
_symmetry_space_group_name_H-M   'P 1'
_cell_length_a   6.18815000
_cell_length_b   10.08950000
_cell_length_c   17.64900000
_cell_angle_alpha   90.00000000
_cell_angle_beta   98.79810000
_cell_angle_gamma   90.00000000
_symmetry_Int_Tables_number   1
_chemical_formula_structural   SnH14(C5O)2
_chemical_formula_sum   'Sn4 H56 C40 O8'
_cell_volume   1088.95549790
_cell_formula_units_Z   4
loop_
 _symmetry_equiv_pos_site_id
 _symmetry_equiv_pos_as_xyz
  1  'x, y, z'
loop_
 _atom_site_type_symbol
 _atom_site_label
 _atom_site_symmetry_multiplicity
 _atom_site_fract_x
 _atom_site_fract_y
 _atom_site_fract_z
 _atom_site_occupancy
  Sn  Sn0  1  0.56780000  0.67402000  0.22832000  1.0
  Sn  Sn1  1  0.43231000  0.17405000  0.27168000  1.0
  Sn  Sn2  1  0.43217000  0.32594000  0.77165000  1.0
  Sn  Sn3  1  0.56767000  0.82597000  0.72833000  1.0
  H  H4  1  0.56156000  0.89129000  0.13819000  1.0
  H  H5  1  0.43849000  0.39134000  0.36182000  1.0
  H  H6  1  0.43842000  0.10871000  0.86179000  1.0
  H  H7  1  0.56149000  0.60868000  0.63817000  1.0
  H  H8  1  0.77806000  0.78321000  0.12166000  1.0
  H  H9  1  0.22203000  0.28319000  0.37834000  1.0
  H  H10  1  0.22195000  0.21681000  0.87833000  1.0
  H  H11  1  0.77797000  0.71680000  0.62166000  1.0
  H  H12  1  0.81056000  0.89016000  0.20426000  1.0
  H  H13  1  0.18949000  0.39015000  0.29574000  1.0
  H  H14  1  0.18941000  0.10984000  0.79573000  1.0
  H  H15  1  0.81047000  0.60983000  0.70424000  1.0
  H  H16  1  0.68021000  0.52692000  0.35771000  1.0
  H  H17  1  0.31989000  0.02693000  0.14230000  1.0
  H  H18  1  0.31975000  0.47312000  0.64229000  1.0
  H  H19  1  0.68010000  0.97309000  0.85769000  1.0
  H  H20  1  0.88417000  0.65073000  0.35279000  1.0
  H  H21  1  0.11594000  0.15076000  0.14723000  1.0
  H  H22  1  0.11576000  0.34933000  0.64721000  1.0
  H  H23  1  0.88406000  0.84926000  0.85278000  1.0
  H  H24  1  0.87659000  0.50401000  0.29501000  1.0
  H  H25  1  0.12352000  0.00403000  0.20503000  1.0
  H  H26  1  0.12342000  0.49604000  0.70502000  1.0
  H  H27  1  0.87647000  0.99597000  0.79497000  1.0
  H  H28  1  0.17696000  0.55301000  0.18811000  1.0
  H  H29  1  0.82315000  0.05305000  0.31189000  1.0
  H  H30  1  0.82301000  0.44698000  0.81188000  1.0
  H  H31  1  0.17687000  0.94696000  0.68812000  1.0
  H  H32  1  0.14154000  0.72906000  0.17883000  1.0
  H  H33  1  0.85860000  0.22905000  0.32117000  1.0
  H  H34  1  0.85845000  0.27094000  0.82117000  1.0
  H  H35  1  0.14139000  0.77097000  0.67883000  1.0
  H  H36  1  0.16969000  0.65336000  0.27149000  1.0
  H  H37  1  0.83048000  0.15338000  0.22852000  1.0
  H  H38  1  0.83034000  0.34663000  0.72850000  1.0
  H  H39  1  0.16954000  0.84662000  0.77149000  1.0
  H  H40  1  0.48341000  0.16890000  0.08248000  1.0
  H  H41  1  0.51664000  0.66891000  0.41753000  1.0
  H  H42  1  0.51669000  0.83105000  0.91751000  1.0
  H  H43  1  0.48329000  0.33108000  0.58246000  1.0
  H  H44  1  0.66818000  0.03032000  0.99369000  1.0
  H  H45  1  0.33180000  0.53034000  0.50631000  1.0
  H  H46  1  0.33190000  0.96965000  0.00630000  1.0
  H  H47  1  0.66813000  0.46965000  0.49368000  1.0
  H  H48  1  0.00101000  0.11348000  0.94735000  1.0
  H  H49  1  0.99897000  0.61351000  0.55263000  1.0
  H  H50  1  0.99906000  0.88652000  0.05263000  1.0
  H  H51  1  0.00098000  0.38650000  0.44738000  1.0
  H  H52  1  0.15630000  0.33381000  0.99120000  1.0
  H  H53  1  0.84379000  0.83386000  0.50880000  1.0
  H  H54  1  0.84380000  0.66619000  0.00880000  1.0
  H  H55  1  0.15619000  0.16616000  0.49121000  1.0
  H  H56  1  0.97117000  0.47041000  0.07981000  1.0
  H  H57  1  0.02895000  0.97047000  0.42022000  1.0
  H  H58  1  0.02888000  0.52955000  0.92021000  1.0
  H  H59  1  0.97103000  0.02954000  0.57979000  1.0
  C  C60  1  0.69618000  0.82929000  0.16562000  1.0
  C  C61  1  0.30389000  0.32932000  0.33439000  1.0
  C  C62  1  0.30380000  0.17070000  0.83438000  1.0
  C  C63  1  0.69607000  0.67070000  0.66561000  1.0
  C  C64  1  0.77790000  0.57754000  0.31986000  1.0
  C  C65  1  0.22218000  0.07755000  0.18015000  1.0
  C  C66  1  0.22207000  0.42251000  0.68015000  1.0
  C  C67  1  0.77781000  0.92246000  0.81985000  1.0
  C  C68  1  0.22061000  0.64914000  0.21483000  1.0
  C  C69  1  0.77944000  0.14917000  0.28518000  1.0
  C  C70  1  0.77938000  0.35084000  0.78516000  1.0
  C  C71  1  0.22054000  0.85084000  0.71483000  1.0
  C  C72  1  0.60651000  0.41000000  0.14050000  1.0
  C  C73  1  0.39359000  0.91003000  0.35952000  1.0
  C  C74  1  0.39353000  0.58997000  0.85950000  1.0
  C  C75  1  0.60636000  0.08997000  0.64048000  1.0
  C  C76  1  0.71624000  0.32766000  0.08672000  1.0
  C  C77  1  0.28387000  0.82771000  0.41330000  1.0
  C  C78  1  0.28383000  0.67231000  0.91328000  1.0
  C  C79  1  0.71609000  0.17230000  0.58670000  1.0
  C  C80  1  0.63134000  0.20342000  0.06235000  1.0
  C  C81  1  0.36870000  0.70345000  0.43766000  1.0
  C  C82  1  0.36874000  0.79655000  0.93766000  1.0
  C  C83  1  0.63122000  0.29654000  0.56233000  1.0
  C  C84  1  0.73352000  0.12730000  0.01225000  1.0
  C  C85  1  0.26649000  0.62732000  0.48774000  1.0
  C  C86  1  0.26656000  0.87267000  0.98775000  1.0
  C  C87  1  0.73346000  0.37268000  0.51225000  1.0
  C  C88  1  0.92170000  0.17401000  0.98628000  1.0
  C  C89  1  0.07831000  0.67403000  0.51371000  1.0
  C  C90  1  0.07838000  0.82599000  0.01371000  1.0
  C  C91  1  0.92163000  0.32598000  0.48629000  1.0
  C  C92  1  0.00819000  0.29741000  0.01076000  1.0
  C  C93  1  0.99189000  0.79746000  0.48924000  1.0
  C  C94  1  0.99190000  0.70258000  0.98925000  1.0
  C  C95  1  0.00808000  0.20255000  0.51076000  1.0
  C  C96  1  0.90524000  0.37413000  0.06045000  1.0
  C  C97  1  0.09486000  0.87420000  0.43957000  1.0
  C  C98  1  0.09482000  0.62583000  0.93956000  1.0
  C  C99  1  0.90510000  0.12581000  0.56043000  1.0
  O  O100  1  0.64912000  0.53529000  0.13999000  1.0
  O  O101  1  0.35110000  0.03533000  0.36003000  1.0
  O  O102  1  0.35099000  0.46467000  0.86003000  1.0
  O  O103  1  0.64890000  0.96468000  0.63997000  1.0
  O  O104  1  0.48194000  0.35811000  0.18252000  1.0
  O  O105  1  0.51813000  0.85810000  0.31749000  1.0
  O  O106  1  0.51806000  0.64188000  0.81747000  1.0
  O  O107  1  0.48179000  0.14189000  0.68249000  1.0
