# generated using pymatgen
data_Ag2P2H27C27(NO2)3
_symmetry_space_group_name_H-M   'P 1'
_cell_length_a   9.79732000
_cell_length_b   9.79729000
_cell_length_c   15.89050000
_cell_angle_alpha   76.06690000
_cell_angle_beta   76.06660000
_cell_angle_gamma   75.34180000
_symmetry_Int_Tables_number   1
_chemical_formula_structural   Ag2P2H27C27(NO2)3
_chemical_formula_sum   'Ag4 P4 H54 C54 N6 O12'
_cell_volume   1405.70311522
_cell_formula_units_Z   2
loop_
 _symmetry_equiv_pos_site_id
 _symmetry_equiv_pos_as_xyz
  1  'x, y, z'
loop_
 _atom_site_type_symbol
 _atom_site_label
 _atom_site_symmetry_multiplicity
 _atom_site_fract_x
 _atom_site_fract_y
 _atom_site_fract_z
 _atom_site_occupancy
  Ag  Ag0  1  0.77497000  0.09501000  0.41150000  1.0
  Ag  Ag1  1  0.09501000  0.77497000  0.91150000  1.0
  Ag  Ag2  1  0.38102000  0.24180000  0.73466000  1.0
  Ag  Ag3  1  0.24180000  0.38101000  0.23466000  1.0
  P  P4  1  0.64076000  0.10711000  0.55344000  1.0
  P  P5  1  0.10711000  0.64076000  0.05344000  1.0
  P  P6  1  0.62502000  0.14603000  0.73571000  1.0
  P  P7  1  0.14603000  0.62502000  0.23570000  1.0
  H  H8  1  0.57244000  0.88930000  0.71871000  1.0
  H  H9  1  0.88930000  0.57244000  0.21871000  1.0
  H  H10  1  0.41533000  0.71345000  0.75528000  1.0
  H  H11  1  0.71344000  0.41533000  0.25528000  1.0
  H  H12  1  0.27809000  0.69931000  0.64543000  1.0
  H  H13  1  0.69931000  0.27809000  0.14542000  1.0
  H  H14  1  0.30083000  0.86318000  0.49812000  1.0
  H  H15  1  0.86318000  0.30083000  0.99812000  1.0
  H  H16  1  0.45730000  0.04022000  0.46141000  1.0
  H  H17  1  0.04022000  0.45729000  0.96141000  1.0
  H  H18  1  0.32149000  0.20037000  0.58471000  1.0
  H  H19  1  0.20037000  0.32149000  0.08471000  1.0
  H  H20  1  0.16284000  0.43724000  0.55317000  1.0
  H  H21  1  0.43725000  0.16284000  0.05317000  1.0
  H  H22  1  0.26695000  0.65206000  0.47573000  1.0
  H  H23  1  0.65206000  0.26695000  0.97573000  1.0
  H  H24  1  0.53271000  0.62992000  0.44173000  1.0
  H  H25  1  0.62992000  0.53271000  0.94173000  1.0
  H  H26  1  0.69344000  0.39458000  0.48109000  1.0
  H  H27  1  0.39458000  0.69344000  0.98109000  1.0
  H  H28  1  0.90951000  0.04390000  0.69112000  1.0
  H  H29  1  0.04390000  0.90951000  0.19112000  1.0
  H  H30  1  0.90460000  0.28195000  0.59403000  1.0
  H  H31  1  0.28195000  0.90460000  0.09403000  1.0
  H  H32  1  0.93333000  0.20398000  0.49885000  1.0
  H  H33  1  0.20398000  0.93334000  0.99885000  1.0
  H  H34  1  0.06683000  0.15768000  0.56532000  1.0
  H  H35  1  0.15767000  0.06683000  0.06533000  1.0
  H  H36  1  0.89792000  0.83009000  0.63110000  1.0
  H  H37  1  0.83009000  0.89792000  0.13110000  1.0
  H  H38  1  0.06409000  0.88751000  0.59660000  1.0
  H  H39  1  0.88751000  0.06410000  0.09661000  1.0
  H  H40  1  0.94213000  0.92902000  0.52265000  1.0
  H  H41  1  0.92902000  0.94213000  0.02265000  1.0
  H  H42  1  0.57852000  0.45338000  0.67872000  1.0
  H  H43  1  0.45338000  0.57851000  0.17871000  1.0
  H  H44  1  0.70612000  0.63696000  0.68764000  1.0
  H  H45  1  0.63695000  0.70611000  0.18764000  1.0
  H  H46  1  0.91673000  0.56434000  0.76310000  1.0
  H  H47  1  0.56434000  0.91672000  0.26310000  1.0
  H  H48  1  0.98930000  0.31099000  0.83668000  1.0
  H  H49  1  0.31098000  0.98930000  0.33668000  1.0
  H  H50  1  0.86017000  0.12722000  0.83026000  1.0
  H  H51  1  0.12723000  0.86016000  0.33026000  1.0
  H  H52  1  0.83279000  0.85165000  0.75873000  1.0
  H  H53  1  0.85165000  0.83279000  0.25873000  1.0
  H  H54  1  0.86082000  0.66474000  0.89133000  1.0
  H  H55  1  0.66474000  0.86082000  0.39133000  1.0
  H  H56  1  0.71030000  0.70116000  0.03748000  1.0
  H  H57  1  0.70115000  0.71031000  0.53748000  1.0
  H  H58  1  0.52300000  0.92526000  0.04878000  1.0
  H  H59  1  0.92526000  0.52300000  0.54878000  1.0
  H  H60  1  0.48733000  0.11132000  0.91393000  1.0
  H  H61  1  0.11132000  0.48733000  0.41393000  1.0
  C  C62  1  0.52489000  0.97733000  0.58774000  1.0
  C  C63  1  0.97733000  0.52489000  0.08774000  1.0
  C  C64  1  0.51287000  0.88466000  0.67011000  1.0
  C  C65  1  0.88466000  0.51287000  0.17011000  1.0
  C  C66  1  0.42406000  0.78489000  0.69078000  1.0
  C  C67  1  0.78489000  0.42406000  0.19078000  1.0
  C  C68  1  0.34716000  0.77701000  0.62939000  1.0
  C  C69  1  0.77701000  0.34716000  0.12939000  1.0
  C  C70  1  0.35959000  0.86911000  0.54685000  1.0
  C  C71  1  0.86911000  0.35959000  0.04684000  1.0
  C  C72  1  0.44795000  0.96823000  0.52577000  1.0
  C  C73  1  0.96823000  0.44795000  0.02577000  1.0
  C  C74  1  0.51829000  0.28162000  0.53782000  1.0
  C  C75  1  0.28162000  0.51829000  0.03781000  1.0
  C  C76  1  0.36853000  0.29477000  0.55634000  1.0
  C  C77  1  0.29477000  0.36852000  0.05634000  1.0
  C  C78  1  0.27879000  0.42850000  0.53558000  1.0
  C  C79  1  0.42850000  0.27878000  0.03558000  1.0
  C  C80  1  0.33741000  0.54872000  0.49407000  1.0
  C  C81  1  0.54872000  0.33741000  0.99407000  1.0
  C  C82  1  0.48656000  0.53623000  0.47489000  1.0
  C  C83  1  0.53623000  0.48656000  0.97489000  1.0
  C  C84  1  0.57704000  0.40371000  0.49703000  1.0
  C  C85  1  0.40371000  0.57704000  0.99702000  1.0
  C  C86  1  0.88487000  0.05901000  0.62519000  1.0
  C  C87  1  0.05901000  0.88487000  0.12519000  1.0
  C  C88  1  0.95048000  0.18359000  0.56699000  1.0
  C  C89  1  0.18359000  0.95048000  0.06699000  1.0
  C  C90  1  0.95010000  0.91821000  0.59192000  1.0
  C  C91  1  0.91821000  0.95010000  0.09192000  1.0
  C  C92  1  0.71310000  0.27778000  0.75238000  1.0
  C  C93  1  0.27777000  0.71310000  0.25238000  1.0
  C  C94  1  0.66878000  0.42221000  0.71332000  1.0
  C  C95  1  0.42221000  0.66878000  0.21332000  1.0
  C  C96  1  0.74089000  0.52504000  0.71812000  1.0
  C  C97  1  0.52503000  0.74089000  0.21811000  1.0
  C  C98  1  0.85691000  0.48521000  0.76183000  1.0
  C  C99  1  0.48520000  0.85690000  0.26183000  1.0
  C  C100  1  0.89802000  0.34245000  0.80321000  1.0
  C  C101  1  0.34245000  0.89802000  0.30321000  1.0
  C  C102  1  0.82609000  0.23892000  0.79909000  1.0
  C  C103  1  0.23892000  0.82608000  0.29909000  1.0
  C  C104  1  0.65960000  0.99653000  0.82723000  1.0
  C  C105  1  0.99653000  0.65959000  0.32723000  1.0
  C  C106  1  0.76385000  0.86965000  0.82149000  1.0
  C  C107  1  0.86965000  0.76384000  0.32149000  1.0
  C  C108  1  0.78112000  0.76398000  0.89714000  1.0
  C  C109  1  0.76398000  0.78111000  0.39714000  1.0
  C  C110  1  0.69578000  0.78432000  0.97903000  1.0
  C  C111  1  0.78432000  0.69578000  0.47903000  1.0
  C  C112  1  0.59091000  0.91011000  0.98502000  1.0
  C  C113  1  0.91011000  0.59091000  0.48502000  1.0
  C  C114  1  0.57167000  0.01470000  0.90952000  1.0
  C  C115  1  0.01470000  0.57167000  0.40952000  1.0
  N  N116  1  0.02721000  0.17906000  0.28512000  1.0
  N  N117  1  0.17906000  0.02721000  0.78512000  1.0
  N  N118  1  0.72268000  0.09347000  0.63944000  1.0
  N  N119  1  0.09347000  0.72267000  0.13944000  1.0
  N  N120  1  0.51336000  0.19964000  0.29513000  1.0
  N  N121  1  0.19964000  0.51336000  0.79513000  1.0
  O  O122  1  0.63071000  0.10691000  0.29797000  1.0
  O  O123  1  0.10691000  0.63071000  0.79798000  1.0
  O  O124  1  0.95093000  0.08522000  0.29311000  1.0
  O  O125  1  0.08522000  0.95093000  0.79311000  1.0
  O  O126  1  0.99697000  0.26021000  0.34036000  1.0
  O  O127  1  0.26021000  0.99697000  0.84036000  1.0
  O  O128  1  0.13190000  0.18591000  0.22105000  1.0
  O  O129  1  0.18591000  0.13191000  0.72106000  1.0
  O  O130  1  0.44757000  0.20763000  0.23256000  1.0
  O  O131  1  0.20763000  0.44757000  0.73256000  1.0
  O  O132  1  0.46306000  0.27985000  0.35060000  1.0
  O  O133  1  0.27985000  0.46306000  0.85060000  1.0
