# generated using pymatgen
data_Cu5H14C32(N2O13)2
_symmetry_space_group_name_H-M   'P 1'
_cell_length_a   10.13640000
_cell_length_b   10.28080000
_cell_length_c   10.76902464
_cell_angle_alpha   74.67682506
_cell_angle_beta   63.88040429
_cell_angle_gamma   66.55900000
_symmetry_Int_Tables_number   1
_chemical_formula_structural   Cu5H14C32(N2O13)2
_chemical_formula_sum   'Cu5 H14 C32 N4 O26'
_cell_volume   919.04916482
_cell_formula_units_Z   1
loop_
 _symmetry_equiv_pos_site_id
 _symmetry_equiv_pos_as_xyz
  1  'x, y, z'
loop_
 _atom_site_type_symbol
 _atom_site_label
 _atom_site_symmetry_multiplicity
 _atom_site_fract_x
 _atom_site_fract_y
 _atom_site_fract_z
 _atom_site_occupancy
  Cu  Cu0  1  0.50000000  0.50000000  0.50000000  1.0
  Cu  Cu1  1  0.83275000  0.33115000  0.26852000  1.0
  Cu  Cu2  1  0.16725000  0.66885000  0.73148000  1.0
  Cu  Cu3  1  0.60601000  0.15651000  0.50263000  1.0
  Cu  Cu4  1  0.39398000  0.84349000  0.49738000  1.0
  H  H5  1  0.70444000  0.52995000  0.75268000  1.0
  H  H6  1  0.29557000  0.47006000  0.24731000  1.0
  H  H7  1  0.15185000  0.40271000  0.78360000  1.0
  H  H8  1  0.84815000  0.59729000  0.21640000  1.0
  H  H9  1  0.11126000  0.24098000  0.47764000  1.0
  H  H10  1  0.88873000  0.75901000  0.52237000  1.0
  H  H11  1  0.09589000  0.01848000  0.32984000  1.0
  H  H12  1  0.90410000  0.98152000  0.67016000  1.0
  H  H13  1  0.98726000  0.85454000  0.07129000  1.0
  H  H14  1  0.01273000  0.14546000  0.92871000  1.0
  H  H15  1  0.46650000  0.77073000  0.99875000  1.0
  H  H16  1  0.53349000  0.22928000  0.00125000  1.0
  H  H17  1  0.57611000  0.35799000  0.30262000  1.0
  H  H18  1  0.42389000  0.64202000  0.69738000  1.0
  C  C19  1  0.89713000  0.38133000  0.60963000  1.0
  C  C20  1  0.10287000  0.61868000  0.39037000  1.0
  C  C21  1  0.82769000  0.46744000  0.71764000  1.0
  C  C22  1  0.17231000  0.53255000  0.28236000  1.0
  C  C23  1  0.92357000  0.47646000  0.77440000  1.0
  C  C24  1  0.07643000  0.52354000  0.22560000  1.0
  C  C25  1  0.08129000  0.39855000  0.73323000  1.0
  C  C26  1  0.91871000  0.60145000  0.26677000  1.0
  C  C27  1  0.14840000  0.31374000  0.62530000  1.0
  C  C28  1  0.85160000  0.68625000  0.37471000  1.0
  C  C29  1  0.05666000  0.30594000  0.56330000  1.0
  C  C30  1  0.94334000  0.69407000  0.43670000  1.0
  C  C31  1  0.80568000  0.38030000  0.53232000  1.0
  C  C32  1  0.19432000  0.61970000  0.46768000  1.0
  C  C33  1  0.31934000  0.23983000  0.56891000  1.0
  C  C34  1  0.68066000  0.76016000  0.43110000  1.0
  C  C35  1  0.29010000  0.89820000  0.16584000  1.0
  C  C36  1  0.70989000  0.10180000  0.83416000  1.0
  C  C37  1  0.13266000  0.96008000  0.24318000  1.0
  C  C38  1  0.86733000  0.03993000  0.75682000  1.0
  C  C39  1  0.02364000  0.94471000  0.20714000  1.0
  C  C40  1  0.97635000  0.05529000  0.79286000  1.0
  C  C41  1  0.07374000  0.86606000  0.09774000  1.0
  C  C42  1  0.92626000  0.13394000  0.90226000  1.0
  C  C43  1  0.23222000  0.80117000  0.02428000  1.0
  C  C44  1  0.76777000  0.19882000  0.97573000  1.0
  C  C45  1  0.34298000  0.81871000  0.05648000  1.0
  C  C46  1  0.65701000  0.18128000  0.94353000  1.0
  C  C47  1  0.85205000  0.00825000  0.28550000  1.0
  C  C48  1  0.14796000  0.99174000  0.71450000  1.0
  C  C49  1  0.28165000  0.71663000  0.90838000  1.0
  C  C50  1  0.71836000  0.28336000  0.09162000  1.0
  N  N51  1  0.85751000  0.57642000  0.87664000  1.0
  N  N52  1  0.14249000  0.42358000  0.12335000  1.0
  N  N53  1  0.40369000  0.91649000  0.20293000  1.0
  N  N54  1  0.59630000  0.08352000  0.79707000  1.0
  O  O55  1  0.65891000  0.43596000  0.58431000  1.0
  O  O56  1  0.34110000  0.56404000  0.41569000  1.0
  O  O57  1  0.88814000  0.32664000  0.41651000  1.0
  O  O58  1  0.11187000  0.67335000  0.58349000  1.0
  O  O59  1  0.38380000  0.16417000  0.47101000  1.0
  O  O60  1  0.61619000  0.83582000  0.52901000  1.0
  O  O61  1  0.40039000  0.26417000  0.62114000  1.0
  O  O62  1  0.59961000  0.73584000  0.37886000  1.0
  O  O63  1  0.94595000  0.62926000  0.88584000  1.0
  O  O64  1  0.05406000  0.37074000  0.11415000  1.0
  O  O65  1  0.71842000  0.60645000  0.95048000  1.0
  O  O66  1  0.28158000  0.39355000  0.04952000  1.0
  O  O67  1  0.81754000  0.06725000  0.39504000  1.0
  O  O68  1  0.18246000  0.93275000  0.60495000  1.0
  O  O69  1  0.75645000  0.00257000  0.24685000  1.0
  O  O70  1  0.24355000  0.99742000  0.75315000  1.0
  O  O71  1  0.16578000  0.70440000  0.89446000  1.0
  O  O72  1  0.83423000  0.29559000  0.10554000  1.0
  O  O73  1  0.42212000  0.66505000  0.83412000  1.0
  O  O74  1  0.57787000  0.33495000  0.16589000  1.0
  O  O75  1  0.35064000  0.96591000  0.31784000  1.0
  O  O76  1  0.64935000  0.03410000  0.68216000  1.0
  O  O77  1  0.54090000  0.88477000  0.12391000  1.0
  O  O78  1  0.45909000  0.11524000  0.87609000  1.0
  O  O79  1  0.61542000  0.34921000  0.37949000  1.0
  O  O80  1  0.38459000  0.65078000  0.62051000  1.0
