# generated using pymatgen
data_Zr6H37C52N7O32
_symmetry_space_group_name_H-M   'P 1'
_cell_length_a   14.77640000
_cell_length_b   14.77770000
_cell_length_c   14.78570000
_cell_angle_alpha   60.02510000
_cell_angle_beta   60.11170000
_cell_angle_gamma   60.09330000
_symmetry_Int_Tables_number   1
_chemical_formula_structural   Zr6H37C52N7O32
_chemical_formula_sum   'Zr6 H37 C52 N7 O32'
_cell_volume   2286.94666503
_cell_formula_units_Z   1
loop_
 _symmetry_equiv_pos_site_id
 _symmetry_equiv_pos_as_xyz
  1  'x, y, z'
loop_
 _atom_site_type_symbol
 _atom_site_label
 _atom_site_symmetry_multiplicity
 _atom_site_fract_x
 _atom_site_fract_y
 _atom_site_fract_z
 _atom_site_occupancy
  Zr  Zr0  1  0.11733000  0.12415000  0.37894000  1.0
  Zr  Zr1  1  0.88102000  0.88378000  0.61559000  1.0
  Zr  Zr2  1  0.11869000  0.88562000  0.37731000  1.0
  Zr  Zr3  1  0.87829000  0.12319000  0.61787000  1.0
  Zr  Zr4  1  0.11697000  0.88405000  0.61803000  1.0
  Zr  Zr5  1  0.87806000  0.12277000  0.37941000  1.0
  H  H6  1  0.28048000  0.90926000  0.40543000  1.0
  H  H7  1  0.90569000  0.90689000  0.78010000  1.0
  H  H8  1  0.90536000  0.90945000  0.40241000  1.0
  H  H9  1  0.90327000  0.28603000  0.40438000  1.0
  H  H10  1  0.38897000  0.17283000  0.38262000  1.0
  H  H11  1  0.41177000  0.85463000  0.63800000  1.0
  H  H12  1  0.56087000  0.16499000  0.38717000  1.0
  H  H13  1  0.14915000  0.41541000  0.07552000  1.0
  H  H14  1  0.86370000  0.40299000  0.07776000  1.0
  H  H15  1  0.14333000  0.58510000  0.90581000  1.0
  H  H16  1  0.14836000  0.86031000  0.91266000  1.0
  H  H17  1  0.87496000  0.16529000  0.88764000  1.0
  H  H18  1  0.14245000  0.86716000  0.08182000  1.0
  H  H19  1  0.57619000  0.41787000  0.35448000  1.0
  H  H20  1  0.58078000  0.40525000  0.64870000  1.0
  H  H21  1  0.40864000  0.58945000  0.35878000  1.0
  H  H22  1  0.42408000  0.02131000  0.25779000  1.0
  H  H23  1  0.58561000  0.03348000  0.25350000  1.0
  H  H24  1  0.75501000  0.03210000  0.91875000  1.0
  H  H25  1  0.75308000  0.03842000  0.08185000  1.0
  H  H26  1  0.85915000  0.41472000  0.65214000  1.0
  H  H27  1  0.14846000  0.40549000  0.36189000  1.0
  H  H28  1  0.86643000  0.58471000  0.64477000  1.0
  H  H29  1  0.66833000  0.81274000  0.64955000  1.0
  H  H30  1  0.57134000  0.75522000  0.68848000  1.0
  H  H31  1  0.82897000  0.65126000  0.84148000  1.0
  H  H32  1  0.77526000  0.54660000  0.94957000  1.0
  H  H33  1  0.83686000  0.18746000  0.13771000  1.0
  H  H34  1  0.78629000  0.23959000  0.03024000  1.0
  H  H35  1  0.33311000  0.64213000  0.68295000  1.0
  H  H36  1  0.43157000  0.52846000  0.74132000  1.0
  H  H37  1  0.18374000  0.64452000  0.33463000  1.0
  H  H38  1  0.23811000  0.53369000  0.28729000  1.0
  H  H39  1  0.58212000  0.94527000  0.76932000  1.0
  H  H40  1  0.46133000  0.91893000  0.85234000  1.0
  H  H41  1  0.25984000  0.96134000  0.07795000  1.0
  H  H42  1  0.30826000  0.00611000  0.93687000  1.0
  C  C43  1  0.29463000  0.01033000  0.50556000  1.0
  C  C44  1  0.00152000  0.69261000  0.79846000  1.0
  C  C45  1  0.68837000  0.00474000  0.50505000  1.0
  C  C46  1  0.00293000  0.30242000  0.18995000  1.0
  C  C47  1  0.30105000  0.00720000  0.19195000  1.0
  C  C48  1  0.00061000  0.30312000  0.50447000  1.0
  C  C49  1  0.69211000  0.00613000  0.79980000  1.0
  C  C50  1  0.00508000  0.69451000  0.49899000  1.0
  C  C51  1  0.30068000  0.69540000  0.50185000  1.0
  C  C52  1  0.00273000  0.01216000  0.18573000  1.0
  C  C53  1  0.68954000  0.30247000  0.50095000  1.0
  C  C54  1  0.00604000  0.00767000  0.79582000  1.0
  C  C55  1  0.58429000  0.00558000  0.51266000  1.0
  C  C56  1  0.39214000  0.01269000  0.51011000  1.0
  C  C57  1  0.54210000  0.91584000  0.58653000  1.0
  C  C58  1  0.43209000  0.10247000  0.43898000  1.0
  C  C59  1  0.44530000  0.92245000  0.58326000  1.0
  C  C60  1  0.52677000  0.09763000  0.44155000  1.0
  C  C61  1  0.00130000  0.59021000  0.89570000  1.0
  C  C62  1  0.00525000  0.40065000  0.08626000  1.0
  C  C63  1  0.92014000  0.53864000  0.94382000  1.0
  C  C64  1  0.08631000  0.45037000  0.03807000  1.0
  C  C65  1  0.92482000  0.44367000  0.03937000  1.0
  C  C66  1  0.08291000  0.54361000  0.94440000  1.0
  C  C67  1  0.00554000  0.01870000  0.08129000  1.0
  C  C68  1  0.01060000  0.01301000  0.89168000  1.0
  C  C69  1  0.92813000  0.10584000  0.02614000  1.0
  C  C70  1  0.08863000  0.92835000  0.94439000  1.0
  C  C71  1  0.93375000  0.10057000  0.93071000  1.0
  C  C72  1  0.08497000  0.93264000  0.03755000  1.0
  C  C73  1  0.39933000  0.59420000  0.50550000  1.0
  C  C74  1  0.58751000  0.40241000  0.50230000  1.0
  C  C75  1  0.44736000  0.54197000  0.59025000  1.0
  C  C76  1  0.53969000  0.45319000  0.41924000  1.0
  C  C77  1  0.54179000  0.44609000  0.58575000  1.0
  C  C78  1  0.44734000  0.54763000  0.42205000  1.0
  C  C79  1  0.40388000  0.00257000  0.09444000  1.0
  C  C80  1  0.49550000  0.01608000  0.09104000  1.0
  C  C81  1  0.40970000  0.98406000  0.00758000  1.0
  C  C82  1  0.49653000  0.02210000  0.18342000  1.0
  C  C83  1  0.58710000  0.03011000  0.18076000  1.0
  C  C84  1  0.59408000  0.00389000  0.90235000  1.0
  C  C85  1  0.50758000  0.98257000  0.91060000  1.0
  C  C86  1  0.59107000  0.01882000  0.99293000  1.0
  C  C87  1  0.68230000  0.02835000  0.99269000  1.0
  C  C88  1  0.68072000  0.03333000  0.08437000  1.0
  C  C89  1  0.00935000  0.59248000  0.49916000  1.0
  C  C90  1  0.00393000  0.40176000  0.50589000  1.0
  C  C91  1  0.09257000  0.54120000  0.41765000  1.0
  C  C92  1  0.92309000  0.45086000  0.58762000  1.0
  C  C93  1  0.08699000  0.44562000  0.42371000  1.0
  C  C94  1  0.92724000  0.54461000  0.58288000  1.0
  N  N95  1  0.59011000  0.82374000  0.66129000  1.0
  N  N96  1  0.83955000  0.57567000  0.90126000  1.0
  N  N97  1  0.84954000  0.19366000  0.06097000  1.0
  N  N98  1  0.40829000  0.58166000  0.67371000  1.0
  N  N99  1  0.17514000  0.58114000  0.33356000  1.0
  N  N100  1  0.50693000  0.96587000  0.82714000  1.0
  N  N101  1  0.32716000  0.96403000  0.00794000  1.0
  O  O102  1  0.25767000  0.08577000  0.42658000  1.0
  O  O103  1  0.92331000  0.73711000  0.75761000  1.0
  O  O104  1  0.73393000  0.92513000  0.57831000  1.0
  O  O105  1  0.07775000  0.26524000  0.23144000  1.0
  O  O106  1  0.25812000  0.93240000  0.23037000  1.0
  O  O107  1  0.92185000  0.26563000  0.57952000  1.0
  O  O108  1  0.73322000  0.08214000  0.75916000  1.0
  O  O109  1  0.08026000  0.73821000  0.42149000  1.0
  O  O110  1  0.25873000  0.73786000  0.57809000  1.0
  O  O111  1  0.92218000  0.08416000  0.23172000  1.0
  O  O112  1  0.73021000  0.26419000  0.42276000  1.0
  O  O113  1  0.07920000  0.92717000  0.76044000  1.0
  O  O114  1  0.07898000  0.93459000  0.22633000  1.0
  O  O115  1  0.73039000  0.26335000  0.57674000  1.0
  O  O116  1  0.92757000  0.08261000  0.75774000  1.0
  O  O117  1  0.26225000  0.73691000  0.42350000  1.0
  O  O118  1  0.26052000  0.08360000  0.23215000  1.0
  O  O119  1  0.92651000  0.73591000  0.57418000  1.0
  O  O120  1  0.73095000  0.93095000  0.75734000  1.0
  O  O121  1  0.07589000  0.26437000  0.42670000  1.0
  O  O122  1  0.92495000  0.26357000  0.23115000  1.0
  O  O123  1  0.25717000  0.93114000  0.57936000  1.0
  O  O124  1  0.07705000  0.73376000  0.76018000  1.0
  O  O125  1  0.72877000  0.08047000  0.42698000  1.0
  O  O126  1  0.93006000  0.20574000  0.43115000  1.0
  O  O127  1  0.93194000  0.93649000  0.42914000  1.0
  O  O128  1  0.93148000  0.93544000  0.69989000  1.0
  O  O129  1  0.20026000  0.93724000  0.43089000  1.0
  O  O130  1  0.04905000  0.85420000  0.54662000  1.0
  O  O131  1  0.04727000  0.05312000  0.54802000  1.0
  O  O132  1  0.84949000  0.05266000  0.54754000  1.0
  O  O133  1  0.04738000  0.05398000  0.34952000  1.0
