# generated using pymatgen
data_MnH16C8(BrO)2
_symmetry_space_group_name_H-M   'P 1'
_cell_length_a   3.88533000
_cell_length_b   7.65194000
_cell_length_c   9.27406000
_cell_angle_alpha   94.08310000
_cell_angle_beta   100.30000000
_cell_angle_gamma   90.05430000
_symmetry_Int_Tables_number   1
_chemical_formula_structural   MnH16C8(BrO)2
_chemical_formula_sum   'Mn1 H16 C8 Br2 O2'
_cell_volume   270.56263407
_cell_formula_units_Z   1
loop_
 _symmetry_equiv_pos_site_id
 _symmetry_equiv_pos_as_xyz
  1  'x, y, z'
loop_
 _atom_site_type_symbol
 _atom_site_label
 _atom_site_symmetry_multiplicity
 _atom_site_fract_x
 _atom_site_fract_y
 _atom_site_fract_z
 _atom_site_occupancy
  Mn  Mn0  1  0.50012000  0.00002000  0.00001000  1.0
  H  H1  1  0.86344000  0.61622000  0.14238000  1.0
  H  H2  1  0.59974000  0.40775000  0.91456000  1.0
  H  H3  1  0.13677000  0.38377000  0.85767000  1.0
  H  H4  1  0.40050000  0.59225000  0.08540000  1.0
  H  H5  1  0.31531000  0.55115000  0.33201000  1.0
  H  H6  1  0.26543000  0.54087000  0.65784000  1.0
  H  H7  1  0.68470000  0.44870000  0.66788000  1.0
  H  H8  1  0.73476000  0.45920000  0.34221000  1.0
  H  H9  1  0.99754000  0.70881000  0.49343000  1.0
  H  H10  1  0.42798000  0.23581000  0.48404000  1.0
  H  H11  1  0.00182000  0.29126000  0.50684000  1.0
  H  H12  1  0.57106000  0.76430000  0.51576000  1.0
  H  H13  1  0.62361000  0.00883000  0.37079000  1.0
  H  H14  1  0.97817000  0.07639000  0.67323000  1.0
  H  H15  1  0.37677000  0.99126000  0.62914000  1.0
  H  H16  1  0.02211000  0.92340000  0.32682000  1.0
  C  C17  1  0.60816000  0.64315000  0.17422000  1.0
  C  C18  1  0.39196000  0.35685000  0.82576000  1.0
  C  C19  1  0.58739000  0.58025000  0.32433000  1.0
  C  C20  1  0.41258000  0.41975000  0.67565000  1.0
  C  C21  1  0.73613000  0.73571000  0.43289000  1.0
  C  C22  1  0.26347000  0.26433000  0.56711000  1.0
  C  C23  1  0.75254000  0.88948000  0.33640000  1.0
  C  C24  1  0.24758000  0.11049000  0.66360000  1.0
  Br  Br25  1  0.94509000  0.80113000  0.87267000  1.0
  Br  Br26  1  0.05512000  0.19888000  0.12738000  1.0
  O  O27  1  0.56274000  0.83150000  0.19133000  1.0
  O  O28  1  0.43741000  0.16850000  0.80867000  1.0
