# generated using pymatgen
data_CdH14C14(NCl)2
_symmetry_space_group_name_H-M   'P 1'
_cell_length_a   7.35419000
_cell_length_b   9.60594000
_cell_length_c   10.31390000
_cell_angle_alpha   91.15800000
_cell_angle_beta   102.42100000
_cell_angle_gamma   94.61510000
_symmetry_Int_Tables_number   1
_chemical_formula_structural   CdH14C14(NCl)2
_chemical_formula_sum   'Cd2 H28 C28 N4 Cl4'
_cell_volume   708.72586904
_cell_formula_units_Z   2
loop_
 _symmetry_equiv_pos_site_id
 _symmetry_equiv_pos_as_xyz
  1  'x, y, z'
loop_
 _atom_site_type_symbol
 _atom_site_label
 _atom_site_symmetry_multiplicity
 _atom_site_fract_x
 _atom_site_fract_y
 _atom_site_fract_z
 _atom_site_occupancy
  Cd  Cd0  1  0.26312000  0.07563000  0.02706000  1.0
  Cd  Cd1  1  0.73688000  0.92437000  0.97294000  1.0
  H  H2  1  0.29033000  0.63741000  0.04350000  1.0
  H  H3  1  0.70966000  0.36259000  0.95650000  1.0
  H  H4  1  0.10605000  0.66732000  0.81761000  1.0
  H  H5  1  0.89394000  0.33267000  0.18239000  1.0
  H  H6  1  0.97751000  0.45186000  0.66983000  1.0
  H  H7  1  0.02248000  0.54814000  0.33017000  1.0
  H  H8  1  0.03326000  0.21611000  0.76471000  1.0
  H  H9  1  0.96675000  0.78388000  0.23529000  1.0
  H  H10  1  0.53974000  0.48088000  0.34074000  1.0
  H  H11  1  0.46026000  0.51911000  0.65926000  1.0
  H  H12  1  0.33906000  0.57011000  0.27300000  1.0
  H  H13  1  0.66094000  0.42989000  0.72700000  1.0
  H  H14  1  0.53141000  0.58417000  0.19785000  1.0
  H  H15  1  0.46859000  0.41583000  0.80215000  1.0
  H  H16  1  0.46525000  0.19544000  0.64330000  1.0
  H  H17  1  0.53475000  0.80455000  0.35670000  1.0
  H  H18  1  0.76291000  0.09205000  0.65563000  1.0
  H  H19  1  0.23709000  0.90795000  0.34437000  1.0
  H  H20  1  0.89011000  0.06859000  0.44842000  1.0
  H  H21  1  0.10989000  0.93141000  0.55158000  1.0
  H  H22  1  0.70739000  0.14286000  0.23484000  1.0
  H  H23  1  0.29262000  0.85714000  0.76516000  1.0
  H  H24  1  0.18953000  0.27489000  0.52449000  1.0
  H  H25  1  0.81047000  0.72511000  0.47550000  1.0
  H  H26  1  0.12968000  0.25753000  0.34823000  1.0
  H  H27  1  0.87032000  0.74246000  0.65177000  1.0
  H  H28  1  0.25122000  0.41444000  0.42826000  1.0
  H  H29  1  0.74878000  0.58556000  0.57174000  1.0
  C  C30  1  0.25974000  0.40997000  0.02442000  1.0
  C  C31  1  0.74026000  0.59003000  0.97558000  1.0
  C  C32  1  0.23217000  0.54520000  0.98032000  1.0
  C  C33  1  0.76783000  0.45480000  0.01968000  1.0
  C  C34  1  0.12905000  0.56226000  0.85212000  1.0
  C  C35  1  0.87095000  0.43774000  0.14788000  1.0
  C  C36  1  0.05700000  0.44405000  0.77117000  1.0
  C  C37  1  0.94300000  0.55595000  0.22883000  1.0
  C  C38  1  0.08827000  0.31258000  0.82247000  1.0
  C  C39  1  0.91173000  0.68742000  0.17753000  1.0
  C  C40  1  0.37001000  0.38583000  0.16037000  1.0
  C  C41  1  0.63000000  0.61418000  0.83963000  1.0
  C  C42  1  0.45000000  0.51120000  0.24853000  1.0
  C  C43  1  0.55000000  0.48881000  0.75147000  1.0
  C  C44  1  0.49244000  0.22293000  0.32026000  1.0
  C  C45  1  0.50756000  0.77707000  0.67974000  1.0
  C  C46  1  0.42069000  0.23920000  0.43565000  1.0
  C  C47  1  0.57932000  0.76080000  0.56434000  1.0
  C  C48  1  0.52244000  0.19058000  0.55435000  1.0
  C  C49  1  0.47756000  0.80943000  0.44565000  1.0
  C  C50  1  0.69111000  0.13151000  0.56163000  1.0
  C  C51  1  0.30889000  0.86850000  0.43838000  1.0
  C  C52  1  0.76027000  0.11677000  0.44658000  1.0
  C  C53  1  0.23973000  0.88323000  0.55342000  1.0
  C  C54  1  0.65904000  0.15954000  0.32610000  1.0
  C  C55  1  0.34096000  0.84046000  0.67389000  1.0
  C  C56  1  0.23803000  0.29977000  0.43354000  1.0
  C  C57  1  0.76197000  0.70023000  0.56646000  1.0
  N  N58  1  0.18645000  0.29663000  0.94545000  1.0
  N  N59  1  0.81355000  0.70337000  0.05455000  1.0
  N  N60  1  0.39419000  0.25865000  0.19319000  1.0
  N  N61  1  0.60582000  0.74135000  0.80681000  1.0
  Cl  Cl62  1  0.99363000  0.04756000  0.16580000  1.0
  Cl  Cl63  1  0.00638000  0.95245000  0.83420000  1.0
  Cl  Cl64  1  0.45177000  0.87129000  0.10706000  1.0
  Cl  Cl65  1  0.54823000  0.12871000  0.89294000  1.0
