# generated using pymatgen
data_ZnH2C14Br3NO4
_symmetry_space_group_name_H-M   'P 1'
_cell_length_a   14.00170000
_cell_length_b   14.84950000
_cell_length_c   16.21310000
_cell_angle_alpha   89.06170000
_cell_angle_beta   89.52460000
_cell_angle_gamma   82.81330000
_symmetry_Int_Tables_number   1
_chemical_formula_structural   ZnH2C14Br3NO4
_chemical_formula_sum   'Zn2 H4 C28 Br6 N2 O8'
_cell_volume   3344.00112361
_cell_formula_units_Z   2
loop_
 _symmetry_equiv_pos_site_id
 _symmetry_equiv_pos_as_xyz
  1  'x, y, z'
loop_
 _atom_site_type_symbol
 _atom_site_label
 _atom_site_symmetry_multiplicity
 _atom_site_fract_x
 _atom_site_fract_y
 _atom_site_fract_z
 _atom_site_occupancy
  Zn  Zn0  1  0.49974000  0.59497000  0.49849000  1.0
  Zn  Zn1  1  0.50026000  0.40503000  0.50152000  1.0
  H  H2  1  0.97568000  0.60422000  0.49997000  1.0
  H  H3  1  0.02432000  0.39575000  0.50003000  1.0
  H  H4  1  0.49539000  0.08349000  0.63269000  1.0
  H  H5  1  0.50460000  0.91654000  0.36731000  1.0
  C  C6  1  0.49964000  0.50066000  0.66084000  1.0
  C  C7  1  0.50035000  0.49935000  0.33916000  1.0
  C  C8  1  0.49967000  0.50071000  0.75017000  1.0
  C  C9  1  0.50032000  0.49930000  0.24983000  1.0
  C  C10  1  0.50148000  0.95229000  0.57609000  1.0
  C  C11  1  0.49854000  0.04774000  0.42391000  1.0
  C  C12  1  0.50398000  0.90596000  0.50050000  1.0
  C  C13  1  0.49602000  0.09406000  0.49949000  1.0
  C  C14  1  0.50260000  0.95368000  0.42482000  1.0
  C  C15  1  0.49741000  0.04634000  0.57518000  1.0
  C  C16  1  0.50695000  0.81008000  0.49957000  1.0
  C  C17  1  0.49306000  0.18992000  0.50043000  1.0
  C  C18  1  0.31295000  0.52872000  0.50022000  1.0
  C  C19  1  0.68704000  0.47125000  0.49977000  1.0
  C  C20  1  0.79100000  0.46256000  0.49982000  1.0
  C  C21  1  0.20899000  0.53743000  0.50017000  1.0
  C  C22  1  0.97864000  0.46110000  0.49997000  1.0
  C  C23  1  0.02136000  0.53889000  0.50005000  1.0
  C  C24  1  0.12160000  0.53876000  0.50010000  1.0
  C  C25  1  0.87839000  0.46121000  0.49989000  1.0
  C  C26  1  0.49952000  0.58212000  0.04223000  1.0
  C  C27  1  0.50045000  0.41789000  0.95778000  1.0
  C  C28  1  0.50006000  0.49953000  0.08778000  1.0
  C  C29  1  0.49992000  0.50048000  0.91222000  1.0
  C  C30  1  0.50053000  0.41751000  0.04387000  1.0
  C  C31  1  0.49948000  0.58249000  0.95613000  1.0
  C  C32  1  0.50023000  0.49911000  0.17472000  1.0
  C  C33  1  0.49976000  0.50090000  0.82529000  1.0
  Br  Br34  1  0.49872000  0.69178000  0.89486000  1.0
  Br  Br35  1  0.50129000  0.30822000  0.10514000  1.0
  Br  Br36  1  0.49891000  0.69055000  0.10129000  1.0
  Br  Br37  1  0.50111000  0.30946000  0.89872000  1.0
  Br  Br38  1  0.50368000  0.88744000  0.67668000  1.0
  Br  Br39  1  0.49631000  0.11259000  0.32331000  1.0
  N  N40  1  0.49140000  0.26809000  0.50314000  1.0
  N  N41  1  0.50861000  0.73192000  0.49686000  1.0
  O  O42  1  0.49844000  0.57772000  0.62505000  1.0
  O  O43  1  0.50156000  0.42228000  0.37495000  1.0
  O  O44  1  0.50084000  0.42357000  0.62735000  1.0
  O  O45  1  0.49915000  0.57643000  0.37264000  1.0
  O  O46  1  0.35241000  0.60156000  0.49924000  1.0
  O  O47  1  0.64758000  0.39840000  0.50076000  1.0
  O  O48  1  0.35527000  0.44746000  0.50124000  1.0
  O  O49  1  0.64474000  0.55250000  0.49874000  1.0
