# generated using pymatgen
data_Sr5H20C32(NO12)2
_symmetry_space_group_name_H-M   'P 1'
_cell_length_a   7.06302000
_cell_length_b   10.40300000
_cell_length_c   12.71480000
_cell_angle_alpha   90.94400000
_cell_angle_beta   91.69400000
_cell_angle_gamma   103.77800000
_symmetry_Int_Tables_number   1
_chemical_formula_structural   Sr5H20C32(NO12)2
_chemical_formula_sum   'Sr5 H20 C32 N2 O24'
_cell_volume   906.69555187
_cell_formula_units_Z   1
loop_
 _symmetry_equiv_pos_site_id
 _symmetry_equiv_pos_as_xyz
  1  'x, y, z'
loop_
 _atom_site_type_symbol
 _atom_site_label
 _atom_site_symmetry_multiplicity
 _atom_site_fract_x
 _atom_site_fract_y
 _atom_site_fract_z
 _atom_site_occupancy
  Sr  Sr0  1  0.00000000  0.00000000  0.00000000  1.0
  Sr  Sr1  1  0.44020000  0.79901000  0.05815000  1.0
  Sr  Sr2  1  0.55980000  0.20099000  0.94185000  1.0
  Sr  Sr3  1  0.12808000  0.37311000  0.11124000  1.0
  Sr  Sr4  1  0.87192000  0.62689000  0.88876000  1.0
  H  H5  1  0.21652000  0.15740000  0.36028000  1.0
  H  H6  1  0.78348000  0.84260000  0.63971000  1.0
  H  H7  1  0.41493000  0.18187000  0.53056000  1.0
  H  H8  1  0.58506000  0.81813000  0.46943000  1.0
  H  H9  1  0.75379000  0.15914000  0.52964000  1.0
  H  H10  1  0.24621000  0.84086000  0.47036000  1.0
  H  H11  1  0.90080000  0.11196000  0.36062000  1.0
  H  H12  1  0.09920000  0.88805000  0.63938000  1.0
  H  H13  1  0.55636000  0.37166000  0.30406000  1.0
  H  H14  1  0.44365000  0.62834000  0.69594000  1.0
  H  H15  1  0.65958000  0.47836000  0.47898000  1.0
  H  H16  1  0.34043000  0.52164000  0.52102000  1.0
  H  H17  1  0.88605000  0.70206000  0.49183000  1.0
  H  H18  1  0.11395000  0.29795000  0.50817000  1.0
  H  H19  1  0.00413000  0.81930000  0.32639000  1.0
  H  H20  1  0.99587000  0.18070000  0.67361000  1.0
  H  H21  1  0.93544000  0.36337000  0.33478000  1.0
  H  H22  1  0.06456000  0.63663000  0.66522000  1.0
  H  H23  1  0.14055000  0.46580000  0.33537000  1.0
  H  H24  1  0.85944000  0.53420000  0.66463000  1.0
  C  C25  1  0.44692000  0.11972000  0.26751000  1.0
  C  C26  1  0.55308000  0.88027000  0.73249000  1.0
  C  C27  1  0.36619000  0.14651000  0.36263000  1.0
  C  C28  1  0.63381000  0.85349000  0.63737000  1.0
  C  C29  1  0.47633000  0.16128000  0.45641000  1.0
  C  C30  1  0.52367000  0.83872000  0.54359000  1.0
  C  C31  1  0.66887000  0.14845000  0.45580000  1.0
  C  C32  1  0.33113000  0.85155000  0.54420000  1.0
  C  C33  1  0.75087000  0.12221000  0.36178000  1.0
  C  C34  1  0.24914000  0.87779000  0.63822000  1.0
  C  C35  1  0.64150000  0.10967000  0.26697000  1.0
  C  C36  1  0.35850000  0.89033000  0.73303000  1.0
  C  C37  1  0.32537000  0.10302000  0.16846000  1.0
  C  C38  1  0.67463000  0.89698000  0.83153000  1.0
  C  C39  1  0.73451000  0.08603000  0.16621000  1.0
  C  C40  1  0.26549000  0.91397000  0.83379000  1.0
  C  C41  1  0.72409000  0.53265000  0.21688000  1.0
  C  C42  1  0.27592000  0.46735000  0.78312000  1.0
  C  C43  1  0.65462000  0.46982000  0.30953000  1.0
  C  C44  1  0.34538000  0.53018000  0.69048000  1.0
  C  C45  1  0.71295000  0.53015000  0.40799000  1.0
  C  C46  1  0.28706000  0.46986000  0.59201000  1.0
  C  C47  1  0.84022000  0.65555000  0.41482000  1.0
  C  C48  1  0.15979000  0.34446000  0.58519000  1.0
  C  C49  1  0.90774000  0.72022000  0.32314000  1.0
  C  C50  1  0.09226000  0.27978000  0.67686000  1.0
  C  C51  1  0.85069000  0.66011000  0.22426000  1.0
  C  C52  1  0.14932000  0.33989000  0.77574000  1.0
  C  C53  1  0.91530000  0.73867000  0.12891000  1.0
  C  C54  1  0.08470000  0.26133000  0.87109000  1.0
  C  C55  1  0.67629000  0.45543000  0.11423000  1.0
  C  C56  1  0.32371000  0.54457000  0.88578000  1.0
  N  N57  1  0.34942000  0.66890000  0.27425000  1.0
  N  N58  1  0.65058000  0.33109000  0.72575000  1.0
  O  O59  1  0.38012000  0.04747000  0.08702000  1.0
  O  O60  1  0.61988000  0.95253000  0.91298000  1.0
  O  O61  1  0.16906000  0.14295000  0.16666000  1.0
  O  O62  1  0.83093000  0.85705000  0.83334000  1.0
  O  O63  1  0.79939000  0.18432000  0.10704000  1.0
  O  O64  1  0.20061000  0.81568000  0.89296000  1.0
  O  O65  1  0.74924000  0.96949000  0.14605000  1.0
  O  O66  1  0.25076000  0.03051000  0.85395000  1.0
  O  O67  1  0.78692000  0.73805000  0.05493000  1.0
  O  O68  1  0.21308000  0.26195000  0.94507000  1.0
  O  O69  1  0.08935000  0.80658000  0.12465000  1.0
  O  O70  1  0.91065000  0.19341000  0.87535000  1.0
  O  O71  1  0.50685000  0.38235000  0.09682000  1.0
  O  O72  1  0.49316000  0.61765000  0.90318000  1.0
  O  O73  1  0.81615000  0.46102000  0.05051000  1.0
  O  O74  1  0.18385000  0.53898000  0.94949000  1.0
  O  O75  1  0.29012000  0.61590000  0.35912000  1.0
  O  O76  1  0.70988000  0.38409000  0.64088000  1.0
  O  O77  1  0.44539000  0.78676000  0.27174000  1.0
  O  O78  1  0.55460000  0.21324000  0.72826000  1.0
  O  O79  1  0.31130000  0.60211000  0.18653000  1.0
  O  O80  1  0.68870000  0.39789000  0.81347000  1.0
  O  O81  1  0.06743000  0.37594000  0.30960000  1.0
  O  O82  1  0.93257000  0.62406000  0.69040000  1.0
