# generated using pymatgen
data_DyH7C8NO8
_symmetry_space_group_name_H-M   'P 1'
_cell_length_a   7.46546000
_cell_length_b   9.84084000
_cell_length_c   14.68880000
_cell_angle_alpha   90.00000000
_cell_angle_beta   97.79910000
_cell_angle_gamma   89.99990000
_symmetry_Int_Tables_number   1
_chemical_formula_structural   DyH7C8NO8
_chemical_formula_sum   'Dy4 H28 C32 N4 O32'
_cell_volume   1069.15120562
_cell_formula_units_Z   4
loop_
 _symmetry_equiv_pos_site_id
 _symmetry_equiv_pos_as_xyz
  1  'x, y, z'
loop_
 _atom_site_type_symbol
 _atom_site_label
 _atom_site_symmetry_multiplicity
 _atom_site_fract_x
 _atom_site_fract_y
 _atom_site_fract_z
 _atom_site_occupancy
  Dy  Dy0  1  0.64606000  0.45553000  0.35761000  1.0
  Dy  Dy1  1  0.85394000  0.95554000  0.14239000  1.0
  Dy  Dy2  1  0.35394000  0.54446000  0.64239000  1.0
  Dy  Dy3  1  0.14606000  0.04446000  0.85762000  1.0
  H  H4  1  0.79146000  0.38015000  0.85021000  1.0
  H  H5  1  0.70854000  0.88015000  0.64979000  1.0
  H  H6  1  0.20853000  0.61986000  0.14978000  1.0
  H  H7  1  0.29146000  0.11986000  0.35021000  1.0
  H  H8  1  0.83157000  0.38176000  0.14612000  1.0
  H  H9  1  0.66842000  0.88176000  0.35388000  1.0
  H  H10  1  0.16843000  0.61824000  0.85388000  1.0
  H  H11  1  0.33157000  0.11824000  0.64612000  1.0
  H  H12  1  0.60726000  0.71659000  0.97961000  1.0
  H  H13  1  0.89275000  0.21658000  0.52039000  1.0
  H  H14  1  0.39274000  0.28341000  0.02039000  1.0
  H  H15  1  0.10726000  0.78342000  0.47961000  1.0
  H  H16  1  0.96347000  0.72919000  0.29172000  1.0
  H  H17  1  0.53653000  0.22919000  0.20828000  1.0
  H  H18  1  0.03653000  0.27081000  0.70828000  1.0
  H  H19  1  0.46347000  0.77081000  0.79172000  1.0
  H  H20  1  0.07801000  0.86522000  0.31971000  1.0
  H  H21  1  0.42199000  0.36522000  0.18029000  1.0
  H  H22  1  0.92199000  0.13478000  0.68029000  1.0
  H  H23  1  0.57802000  0.63478000  0.81971000  1.0
  H  H24  1  0.24051000  0.94653000  0.20614000  1.0
  H  H25  1  0.25949000  0.44653000  0.29386000  1.0
  H  H26  1  0.75948000  0.05347000  0.79385000  1.0
  H  H27  1  0.74052000  0.55347000  0.70614000  1.0
  H  H28  1  0.20941000  0.05796000  0.13018000  1.0
  H  H29  1  0.29059000  0.55797000  0.36982000  1.0
  H  H30  1  0.79059000  0.94203000  0.86982000  1.0
  H  H31  1  0.70941000  0.44203000  0.63018000  1.0
  C  C32  1  0.77191000  0.42975000  0.91460000  1.0
  C  C33  1  0.72809000  0.92974000  0.58540000  1.0
  C  C34  1  0.22808000  0.57026000  0.08539000  1.0
  C  C35  1  0.27192000  0.07026000  0.41460000  1.0
  C  C36  1  0.82475000  0.36540000  0.99902000  1.0
  C  C37  1  0.67524000  0.86540000  0.50098000  1.0
  C  C38  1  0.17525000  0.63460000  0.00098000  1.0
  C  C39  1  0.32476000  0.13460000  0.49902000  1.0
  C  C40  1  0.79502000  0.43141000  0.07985000  1.0
  C  C41  1  0.70497000  0.93141000  0.42015000  1.0
  C  C42  1  0.20498000  0.56859000  0.92014000  1.0
  C  C43  1  0.29503000  0.06859000  0.57985000  1.0
  C  C44  1  0.71975000  0.56148000  0.07394000  1.0
  C  C45  1  0.78025000  0.06147000  0.42606000  1.0
  C  C46  1  0.28025000  0.43852000  0.92606000  1.0
  C  C47  1  0.21975000  0.93852000  0.57394000  1.0
  C  C48  1  0.66955000  0.61666000  0.98662000  1.0
  C  C49  1  0.83045000  0.11666000  0.51338000  1.0
  C  C50  1  0.33045000  0.38334000  0.01338000  1.0
  C  C51  1  0.16955000  0.88334000  0.48662000  1.0
  C  C52  1  0.90874000  0.22679000  0.00140000  1.0
  C  C53  1  0.59125000  0.72679000  0.49860000  1.0
  C  C54  1  0.09124000  0.77321000  0.99860000  1.0
  C  C55  1  0.40875000  0.27321000  0.50140000  1.0
  C  C56  1  0.69044000  0.64187000  0.15746000  1.0
  C  C57  1  0.80956000  0.14187000  0.34254000  1.0
  C  C58  1  0.30956000  0.35813000  0.84254000  1.0
  C  C59  1  0.19043000  0.85813000  0.65746000  1.0
  C  C60  1  0.45512000  0.03156000  0.03941000  1.0
  C  C61  1  0.04488000  0.53155000  0.46059000  1.0
  C  C62  1  0.54489000  0.96845000  0.96059000  1.0
  C  C63  1  0.95512000  0.46845000  0.53941000  1.0
  N  N64  1  0.69253000  0.55245000  0.90860000  1.0
  N  N65  1  0.80747000  0.05245000  0.59140000  1.0
  N  N66  1  0.30747000  0.44756000  0.09140000  1.0
  N  N67  1  0.19254000  0.94755000  0.40860000  1.0
  O  O68  1  0.97270000  0.18947000  0.92979000  1.0
  O  O69  1  0.52729000  0.68948000  0.57021000  1.0
  O  O70  1  0.02729000  0.81052000  0.07021000  1.0
  O  O71  1  0.47271000  0.31052000  0.42979000  1.0
  O  O72  1  0.90859000  0.15762000  0.07404000  1.0
  O  O73  1  0.59139000  0.65761000  0.42596000  1.0
  O  O74  1  0.09140000  0.84239000  0.92596000  1.0
  O  O75  1  0.40860000  0.34239000  0.57404000  1.0
  O  O76  1  0.69139000  0.57857000  0.23234000  1.0
  O  O77  1  0.80860000  0.07857000  0.26766000  1.0
  O  O78  1  0.30862000  0.42143000  0.76766000  1.0
  O  O79  1  0.19139000  0.92143000  0.73234000  1.0
  O  O80  1  0.66766000  0.76965000  0.14826000  1.0
  O  O81  1  0.83233000  0.26964000  0.35174000  1.0
  O  O82  1  0.33233000  0.23035000  0.85174000  1.0
  O  O83  1  0.16766000  0.73036000  0.64826000  1.0
  O  O84  1  0.55257000  0.04931000  0.11587000  1.0
  O  O85  1  0.94744000  0.54931000  0.38413000  1.0
  O  O86  1  0.44745000  0.95069000  0.88413000  1.0
  O  O87  1  0.05256000  0.45069000  0.61587000  1.0
  O  O88  1  0.28900000  0.06199000  0.02103000  1.0
  O  O89  1  0.21100000  0.56199000  0.47897000  1.0
  O  O90  1  0.71102000  0.93802000  0.97897000  1.0
  O  O91  1  0.78899000  0.43801000  0.52103000  1.0
  O  O92  1  0.00111000  0.81568000  0.26749000  1.0
  O  O93  1  0.49890000  0.31569000  0.23251000  1.0
  O  O94  1  0.99889000  0.18432000  0.73251000  1.0
  O  O95  1  0.50111000  0.68431000  0.76749000  1.0
  O  O96  1  0.16664000  0.02618000  0.18798000  1.0
  O  O97  1  0.33333333  0.52618000  0.31202000  1.0
  O  O98  1  0.83336000  0.97382000  0.81202000  1.0
  O  O99  1  0.66666667  0.47382000  0.68798000  1.0
