# generated using pymatgen
data_Ni3H12C8(N3O7)2
_symmetry_space_group_name_H-M   'P 1'
_cell_length_a   11.86720000
_cell_length_b   11.87038055
_cell_length_c   16.21660000
_cell_angle_alpha   89.99219992
_cell_angle_beta   89.99650000
_cell_angle_gamma   60.02458059
_symmetry_Int_Tables_number   1
_chemical_formula_structural   Ni3H12C8(N3O7)2
_chemical_formula_sum   'Ni9 H36 C24 N18 O42'
_cell_volume   1978.84078749
_cell_formula_units_Z   3
loop_
 _symmetry_equiv_pos_site_id
 _symmetry_equiv_pos_as_xyz
  1  'x, y, z'
loop_
 _atom_site_type_symbol
 _atom_site_label
 _atom_site_symmetry_multiplicity
 _atom_site_fract_x
 _atom_site_fract_y
 _atom_site_fract_z
 _atom_site_occupancy
  Ni  Ni0  1  0.99999000  0.60605000  0.99989000  1.0
  Ni  Ni1  1  0.39358000  0.00025000  0.33324000  1.0
  Ni  Ni2  1  0.60607000  0.39395000  0.66675000  1.0
  Ni  Ni3  1  0.49668000  0.02916000  0.13446000  1.0
  Ni  Ni4  1  0.47376000  0.49690000  0.46766000  1.0
  Ni  Ni5  1  0.02952000  0.47376000  0.80094000  1.0
  Ni  Ni6  1  0.52603000  0.97078000  0.53236000  1.0
  Ni  Ni7  1  0.97027000  0.50326000  0.19898000  1.0
  Ni  Ni8  1  0.50328000  0.52625000  0.86572000  1.0
  H  H9  1  0.54629000  0.05226000  0.98208000  1.0
  H  H10  1  0.40148000  0.54590000  0.31545000  1.0
  H  H11  1  0.05304000  0.40080000  0.64863000  1.0
  H  H12  1  0.59853000  0.94743000  0.68458000  1.0
  H  H13  1  0.94671000  0.45405000  0.35111000  1.0
  H  H14  1  0.45381000  0.59914000  0.01806000  1.0
  H  H15  1  0.39384000  0.16694000  0.00615000  1.0
  H  H16  1  0.43875000  0.39372000  0.33955000  1.0
  H  H17  1  0.16752000  0.43878000  0.67259000  1.0
  H  H18  1  0.56112000  0.83257000  0.66052000  1.0
  H  H19  1  0.83269000  0.60653000  0.32717000  1.0
  H  H20  1  0.60627000  0.56114000  0.99412000  1.0
  H  H21  1  0.53448000  0.17399000  0.24656000  1.0
  H  H22  1  0.29119000  0.53515000  0.58007000  1.0
  H  H23  1  0.17404000  0.29106000  0.91317000  1.0
  H  H24  1  0.70927000  0.82647000  0.42006000  1.0
  H  H25  1  0.82607000  0.46500000  0.08660000  1.0
  H  H26  1  0.46523000  0.70891000  0.75355000  1.0
  H  H27  1  0.44857000  0.83616000  0.07085000  1.0
  H  H28  1  0.71547000  0.44787000  0.40393000  1.0
  H  H29  1  0.83670000  0.71527000  0.73712000  1.0
  H  H30  1  0.28423000  0.16319000  0.59610000  1.0
  H  H31  1  0.16352000  0.55164000  0.26270000  1.0
  H  H32  1  0.55187000  0.28461000  0.92936000  1.0
  H  H33  1  0.65830000  0.11057000  0.18879000  1.0
  H  H34  1  0.23074000  0.65887000  0.52223000  1.0
  H  H35  1  0.11107000  0.23043000  0.85517000  1.0
  H  H36  1  0.76932000  0.88976000  0.47832000  1.0
  H  H37  1  0.88888000  0.34158000  0.14474000  1.0
  H  H38  1  0.34149000  0.76942000  0.81139000  1.0
  H  H39  1  0.37999000  0.88817000  0.15754000  1.0
  H  H40  1  0.73175000  0.37946000  0.49063000  1.0
  H  H41  1  0.88862000  0.73169000  0.82386000  1.0
  H  H42  1  0.26797000  0.11126000  0.50932000  1.0
  H  H43  1  0.11136000  0.62013000  0.17600000  1.0
  H  H44  1  0.62014000  0.26833000  0.84262000  1.0
  C  C45  1  0.72784000  0.79116000  0.17763000  1.0
  C  C46  1  0.48153000  0.72743000  0.51112000  1.0
  C  C47  1  0.79136000  0.48126000  0.84429000  1.0
  C  C48  1  0.51829000  0.20907000  0.48890000  1.0
  C  C49  1  0.20822000  0.27257000  0.15554000  1.0
  C  C50  1  0.27261000  0.51878000  0.82238000  1.0
  C  C51  1  0.76034000  0.81651000  0.05108000  1.0
  C  C52  1  0.42350000  0.76021000  0.38462000  1.0
  C  C53  1  0.81673000  0.42293000  0.71786000  1.0
  C  C54  1  0.57652000  0.18372000  0.61537000  1.0
  C  C55  1  0.18307000  0.23969000  0.28204000  1.0
  C  C56  1  0.23966000  0.57705000  0.94883000  1.0
  C  C57  1  0.66310000  0.82861000  0.25918000  1.0
  C  C58  1  0.50947000  0.66211000  0.59244000  1.0
  C  C59  1  0.82873000  0.50916000  0.92562000  1.0
  C  C60  1  0.49025000  0.17174000  0.40760000  1.0
  C  C61  1  0.17114000  0.33792000  0.07422000  1.0
  C  C62  1  0.33787000  0.49092000  0.74103000  1.0
  C  C63  1  0.76411000  0.85497000  0.96351000  1.0
  C  C64  1  0.38154000  0.76378000  0.29700000  1.0
  C  C65  1  0.85510000  0.38056000  0.63031000  1.0
  C  C66  1  0.61864000  0.14529000  0.70296000  1.0
  C  C67  1  0.14471000  0.23588000  0.36962000  1.0
  C  C68  1  0.23565000  0.61940000  0.03639000  1.0
  N  N69  1  0.85696000  0.70061000  0.07598000  1.0
  N  N70  1  0.44269000  0.85692000  0.40957000  1.0
  N  N71  1  0.70081000  0.44223000  0.74287000  1.0
  N  N72  1  0.55730000  0.29963000  0.59043000  1.0
  N  N73  1  0.29905000  0.14317000  0.25712000  1.0
  N  N74  1  0.14301000  0.55779000  0.92379000  1.0
  N  N75  1  0.67593000  0.87606000  0.11343000  1.0
  N  N76  1  0.44858000  0.67558000  0.44690000  1.0
  N  N77  1  0.87630000  0.44809000  0.78006000  1.0
  N  N78  1  0.55133000  0.12424000  0.55310000  1.0
  N  N79  1  0.12340000  0.32425000  0.21977000  1.0
  N  N80  1  0.32439000  0.55190000  0.88663000  1.0
  N  N81  1  0.83811000  0.68302000  0.15550000  1.0
  N  N82  1  0.47919000  0.83791000  0.48905000  1.0
  N  N83  1  0.68319000  0.47902000  0.82232000  1.0
  N  N84  1  0.52067000  0.31719000  0.51098000  1.0
  N  N85  1  0.31651000  0.16230000  0.17751000  1.0
  N  N86  1  0.16218000  0.52104000  0.84434000  1.0
  O  O87  1  0.54985000  0.93130000  0.25481000  1.0
  O  O88  1  0.51976000  0.54876000  0.58774000  1.0
  O  O89  1  0.93172000  0.51963000  0.92093000  1.0
  O  O90  1  0.47983000  0.06875000  0.41232000  1.0
  O  O91  1  0.06822000  0.45136000  0.07886000  1.0
  O  O92  1  0.45131000  0.48050000  0.74571000  1.0
  O  O93  1  0.87358000  0.77735000  0.92790000  1.0
  O  O94  1  0.34931000  0.87338000  0.26140000  1.0
  O  O95  1  0.77726000  0.34883000  0.59479000  1.0
  O  O96  1  0.65080000  0.22274000  0.73856000  1.0
  O  O97  1  0.22228000  0.12630000  0.40520000  1.0
  O  O98  1  0.12606000  0.65117000  0.07190000  1.0
  O  O99  1  0.71664000  0.76769000  0.32427000  1.0
  O  O100  1  0.51807000  0.71465000  0.65761000  1.0
  O  O101  1  0.76764000  0.51747000  0.99078000  1.0
  O  O102  1  0.48177000  0.23283000  0.34242000  1.0
  O  O103  1  0.23248000  0.28524000  0.00914000  1.0
  O  O104  1  0.28513000  0.48260000  0.67588000  1.0
  O  O105  1  0.56393000  0.15279000  0.18792000  1.0
  O  O106  1  0.28283000  0.56453000  0.52140000  1.0
  O  O107  1  0.15299000  0.28288000  0.85449000  1.0
  O  O108  1  0.71702000  0.84767000  0.47881000  1.0
  O  O109  1  0.84685000  0.43591000  0.14534000  1.0
  O  O110  1  0.43585000  0.71721000  0.81221000  1.0
  O  O111  1  0.40306000  0.91463000  0.10426000  1.0
  O  O112  1  0.68234000  0.40245000  0.43734000  1.0
  O  O113  1  0.91517000  0.68224000  0.77059000  1.0
  O  O114  1  0.31738000  0.08476000  0.56261000  1.0
  O  O115  1  0.08501000  0.59698000  0.22926000  1.0
  O  O116  1  0.59724000  0.31774000  0.89590000  1.0
  O  O117  1  0.48577000  0.11757000  0.02426000  1.0
  O  O118  1  0.39594000  0.48572000  0.35754000  1.0
  O  O119  1  0.11855000  0.39578000  0.69070000  1.0
  O  O120  1  0.60389000  0.88182000  0.64248000  1.0
  O  O121  1  0.88102000  0.51448000  0.30915000  1.0
  O  O122  1  0.51434000  0.60411000  0.97600000  1.0
  O  O123  1  0.66896000  0.95000000  0.93066000  1.0
  O  O124  1  0.38230000  0.66837000  0.26410000  1.0
  O  O125  1  0.95019000  0.38049000  0.59737000  1.0
  O  O126  1  0.61807000  0.05053000  0.73587000  1.0
  O  O127  1  0.04989000  0.33105000  0.40252000  1.0
  O  O128  1  0.33065000  0.61945000  0.06935000  1.0
