# generated using pymatgen
data_GdH2(C2O3)2
_symmetry_space_group_name_H-M   'P 1'
_cell_length_a   6.81139000
_cell_length_b   6.95117000
_cell_length_c   7.42062000
_cell_angle_alpha   86.44160000
_cell_angle_beta   64.39680000
_cell_angle_gamma   67.77490000
_symmetry_Int_Tables_number   1
_chemical_formula_structural   GdH2(C2O3)2
_chemical_formula_sum   'Gd2 H4 C8 O12'
_cell_volume   291.13464119
_cell_formula_units_Z   2
loop_
 _symmetry_equiv_pos_site_id
 _symmetry_equiv_pos_as_xyz
  1  'x, y, z'
loop_
 _atom_site_type_symbol
 _atom_site_label
 _atom_site_symmetry_multiplicity
 _atom_site_fract_x
 _atom_site_fract_y
 _atom_site_fract_z
 _atom_site_occupancy
  Gd  Gd0  1  0.30039000  0.32601000  0.05589000  1.0
  Gd  Gd1  1  0.69961000  0.67399000  0.94411000  1.0
  H  H2  1  0.09836000  0.96386000  0.71225000  1.0
  H  H3  1  0.90164000  0.03614000  0.28775000  1.0
  H  H4  1  0.40412000  0.83106000  0.55302000  1.0
  H  H5  1  0.59588000  0.16894000  0.44699000  1.0
  C  C6  1  0.32571000  0.01010000  0.81611000  1.0
  C  C7  1  0.67429000  0.98990000  0.18389000  1.0
  C  C8  1  0.27005000  0.87215000  0.71176000  1.0
  C  C9  1  0.72995000  0.12785000  0.28824000  1.0
  C  C10  1  0.02524000  0.38623000  0.52805000  1.0
  C  C11  1  0.97476000  0.61377000  0.47194000  1.0
  C  C12  1  0.27145000  0.67835000  0.81279000  1.0
  C  C13  1  0.72855000  0.32165000  0.18721000  1.0
  O  O14  1  0.92956000  0.36568000  0.71201000  1.0
  O  O15  1  0.07044000  0.63432000  0.28799000  1.0
  O  O16  1  0.35996000  0.16994000  0.74435000  1.0
  O  O17  1  0.64003000  0.83007000  0.25565000  1.0
  O  O18  1  0.32758000  0.96580000  0.98839000  1.0
  O  O19  1  0.67242000  0.03420000  0.01161000  1.0
  O  O20  1  0.09961000  0.62068000  0.87519000  1.0
  O  O21  1  0.90039000  0.37931000  0.12481000  1.0
  O  O22  1  0.15908000  0.23912000  0.38315000  1.0
  O  O23  1  0.84092000  0.76088000  0.61685000  1.0
  O  O24  1  0.45398000  0.56676000  0.84050000  1.0
  O  O25  1  0.54602000  0.43324000  0.15950000  1.0
