# generated using pymatgen
data_LiH5(C2O)2
_symmetry_space_group_name_H-M   'P 1'
_cell_length_a   5.04668000
_cell_length_b   8.58370000
_cell_length_c   11.07826773
_cell_angle_alpha   103.91036173
_cell_angle_beta   103.12369168
_cell_angle_gamma   90.01980000
_symmetry_Int_Tables_number   1
_chemical_formula_structural   LiH5(C2O)2
_chemical_formula_sum   'Li4 H20 C16 O8'
_cell_volume   452.89454941
_cell_formula_units_Z   4
loop_
 _symmetry_equiv_pos_site_id
 _symmetry_equiv_pos_as_xyz
  1  'x, y, z'
loop_
 _atom_site_type_symbol
 _atom_site_label
 _atom_site_symmetry_multiplicity
 _atom_site_fract_x
 _atom_site_fract_y
 _atom_site_fract_z
 _atom_site_occupancy
  Li  Li0  1  0.60426000  0.35218000  0.50890000  1.0
  Li  Li1  1  0.09517000  0.14782000  0.49110000  1.0
  Li  Li2  1  0.39574000  0.64782000  0.49110000  1.0
  Li  Li3  1  0.90482000  0.85218000  0.50890000  1.0
  H  H4  1  0.85582000  0.60373000  0.72712000  1.0
  H  H5  1  0.12866000  0.89642000  0.27290000  1.0
  H  H6  1  0.14419000  0.39627000  0.27288000  1.0
  H  H7  1  0.87134000  0.10358000  0.72710000  1.0
  H  H8  1  0.44402000  0.74408000  0.78171000  1.0
  H  H9  1  0.66205000  0.75588000  0.21822000  1.0
  H  H10  1  0.55598000  0.25592000  0.21829000  1.0
  H  H11  1  0.33794000  0.24412000  0.78178000  1.0
  H  H12  1  0.19380000  0.99206000  0.86132000  1.0
  H  H13  1  0.33266000  0.50789000  0.13844000  1.0
  H  H14  1  0.80620000  0.00794000  0.13868000  1.0
  H  H15  1  0.66734000  0.49211000  0.86156000  1.0
  H  H16  1  0.28055000  0.88904000  0.98348000  1.0
  H  H17  1  0.29692000  0.61122000  0.01645000  1.0
  H  H18  1  0.71946000  0.11096000  0.01652000  1.0
  H  H19  1  0.70308000  0.38878000  0.98355000  1.0
  H  H20  1  0.94054000  0.86743000  0.88759000  1.0
  H  H21  1  0.05296000  0.63236000  0.11254000  1.0
  H  H22  1  0.05947000  0.13257000  0.11241000  1.0
  H  H23  1  0.94705000  0.36764000  0.88746000  1.0
  C  C24  1  0.16021000  0.47919000  0.63179000  1.0
  C  C25  1  0.52846000  0.02080000  0.36817000  1.0
  C  C26  1  0.83980000  0.52081000  0.36821000  1.0
  C  C27  1  0.47154000  0.97920000  0.63183000  1.0
  C  C28  1  0.06837000  0.61373000  0.72189000  1.0
  C  C29  1  0.34638000  0.88636000  0.27810000  1.0
  C  C30  1  0.93163000  0.38627000  0.27811000  1.0
  C  C31  1  0.65362000  0.11364000  0.72190000  1.0
  C  C32  1  0.23459000  0.74077000  0.79334000  1.0
  C  C33  1  0.44105000  0.75925000  0.20665000  1.0
  C  C34  1  0.76541000  0.25923000  0.20666000  1.0
  C  C35  1  0.55895000  0.24075000  0.79335000  1.0
  C  C36  1  0.15622000  0.87861000  0.88605000  1.0
  C  C37  1  0.27011000  0.62141000  0.11393000  1.0
  C  C38  1  0.84378000  0.12139000  0.11395000  1.0
  C  C39  1  0.72989000  0.37859000  0.88607000  1.0
  O  O40  1  0.99780000  0.35381000  0.58185000  1.0
  O  O41  1  0.41619000  0.14621000  0.41823000  1.0
  O  O42  1  0.00220000  0.64619000  0.41815000  1.0
  O  O43  1  0.58381000  0.85379000  0.58177000  1.0
  O  O44  1  0.39325000  0.49291000  0.60734000  1.0
  O  O45  1  0.78586000  0.00702000  0.39253000  1.0
  O  O46  1  0.60675000  0.50709000  0.39266000  1.0
  O  O47  1  0.21414000  0.99298000  0.60747000  1.0
