# generated using pymatgen
data_CdH15C16S3(N2O3)2
_symmetry_space_group_name_H-M   'P 1'
_cell_length_a   8.41182000
_cell_length_b   11.66090000
_cell_length_c   11.96690000
_cell_angle_alpha   106.53900000
_cell_angle_beta   106.32000000
_cell_angle_gamma   94.30150000
_symmetry_Int_Tables_number   1
_chemical_formula_structural   CdH15C16S3(N2O3)2
_chemical_formula_sum   'Cd2 H30 C32 S6 N8 O12'
_cell_volume   1064.48402636
_cell_formula_units_Z   2
loop_
 _symmetry_equiv_pos_site_id
 _symmetry_equiv_pos_as_xyz
  1  'x, y, z'
loop_
 _atom_site_type_symbol
 _atom_site_label
 _atom_site_symmetry_multiplicity
 _atom_site_fract_x
 _atom_site_fract_y
 _atom_site_fract_z
 _atom_site_occupancy
  Cd  Cd0  1  0.14839000  0.17195000  0.28398000  1.0
  Cd  Cd1  1  0.85161000  0.82805000  0.71603000  1.0
  H  H2  1  0.03881000  0.61151000  0.74753000  1.0
  H  H3  1  0.96120000  0.38850000  0.25245000  1.0
  H  H4  1  0.14568000  0.90721000  0.21387000  1.0
  H  H5  1  0.85432000  0.09282000  0.78615000  1.0
  H  H6  1  0.00899000  0.91326000  0.09408000  1.0
  H  H7  1  0.99100000  0.08675000  0.90594000  1.0
  H  H8  1  0.55271000  0.15173000  0.32972000  1.0
  H  H9  1  0.44728000  0.84826000  0.67029000  1.0
  H  H10  1  0.61983000  0.60849000  0.46354000  1.0
  H  H11  1  0.38016000  0.39150000  0.53646000  1.0
  H  H12  1  0.58825000  0.38459000  0.36504000  1.0
  H  H13  1  0.41173000  0.61541000  0.63496000  1.0
  H  H14  1  0.02504000  0.38918000  0.66394000  1.0
  H  H15  1  0.97498000  0.61083000  0.33605000  1.0
  H  H16  1  0.91644000  0.20839000  0.46378000  1.0
  H  H17  1  0.08357000  0.79162000  0.53621000  1.0
  H  H18  1  0.74709000  0.19370000  0.52221000  1.0
  H  H19  1  0.25294000  0.80631000  0.47780000  1.0
  H  H20  1  0.41178000  0.00752000  0.18334000  1.0
  H  H21  1  0.58822000  0.99249000  0.81666000  1.0
  H  H22  1  0.77569000  0.11397000  0.02377000  1.0
  H  H23  1  0.22431000  0.88603000  0.97623000  1.0
  H  H24  1  0.44274000  0.00584000  0.59034000  1.0
  H  H25  1  0.55725000  0.99415000  0.40966000  1.0
  H  H26  1  0.32022000  0.09757000  0.66970000  1.0
  H  H27  1  0.67976000  0.90242000  0.33030000  1.0
  H  H28  1  0.67719000  0.82789000  0.07099000  1.0
  H  H29  1  0.32280000  0.17210000  0.92902000  1.0
  H  H30  1  0.75205000  0.68923000  0.04702000  1.0
  H  H31  1  0.24794000  0.31077000  0.95298000  1.0
  C  C32  1  0.93952000  0.55765000  0.66386000  1.0
  C  C33  1  0.06049000  0.44236000  0.33613000  1.0
  C  C34  1  0.70716000  0.55622000  0.50488000  1.0
  C  C35  1  0.29284000  0.44379000  0.49511000  1.0
  C  C36  1  0.68961000  0.43123000  0.45045000  1.0
  C  C37  1  0.31037000  0.56878000  0.54955000  1.0
  C  C38  1  0.80313000  0.36753000  0.50728000  1.0
  C  C39  1  0.19688000  0.63247000  0.49272000  1.0
  C  C40  1  0.93073000  0.43321000  0.61636000  1.0
  C  C41  1  0.06927000  0.56679000  0.38363000  1.0
  C  C42  1  0.72659000  0.14691000  0.23733000  1.0
  C  C43  1  0.27339000  0.85309000  0.76267000  1.0
  C  C44  1  0.79127000  0.23163000  0.45968000  1.0
  C  C45  1  0.20875000  0.76837000  0.54032000  1.0
  C  C46  1  0.60641000  0.07020000  0.11674000  1.0
  C  C47  1  0.39360000  0.92981000  0.88326000  1.0
  C  C48  1  0.45160000  0.00526000  0.10380000  1.0
  C  C49  1  0.54841000  0.99475000  0.89620000  1.0
  C  C50  1  0.65446000  0.06377000  0.01213000  1.0
  C  C51  1  0.34555000  0.93624000  0.98787000  1.0
  C  C52  1  0.75219000  0.77749000  0.90890000  1.0
  C  C53  1  0.24784000  0.22252000  0.09113000  1.0
  C  C54  1  0.31166000  0.11845000  0.49381000  1.0
  C  C55  1  0.68832000  0.88152000  0.50618000  1.0
  C  C56  1  0.40222000  0.09497000  0.61273000  1.0
  C  C57  1  0.59776000  0.90501000  0.38726000  1.0
  C  C58  1  0.51873000  0.32737000  0.76108000  1.0
  C  C59  1  0.48126000  0.67262000  0.23890000  1.0
  C  C60  1  0.46843000  0.52338000  0.86094000  1.0
  C  C61  1  0.53157000  0.47661000  0.13904000  1.0
  C  C62  1  0.67527000  0.74374000  0.99926000  1.0
  C  C63  1  0.32473000  0.25626000  0.00075000  1.0
  S  S64  1  0.59810000  0.19819000  0.70125000  1.0
  S  S65  1  0.40189000  0.80180000  0.29874000  1.0
  S  S66  1  0.64672000  0.46896000  0.83387000  1.0
  S  S67  1  0.35327000  0.53102000  0.16610000  1.0
  S  S68  1  0.45795000  0.67105000  0.93877000  1.0
  S  S69  1  0.54205000  0.32893000  0.06121000  1.0
  N  N70  1  0.82933000  0.61897000  0.60971000  1.0
  N  N71  1  0.17066000  0.38104000  0.39029000  1.0
  N  N72  1  0.67601000  0.17185000  0.33707000  1.0
  N  N73  1  0.32400000  0.82814000  0.66294000  1.0
  N  N74  1  0.36087000  0.32790000  0.75684000  1.0
  N  N75  1  0.63911000  0.67209000  0.24314000  1.0
  N  N76  1  0.33229000  0.43968000  0.81412000  1.0
  N  N77  1  0.66772000  0.56031000  0.18587000  1.0
  O  O78  1  0.15601000  0.12015000  0.46788000  1.0
  O  O79  1  0.84397000  0.87986000  0.53213000  1.0
  O  O80  1  0.07512000  0.96053000  0.18203000  1.0
  O  O81  1  0.92487000  0.03950000  0.81799000  1.0
  O  O82  1  0.39736000  0.13223000  0.42368000  1.0
  O  O83  1  0.60260000  0.86772000  0.57630000  1.0
  O  O84  1  0.87250000  0.18650000  0.24321000  1.0
  O  O85  1  0.12751000  0.81352000  0.75680000  1.0
  O  O86  1  0.66298000  0.75153000  0.79733000  1.0
  O  O87  1  0.33708000  0.24846000  0.20268000  1.0
  O  O88  1  0.90405000  0.83117000  0.95094000  1.0
  O  O89  1  0.09597000  0.16884000  0.04909000  1.0
