# generated using pymatgen
data_CaPH13C3O11
_symmetry_space_group_name_H-M   'P 1'
_cell_length_a   5.74586000
_cell_length_b   7.69018000
_cell_length_c   12.31140000
_cell_angle_alpha   90.00000000
_cell_angle_beta   103.09300000
_cell_angle_gamma   89.99990000
_symmetry_Int_Tables_number   1
_chemical_formula_structural   CaPH13C3O11
_chemical_formula_sum   'Ca2 P2 H26 C6 O22'
_cell_volume   529.85809264
_cell_formula_units_Z   2
loop_
 _symmetry_equiv_pos_site_id
 _symmetry_equiv_pos_as_xyz
  1  'x, y, z'
loop_
 _atom_site_type_symbol
 _atom_site_label
 _atom_site_symmetry_multiplicity
 _atom_site_fract_x
 _atom_site_fract_y
 _atom_site_fract_z
 _atom_site_occupancy
  Ca  Ca0  1  0.24280000  0.49893000  0.21742000  1.0
  Ca  Ca1  1  0.75720000  0.99893000  0.78258000  1.0
  P  P2  1  0.50781000  0.05796000  0.19310000  1.0
  P  P3  1  0.49219000  0.55797000  0.80690000  1.0
  H  H4  1  0.47237000  0.78430000  0.52714000  1.0
  H  H5  1  0.52763000  0.28430000  0.47286000  1.0
  H  H6  1  0.25808000  0.00361000  0.39302000  1.0
  H  H7  1  0.74192000  0.50361000  0.60698000  1.0
  H  H8  1  0.57874000  0.01774000  0.41615000  1.0
  H  H9  1  0.42126000  0.51774000  0.58385000  1.0
  H  H10  1  0.10505000  0.68592000  0.42316000  1.0
  H  H11  1  0.89495000  0.18592000  0.57684000  1.0
  H  H12  1  0.86777000  0.15960000  0.26723000  1.0
  H  H13  1  0.13223000  0.65960000  0.73277000  1.0
  H  H14  1  0.47539000  0.57620000  0.02557000  1.0
  H  H15  1  0.52461000  0.07620000  0.97443000  1.0
  H  H16  1  0.43428000  0.76022000  0.08009000  1.0
  H  H17  1  0.56571000  0.26022000  0.91991000  1.0
  H  H18  1  0.05766000  0.30552000  0.39861000  1.0
  H  H19  1  0.94234000  0.80553000  0.60139000  1.0
  H  H20  1  0.84862000  0.41705000  0.32578000  1.0
  H  H21  1  0.15139000  0.91705000  0.67422000  1.0
  H  H22  1  0.76141000  0.67632000  0.14116000  1.0
  H  H23  1  0.23859000  0.17632000  0.85884000  1.0
  H  H24  1  0.93255000  0.82866000  0.19289000  1.0
  H  H25  1  0.06745000  0.32866000  0.80711000  1.0
  H  H26  1  0.85288000  0.43764000  0.00369000  1.0
  H  H27  1  0.14712000  0.93764000  0.99631000  1.0
  H  H28  1  0.05239000  0.30805000  0.99283000  1.0
  H  H29  1  0.94761000  0.80806000  0.00717000  1.0
  C  C30  1  0.67242000  0.67382000  0.41524000  1.0
  C  C31  1  0.32759000  0.17382000  0.58476000  1.0
  C  C32  1  0.44768000  0.76173000  0.43664000  1.0
  C  C33  1  0.55232000  0.26173000  0.56335000  1.0
  C  C34  1  0.42039000  0.93918000  0.38028000  1.0
  C  C35  1  0.57961000  0.43918000  0.61972000  1.0
  O  O36  1  0.43826000  0.98385000  0.07537000  1.0
  O  O37  1  0.56174000  0.48385000  0.92464000  1.0
  O  O38  1  0.79017000  0.04270000  0.23771000  1.0
  O  O39  1  0.20983000  0.54269000  0.76229000  1.0
  O  O40  1  0.42734000  0.23743000  0.21441000  1.0
  O  O41  1  0.57266000  0.73743000  0.78559000  1.0
  O  O42  1  0.39794000  0.91371000  0.26261000  1.0
  O  O43  1  0.60206000  0.41371000  0.73738000  1.0
  O  O44  1  0.25049000  0.65081000  0.39459000  1.0
  O  O45  1  0.74951000  0.15081000  0.60541000  1.0
  O  O46  1  0.64174000  0.55193000  0.34410000  1.0
  O  O47  1  0.35826000  0.05193000  0.65589000  1.0
  O  O48  1  0.87335000  0.73237000  0.46822000  1.0
  O  O49  1  0.12665000  0.23237000  0.53178000  1.0
  O  O50  1  0.46503000  0.63454000  0.09754000  1.0
  O  O51  1  0.53496000  0.13454000  0.90246000  1.0
  O  O52  1  0.98130000  0.33394000  0.31905000  1.0
  O  O53  1  0.01870000  0.83394000  0.68095000  1.0
  O  O54  1  0.93181000  0.71637000  0.15452000  1.0
  O  O55  1  0.06819000  0.21637000  0.84548000  1.0
  O  O56  1  0.00090000  0.38367000  0.04748000  1.0
  O  O57  1  0.99910000  0.88367000  0.95252000  1.0
