# generated using pymatgen
data_Cd3H8C4(N10Cl)2
_symmetry_space_group_name_H-M   'P 1'
_cell_length_a   9.32760000
_cell_length_b   9.53557000
_cell_length_c   13.46220000
_cell_angle_alpha   89.99980000
_cell_angle_beta   90.00000000
_cell_angle_gamma   90.63550000
_symmetry_Int_Tables_number   1
_chemical_formula_structural   Cd3H8C4(N10Cl)2
_chemical_formula_sum   'Cd6 H16 C8 N40 Cl4'
_cell_volume   1197.30803242
_cell_formula_units_Z   2
loop_
 _symmetry_equiv_pos_site_id
 _symmetry_equiv_pos_as_xyz
  1  'x, y, z'
loop_
 _atom_site_type_symbol
 _atom_site_label
 _atom_site_symmetry_multiplicity
 _atom_site_fract_x
 _atom_site_fract_y
 _atom_site_fract_z
 _atom_site_occupancy
  Cd  Cd0  1  0.74433000  0.98970000  0.28233000  1.0
  Cd  Cd1  1  0.75567000  0.51030000  0.78233000  1.0
  Cd  Cd2  1  0.25567000  0.01030000  0.71767000  1.0
  Cd  Cd3  1  0.24433000  0.48970000  0.21767000  1.0
  Cd  Cd4  1  0.50000000  0.00000000  0.50000000  1.0
  Cd  Cd5  1  0.00000000  0.50000000  0.00000000  1.0
  H  H6  1  0.33267000  0.28686000  0.87086000  1.0
  H  H7  1  0.48378000  0.39071000  0.89203000  1.0
  H  H8  1  0.34654000  0.74907000  0.89087000  1.0
  H  H9  1  0.50557000  0.66274000  0.91494000  1.0
  H  H10  1  0.16733000  0.21313000  0.37086000  1.0
  H  H11  1  0.01622000  0.10929000  0.39203000  1.0
  H  H12  1  0.15346000  0.75093000  0.39087000  1.0
  H  H13  1  0.99443000  0.83726000  0.41495000  1.0
  H  H14  1  0.66733000  0.71314000  0.12914000  1.0
  H  H15  1  0.51622000  0.60929000  0.10797000  1.0
  H  H16  1  0.65346000  0.25093000  0.10912000  1.0
  H  H17  1  0.49443000  0.33725000  0.08505000  1.0
  H  H18  1  0.83267000  0.78687000  0.62914000  1.0
  H  H19  1  0.98378000  0.89072000  0.60797000  1.0
  H  H20  1  0.84654000  0.24907000  0.60912000  1.0
  H  H21  1  0.00558000  0.16275000  0.58506000  1.0
  C  C22  1  0.49065000  0.27751000  0.76391000  1.0
  C  C23  1  0.49603000  0.75450000  0.77922000  1.0
  C  C24  1  0.00935000  0.22249000  0.26391000  1.0
  C  C25  1  0.00397000  0.74549000  0.27922000  1.0
  C  C26  1  0.50935000  0.72249000  0.23609000  1.0
  C  C27  1  0.50397000  0.24549000  0.22077000  1.0
  C  C28  1  0.99065000  0.77752000  0.73609000  1.0
  C  C29  1  0.99603000  0.25451000  0.72078000  1.0
  N  N30  1  0.60777000  0.33718000  0.72084000  1.0
  N  N31  1  0.62962000  0.26803000  0.63454000  1.0
  N  N32  1  0.52962000  0.17276000  0.62511000  1.0
  N  N33  1  0.44024000  0.17458000  0.70440000  1.0
  N  N34  1  0.43687000  0.31118000  0.85352000  1.0
  N  N35  1  0.60829000  0.69033000  0.73502000  1.0
  N  N36  1  0.62172000  0.74700000  0.64342000  1.0
  N  N37  1  0.52101000  0.83885000  0.63188000  1.0
  N  N38  1  0.43956000  0.84720000  0.71481000  1.0
  N  N39  1  0.45246000  0.73494000  0.87393000  1.0
  N  N40  1  0.89223000  0.16282000  0.22084000  1.0
  N  N41  1  0.87038000  0.23197000  0.13454000  1.0
  N  N42  1  0.97039000  0.32724000  0.12511000  1.0
  N  N43  1  0.05976000  0.32542000  0.20440000  1.0
  N  N44  1  0.06313000  0.18882000  0.35352000  1.0
  N  N45  1  0.89171000  0.80967000  0.23502000  1.0
  N  N46  1  0.87828000  0.75300000  0.14342000  1.0
  N  N47  1  0.97899000  0.66115000  0.13187000  1.0
  N  N48  1  0.06044000  0.65280000  0.21481000  1.0
  N  N49  1  0.04753000  0.76506000  0.37393000  1.0
  N  N50  1  0.39223000  0.66282000  0.27916000  1.0
  N  N51  1  0.37038000  0.73197000  0.36546000  1.0
  N  N52  1  0.47038000  0.82724000  0.37489000  1.0
  N  N53  1  0.55976000  0.82542000  0.29560000  1.0
  N  N54  1  0.56313000  0.68881000  0.14648000  1.0
  N  N55  1  0.39170000  0.30967000  0.26497000  1.0
  N  N56  1  0.37828000  0.25300000  0.35658000  1.0
  N  N57  1  0.47899000  0.16115000  0.36812000  1.0
  N  N58  1  0.56044000  0.15280000  0.28519000  1.0
  N  N59  1  0.54754000  0.26506000  0.12606000  1.0
  N  N60  1  0.10777000  0.83719000  0.77916000  1.0
  N  N61  1  0.12962000  0.76803000  0.86546000  1.0
  N  N62  1  0.02961000  0.67276000  0.87489000  1.0
  N  N63  1  0.94024000  0.67458000  0.79560000  1.0
  N  N64  1  0.93687000  0.81119000  0.64648000  1.0
  N  N65  1  0.10830000  0.19033000  0.76498000  1.0
  N  N66  1  0.12172000  0.24700000  0.85658000  1.0
  N  N67  1  0.02101000  0.33885000  0.86813000  1.0
  N  N68  1  0.93956000  0.34720000  0.78519000  1.0
  N  N69  1  0.95247000  0.23494000  0.62607000  1.0
  Cl  Cl70  1  0.79118000  0.99913000  0.46934000  1.0
  Cl  Cl71  1  0.70882000  0.50087000  0.96934000  1.0
  Cl  Cl72  1  0.20882000  0.00087000  0.53066000  1.0
  Cl  Cl73  1  0.29118000  0.49913000  0.03066000  1.0
