# generated using pymatgen
data_GdH7C11N3O7
_symmetry_space_group_name_H-M   'P 1'
_cell_length_a   8.18525000
_cell_length_b   11.57650000
_cell_length_c   14.92130000
_cell_angle_alpha   89.99990000
_cell_angle_beta   89.99990000
_cell_angle_gamma   88.17820000
_symmetry_Int_Tables_number   1
_chemical_formula_structural   GdH7C11N3O7
_chemical_formula_sum   'Gd4 H28 C44 N12 O28'
_cell_volume   1413.17618935
_cell_formula_units_Z   4
loop_
 _symmetry_equiv_pos_site_id
 _symmetry_equiv_pos_as_xyz
  1  'x, y, z'
loop_
 _atom_site_type_symbol
 _atom_site_label
 _atom_site_symmetry_multiplicity
 _atom_site_fract_x
 _atom_site_fract_y
 _atom_site_fract_z
 _atom_site_occupancy
  Gd  Gd0  1  0.77715000  0.07404000  0.13114000  1.0
  Gd  Gd1  1  0.22284000  0.42596000  0.63113000  1.0
  Gd  Gd2  1  0.22285000  0.92596000  0.86887000  1.0
  Gd  Gd3  1  0.77715000  0.57404000  0.36887000  1.0
  H  H4  1  0.16460000  0.64804000  0.05632000  1.0
  H  H5  1  0.83540000  0.85197000  0.55632000  1.0
  H  H6  1  0.83540000  0.35196000  0.94368000  1.0
  H  H7  1  0.16460000  0.14804000  0.44368000  1.0
  H  H8  1  0.53524000  0.03814000  0.27347000  1.0
  H  H9  1  0.46475000  0.46186000  0.77347000  1.0
  H  H10  1  0.46476000  0.96186000  0.72653000  1.0
  H  H11  1  0.53525000  0.53814000  0.22653000  1.0
  H  H12  1  0.46811000  0.16085000  0.22709000  1.0
  H  H13  1  0.53189000  0.33915000  0.72709000  1.0
  H  H14  1  0.53189000  0.83915000  0.77291000  1.0
  H  H15  1  0.46811000  0.66085000  0.27291000  1.0
  H  H16  1  0.08600000  0.40171000  0.06088000  1.0
  H  H17  1  0.91399000  0.09830000  0.56088000  1.0
  H  H18  1  0.91400000  0.59829000  0.93912000  1.0
  H  H19  1  0.08600000  0.90171000  0.43912000  1.0
  H  H20  1  0.25376000  0.22058000  0.08317000  1.0
  H  H21  1  0.74624000  0.27942000  0.58317000  1.0
  H  H22  1  0.74623000  0.77942000  0.91683000  1.0
  H  H23  1  0.25377000  0.72058000  0.41683000  1.0
  H  H24  1  0.41367000  0.32839000  0.33222000  1.0
  H  H25  1  0.58633000  0.17161000  0.83222000  1.0
  H  H26  1  0.58635000  0.67161000  0.66778000  1.0
  H  H27  1  0.41366000  0.82839000  0.16778000  1.0
  H  H28  1  0.25067000  0.51520000  0.32075000  1.0
  H  H29  1  0.74933000  0.98480000  0.82076000  1.0
  H  H30  1  0.74934000  0.48480000  0.67924000  1.0
  H  H31  1  0.25066000  0.01520000  0.17924000  1.0
  C  C32  1  0.03782000  0.85957000  0.06625000  1.0
  C  C33  1  0.96218000  0.64043000  0.56625000  1.0
  C  C34  1  0.96217000  0.14042000  0.93375000  1.0
  C  C35  1  0.03783000  0.35958000  0.43374000  1.0
  C  C36  1  0.00472000  0.76093000  0.12637000  1.0
  C  C37  1  0.99528000  0.73907000  0.62637000  1.0
  C  C38  1  0.99527000  0.23907000  0.87362000  1.0
  C  C39  1  0.00473000  0.26093000  0.37362000  1.0
  C  C40  1  0.92749000  0.74543000  0.20846000  1.0
  C  C41  1  0.07251000  0.75457000  0.70846000  1.0
  C  C42  1  0.07251000  0.25456000  0.79153000  1.0
  C  C43  1  0.92749000  0.24543000  0.29154000  1.0
  C  C44  1  0.81273000  0.82023000  0.26279000  1.0
  C  C45  1  0.18727000  0.67977000  0.76279000  1.0
  C  C46  1  0.18727000  0.17976000  0.73720000  1.0
  C  C47  1  0.81273000  0.32024000  0.23720000  1.0
  C  C48  1  0.06719000  0.58537000  0.18043000  1.0
  C  C49  1  0.93281000  0.91463000  0.68043000  1.0
  C  C50  1  0.93281000  0.41463000  0.81957000  1.0
  C  C51  1  0.06719000  0.08537000  0.31957000  1.0
  C  C52  1  0.15629000  0.47404000  0.18941000  1.0
  C  C53  1  0.84371000  0.02596000  0.68941000  1.0
  C  C54  1  0.84371000  0.52595000  0.81059000  1.0
  C  C55  1  0.15629000  0.97404000  0.31059000  1.0
  C  C56  1  0.15798000  0.38991000  0.12182000  1.0
  C  C57  1  0.84202000  0.11009000  0.62182000  1.0
  C  C58  1  0.84202000  0.61009000  0.87818000  1.0
  C  C59  1  0.15798000  0.88991000  0.37818000  1.0
  C  C60  1  0.24950000  0.28757000  0.13459000  1.0
  C  C61  1  0.75050000  0.21243000  0.63459000  1.0
  C  C62  1  0.75050000  0.71243000  0.86541000  1.0
  C  C63  1  0.24950000  0.78757000  0.36541000  1.0
  C  C64  1  0.33764000  0.34791000  0.27363000  1.0
  C  C65  1  0.66236000  0.15209000  0.77363000  1.0
  C  C66  1  0.66237000  0.65209000  0.72637000  1.0
  C  C67  1  0.33764000  0.84791000  0.22637000  1.0
  C  C68  1  0.24892000  0.45199000  0.26696000  1.0
  C  C69  1  0.75107000  0.04801000  0.76696000  1.0
  C  C70  1  0.75108000  0.54801000  0.73304000  1.0
  C  C71  1  0.24892000  0.95199000  0.23304000  1.0
  C  C72  1  0.46532000  0.06333000  0.99929000  1.0
  C  C73  1  0.53469000  0.43667000  0.49929000  1.0
  C  C74  1  0.53467000  0.93669000  0.00072000  1.0
  C  C75  1  0.46533000  0.56331000  0.50071000  1.0
  N  N76  1  0.08771000  0.65777000  0.10976000  1.0
  N  N77  1  0.91229000  0.84223000  0.60976000  1.0
  N  N78  1  0.91228000  0.34222000  0.89024000  1.0
  N  N79  1  0.08772000  0.15778000  0.39024000  1.0
  N  N80  1  0.96836000  0.63649000  0.24083000  1.0
  N  N81  1  0.03163000  0.86351000  0.74083000  1.0
  N  N82  1  0.03163000  0.36350000  0.75917000  1.0
  N  N83  1  0.96837000  0.13649000  0.25917000  1.0
  N  N84  1  0.33729000  0.26680000  0.20923000  1.0
  N  N85  1  0.66271000  0.23320000  0.70923000  1.0
  N  N86  1  0.66271000  0.73320000  0.79077000  1.0
  N  N87  1  0.33729000  0.76680000  0.29077000  1.0
  O  O88  1  0.11225000  0.83149000  0.99434000  1.0
  O  O89  1  0.88776000  0.66851000  0.49434000  1.0
  O  O90  1  0.88774000  0.16851000  0.00566000  1.0
  O  O91  1  0.11225000  0.33149000  0.50566000  1.0
  O  O92  1  0.00377000  0.96116000  0.09257000  1.0
  O  O93  1  0.99623000  0.53884000  0.59256000  1.0
  O  O94  1  0.99622000  0.03883000  0.90744000  1.0
  O  O95  1  0.00377000  0.46117000  0.40743000  1.0
  O  O96  1  0.76979000  0.92032000  0.23574000  1.0
  O  O97  1  0.23021000  0.57968000  0.73574000  1.0
  O  O98  1  0.23021000  0.07968000  0.76426000  1.0
  O  O99  1  0.76979000  0.42032000  0.26426000  1.0
  O  O100  1  0.76443000  0.77585000  0.33564000  1.0
  O  O101  1  0.23557000  0.72415000  0.83564000  1.0
  O  O102  1  0.23556000  0.22415000  0.66435000  1.0
  O  O103  1  0.76444000  0.27585000  0.16435000  1.0
  O  O104  1  0.56614000  0.10528000  0.23908000  1.0
  O  O105  1  0.43386000  0.39472000  0.73908000  1.0
  O  O106  1  0.43387000  0.89472000  0.76092000  1.0
  O  O107  1  0.56614000  0.60528000  0.26092000  1.0
  O  O108  1  0.54215000  0.13681000  0.04398000  1.0
  O  O109  1  0.45785000  0.36319000  0.54398000  1.0
  O  O110  1  0.45784000  0.86320000  0.95603000  1.0
  O  O111  1  0.54216000  0.63679000  0.45604000  1.0
  O  O112  1  0.33668000  0.08217000  0.95339000  1.0
  O  O113  1  0.66333000  0.41783000  0.45339000  1.0
  O  O114  1  0.66332000  0.91784000  0.04662000  1.0
  O  O115  1  0.33668000  0.58215000  0.54662000  1.0
