# generated using pymatgen
data_MgH22(C5O)2
_symmetry_space_group_name_H-M   'P 1'
_cell_length_a   7.33864000
_cell_length_b   7.73849974
_cell_length_c   12.13540000
_cell_angle_alpha   75.35489434
_cell_angle_beta   89.99460000
_cell_angle_gamma   61.69877778
_symmetry_Int_Tables_number   1
_chemical_formula_structural   MgH22(C5O)2
_chemical_formula_sum   'Mg2 H44 C20 O4'
_cell_volume   581.24528669
_cell_formula_units_Z   2
loop_
 _symmetry_equiv_pos_site_id
 _symmetry_equiv_pos_as_xyz
  1  'x, y, z'
loop_
 _atom_site_type_symbol
 _atom_site_label
 _atom_site_symmetry_multiplicity
 _atom_site_fract_x
 _atom_site_fract_y
 _atom_site_fract_z
 _atom_site_occupancy
  Mg  Mg0  1  0.71480000  0.99999000  0.74996000  1.0
  Mg  Mg1  1  0.28520000  0.00001000  0.25004000  1.0
  H  H2  1  0.98895000  0.57663000  0.84354000  1.0
  H  H3  1  0.56581000  0.42334000  0.65628000  1.0
  H  H4  1  0.01106000  0.42337000  0.15646000  1.0
  H  H5  1  0.43419000  0.57666000  0.34372000  1.0
  H  H6  1  0.10388000  0.74417000  0.95676000  1.0
  H  H7  1  0.84823000  0.25535000  0.54313000  1.0
  H  H8  1  0.89612000  0.25583000  0.04324000  1.0
  H  H9  1  0.15176000  0.74465000  0.45688000  1.0
  H  H10  1  0.16962000  0.86759000  0.83261000  1.0
  H  H11  1  0.03736000  0.13201000  0.66726000  1.0
  H  H12  1  0.83038000  0.13241000  0.16739000  1.0
  H  H13  1  0.96263000  0.86799000  0.33274000  1.0
  H  H14  1  0.31700000  0.59929000  0.89030000  1.0
  H  H15  1  0.91663000  0.40030000  0.60943000  1.0
  H  H16  1  0.68300000  0.40071000  0.10970000  1.0
  H  H17  1  0.08336000  0.59970000  0.39057000  1.0
  H  H18  1  0.00099000  0.62872000  0.63595000  1.0
  H  H19  1  0.62982000  0.37154000  0.86382000  1.0
  H  H20  1  0.99902000  0.37128000  0.36405000  1.0
  H  H21  1  0.37019000  0.62846000  0.13618000  1.0
  H  H22  1  0.25650000  0.54882000  0.69829000  1.0
  H  H23  1  0.80557000  0.45124000  0.80141000  1.0
  H  H24  1  0.74352000  0.45117000  0.30171000  1.0
  H  H25  1  0.19441000  0.54877000  0.19859000  1.0
  H  H26  1  0.08646000  0.80937000  0.62685000  1.0
  H  H27  1  0.89590000  0.19078000  0.87300000  1.0
  H  H28  1  0.91355000  0.19062000  0.37314000  1.0
  H  H29  1  0.10410000  0.80922000  0.12700000  1.0
  H  H30  1  0.43703000  0.31398000  0.53790000  1.0
  H  H31  1  0.75101000  0.68599000  0.96214000  1.0
  H  H32  1  0.56297000  0.68603000  0.46210000  1.0
  H  H33  1  0.24899000  0.31400000  0.03786000  1.0
  H  H34  1  0.24525000  0.23906000  0.51768000  1.0
  H  H35  1  0.48418000  0.76109000  0.98218000  1.0
  H  H36  1  0.75475000  0.76095000  0.48232000  1.0
  H  H37  1  0.51582000  0.23890000  0.01782000  1.0
  H  H38  1  0.61356000  0.70541000  0.66633000  1.0
  H  H39  1  0.31942000  0.29465000  0.83366000  1.0
  H  H40  1  0.38644000  0.29460000  0.33367000  1.0
  H  H41  1  0.68059000  0.70534000  0.16634000  1.0
  H  H42  1  0.35120000  0.87528000  0.59449000  1.0
  H  H43  1  0.22673000  0.12478000  0.90531000  1.0
  H  H44  1  0.64881000  0.12472000  0.40551000  1.0
  H  H45  1  0.77327000  0.87522000  0.09469000  1.0
  C  C46  1  0.00351000  0.71089000  0.79621000  1.0
  C  C47  1  0.71457000  0.28902000  0.70366000  1.0
  C  C48  1  0.99650000  0.28911000  0.20379000  1.0
  C  C49  1  0.28541000  0.71099000  0.29634000  1.0
  C  C50  1  0.15475000  0.73063000  0.87259000  1.0
  C  C51  1  0.88561000  0.26901000  0.62726000  1.0
  C  C52  1  0.84525000  0.26937000  0.12741000  1.0
  C  C53  1  0.11438000  0.73099000  0.37274000  1.0
  C  C54  1  0.09063000  0.67199000  0.68519000  1.0
  C  C55  1  0.76277000  0.32810000  0.81460000  1.0
  C  C56  1  0.90938000  0.32801000  0.31481000  1.0
  C  C57  1  0.23722000  0.67191000  0.18540000  1.0
  C  C58  1  0.41167000  0.19519000  0.51880000  1.0
  C  C59  1  0.60691000  0.80482000  0.98119000  1.0
  C  C60  1  0.58833000  0.80482000  0.48120000  1.0
  C  C61  1  0.39309000  0.19517000  0.01881000  1.0
  C  C62  1  0.51517000  0.84024000  0.59399000  1.0
  C  C63  1  0.35568000  0.15983000  0.90596000  1.0
  C  C64  1  0.48483000  0.15977000  0.40601000  1.0
  C  C65  1  0.64431000  0.84016000  0.09405000  1.0
  O  O66  1  0.53185000  0.01042000  0.61290000  1.0
  O  O67  1  0.54261000  0.98962000  0.88716000  1.0
  O  O68  1  0.46815000  0.98959000  0.38710000  1.0
  O  O69  1  0.45739000  0.01037000  0.11284000  1.0
