# generated using pymatgen
data_AgH10C14S2N5O3
_symmetry_space_group_name_H-M   'P 1'
_cell_length_a   3.74293000
_cell_length_b   7.92269000
_cell_length_c   26.12470000
_cell_angle_alpha   90.00000000
_cell_angle_beta   91.71770000
_cell_angle_gamma   89.99960000
_symmetry_Int_Tables_number   1
_chemical_formula_structural   AgH10C14S2N5O3
_chemical_formula_sum   'Ag2 H20 C28 S4 N10 O6'
_cell_volume   774.35567431
_cell_formula_units_Z   2
loop_
 _symmetry_equiv_pos_site_id
 _symmetry_equiv_pos_as_xyz
  1  'x, y, z'
loop_
 _atom_site_type_symbol
 _atom_site_label
 _atom_site_symmetry_multiplicity
 _atom_site_fract_x
 _atom_site_fract_y
 _atom_site_fract_z
 _atom_site_occupancy
  Ag  Ag0  1  0.25001000  0.88736000  0.75000000  1.0
  Ag  Ag1  1  0.75000000  0.11264000  0.25000000  1.0
  H  H2  1  0.45659000  0.41242000  0.84776000  1.0
  H  H3  1  0.04340000  0.41241000  0.65224000  1.0
  H  H4  1  0.54340000  0.58758000  0.15225000  1.0
  H  H5  1  0.95660000  0.58758000  0.34776000  1.0
  H  H6  1  0.31635000  0.63314000  0.91847000  1.0
  H  H7  1  0.18364000  0.63313000  0.58153000  1.0
  H  H8  1  0.68364000  0.36687000  0.08153000  1.0
  H  H9  1  0.81635000  0.36686000  0.41847000  1.0
  H  H10  1  0.97402000  0.21973000  0.81292000  1.0
  H  H11  1  0.52597000  0.21972000  0.68708000  1.0
  H  H12  1  0.02600000  0.78028000  0.18708000  1.0
  H  H13  1  0.47403000  0.78028000  0.31292000  1.0
  H  H14  1  0.88492000  0.70581000  0.85294000  1.0
  H  H15  1  0.61512000  0.70582000  0.64706000  1.0
  H  H16  1  0.11511000  0.29419000  0.14707000  1.0
  H  H17  1  0.38487000  0.29418000  0.35294000  1.0
  H  H18  1  0.62425000  0.90171000  0.93295000  1.0
  H  H19  1  0.87577000  0.90171000  0.56705000  1.0
  H  H20  1  0.37577000  0.09829000  0.06705000  1.0
  H  H21  1  0.12423000  0.09829000  0.43295000  1.0
  C  C22  1  0.65758000  0.24594000  0.90883000  1.0
  C  C23  1  0.84242000  0.24592000  0.59117000  1.0
  C  C24  1  0.34244000  0.75408000  0.09118000  1.0
  C  C25  1  0.15758000  0.75407000  0.40883000  1.0
  C  C26  1  0.51493000  0.39193000  0.88839000  1.0
  C  C27  1  0.98507000  0.39192000  0.61161000  1.0
  C  C28  1  0.48508000  0.60807000  0.11161000  1.0
  C  C29  1  0.01494000  0.60807000  0.38839000  1.0
  C  C30  1  0.44055000  0.51163000  0.92680000  1.0
  C  C31  1  0.05944000  0.51164000  0.57321000  1.0
  C  C32  1  0.55943000  0.48835000  0.07321000  1.0
  C  C33  1  0.94056000  0.48838000  0.42679000  1.0
  C  C34  1  0.52570000  0.45740000  0.97605000  1.0
  C  C35  1  0.97424000  0.45740000  0.52394000  1.0
  C  C36  1  0.47422000  0.54259000  0.02395000  1.0
  C  C37  1  0.02571000  0.54261000  0.47605000  1.0
  C  C38  1  0.91377000  0.10566000  0.83427000  1.0
  C  C39  1  0.58622000  0.10565000  0.66573000  1.0
  C  C40  1  0.08625000  0.89435000  0.16573000  1.0
  C  C41  1  0.41377000  0.89434000  0.33427000  1.0
  C  C42  1  0.86880000  0.84136000  0.85746000  1.0
  C  C43  1  0.63122000  0.84133000  0.64254000  1.0
  C  C44  1  0.13122000  0.15866000  0.14254000  1.0
  C  C45  1  0.36878000  0.15866000  0.35746000  1.0
  C  C46  1  0.74071000  0.93563000  0.89691000  1.0
  C  C47  1  0.75930000  0.93563000  0.60309000  1.0
  C  C48  1  0.25930000  0.06437000  0.10310000  1.0
  C  C49  1  0.24067000  0.06437000  0.39691000  1.0
  S  S50  1  0.70826000  0.25530000  0.97493000  1.0
  S  S51  1  0.79175000  0.25530000  0.52507000  1.0
  S  S52  1  0.29175000  0.74470000  0.02507000  1.0
  S  S53  1  0.20826000  0.74470000  0.47493000  1.0
  N  N54  1  0.76849000  0.10348000  0.88178000  1.0
  N  N55  1  0.73149000  0.10347000  0.61822000  1.0
  N  N56  1  0.23152000  0.89653000  0.11822000  1.0
  N  N57  1  0.26848000  0.89652000  0.38177000  1.0
  N  N58  1  0.97640000  0.94863000  0.81904000  1.0
  N  N59  1  0.52361000  0.94863000  0.68096000  1.0
  N  N60  1  0.02362000  0.05137000  0.18096000  1.0
  N  N61  1  0.47639000  0.05136000  0.31904000  1.0
  N  N62  1  0.25000000  0.48696000  0.75000000  1.0
  N  N63  1  0.75000000  0.51304000  0.25000000  1.0
  O  O64  1  0.16557000  0.56715000  0.78992000  1.0
  O  O65  1  0.33444000  0.56714000  0.71008000  1.0
  O  O66  1  0.83443000  0.43285000  0.21008000  1.0
  O  O67  1  0.66556000  0.43286000  0.28992000  1.0
  O  O68  1  0.25000000  0.32679000  0.75000000  1.0
  O  O69  1  0.75000000  0.67321000  0.25000000  1.0
