# generated using pymatgen
data_Zn2B8H22C6N4O15
_symmetry_space_group_name_H-M   'P 1'
_cell_length_a   8.15342000
_cell_length_b   10.76740000
_cell_length_c   11.45370000
_cell_angle_alpha   90.52720000
_cell_angle_beta   90.00000000
_cell_angle_gamma   89.99990000
_symmetry_Int_Tables_number   1
_chemical_formula_structural   Zn2B8H22C6N4O15
_chemical_formula_sum   'Zn4 B16 H44 C12 N8 O30'
_cell_volume   1005.49075071
_cell_formula_units_Z   2
loop_
 _symmetry_equiv_pos_site_id
 _symmetry_equiv_pos_as_xyz
  1  'x, y, z'
loop_
 _atom_site_type_symbol
 _atom_site_label
 _atom_site_symmetry_multiplicity
 _atom_site_fract_x
 _atom_site_fract_y
 _atom_site_fract_z
 _atom_site_occupancy
  Zn  Zn0  1  0.25945000  0.10065000  0.65342000  1.0
  Zn  Zn1  1  0.75945000  0.39935000  0.84658000  1.0
  Zn  Zn2  1  0.74055000  0.89935000  0.34658000  1.0
  Zn  Zn3  1  0.24055000  0.60065000  0.15342000  1.0
  B  B4  1  0.97214000  0.28918000  0.67205000  1.0
  B  B5  1  0.47214000  0.21082000  0.82795000  1.0
  B  B6  1  0.02786000  0.71082000  0.32795000  1.0
  B  B7  1  0.52786000  0.78918000  0.17205000  1.0
  B  B8  1  0.92798000  0.10929000  0.54255000  1.0
  B  B9  1  0.42798000  0.39071000  0.95745000  1.0
  B  B10  1  0.07202000  0.89071000  0.45745000  1.0
  B  B11  1  0.57202000  0.60929000  0.04255000  1.0
  B  B12  1  0.70938000  0.16522000  0.68663000  1.0
  B  B13  1  0.20938000  0.33478000  0.81337000  1.0
  B  B14  1  0.29063000  0.83478000  0.31337000  1.0
  B  B15  1  0.79063000  0.66522000  0.18663000  1.0
  B  B16  1  0.92785000  0.32528000  0.46244000  1.0
  B  B17  1  0.42785000  0.17472000  0.03756000  1.0
  B  B18  1  0.07215000  0.67472000  0.53756000  1.0
  B  B19  1  0.57215000  0.82528000  0.96244000  1.0
  H  H20  1  0.95924000  0.48804000  0.38830000  1.0
  H  H21  1  0.45924000  0.01196000  0.11170000  1.0
  H  H22  1  0.04076000  0.51195000  0.61170000  1.0
  H  H23  1  0.54076000  0.98805000  0.88830000  1.0
  H  H24  1  0.20676000  0.87241000  0.67337000  1.0
  H  H25  1  0.70676000  0.62759000  0.82663000  1.0
  H  H26  1  0.79324000  0.12759000  0.32663000  1.0
  H  H27  1  0.29324000  0.37241000  0.17337000  1.0
  H  H28  1  0.34061000  0.91384000  0.77926000  1.0
  H  H29  1  0.84061000  0.58616000  0.72074000  1.0
  H  H30  1  0.65939000  0.08616000  0.22074000  1.0
  H  H31  1  0.15939000  0.41384000  0.27926000  1.0
  H  H32  1  0.99997000  0.62916000  0.01307000  1.0
  H  H33  1  0.49997000  0.87084000  0.48693000  1.0
  H  H34  1  0.00003000  0.37084000  0.98693000  1.0
  H  H35  1  0.50003000  0.12916000  0.51307000  1.0
  H  H36  1  0.16042000  0.56817000  0.94199000  1.0
  H  H37  1  0.66042000  0.93183000  0.55801000  1.0
  H  H38  1  0.83958000  0.43183000  0.05801000  1.0
  H  H39  1  0.33958000  0.06817000  0.44199000  1.0
  H  H40  1  0.98746000  0.97902000  0.77251000  1.0
  H  H41  1  0.48746000  0.52099000  0.72749000  1.0
  H  H42  1  0.01254000  0.02099000  0.22749000  1.0
  H  H43  1  0.51254000  0.47901000  0.27251000  1.0
  H  H44  1  0.12186000  0.00448000  0.89203000  1.0
  H  H45  1  0.62186000  0.49552000  0.60797000  1.0
  H  H46  1  0.87814000  0.99552000  0.10797000  1.0
  H  H47  1  0.37814000  0.50448000  0.39203000  1.0
  H  H48  1  0.28979000  0.75510000  0.91958000  1.0
  H  H49  1  0.78979000  0.74490000  0.58042000  1.0
  H  H50  1  0.71021000  0.24490000  0.08041000  1.0
  H  H51  1  0.21021000  0.25510000  0.41958000  1.0
  H  H52  1  0.17281000  0.82695000  0.03104000  1.0
  H  H53  1  0.67281000  0.67305000  0.46896000  1.0
  H  H54  1  0.82719000  0.17305000  0.96896000  1.0
  H  H55  1  0.32719000  0.32695000  0.53104000  1.0
  H  H56  1  0.03589000  0.74610000  0.79205000  1.0
  H  H57  1  0.53589000  0.75390000  0.70795000  1.0
  H  H58  1  0.96411000  0.25390000  0.20795000  1.0
  H  H59  1  0.46411000  0.24610000  0.29205000  1.0
  H  H60  1  0.92232000  0.81882000  0.90541000  1.0
  H  H61  1  0.42232000  0.68118000  0.59459000  1.0
  H  H62  1  0.07768000  0.18118000  0.09459000  1.0
  H  H63  1  0.57768000  0.31882000  0.40541000  1.0
  C  C64  1  0.09222000  0.94001000  0.81992000  1.0
  C  C65  1  0.59222000  0.55999000  0.68008000  1.0
  C  C66  1  0.90778000  0.05999000  0.18008000  1.0
  C  C67  1  0.40778000  0.44001000  0.31992000  1.0
  C  C68  1  0.16581000  0.76222000  0.95623000  1.0
  C  C69  1  0.66581000  0.73778000  0.54377000  1.0
  C  C70  1  0.83419000  0.23778000  0.04377000  1.0
  C  C71  1  0.33419000  0.26222000  0.45623000  1.0
  C  C72  1  0.04545000  0.81170000  0.86607000  1.0
  C  C73  1  0.54545000  0.68830000  0.63393000  1.0
  C  C74  1  0.95455000  0.18830000  0.13393000  1.0
  C  C75  1  0.45455000  0.31170000  0.36607000  1.0
  N  N76  1  0.23373000  0.93830000  0.73758000  1.0
  N  N77  1  0.73373000  0.56170000  0.76242000  1.0
  N  N78  1  0.76627000  0.06170000  0.26242000  1.0
  N  N79  1  0.26627000  0.43830000  0.23758000  1.0
  N  N80  1  0.12424000  0.63668000  0.00068000  1.0
  N  N81  1  0.62424000  0.86332000  0.49932000  1.0
  N  N82  1  0.87576000  0.36332000  0.99932000  1.0
  N  N83  1  0.37576000  0.13668000  0.50068000  1.0
  O  O84  1  0.03594000  0.17024000  0.63213000  1.0
  O  O85  1  0.53594000  0.32976000  0.86787000  1.0
  O  O86  1  0.96406000  0.82976000  0.36787000  1.0
  O  O87  1  0.46406000  0.67024000  0.13213000  1.0
  O  O88  1  0.80381000  0.26636000  0.72250000  1.0
  O  O89  1  0.30381000  0.23364000  0.77751000  1.0
  O  O90  1  0.19619000  0.73364000  0.27751000  1.0
  O  O91  1  0.69620000  0.76636000  0.22249000  1.0
  O  O92  1  0.05948000  0.35401000  0.76433000  1.0
  O  O93  1  0.55948000  0.14599000  0.73567000  1.0
  O  O94  1  0.94052000  0.64599000  0.23567000  1.0
  O  O95  1  0.44052000  0.85401000  0.26433000  1.0
  O  O96  1  0.95729000  0.37519000  0.57226000  1.0
  O  O97  1  0.45729000  0.12481000  0.92774000  1.0
  O  O98  1  0.04271000  0.62481000  0.42774000  1.0
  O  O99  1  0.54271000  0.87519000  0.07226000  1.0
  O  O100  1  0.93074000  0.40072000  0.36579000  1.0
  O  O101  1  0.43074000  0.09928000  0.13421000  1.0
  O  O102  1  0.06926000  0.59928000  0.63421000  1.0
  O  O103  1  0.56926000  0.90072000  0.86579000  1.0
  O  O104  1  0.89853000  0.20115000  0.44627000  1.0
  O  O105  1  0.39853000  0.29885000  0.05372000  1.0
  O  O106  1  0.10147000  0.79885000  0.55373000  1.0
  O  O107  1  0.60147000  0.70115000  0.94628000  1.0
  O  O108  1  0.00000000  0.00000000  0.50000000  1.0
  O  O109  1  0.50000000  0.50000000  0.00000000  1.0
  O  O110  1  0.76290000  0.08660000  0.59995000  1.0
  O  O111  1  0.26290000  0.41340000  0.90005000  1.0
  O  O112  1  0.23710000  0.91340000  0.40005000  1.0
  O  O113  1  0.73710000  0.58660000  0.09995000  1.0
