# generated using pymatgen
data_SmH20C18N7O12
_symmetry_space_group_name_H-M   'P 1'
_cell_length_a   10.82220000
_cell_length_b   11.04590000
_cell_length_c   14.02340000
_cell_angle_alpha   66.93010000
_cell_angle_beta   82.32030000
_cell_angle_gamma   64.86750000
_symmetry_Int_Tables_number   1
_chemical_formula_structural   SmH20C18N7O12
_chemical_formula_sum   'Sm2 H40 C36 N14 O24'
_cell_volume   1395.21120560
_cell_formula_units_Z   2
loop_
 _symmetry_equiv_pos_site_id
 _symmetry_equiv_pos_as_xyz
  1  'x, y, z'
loop_
 _atom_site_type_symbol
 _atom_site_label
 _atom_site_symmetry_multiplicity
 _atom_site_fract_x
 _atom_site_fract_y
 _atom_site_fract_z
 _atom_site_occupancy
  Sm  Sm0  1  0.61296000  0.71943000  0.63289000  1.0
  Sm  Sm1  1  0.38704000  0.28057000  0.36711000  1.0
  H  H2  1  0.95770000  0.92907000  0.91491000  1.0
  H  H3  1  0.04230000  0.07093000  0.08509000  1.0
  H  H4  1  0.24629000  0.31728000  0.03224000  1.0
  H  H5  1  0.75370000  0.68271000  0.96776000  1.0
  H  H6  1  0.66014000  0.95005000  0.36134000  1.0
  H  H7  1  0.33986000  0.04996000  0.63867000  1.0
  H  H8  1  0.75777000  0.00575000  0.21565000  1.0
  H  H9  1  0.24223000  0.99425000  0.78435000  1.0
  H  H10  1  0.81702000  0.88074000  0.15093000  1.0
  H  H11  1  0.18297000  0.11927000  0.84907000  1.0
  H  H12  1  0.93417000  0.88166000  0.22771000  1.0
  H  H13  1  0.06583000  0.11834000  0.77229000  1.0
  H  H14  1  0.83845000  0.57592000  0.39812000  1.0
  H  H15  1  0.16154000  0.42408000  0.60188000  1.0
  H  H16  1  0.98297000  0.60844000  0.33419000  1.0
  H  H17  1  0.01703000  0.39157000  0.66581000  1.0
  H  H18  1  0.85220000  0.62132000  0.26052000  1.0
  H  H19  1  0.14780000  0.37869000  0.73948000  1.0
  H  H20  1  0.58819000  0.32811000  0.54709000  1.0
  H  H21  1  0.41181000  0.67189000  0.45290000  1.0
  H  H22  1  0.85061000  0.18455000  0.81091000  1.0
  H  H23  1  0.14940000  0.81545000  0.18910000  1.0
  H  H24  1  0.19782000  0.58870000  0.17777000  1.0
  H  H25  1  0.80218000  0.41129000  0.82222000  1.0
  H  H26  1  0.78816000  0.87439000  0.73047000  1.0
  H  H27  1  0.21184000  0.12562000  0.26953000  1.0
  H  H28  1  0.98208000  0.62936000  0.72976000  1.0
  H  H29  1  0.01792000  0.37064000  0.27025000  1.0
  H  H30  1  0.17312000  0.64949000  0.71820000  1.0
  H  H31  1  0.82688000  0.35051000  0.28180000  1.0
  H  H32  1  0.18152000  0.81012000  0.62152000  1.0
  H  H33  1  0.81848000  0.18988000  0.37848000  1.0
  H  H34  1  0.25404000  0.64690000  0.59888000  1.0
  H  H35  1  0.74596000  0.35310000  0.40112000  1.0
  H  H36  1  0.06502000  0.89913000  0.45321000  1.0
  H  H37  1  0.93498000  0.10086000  0.54679000  1.0
  H  H38  1  0.89598000  0.90313000  0.46873000  1.0
  H  H39  1  0.10402000  0.09687000  0.53127000  1.0
  H  H40  1  0.03074000  0.76566000  0.43445000  1.0
  H  H41  1  0.96926000  0.23434000  0.56555000  1.0
  C  C42  1  0.68664000  0.42543000  0.65535000  1.0
  C  C43  1  0.31337000  0.57458000  0.34465000  1.0
  C  C44  1  0.06479000  0.67201000  0.94386000  1.0
  C  C45  1  0.93521000  0.32799000  0.05614000  1.0
  C  C46  1  0.70730000  0.83306000  0.37953000  1.0
  C  C47  1  0.29270000  0.16694000  0.62048000  1.0
  C  C48  1  0.82809000  0.89647000  0.22151000  1.0
  C  C49  1  0.17191000  0.10353000  0.77849000  1.0
  C  C50  1  0.87247000  0.64002000  0.32716000  1.0
  C  C51  1  0.12752000  0.35998000  0.67284000  1.0
  C  C52  1  0.71553000  0.27185000  0.67720000  1.0
  C  C53  1  0.28448000  0.72815000  0.32280000  1.0
  C  C54  1  0.62257000  0.06227000  0.56036000  1.0
  C  C55  1  0.37743000  0.93773000  0.43964000  1.0
  C  C56  1  0.68492000  0.09703000  0.63052000  1.0
  C  C57  1  0.31509000  0.90297000  0.36948000  1.0
  C  C58  1  0.65672000  0.24061000  0.61173000  1.0
  C  C59  1  0.34328000  0.75939000  0.38826000  1.0
  C  C60  1  0.80430000  0.16043000  0.75991000  1.0
  C  C61  1  0.19571000  0.83957000  0.24008000  1.0
  C  C62  1  0.83333000  0.01719000  0.77684000  1.0
  C  C63  1  0.16668000  0.98281000  0.22316000  1.0
  C  C64  1  0.12255000  0.52610000  0.94266000  1.0
  C  C65  1  0.87744000  0.47390000  0.05734000  1.0
  C  C66  1  0.23008000  0.43885000  0.11512000  1.0
  C  C67  1  0.76991000  0.56115000  0.88488000  1.0
  C  C68  1  0.09952000  0.69748000  0.02936000  1.0
  C  C69  1  0.90047000  0.30251000  0.97064000  1.0
  C  C70  1  0.77106000  0.98508000  0.71410000  1.0
  C  C71  1  0.22894000  0.01492000  0.28590000  1.0
  C  C72  1  0.95129000  0.69106000  0.64691000  1.0
  C  C73  1  0.04871000  0.30894000  0.35309000  1.0
  C  C74  1  0.16890000  0.71132000  0.63475000  1.0
  C  C75  1  0.83110000  0.28868000  0.36525000  1.0
  C  C76  1  0.00557000  0.83356000  0.48035000  1.0
  C  C77  1  0.99443000  0.16644000  0.51966000  1.0
  N  N78  1  0.92688000  0.90742000  0.85824000  1.0
  N  N79  1  0.07312000  0.09258000  0.14176000  1.0
  N  N80  1  0.97932000  0.77429000  0.86495000  1.0
  N  N81  1  0.02067000  0.22570000  0.13505000  1.0
  N  N82  1  0.20731000  0.42065000  0.02849000  1.0
  N  N83  1  0.79268000  0.57934000  0.97151000  1.0
  N  N84  1  0.79821000  0.79154000  0.31193000  1.0
  N  N85  1  0.20179000  0.20847000  0.68808000  1.0
  N  N86  1  0.40807000  0.69957000  0.79665000  1.0
  N  N87  1  0.59193000  0.30043000  0.20335000  1.0
  N  N88  1  0.17925000  0.57758000  0.11044000  1.0
  N  N89  1  0.82074000  0.42241000  0.88956000  1.0
  N  N90  1  0.03798000  0.74621000  0.59033000  1.0
  N  N91  1  0.96202000  0.25379000  0.40967000  1.0
  O  O92  1  0.59122000  0.52637000  0.59197000  1.0
  O  O93  1  0.40878000  0.47363000  0.40802000  1.0
  O  O94  1  0.76261000  0.45201000  0.70147000  1.0
  O  O95  1  0.23739000  0.54800000  0.29853000  1.0
  O  O96  1  0.59717000  0.14862000  0.46622000  1.0
  O  O97  1  0.40283000  0.85139000  0.53378000  1.0
  O  O98  1  0.67617000  0.74687000  0.45751000  1.0
  O  O99  1  0.32383000  0.25313000  0.54249000  1.0
  O  O100  1  0.10012000  0.49063000  0.87546000  1.0
  O  O101  1  0.89987000  0.50937000  0.12453000  1.0
  O  O102  1  0.05680000  0.82010000  0.03297000  1.0
  O  O103  1  0.94319000  0.17988000  0.96704000  1.0
  O  O104  1  0.42672000  0.81601000  0.74846000  1.0
  O  O105  1  0.57329000  0.18399000  0.25154000  1.0
  O  O106  1  0.29371000  0.33270000  0.19254000  1.0
  O  O107  1  0.70629000  0.66729000  0.80746000  1.0
  O  O108  1  0.60064000  0.94907000  0.59990000  1.0
  O  O109  1  0.39935000  0.05094000  0.40010000  1.0
  O  O110  1  0.84366000  0.70921000  0.60844000  1.0
  O  O111  1  0.15633000  0.29079000  0.39156000  1.0
  O  O112  1  0.48418000  0.59143000  0.77165000  1.0
  O  O113  1  0.51582000  0.40858000  0.22835000  1.0
  O  O114  1  0.32076000  0.69319000  0.86317000  1.0
  O  O115  1  0.67924000  0.30682000  0.13683000  1.0
