# generated using pymatgen
data_CoH13C16ClO7
_symmetry_space_group_name_H-M   'P 1'
_cell_length_a   7.06910000
_cell_length_b   9.20683000
_cell_length_c   14.40714935
_cell_angle_alpha   88.61627312
_cell_angle_beta   75.78970969
_cell_angle_gamma   67.41720000
_symmetry_Int_Tables_number   1
_chemical_formula_structural   CoH13C16ClO7
_chemical_formula_sum   'Co2 H26 C32 Cl2 O14'
_cell_volume   836.70801531
_cell_formula_units_Z   2
loop_
 _symmetry_equiv_pos_site_id
 _symmetry_equiv_pos_as_xyz
  1  'x, y, z'
loop_
 _atom_site_type_symbol
 _atom_site_label
 _atom_site_symmetry_multiplicity
 _atom_site_fract_x
 _atom_site_fract_y
 _atom_site_fract_z
 _atom_site_occupancy
  Co  Co0  1  0.42907000  0.04379000  0.51576000  1.0
  Co  Co1  1  0.98867000  0.95612000  0.48418000  1.0
  H  H2  1  0.61329000  0.72421000  0.74494000  1.0
  H  H3  1  0.08265000  0.27602000  0.25514000  1.0
  H  H4  1  0.75958000  0.48179000  0.57342000  1.0
  H  H5  1  0.81425000  0.51867000  0.42650000  1.0
  H  H6  1  0.49565000  0.62835000  0.61588000  1.0
  H  H7  1  0.73952000  0.37213000  0.38392000  1.0
  H  H8  1  0.60518000  0.47883000  0.69084000  1.0
  H  H9  1  0.77512000  0.52149000  0.30895000  1.0
  H  H10  1  0.77092000  0.86561000  0.78012000  1.0
  H  H11  1  0.41709000  0.13433000  0.22037000  1.0
  H  H12  1  0.90038000  0.93859000  0.90816000  1.0
  H  H13  1  0.74725000  0.06132000  0.09207000  1.0
  H  H14  1  0.35076000  0.46204000  0.89575000  1.0
  H  H15  1  0.70830000  0.53797000  0.10405000  1.0
  H  H16  1  0.22128000  0.38546000  0.76453000  1.0
  H  H17  1  0.37141000  0.61457000  0.23556000  1.0
  H  H18  1  0.86836000  0.68178000  0.05084000  1.0
  H  H19  1  0.60055000  0.31812000  0.94904000  1.0
  H  H20  1  0.65190000  0.74748000  0.22071000  1.0
  H  H21  1  0.61980000  0.25221000  0.77919000  1.0
  H  H22  1  0.05687000  0.96304000  0.28080000  1.0
  H  H23  1  0.30052000  0.03686000  0.71909000  1.0
  H  H24  1  0.54644000  0.21583000  0.61150000  1.0
  H  H25  1  0.37408000  0.78400000  0.38854000  1.0
  H  H26  1  0.34561000  0.33567000  0.57730000  1.0
  H  H27  1  0.25877000  0.66427000  0.42280000  1.0
  C  C28  1  0.74278000  0.79088000  0.60882000  1.0
  C  C29  1  0.14213000  0.20925000  0.39128000  1.0
  C  C30  1  0.72640000  0.66234000  0.67689000  1.0
  C  C31  1  0.06553000  0.33788000  0.32324000  1.0
  C  C32  1  0.64141000  0.55577000  0.63624000  1.0
  C  C33  1  0.83328000  0.44459000  0.36365000  1.0
  C  C34  1  0.98796000  0.61852000  0.76457000  1.0
  C  C35  1  0.37127000  0.38150000  0.23569000  1.0
  C  C36  1  0.89714000  0.77496000  0.80452000  1.0
  C  C37  1  0.47689000  0.22500000  0.19582000  1.0
  C  C38  1  0.97018000  0.81714000  0.87703000  1.0
  C  C39  1  0.66445000  0.18281000  0.12315000  1.0
  C  C40  1  0.13299000  0.70413000  0.90892000  1.0
  C  C41  1  0.74587000  0.29587000  0.09104000  1.0
  C  C42  1  0.22552000  0.54891000  0.86896000  1.0
  C  C43  1  0.64331000  0.45110000  0.13100000  1.0
  C  C44  1  0.15378000  0.50619000  0.79650000  1.0
  C  C45  1  0.45658000  0.49381000  0.20361000  1.0
  C  C46  1  0.08802000  0.77889000  0.07158000  1.0
  C  C47  1  0.93812000  0.22105000  0.92830000  1.0
  C  C48  1  0.91104000  0.73939000  0.10277000  1.0
  C  C49  1  0.75283000  0.26052000  0.89710000  1.0
  C  C50  1  0.79092000  0.77639000  0.19744000  1.0
  C  C51  1  0.76443000  0.22341000  0.80245000  1.0
  C  C52  1  0.84169000  0.85659000  0.26283000  1.0
  C  C53  1  0.96086000  0.14317000  0.73707000  1.0
  C  C54  1  0.01804000  0.89717000  0.23188000  1.0
  C  C55  1  0.14683000  0.10264000  0.76801000  1.0
  C  C56  1  0.14178000  0.85610000  0.13812000  1.0
  C  C57  1  0.13569000  0.14379000  0.86175000  1.0
  C  C58  1  0.70325000  0.90675000  0.36070000  1.0
  C  C59  1  0.97057000  0.09306000  0.63920000  1.0
  Cl  Cl60  1  0.36349000  0.90055000  0.10220000  1.0
  Cl  Cl61  1  0.36585000  0.09943000  0.89768000  1.0
  O  O62  1  0.56264000  0.89384000  0.60611000  1.0
  O  O63  1  0.06209000  0.10645000  0.39396000  1.0
  O  O64  1  0.92307000  0.78559000  0.56275000  1.0
  O  O65  1  0.27126000  0.21428000  0.43731000  1.0
  O  O66  1  0.92441000  0.56357000  0.69517000  1.0
  O  O67  1  0.18327000  0.43651000  0.30507000  1.0
  O  O68  1  0.21203000  0.74689000  0.97970000  1.0
  O  O69  1  0.93833000  0.25318000  0.02014000  1.0
  O  O70  1  0.53744000  0.87620000  0.38945000  1.0
  O  O71  1  0.80303000  0.12362000  0.61039000  1.0
  O  O72  1  0.73684000  0.99243000  0.41986000  1.0
  O  O73  1  0.14909000  0.00742000  0.58004000  1.0
  O  O74  1  0.40291000  0.23444000  0.60373000  1.0
  O  O75  1  0.24134000  0.76547000  0.39635000  1.0
