# generated using pymatgen
data_ZnH16C26N3O4
_symmetry_space_group_name_H-M   'P 1'
_cell_length_a   18.28540000
_cell_length_b   19.26380000
_cell_length_c   19.67610000
_cell_angle_alpha   90.25030000
_cell_angle_beta   90.00010000
_cell_angle_gamma   89.93330000
_symmetry_Int_Tables_number   1
_chemical_formula_structural   ZnH16C26N3O4
_chemical_formula_sum   'Zn2 H32 C52 N6 O8'
_cell_volume   6930.76236621
_cell_formula_units_Z   2
loop_
 _symmetry_equiv_pos_site_id
 _symmetry_equiv_pos_as_xyz
  1  'x, y, z'
loop_
 _atom_site_type_symbol
 _atom_site_label
 _atom_site_symmetry_multiplicity
 _atom_site_fract_x
 _atom_site_fract_y
 _atom_site_fract_z
 _atom_site_occupancy
  Zn  Zn0  1  0.57665000  0.50002000  0.50076000  1.0
  Zn  Zn1  1  0.42336000  0.50012000  0.50074000  1.0
  H  H2  1  0.61718000  0.27845000  0.48610000  1.0
  H  H3  1  0.61723000  0.50138000  0.28344000  1.0
  H  H4  1  0.38280000  0.49782000  0.28340000  1.0
  H  H5  1  0.61719000  0.50213000  0.71774000  1.0
  H  H6  1  0.38220000  0.49850000  0.84450000  1.0
  H  H7  1  0.61779000  0.50152000  0.15663000  1.0
  H  H8  1  0.38230000  0.49793000  0.15659000  1.0
  H  H9  1  0.61769000  0.50201000  0.84456000  1.0
  H  H10  1  0.58175000  0.58046000  0.93827000  1.0
  H  H11  1  0.41827000  0.41950000  0.06288000  1.0
  H  H12  1  0.58178000  0.58012000  0.06397000  1.0
  H  H13  1  0.38282000  0.72139000  0.48662000  1.0
  H  H14  1  0.41823000  0.41986000  0.93717000  1.0
  H  H15  1  0.69335000  0.57585000  0.57500000  1.0
  H  H16  1  0.30712000  0.42435000  0.42564000  1.0
  H  H17  1  0.69306000  0.42435000  0.42564000  1.0
  H  H18  1  0.30647000  0.57585000  0.57498000  1.0
  H  H19  1  0.93269000  0.38920000  0.48439000  1.0
  H  H20  1  0.06730000  0.61088000  0.51534000  1.0
  H  H21  1  0.93249000  0.61092000  0.51532000  1.0
  H  H22  1  0.06751000  0.38916000  0.48441000  1.0
  H  H23  1  0.83026000  0.57887000  0.57859000  1.0
  H  H24  1  0.61723000  0.72124000  0.48664000  1.0
  H  H25  1  0.17020000  0.42127000  0.42137000  1.0
  H  H26  1  0.82997000  0.42128000  0.42134000  1.0
  H  H27  1  0.16957000  0.57888000  0.57862000  1.0
  H  H28  1  0.38278000  0.27860000  0.48611000  1.0
  H  H29  1  0.61771000  0.14958000  0.46664000  1.0
  H  H30  1  0.38230000  0.85004000  0.46698000  1.0
  H  H31  1  0.61765000  0.84987000  0.46699000  1.0
  H  H32  1  0.38235000  0.14975000  0.46665000  1.0
  H  H33  1  0.38277000  0.49870000  0.71769000  1.0
  C  C34  1  0.50003000  0.49909000  0.36725000  1.0
  C  C35  1  0.45331000  0.45596000  0.96492000  1.0
  C  C36  1  0.50002000  0.49978000  0.07268000  1.0
  C  C37  1  0.49997000  0.50020000  0.92846000  1.0
  C  C38  1  0.72637000  0.54274000  0.54194000  1.0
  C  C39  1  0.27388000  0.45742000  0.45854000  1.0
  C  C40  1  0.72622000  0.45742000  0.45855000  1.0
  C  C41  1  0.27353000  0.54275000  0.54192000  1.0
  C  C42  1  0.80227000  0.54435000  0.54314000  1.0
  C  C43  1  0.19797000  0.45580000  0.45696000  1.0
  C  C44  1  0.80213000  0.45581000  0.45693000  1.0
  C  C45  1  0.49999000  0.50098000  0.63386000  1.0
  C  C46  1  0.19762000  0.54434000  0.54316000  1.0
  C  C47  1  0.84214000  0.50007000  0.49996000  1.0
  C  C48  1  0.15786000  0.50004000  0.50000000  1.0
  C  C49  1  0.96205000  0.43810000  0.49010000  1.0
  C  C50  1  0.03794000  0.56198000  0.50962000  1.0
  C  C51  1  0.96193000  0.56200000  0.50960000  1.0
  C  C52  1  0.03807000  0.43808000  0.49012000  1.0
  C  C53  1  0.07729000  0.50002000  0.49989000  1.0
  C  C54  1  0.92271000  0.50006000  0.49985000  1.0
  C  C55  1  0.49994000  0.36355000  0.49531000  1.0
  C  C56  1  0.49995000  0.50038000  0.85346000  1.0
  C  C57  1  0.50005000  0.63656000  0.49709000  1.0
  C  C58  1  0.56621000  0.24954000  0.48174000  1.0
  C  C59  1  0.43379000  0.75033000  0.48268000  1.0
  C  C60  1  0.56623000  0.75023000  0.48269000  1.0
  C  C61  1  0.43378000  0.24963000  0.48174000  1.0
  C  C62  1  0.56648000  0.17818000  0.47114000  1.0
  C  C63  1  0.43353000  0.82155000  0.47179000  1.0
  C  C64  1  0.56645000  0.82144000  0.47180000  1.0
  C  C65  1  0.43356000  0.17828000  0.47114000  1.0
  C  C66  1  0.50003000  0.14190000  0.46517000  1.0
  C  C67  1  0.50004000  0.49958000  0.14769000  1.0
  C  C68  1  0.49997000  0.85775000  0.46581000  1.0
  C  C69  1  0.49998000  0.28601000  0.48657000  1.0
  C  C70  1  0.50002000  0.71397000  0.48792000  1.0
  C  C71  1  0.49998000  0.93268000  0.45341000  1.0
  C  C72  1  0.50003000  0.06680000  0.45308000  1.0
  C  C73  1  0.43391000  0.49920000  0.74613000  1.0
  C  C74  1  0.56609000  0.50080000  0.25501000  1.0
  C  C75  1  0.43395000  0.49795000  0.25499000  1.0
  C  C76  1  0.56603000  0.50200000  0.74615000  1.0
  C  C77  1  0.43393000  0.49866000  0.81682000  1.0
  C  C78  1  0.49998000  0.50080000  0.71001000  1.0
  C  C79  1  0.56607000  0.50135000  0.18431000  1.0
  C  C80  1  0.43400000  0.49775000  0.18429000  1.0
  C  C81  1  0.56600000  0.50218000  0.81685000  1.0
  C  C82  1  0.50003000  0.49918000  0.29111000  1.0
  C  C83  1  0.54666000  0.54423000  0.96552000  1.0
  C  C84  1  0.45335000  0.45574000  0.03563000  1.0
  C  C85  1  0.54668000  0.54403000  0.03623000  1.0
  N  N86  1  0.43517000  0.03391000  0.44434000  1.0
  N  N87  1  0.56483000  0.96546000  0.44450000  1.0
  N  N88  1  0.43515000  0.96563000  0.44451000  1.0
  N  N89  1  0.56485000  0.03374000  0.44433000  1.0
  N  N90  1  0.68896000  0.50004000  0.50037000  1.0
  N  N91  1  0.31104000  0.50007000  0.50035000  1.0
  O  O92  1  0.56209000  0.49919000  0.39682000  1.0
  O  O93  1  0.43793000  0.50094000  0.60428000  1.0
  O  O94  1  0.56207000  0.50110000  0.60429000  1.0
  O  O95  1  0.43797000  0.49903000  0.39683000  1.0
  O  O96  1  0.56203000  0.39332000  0.49829000  1.0
  O  O97  1  0.43796000  0.60683000  0.50013000  1.0
  O  O98  1  0.56218000  0.60677000  0.50014000  1.0
  O  O99  1  0.43781000  0.39336000  0.49832000  1.0
