# generated using pymatgen
data_CdH28C38(N3Cl)2
_symmetry_space_group_name_H-M   'P 1'
_cell_length_a   11.99090000
_cell_length_b   12.87610000
_cell_length_c   13.03381422
_cell_angle_alpha   74.21395490
_cell_angle_beta   62.65746611
_cell_angle_gamma   89.99280000
_symmetry_Int_Tables_number   1
_chemical_formula_structural   CdH28C38(N3Cl)2
_chemical_formula_sum   'Cd2 H56 C76 N12 Cl4'
_cell_volume   1701.68102111
_cell_formula_units_Z   2
loop_
 _symmetry_equiv_pos_site_id
 _symmetry_equiv_pos_as_xyz
  1  'x, y, z'
loop_
 _atom_site_type_symbol
 _atom_site_label
 _atom_site_symmetry_multiplicity
 _atom_site_fract_x
 _atom_site_fract_y
 _atom_site_fract_z
 _atom_site_occupancy
  Cd  Cd0  1  0.75158000  0.74991000  0.50003000  1.0
  Cd  Cd1  1  0.24842000  0.25009000  0.49997000  1.0
  H  H2  1  0.20909000  0.83557000  0.03017000  1.0
  H  H3  1  0.73887000  0.66427000  0.97027000  1.0
  H  H4  1  0.79091000  0.16442000  0.96983000  1.0
  H  H5  1  0.26114000  0.33574000  0.02973000  1.0
  H  H6  1  0.15530000  0.77555000  0.95263000  1.0
  H  H7  1  0.60764000  0.72439000  0.04758000  1.0
  H  H8  1  0.84470000  0.22444000  0.04737000  1.0
  H  H9  1  0.39237000  0.27561000  0.95242000  1.0
  H  H10  1  0.51227000  0.59847000  0.81138000  1.0
  H  H11  1  0.82353000  0.90206000  0.18872000  1.0
  H  H12  1  0.48773000  0.40153000  0.18862000  1.0
  H  H13  1  0.17647000  0.09794000  0.81128000  1.0
  H  H14  1  0.26225000  0.79746000  0.16548000  1.0
  H  H15  1  0.92737000  0.70206000  0.83501000  1.0
  H  H16  1  0.73775000  0.20254000  0.83452000  1.0
  H  H17  1  0.07263000  0.29795000  0.16499000  1.0
  H  H18  1  0.35318000  0.71916000  0.82937000  1.0
  H  H19  1  0.68259000  0.78099000  0.17102000  1.0
  H  H20  1  0.64683000  0.28084000  0.17062000  1.0
  H  H21  1  0.31742000  0.21901000  0.82898000  1.0
  H  H22  1  0.64049000  0.47977000  0.23886000  1.0
  H  H23  1  0.37957000  0.02090000  0.76108000  1.0
  H  H24  1  0.35951000  0.52022000  0.76114000  1.0
  H  H25  1  0.62043000  0.97909000  0.23892000  1.0
  H  H26  1  0.65174000  0.56043000  0.38745000  1.0
  H  H27  1  0.53886000  0.94009000  0.61253000  1.0
  H  H28  1  0.34827000  0.43957000  0.61254000  1.0
  H  H29  1  0.46113000  0.05991000  0.38748000  1.0
  H  H30  1  0.35693000  0.49360000  0.20276000  1.0
  H  H31  1  0.05918000  0.00612000  0.79740000  1.0
  H  H32  1  0.64307000  0.50640000  0.79724000  1.0
  H  H33  1  0.94083000  0.99388000  0.20260000  1.0
  H  H34  1  0.34940000  0.89959000  0.25536000  1.0
  H  H35  1  0.10454000  0.60024000  0.74480000  1.0
  H  H36  1  0.65059000  0.10041000  0.74464000  1.0
  H  H37  1  0.89546000  0.39976000  0.25520000  1.0
  H  H38  1  0.96463000  0.91427000  0.50956000  1.0
  H  H39  1  0.97319000  0.58521000  0.49099000  1.0
  H  H40  1  0.03536000  0.08573000  0.49043000  1.0
  H  H41  1  0.02681000  0.41479000  0.50901000  1.0
  H  H42  1  0.82520000  0.50951000  0.03477000  1.0
  H  H43  1  0.36035000  0.99082000  0.96529000  1.0
  H  H44  1  0.17481000  0.49049000  0.96523000  1.0
  H  H45  1  0.63966000  0.00919000  0.03471000  1.0
  H  H46  1  0.02871000  0.62245000  0.97157000  1.0
  H  H47  1  0.50045000  0.87740000  0.02854000  1.0
  H  H48  1  0.97129000  0.37754000  0.02843000  1.0
  H  H49  1  0.49955000  0.12261000  0.97146000  1.0
  H  H50  1  0.19977000  0.95919000  0.43239000  1.0
  H  H51  1  0.13186000  0.54096000  0.56758000  1.0
  H  H52  1  0.80022000  0.04081000  0.56760000  1.0
  H  H53  1  0.86814000  0.45904000  0.43242000  1.0
  H  H54  1  0.19409000  0.60955000  0.21866000  1.0
  H  H55  1  0.91206000  0.89022000  0.78173000  1.0
  H  H56  1  0.80591000  0.39044000  0.78134000  1.0
  H  H57  1  0.08794000  0.10979000  0.21827000  1.0
  C  C58  1  0.45043000  0.53586000  0.00536000  1.0
  C  C59  1  0.95566000  0.96413000  0.99476000  1.0
  C  C60  1  0.54957000  0.46414000  0.99464000  1.0
  C  C61  1  0.04434000  0.03587000  0.00524000  1.0
  C  C62  1  0.17070000  0.75718000  0.03220000  1.0
  C  C63  1  0.70259000  0.74269000  0.96814000  1.0
  C  C64  1  0.82930000  0.24282000  0.96780000  1.0
  C  C65  1  0.29741000  0.25731000  0.03186000  1.0
  C  C66  1  0.44498000  0.60070000  0.90203000  1.0
  C  C67  1  0.84691000  0.89955000  0.09811000  1.0
  C  C68  1  0.55502000  0.39930000  0.09796000  1.0
  C  C69  1  0.15310000  0.10045000  0.90189000  1.0
  C  C70  1  0.06578000  0.80552000  0.28815000  1.0
  C  C71  1  0.85355000  0.69433000  0.71211000  1.0
  C  C72  1  0.93421000  0.19448000  0.71185000  1.0
  C  C73  1  0.14645000  0.30568000  0.28789000  1.0
  C  C74  1  0.19804000  0.82715000  0.23915000  1.0
  C  C75  1  0.93688000  0.67263000  0.76114000  1.0
  C  C76  1  0.80195000  0.17285000  0.76085000  1.0
  C  C77  1  0.06313000  0.32738000  0.23886000  1.0
  C  C78  1  0.99981000  0.74092000  0.24947000  1.0
  C  C79  1  0.74894000  0.75897000  0.75073000  1.0
  C  C80  1  0.00019000  0.25908000  0.75053000  1.0
  C  C81  1  0.25106000  0.24102000  0.24928000  1.0
  C  C82  1  0.26289000  0.67583000  0.02495000  1.0
  C  C83  1  0.78755000  0.82404000  0.97544000  1.0
  C  C84  1  0.73711000  0.32416000  0.97505000  1.0
  C  C85  1  0.21245000  0.17596000  0.02456000  1.0
  C  C86  1  0.35322000  0.66924000  0.91178000  1.0
  C  C87  1  0.76489000  0.83085000  0.08853000  1.0
  C  C88  1  0.64677000  0.33075000  0.08822000  1.0
  C  C89  1  0.23511000  0.16915000  0.91147000  1.0
  C  C90  1  0.84671000  0.63747000  0.26257000  1.0
  C  C91  1  0.60900000  0.86256000  0.73748000  1.0
  C  C92  1  0.15329000  0.36253000  0.73742000  1.0
  C  C93  1  0.39100000  0.13743000  0.26252000  1.0
  C  C94  1  0.72834000  0.52916000  0.21340000  1.0
  C  C95  1  0.44180000  0.97124000  0.78661000  1.0
  C  C96  1  0.27166000  0.47084000  0.78659000  1.0
  C  C97  1  0.55819000  0.02876000  0.21340000  1.0
  C  C98  1  0.95183000  0.65384000  0.14595000  1.0
  C  C99  1  0.59755000  0.84606000  0.85416000  1.0
  C  C100  1  0.04817000  0.34616000  0.85405000  1.0
  C  C101  1  0.40245000  0.15394000  0.14584000  1.0
  C  C102  1  0.73278000  0.57393000  0.29763000  1.0
  C  C103  1  0.53022000  0.92635000  0.70238000  1.0
  C  C104  1  0.26722000  0.42607000  0.70237000  1.0
  C  C105  1  0.46977000  0.07364000  0.29763000  1.0
  C  C106  1  0.35767000  0.54134000  0.11922000  1.0
  C  C107  1  0.97655000  0.95843000  0.88097000  1.0
  C  C108  1  0.64234000  0.45865000  0.88077000  1.0
  C  C109  1  0.02346000  0.04158000  0.11903000  1.0
  C  C110  1  0.24718000  0.88318000  0.29063000  1.0
  C  C111  1  0.03754000  0.61676000  0.70951000  1.0
  C  C112  1  0.75282000  0.11683000  0.70937000  1.0
  C  C113  1  0.96246000  0.38325000  0.29049000  1.0
  C  C114  1  0.03455000  0.89201000  0.43164000  1.0
  C  C115  1  0.96555000  0.60776000  0.56866000  1.0
  C  C116  1  0.96545000  0.10799000  0.56835000  1.0
  C  C117  1  0.03444000  0.39224000  0.43135000  1.0
  C  C118  1  0.83359000  0.54676000  0.09724000  1.0
  C  C119  1  0.43097000  0.95346000  0.90281000  1.0
  C  C120  1  0.16642000  0.45324000  0.90276000  1.0
  C  C121  1  0.56904000  0.04655000  0.09719000  1.0
  C  C122  1  0.94746000  0.60972000  0.06091000  1.0
  C  C123  1  0.50835000  0.89022000  0.93920000  1.0
  C  C124  1  0.05253000  0.39028000  0.93910000  1.0
  C  C125  1  0.49165000  0.10978000  0.06080000  1.0
  C  C126  1  0.16446000  0.91662000  0.38901000  1.0
  C  C127  1  0.05313000  0.58340000  0.61107000  1.0
  C  C128  1  0.83553000  0.08339000  0.61099000  1.0
  C  C129  1  0.94687000  0.41661000  0.38893000  1.0
  C  C130  1  0.26527000  0.60929000  0.12850000  1.0
  C  C131  1  0.89332000  0.89048000  0.87185000  1.0
  C  C132  1  0.73473000  0.39070000  0.87150000  1.0
  C  C133  1  0.10669000  0.10952000  0.12814000  1.0
  N  N134  1  0.87995000  0.69259000  0.32412000  1.0
  N  N135  1  0.70372000  0.80738000  0.67601000  1.0
  N  N136  1  0.12004000  0.30742000  0.67588000  1.0
  N  N137  1  0.29628000  0.19262000  0.32399000  1.0
  N  N138  1  0.98636000  0.83819000  0.38342000  1.0
  N  N139  1  0.86924000  0.66159000  0.61689000  1.0
  N  N140  1  0.01363000  0.16181000  0.61658000  1.0
  N  N141  1  0.13077000  0.33842000  0.38311000  1.0
  N  N142  1  0.04723000  0.71979000  0.13990000  1.0
  N  N143  1  0.68685000  0.78007000  0.86032000  1.0
  N  N144  1  0.95277000  0.28021000  0.86010000  1.0
  N  N145  1  0.31315000  0.21993000  0.13968000  1.0
  Cl  Cl146  1  0.70248000  0.92460000  0.39790000  1.0
  Cl  Cl147  1  0.59994000  0.57554000  0.60208000  1.0
  Cl  Cl148  1  0.29752000  0.07540000  0.60210000  1.0
  Cl  Cl149  1  0.40006000  0.42446000  0.39792000  1.0
