# generated using pymatgen
data_CdPH13C15N2O5
_symmetry_space_group_name_H-M   'P 1'
_cell_length_a   8.17058000
_cell_length_b   9.48213000
_cell_length_c   11.07810000
_cell_angle_alpha   101.66800000
_cell_angle_beta   99.93950000
_cell_angle_gamma   113.41700000
_symmetry_Int_Tables_number   1
_chemical_formula_structural   CdPH13C15N2O5
_chemical_formula_sum   'Cd2 P2 H26 C30 N4 O10'
_cell_volume   740.11363129
_cell_formula_units_Z   2
loop_
 _symmetry_equiv_pos_site_id
 _symmetry_equiv_pos_as_xyz
  1  'x, y, z'
loop_
 _atom_site_type_symbol
 _atom_site_label
 _atom_site_symmetry_multiplicity
 _atom_site_fract_x
 _atom_site_fract_y
 _atom_site_fract_z
 _atom_site_occupancy
  Cd  Cd0  1  0.88315000  0.42526000  0.82999000  1.0
  Cd  Cd1  1  0.11685000  0.57474000  0.17001000  1.0
  P  P2  1  0.06601000  0.21135000  0.97722000  1.0
  P  P3  1  0.93398000  0.78865000  0.02278000  1.0
  H  H4  1  0.07481000  0.07523000  0.12220000  1.0
  H  H5  1  0.92519000  0.92477000  0.87780000  1.0
  H  H6  1  0.41100000  0.57034000  0.43597000  1.0
  H  H7  1  0.58900000  0.42966000  0.56403000  1.0
  H  H8  1  0.66037000  0.05915000  0.62758000  1.0
  H  H9  1  0.33964000  0.94085000  0.37242000  1.0
  H  H10  1  0.25797000  0.78257000  0.92691000  1.0
  H  H11  1  0.74204000  0.21743000  0.07309000  1.0
  H  H12  1  0.17612000  0.29417000  0.31765000  1.0
  H  H13  1  0.82388000  0.70584000  0.68235000  1.0
  H  H14  1  0.39611000  0.32997000  0.05042000  1.0
  H  H15  1  0.60389000  0.67004000  0.94958000  1.0
  H  H16  1  0.30124000  0.12927000  0.95014000  1.0
  H  H17  1  0.69876000  0.87073000  0.04986000  1.0
  H  H18  1  0.52656000  0.93812000  0.84770000  1.0
  H  H19  1  0.47344000  0.06188000  0.15230000  1.0
  H  H20  1  0.55345000  0.80484000  0.63813000  1.0
  H  H21  1  0.44656000  0.19516000  0.36187000  1.0
  H  H22  1  0.22299000  0.22279000  0.75685000  1.0
  H  H23  1  0.77701000  0.77720000  0.24315000  1.0
  H  H24  1  0.32761000  0.42143000  0.85770000  1.0
  H  H25  1  0.67238000  0.57857000  0.14230000  1.0
  H  H26  1  0.65956000  0.90343000  0.41377000  1.0
  H  H27  1  0.34045000  0.09657000  0.58623000  1.0
  H  H28  1  0.90419000  0.04346000  0.31030000  1.0
  H  H29  1  0.09581000  0.95654000  0.68970000  1.0
  C  C30  1  0.02038000  0.34323000  0.58613000  1.0
  C  C31  1  0.97962000  0.65677000  0.41387000  1.0
  C  C32  1  0.51853000  0.32632000  0.82583000  1.0
  C  C33  1  0.48147000  0.67368000  0.17417000  1.0
  C  C34  1  0.03244000  0.26564000  0.46609000  1.0
  C  C35  1  0.96756000  0.73436000  0.53391000  1.0
  C  C36  1  0.30487000  0.50619000  0.47885000  1.0
  C  C37  1  0.69513000  0.49381000  0.52115000  1.0
  C  C38  1  0.76278000  0.11394000  0.57853000  1.0
  C  C39  1  0.23722000  0.88607000  0.42147000  1.0
  C  C40  1  0.27308000  0.73065000  0.83490000  1.0
  C  C41  1  0.72692000  0.26935000  0.16510000  1.0
  C  C42  1  0.30152000  0.58627000  0.60182000  1.0
  C  C43  1  0.69848000  0.41373000  0.39818000  1.0
  C  C44  1  0.17523000  0.35192000  0.41305000  1.0
  C  C45  1  0.82477000  0.64808000  0.58695000  1.0
  C  C46  1  0.29319000  0.24397000  0.96025000  1.0
  C  C47  1  0.70682000  0.75603000  0.03975000  1.0
  C  C48  1  0.42368000  0.81635000  0.79103000  1.0
  C  C49  1  0.57632000  0.18365000  0.20897000  1.0
  C  C50  1  0.43743000  0.74344000  0.67457000  1.0
  C  C51  1  0.56257000  0.25656000  0.32543000  1.0
  C  C52  1  0.15662000  0.50766000  0.65483000  1.0
  C  C53  1  0.84338000  0.49234000  0.34516000  1.0
  C  C54  1  0.33204000  0.30543000  0.84620000  1.0
  C  C55  1  0.66796000  0.69456000  0.15380000  1.0
  C  C56  1  0.76433000  0.02779000  0.45994000  1.0
  C  C57  1  0.23567000  0.97221000  0.54006000  1.0
  C  C58  1  0.89857000  0.10450000  0.40313000  1.0
  C  C59  1  0.10143000  0.89550000  0.59687000  1.0
  N  N60  1  0.14426000  0.58144000  0.76892000  1.0
  N  N61  1  0.85574000  0.41856000  0.23108000  1.0
  N  N62  1  0.88574000  0.26651000  0.63870000  1.0
  N  N63  1  0.11425000  0.73349000  0.36130000  1.0
  O  O64  1  0.04531000  0.36720000  0.98588000  1.0
  O  O65  1  0.95468000  0.63280000  0.01412000  1.0
  O  O66  1  0.06190000  0.18035000  0.11168000  1.0
  O  O67  1  0.93809000  0.81965000  0.88832000  1.0
  O  O68  1  0.91848000  0.06829000  0.86515000  1.0
  O  O69  1  0.08152000  0.93171000  0.13485000  1.0
  O  O70  1  0.59611000  0.43233000  0.77146000  1.0
  O  O71  1  0.40389000  0.56767000  0.22854000  1.0
  O  O72  1  0.59282000  0.24208000  0.86365000  1.0
  O  O73  1  0.40718000  0.75792000  0.13635000  1.0
