# generated using pymatgen
data_ZnH10C9(NO)5
_symmetry_space_group_name_H-M   'P 1'
_cell_length_a   10.65980000
_cell_length_b   11.78988770
_cell_length_c   11.91390000
_cell_angle_alpha   68.55823810
_cell_angle_beta   89.96850000
_cell_angle_gamma   63.12687118
_symmetry_Int_Tables_number   1
_chemical_formula_structural   ZnH10C9(NO)5
_chemical_formula_sum   'Zn4 H40 C36 N20 O20'
_cell_volume   1218.47804807
_cell_formula_units_Z   4
loop_
 _symmetry_equiv_pos_site_id
 _symmetry_equiv_pos_as_xyz
  1  'x, y, z'
loop_
 _atom_site_type_symbol
 _atom_site_label
 _atom_site_symmetry_multiplicity
 _atom_site_fract_x
 _atom_site_fract_y
 _atom_site_fract_z
 _atom_site_occupancy
  Zn  Zn0  1  0.97353000  0.27378000  0.18977000  1.0
  Zn  Zn1  1  0.24742000  0.72623000  0.31035000  1.0
  Zn  Zn2  1  0.02647000  0.72622000  0.81023000  1.0
  Zn  Zn3  1  0.75258000  0.27377000  0.68965000  1.0
  H  H4  1  0.48475000  0.30881000  0.08222000  1.0
  H  H5  1  0.79345000  0.69105000  0.41787000  1.0
  H  H6  1  0.51525000  0.69119000  0.91778000  1.0
  H  H7  1  0.20654000  0.30895000  0.58213000  1.0
  H  H8  1  0.18270000  0.41038000  0.10477000  1.0
  H  H9  1  0.59332000  0.58951000  0.39545000  1.0
  H  H10  1  0.81730000  0.58962000  0.89523000  1.0
  H  H11  1  0.40669000  0.41049000  0.60455000  1.0
  H  H12  1  0.09752000  0.15942000  0.97409000  1.0
  H  H13  1  0.25688000  0.84073000  0.52583000  1.0
  H  H14  1  0.90248000  0.84058000  0.02591000  1.0
  H  H15  1  0.74313000  0.15926000  0.47417000  1.0
  H  H16  1  0.33863000  0.24727000  0.79035000  1.0
  H  H17  1  0.58564000  0.75282000  0.70972000  1.0
  H  H18  1  0.66136000  0.75273000  0.20965000  1.0
  H  H19  1  0.41436000  0.24718000  0.29029000  1.0
  H  H20  1  0.28986000  0.11262000  0.84792000  1.0
  H  H21  1  0.40229000  0.88745000  0.65211000  1.0
  H  H22  1  0.71014000  0.88738000  0.15208000  1.0
  H  H23  1  0.59771000  0.11255000  0.34789000  1.0
  H  H24  1  0.54380000  0.11449000  0.96857000  1.0
  H  H25  1  0.65826000  0.88551000  0.53149000  1.0
  H  H26  1  0.45621000  0.88551000  0.03143000  1.0
  H  H27  1  0.34174000  0.11449000  0.46851000  1.0
  H  H28  1  0.55581000  0.02151000  0.87843000  1.0
  H  H29  1  0.57717000  0.97858000  0.62155000  1.0
  H  H30  1  0.44420000  0.97849000  0.12157000  1.0
  H  H31  1  0.42284000  0.02141000  0.37844000  1.0
  H  H32  1  0.68533000  0.47214000  0.24347000  1.0
  H  H33  1  0.15761000  0.52780000  0.25652000  1.0
  H  H34  1  0.31467000  0.52786000  0.75653000  1.0
  H  H35  1  0.84239000  0.47220000  0.74348000  1.0
  H  H36  1  0.11147000  0.09912000  0.41812000  1.0
  H  H37  1  0.21106000  0.90084000  0.08192000  1.0
  H  H38  1  0.88853000  0.90088000  0.58189000  1.0
  H  H39  1  0.78894000  0.09916000  0.91808000  1.0
  H  H40  1  0.07008000  0.01930000  0.35371000  1.0
  H  H41  1  0.09008000  0.98042000  0.14657000  1.0
  H  H42  1  0.92992000  0.98070000  0.64629000  1.0
  H  H43  1  0.90991000  0.01959000  0.85343000  1.0
  C  C44  1  0.39522000  0.51598000  0.19968000  1.0
  C  C45  1  0.91121000  0.48394000  0.30034000  1.0
  C  C46  1  0.60478000  0.48402000  0.80032000  1.0
  C  C47  1  0.08878000  0.51606000  0.69966000  1.0
  C  C48  1  0.53042000  0.42884000  0.16832000  1.0
  C  C49  1  0.95920000  0.57125000  0.33149000  1.0
  C  C50  1  0.46959000  0.57116000  0.83168000  1.0
  C  C51  1  0.04080000  0.42875000  0.66850000  1.0
  C  C52  1  0.56034000  0.33142000  0.11777000  1.0
  C  C53  1  0.89167000  0.66853000  0.38220000  1.0
  C  C54  1  0.43966000  0.66858000  0.88223000  1.0
  C  C55  1  0.10833000  0.33147000  0.61779000  1.0
  C  C56  1  0.70854000  0.27060000  0.12182000  1.0
  C  C57  1  0.97923000  0.72912000  0.37843000  1.0
  C  C58  1  0.29148000  0.72939000  0.87818000  1.0
  C  C59  1  0.02078000  0.27087000  0.62157000  1.0
  C  C60  1  0.80996000  0.15467000  0.09051000  1.0
  C  C61  1  0.96465000  0.84520000  0.40956000  1.0
  C  C62  1  0.19004000  0.84533000  0.90949000  1.0
  C  C63  1  0.03534000  0.15480000  0.59044000  1.0
  C  C64  1  0.18778000  0.34579000  0.05751000  1.0
  C  C65  1  0.53369000  0.65413000  0.44266000  1.0
  C  C66  1  0.81222000  0.65421000  0.94248000  1.0
  C  C67  1  0.46631000  0.34587000  0.55734000  1.0
  C  C68  1  0.14208000  0.21875000  0.99239000  1.0
  C  C69  1  0.36082000  0.78139000  0.50757000  1.0
  C  C70  1  0.85792000  0.78125000  0.00761000  1.0
  C  C71  1  0.63918000  0.21861000  0.49243000  1.0
  C  C72  1  0.34163000  0.16418000  0.87339000  1.0
  C  C73  1  0.50566000  0.83590000  0.62667000  1.0
  C  C74  1  0.65838000  0.83581000  0.12661000  1.0
  C  C75  1  0.49433000  0.16411000  0.37333000  1.0
  C  C76  1  0.49507000  0.06037000  0.94321000  1.0
  C  C77  1  0.55535000  0.93970000  0.55679000  1.0
  C  C78  1  0.50493000  0.93963000  0.05679000  1.0
  C  C79  1  0.44464000  0.06030000  0.44321000  1.0
  N  N80  1  0.65634000  0.42435000  0.19706000  1.0
  N  N81  1  0.08071000  0.57565000  0.30289000  1.0
  N  N82  1  0.34366000  0.57565000  0.80294000  1.0
  N  N83  1  0.91929000  0.42435000  0.69711000  1.0
  N  N84  1  0.76396000  0.32987000  0.16980000  1.0
  N  N85  1  0.09392000  0.66999000  0.33033000  1.0
  N  N86  1  0.23603000  0.67013000  0.83020000  1.0
  N  N87  1  0.90608000  0.33001000  0.66967000  1.0
  N  N88  1  0.09788000  0.29067000  0.06281000  1.0
  N  N89  1  0.38864000  0.70939000  0.43722000  1.0
  N  N90  1  0.90211000  0.70934000  0.93719000  1.0
  N  N91  1  0.61136000  0.29061000  0.56279000  1.0
  N  N92  1  0.28409000  0.31117000  0.98874000  1.0
  N  N93  1  0.59525000  0.68879000  0.51142000  1.0
  N  N94  1  0.71591000  0.68883000  0.01125000  1.0
  N  N95  1  0.40475000  0.31121000  0.48858000  1.0
  N  N96  1  0.25310000  0.23078000  0.94814000  1.0
  N  N97  1  0.48379000  0.76936000  0.55186000  1.0
  N  N98  1  0.74690000  0.76922000  0.05186000  1.0
  N  N99  1  0.51621000  0.23064000  0.44814000  1.0
  O  O100  1  0.40383000  0.59111000  0.25142000  1.0
  O  O101  1  0.99519000  0.40861000  0.24885000  1.0
  O  O102  1  0.59617000  0.40889000  0.74858000  1.0
  O  O103  1  0.00480000  0.59139000  0.75115000  1.0
  O  O104  1  0.28709000  0.50455000  0.17623000  1.0
  O  O105  1  0.79176000  0.49520000  0.32396000  1.0
  O  O106  1  0.71291000  0.49545000  0.82377000  1.0
  O  O107  1  0.20824000  0.50480000  0.67604000  1.0
  O  O108  1  0.76120000  0.09334000  0.05149000  1.0
  O  O109  1  0.85466000  0.90658000  0.44862000  1.0
  O  O110  1  0.23881000  0.90666000  0.94851000  1.0
  O  O111  1  0.14535000  0.09341000  0.55138000  1.0
  O  O112  1  0.94105000  0.12694000  0.10781000  1.0
  O  O113  1  0.06786000  0.87317000  0.39173000  1.0
  O  O114  1  0.05894000  0.87306000  0.89219000  1.0
  O  O115  1  0.93213000  0.12684000  0.60827000  1.0
  O  O116  1  0.09404000  0.09663000  0.33618000  1.0
  O  O117  1  0.19147000  0.90345000  0.16393000  1.0
  O  O118  1  0.90596000  0.90337000  0.66383000  1.0
  O  O119  1  0.80853000  0.09655000  0.83607000  1.0
