# generated using pymatgen
data_CoCu2H12(C3N2)4
_symmetry_space_group_name_H-M   'P 1'
_cell_length_a   6.09917000
_cell_length_b   10.94800000
_cell_length_c   10.94790000
_cell_angle_alpha   90.00040000
_cell_angle_beta   90.00000000
_cell_angle_gamma   89.99970000
_symmetry_Int_Tables_number   1
_chemical_formula_structural   CoCu2H12(C3N2)4
_chemical_formula_sum   'Co2 Cu4 H24 C24 N16'
_cell_volume   731.03193428
_cell_formula_units_Z   2
loop_
 _symmetry_equiv_pos_site_id
 _symmetry_equiv_pos_as_xyz
  1  'x, y, z'
loop_
 _atom_site_type_symbol
 _atom_site_label
 _atom_site_symmetry_multiplicity
 _atom_site_fract_x
 _atom_site_fract_y
 _atom_site_fract_z
 _atom_site_occupancy
  Co  Co0  1  0.99999000  0.50000000  0.50000000  1.0
  Co  Co1  1  0.50000000  0.00000000  0.00000000  1.0
  Cu  Cu2  1  0.66079000  0.50000000  0.00000000  1.0
  Cu  Cu3  1  0.33921000  0.00000000  0.50000000  1.0
  Cu  Cu4  1  0.83922000  0.00000000  0.50000000  1.0
  Cu  Cu5  1  0.16078000  0.50000000  0.00000000  1.0
  H  H6  1  0.07285000  0.22459000  0.39968000  1.0
  H  H7  1  0.07285000  0.77541000  0.60032000  1.0
  H  H8  1  0.92715000  0.39968000  0.77541000  1.0
  H  H9  1  0.92715000  0.60032000  0.22459000  1.0
  H  H10  1  0.42714000  0.27541000  0.89967000  1.0
  H  H11  1  0.42714000  0.72459000  0.10033000  1.0
  H  H12  1  0.57286000  0.10032000  0.27541000  1.0
  H  H13  1  0.57286000  0.89967000  0.72459000  1.0
  H  H14  1  0.37831000  0.42445000  0.68167000  1.0
  H  H15  1  0.37831000  0.57555000  0.31833000  1.0
  H  H16  1  0.62168000  0.68167000  0.57555000  1.0
  H  H17  1  0.62168000  0.31833000  0.42445000  1.0
  H  H18  1  0.12169000  0.07555000  0.18167000  1.0
  H  H19  1  0.12169000  0.92445000  0.81834000  1.0
  H  H20  1  0.87832000  0.81833000  0.07554000  1.0
  H  H21  1  0.87832000  0.18166000  0.92446000  1.0
  H  H22  1  0.55502000  0.19157000  0.67493000  1.0
  H  H23  1  0.55502000  0.80843000  0.32507000  1.0
  H  H24  1  0.44498000  0.67494000  0.80843000  1.0
  H  H25  1  0.44498000  0.32507000  0.19156000  1.0
  H  H26  1  0.94498000  0.30843000  0.17493000  1.0
  H  H27  1  0.94498000  0.69157000  0.82507000  1.0
  H  H28  1  0.05502000  0.82507000  0.30843000  1.0
  H  H29  1  0.05502000  0.17493000  0.69157000  1.0
  C  C30  1  0.82037000  0.52424000  0.24668000  1.0
  C  C31  1  0.82037000  0.47576000  0.75332000  1.0
  C  C32  1  0.17963000  0.24668000  0.47576000  1.0
  C  C33  1  0.17962000  0.75332000  0.52424000  1.0
  C  C34  1  0.67964000  0.97576000  0.74668000  1.0
  C  C35  1  0.67964000  0.02424000  0.25332000  1.0
  C  C36  1  0.32036000  0.25332000  0.97576000  1.0
  C  C37  1  0.32036000  0.74668000  0.02425000  1.0
  C  C38  1  0.33928000  0.34758000  0.62299000  1.0
  C  C39  1  0.33929000  0.65243000  0.37701000  1.0
  C  C40  1  0.66071000  0.62300000  0.65243000  1.0
  C  C41  1  0.66071000  0.37701000  0.34757000  1.0
  C  C42  1  0.16071000  0.15242000  0.12299000  1.0
  C  C43  1  0.16071000  0.84757000  0.87701000  1.0
  C  C44  1  0.83929000  0.87701000  0.15242000  1.0
  C  C45  1  0.83929000  0.12298000  0.84758000  1.0
  C  C46  1  0.42796000  0.23206000  0.61914000  1.0
  C  C47  1  0.42796000  0.76794000  0.38086000  1.0
  C  C48  1  0.57204000  0.61914000  0.76794000  1.0
  C  C49  1  0.57204000  0.38087000  0.23206000  1.0
  C  C50  1  0.07204000  0.26794000  0.11914000  1.0
  C  C51  1  0.07203000  0.73206000  0.88086000  1.0
  C  C52  1  0.92796000  0.88086000  0.26794000  1.0
  C  C53  1  0.92796000  0.11913000  0.73206000  1.0
  N  N54  1  0.67390000  0.47443000  0.16797000  1.0
  N  N55  1  0.67390000  0.52558000  0.83203000  1.0
  N  N56  1  0.32611000  0.16797000  0.52557000  1.0
  N  N57  1  0.32611000  0.83203000  0.47443000  1.0
  N  N58  1  0.82612000  0.02557000  0.66797000  1.0
  N  N59  1  0.82612000  0.97443000  0.33202000  1.0
  N  N60  1  0.17388000  0.33202000  0.02557000  1.0
  N  N61  1  0.17388000  0.66797000  0.97443000  1.0
  N  N62  1  0.81771000  0.46775000  0.35612000  1.0
  N  N63  1  0.81771000  0.53226000  0.64388000  1.0
  N  N64  1  0.18228000  0.35612000  0.53225000  1.0
  N  N65  1  0.18228000  0.64388000  0.46775000  1.0
  N  N66  1  0.68229000  0.03225000  0.85612000  1.0
  N  N67  1  0.68229000  0.96775000  0.14388000  1.0
  N  N68  1  0.31771000  0.14388000  0.03225000  1.0
  N  N69  1  0.31771000  0.85612000  0.96775000  1.0
