# generated using pymatgen
data_Cd2H12C9O11
_symmetry_space_group_name_H-M   'P 1'
_cell_length_a   8.28656000
_cell_length_b   10.40790000
_cell_length_c   15.45940000
_cell_angle_alpha   90.00000000
_cell_angle_beta   104.60300000
_cell_angle_gamma   89.99990000
_symmetry_Int_Tables_number   1
_chemical_formula_structural   Cd2H12C9O11
_chemical_formula_sum   'Cd8 H48 C36 O44'
_cell_volume   1290.23541149
_cell_formula_units_Z   4
loop_
 _symmetry_equiv_pos_site_id
 _symmetry_equiv_pos_as_xyz
  1  'x, y, z'
loop_
 _atom_site_type_symbol
 _atom_site_label
 _atom_site_symmetry_multiplicity
 _atom_site_fract_x
 _atom_site_fract_y
 _atom_site_fract_z
 _atom_site_occupancy
  Cd  Cd0  1  0.72631000  0.68454000  0.86771000  1.0
  Cd  Cd1  1  0.27369000  0.18454000  0.63229000  1.0
  Cd  Cd2  1  0.27369000  0.31546000  0.13229000  1.0
  Cd  Cd3  1  0.72631000  0.81546000  0.36771000  1.0
  Cd  Cd4  1  0.89142000  0.44245000  0.26307000  1.0
  Cd  Cd5  1  0.10858000  0.94245000  0.23693000  1.0
  Cd  Cd6  1  0.10858000  0.55755000  0.73693000  1.0
  Cd  Cd7  1  0.89142000  0.05755000  0.76307000  1.0
  H  H8  1  0.03997000  0.28440000  0.42728000  1.0
  H  H9  1  0.96003000  0.78440000  0.07272000  1.0
  H  H10  1  0.96003000  0.71560000  0.57272000  1.0
  H  H11  1  0.03996000  0.21560000  0.92728000  1.0
  H  H12  1  0.12571000  0.23527000  0.35512000  1.0
  H  H13  1  0.87429000  0.73527000  0.14488000  1.0
  H  H14  1  0.87429000  0.76473000  0.64488000  1.0
  H  H15  1  0.12571000  0.26473000  0.85512000  1.0
  H  H16  1  0.67308000  0.64612000  0.17382000  1.0
  H  H17  1  0.32692000  0.14612000  0.32617000  1.0
  H  H18  1  0.32692000  0.35388000  0.82617000  1.0
  H  H19  1  0.67308000  0.85388000  0.67383000  1.0
  H  H20  1  0.71751000  0.56204000  0.09285000  1.0
  H  H21  1  0.28250000  0.06204000  0.40715000  1.0
  H  H22  1  0.28250000  0.43796000  0.90715000  1.0
  H  H23  1  0.71750000  0.93796000  0.59285000  1.0
  H  H24  1  0.17520000  0.57829000  0.21931000  1.0
  H  H25  1  0.82480000  0.07829000  0.28069000  1.0
  H  H26  1  0.82480000  0.42171000  0.78069000  1.0
  H  H27  1  0.17520000  0.92171000  0.71931000  1.0
  H  H28  1  0.08863000  0.66564000  0.28065000  1.0
  H  H29  1  0.91137000  0.16564000  0.21935000  1.0
  H  H30  1  0.91137000  0.33436000  0.71935000  1.0
  H  H31  1  0.08863000  0.83436000  0.78065000  1.0
  H  H32  1  0.51154000  0.30258000  0.95331000  1.0
  H  H33  1  0.48846000  0.80258000  0.54669000  1.0
  H  H34  1  0.48846000  0.69742000  0.04669000  1.0
  H  H35  1  0.51154000  0.19742000  0.45331000  1.0
  H  H36  1  0.67119000  0.27847000  0.09637000  1.0
  H  H37  1  0.32881000  0.77847000  0.40363000  1.0
  H  H38  1  0.32881000  0.72153000  0.90363000  1.0
  H  H39  1  0.67119000  0.22153000  0.59636000  1.0
  H  H40  1  0.68928000  0.05456000  0.08449000  1.0
  H  H41  1  0.31072000  0.55456000  0.41551000  1.0
  H  H42  1  0.31072000  0.94544000  0.91550000  1.0
  H  H43  1  0.68928000  0.44544000  0.58449000  1.0
  H  H44  1  0.86955000  0.06885000  0.04432000  1.0
  H  H45  1  0.13045000  0.56885000  0.45568000  1.0
  H  H46  1  0.13045000  0.93115000  0.95567000  1.0
  H  H47  1  0.86954000  0.43115000  0.54432000  1.0
  H  H48  1  0.50779000  0.07259000  0.93693000  1.0
  H  H49  1  0.49221000  0.57259000  0.56307000  1.0
  H  H50  1  0.49221000  0.92741000  0.06307000  1.0
  H  H51  1  0.50779000  0.42741000  0.43693000  1.0
  H  H52  1  0.80139000  0.20119000  0.88496000  1.0
  H  H53  1  0.19861000  0.70119000  0.61504000  1.0
  H  H54  1  0.19861000  0.79881000  0.11504000  1.0
  H  H55  1  0.80139000  0.29881000  0.38496000  1.0
  C  C56  1  0.64416000  0.30231000  0.95243000  1.0
  C  C57  1  0.35584000  0.80231000  0.54757000  1.0
  C  C58  1  0.35584000  0.69769000  0.04757000  1.0
  C  C59  1  0.64416000  0.19769000  0.45243000  1.0
  C  C60  1  0.73803000  0.25243000  0.04627000  1.0
  C  C61  1  0.26197000  0.75243000  0.45373000  1.0
  C  C62  1  0.26197000  0.74757000  0.95373000  1.0
  C  C63  1  0.73803000  0.24757000  0.54627000  1.0
  C  C64  1  0.74090000  0.10320000  0.03503000  1.0
  C  C65  1  0.25910000  0.60320000  0.46497000  1.0
  C  C66  1  0.25910000  0.89680000  0.96497000  1.0
  C  C67  1  0.74090000  0.39680000  0.53503000  1.0
  C  C68  1  0.64089000  0.07634000  0.93825000  1.0
  C  C69  1  0.35911000  0.57634000  0.56175000  1.0
  C  C70  1  0.35911000  0.92366000  0.06175000  1.0
  C  C71  1  0.64089000  0.42366000  0.43825000  1.0
  C  C72  1  0.67093000  0.19783000  0.88789000  1.0
  C  C73  1  0.32907000  0.69783000  0.61211000  1.0
  C  C74  1  0.32907000  0.80217000  0.11211000  1.0
  C  C75  1  0.67093000  0.30217000  0.38789000  1.0
  C  C76  1  0.56488000  0.19891000  0.79273000  1.0
  C  C77  1  0.43512000  0.69891000  0.70727000  1.0
  C  C78  1  0.43512000  0.80109000  0.20727000  1.0
  C  C79  1  0.56488000  0.30109000  0.29273000  1.0
  C  C80  1  0.68226000  0.43853000  0.92972000  1.0
  C  C81  1  0.31774000  0.93853000  0.57028000  1.0
  C  C82  1  0.31774000  0.56147000  0.07027000  1.0
  C  C83  1  0.68226000  0.06147000  0.42972000  1.0
  C  C84  1  0.91781000  0.29450000  0.07754000  1.0
  C  C85  1  0.08219000  0.79450000  0.42246000  1.0
  C  C86  1  0.08219000  0.70550000  0.92246000  1.0
  C  C87  1  0.91781000  0.20550000  0.57754000  1.0
  C  C88  1  0.69022000  0.94769000  0.90749000  1.0
  C  C89  1  0.30978000  0.44769000  0.59251000  1.0
  C  C90  1  0.30978000  0.05231000  0.09251000  1.0
  C  C91  1  0.69022000  0.55231000  0.40749000  1.0
  O  O92  1  0.70664000  0.46221000  0.85250000  1.0
  O  O93  1  0.29336000  0.96222000  0.64750000  1.0
  O  O94  1  0.29336000  0.53778000  0.14750000  1.0
  O  O95  1  0.70664000  0.03778000  0.35250000  1.0
  O  O96  1  0.67927000  0.52871000  0.98449000  1.0
  O  O97  1  0.32073000  0.02871000  0.51551000  1.0
  O  O98  1  0.32074000  0.47129000  0.01551000  1.0
  O  O99  1  0.67927000  0.97129000  0.48450000  1.0
  O  O100  1  0.00854000  0.30223000  0.02309000  1.0
  O  O101  1  0.99147000  0.80222000  0.47691000  1.0
  O  O102  1  0.99147000  0.69777000  0.97691000  1.0
  O  O103  1  0.00853000  0.19778000  0.52309000  1.0
  O  O104  1  0.98249000  0.31045000  0.16252000  1.0
  O  O105  1  0.01751000  0.81045000  0.33748000  1.0
  O  O106  1  0.01751000  0.68955000  0.83748000  1.0
  O  O107  1  0.98249000  0.18955000  0.66252000  1.0
  O  O108  1  0.61709000  0.84970000  0.92894000  1.0
  O  O109  1  0.38291000  0.34970000  0.57106000  1.0
  O  O110  1  0.38291000  0.15030000  0.07106000  1.0
  O  O111  1  0.61709000  0.65030000  0.42894000  1.0
  O  O112  1  0.80600000  0.93687000  0.86660000  1.0
  O  O113  1  0.19400000  0.43687000  0.63340000  1.0
  O  O114  1  0.19400000  0.06313000  0.13340000  1.0
  O  O115  1  0.80600000  0.56313000  0.36660000  1.0
  O  O116  1  0.62698000  0.15520000  0.73139000  1.0
  O  O117  1  0.37302000  0.65520000  0.76861000  1.0
  O  O118  1  0.37302000  0.84480000  0.26861000  1.0
  O  O119  1  0.62698000  0.34480000  0.23139000  1.0
  O  O120  1  0.41255000  0.23547000  0.77724000  1.0
  O  O121  1  0.58745000  0.73548000  0.72276000  1.0
  O  O122  1  0.58745000  0.76452000  0.22276000  1.0
  O  O123  1  0.41255000  0.26452000  0.27724000  1.0
  O  O124  1  0.06761000  0.31192000  0.37148000  1.0
  O  O125  1  0.93239000  0.81192000  0.12852000  1.0
  O  O126  1  0.93239000  0.68808000  0.62852000  1.0
  O  O127  1  0.06761000  0.18808000  0.87148000  1.0
  O  O128  1  0.76117000  0.59553000  0.15517000  1.0
  O  O129  1  0.23883000  0.09554000  0.34483000  1.0
  O  O130  1  0.23883000  0.40447000  0.84483000  1.0
  O  O131  1  0.76117000  0.90447000  0.65517000  1.0
  O  O132  1  0.11470000  0.57687000  0.26717000  1.0
  O  O133  1  0.88530000  0.07687000  0.23283000  1.0
  O  O134  1  0.88530000  0.42313000  0.73283000  1.0
  O  O135  1  0.11470000  0.92313000  0.76717000  1.0
