# generated using pymatgen
data_NaPH16C11(NO4)2
_symmetry_space_group_name_H-M   'P 1'
_cell_length_a   8.34081000
_cell_length_b   8.78946000
_cell_length_c   10.44160000
_cell_angle_alpha   76.66500000
_cell_angle_beta   89.99990000
_cell_angle_gamma   89.99990000
_symmetry_Int_Tables_number   1
_chemical_formula_structural   NaPH16C11(NO4)2
_chemical_formula_sum   'Na2 P2 H32 C22 N4 O16'
_cell_volume   744.84747133
_cell_formula_units_Z   2
loop_
 _symmetry_equiv_pos_site_id
 _symmetry_equiv_pos_as_xyz
  1  'x, y, z'
loop_
 _atom_site_type_symbol
 _atom_site_label
 _atom_site_symmetry_multiplicity
 _atom_site_fract_x
 _atom_site_fract_y
 _atom_site_fract_z
 _atom_site_occupancy
  Na  Na0  1  0.10249000  0.85505000  0.97448000  1.0
  Na  Na1  1  0.60249000  0.14495000  0.02552000  1.0
  P  P2  1  0.47327000  0.80505000  0.15569000  1.0
  P  P3  1  0.97327000  0.19495000  0.84431000  1.0
  H  H4  1  0.82865000  0.85183000  0.15098000  1.0
  H  H5  1  0.32865000  0.14817000  0.84902000  1.0
  H  H6  1  0.70382000  0.57158000  0.28839000  1.0
  H  H7  1  0.20383000  0.42842000  0.71161000  1.0
  H  H8  1  0.78553000  0.56876000  0.07171000  1.0
  H  H9  1  0.28553000  0.43124000  0.92830000  1.0
  H  H10  1  0.87533000  0.40203000  0.02877000  1.0
  H  H11  1  0.37533000  0.59797000  0.97123000  1.0
  H  H12  1  0.89289000  0.42706000  0.19342000  1.0
  H  H13  1  0.39289000  0.57294000  0.80658000  1.0
  H  H14  1  0.55944000  0.05872000  0.41008000  1.0
  H  H15  1  0.05944000  0.94128000  0.58992000  1.0
  H  H16  1  0.76067000  0.06603000  0.46777000  1.0
  H  H17  1  0.26067000  0.93397000  0.53223000  1.0
  H  H18  1  0.72216000  0.07430000  0.29680000  1.0
  H  H19  1  0.22216000  0.92570000  0.70320000  1.0
  H  H20  1  0.20664000  0.07053000  0.11490000  1.0
  H  H21  1  0.70664000  0.92947000  0.88510000  1.0
  H  H22  1  0.99519000  0.16080000  0.25366000  1.0
  H  H23  1  0.49519000  0.83920000  0.74634000  1.0
  H  H24  1  0.55429000  0.47002000  0.48443000  1.0
  H  H25  1  0.05429000  0.52998000  0.51557000  1.0
  H  H26  1  0.38078000  0.70030000  0.49397000  1.0
  H  H27  1  0.88078000  0.29970000  0.50603000  1.0
  H  H28  1  0.57507000  0.75096000  0.42589000  1.0
  H  H29  1  0.07507000  0.24904000  0.57411000  1.0
  H  H30  1  0.94029000  0.63626000  0.32331000  1.0
  H  H31  1  0.44029000  0.36374000  0.67669000  1.0
  H  H32  1  0.91780000  0.82422000  0.35991000  1.0
  H  H33  1  0.41780000  0.17578000  0.64009000  1.0
  H  H34  1  0.10820000  0.76452000  0.30947000  1.0
  H  H35  1  0.60820000  0.23548000  0.69053000  1.0
  C  C36  1  0.58250000  0.52844000  0.27493000  1.0
  C  C37  1  0.08250000  0.47156000  0.72507000  1.0
  C  C38  1  0.59247000  0.36149000  0.25366000  1.0
  C  C39  1  0.09247000  0.63851000  0.74634000  1.0
  C  C40  1  0.81475000  0.44424000  0.10665000  1.0
  C  C41  1  0.31475000  0.55576000  0.89335000  1.0
  C  C42  1  0.67915000  0.10965000  0.38506000  1.0
  C  C43  1  0.17915000  0.89035000  0.61494000  1.0
  C  C44  1  0.42226000  0.30289000  0.24923000  1.0
  C  C45  1  0.92226000  0.69711000  0.75077000  1.0
  C  C46  1  0.23422000  0.15221000  0.17576000  1.0
  C  C47  1  0.73422000  0.84779000  0.82423000  1.0
  C  C48  1  0.11854000  0.20242000  0.25291000  1.0
  C  C49  1  0.61854000  0.79758000  0.74709000  1.0
  C  C50  1  0.30265000  0.35524000  0.32494000  1.0
  C  C51  1  0.80265000  0.64476000  0.67506000  1.0
  C  C52  1  0.48645000  0.53234000  0.39799000  1.0
  C  C53  1  0.98646000  0.46766000  0.60201000  1.0
  C  C54  1  0.45887000  0.69932000  0.40989000  1.0
  C  C55  1  0.95887000  0.30068000  0.59011000  1.0
  C  C56  1  0.97841000  0.75989000  0.29461000  1.0
  C  C57  1  0.47841000  0.24011000  0.70539000  1.0
  N  N58  1  0.38579000  0.20396000  0.17408000  1.0
  N  N59  1  0.88579000  0.79604000  0.82592000  1.0
  N  N60  1  0.15165000  0.30525000  0.32616000  1.0
  N  N61  1  0.65165000  0.69475000  0.67384000  1.0
  O  O62  1  0.35737000  0.86314000  0.04715000  1.0
  O  O63  1  0.85738000  0.13686000  0.95285000  1.0
  O  O64  1  0.63080000  0.88924000  0.15760000  1.0
  O  O65  1  0.13080000  0.11076000  0.84240000  1.0
  O  O66  1  0.50859000  0.62132000  0.15902000  1.0
  O  O67  1  0.00859000  0.37868000  0.84098000  1.0
  O  O68  1  0.66952000  0.35269000  0.13569000  1.0
  O  O69  1  0.16952000  0.64731000  0.86431000  1.0
  O  O70  1  0.67700000  0.27668000  0.36739000  1.0
  O  O71  1  0.17700000  0.72332000  0.63261000  1.0
  O  O72  1  0.32904000  0.45953000  0.39996000  1.0
  O  O73  1  0.82904000  0.54047000  0.60004000  1.0
  O  O74  1  0.38085000  0.79192000  0.29467000  1.0
  O  O75  1  0.88085000  0.20808000  0.70533000  1.0
  O  O76  1  0.94530000  0.82723000  0.15970000  1.0
  O  O77  1  0.44530000  0.17277000  0.84030000  1.0
