# generated using pymatgen
data_AgH10C9NO2
_symmetry_space_group_name_H-M   'P 1'
_cell_length_a   5.25889000
_cell_length_b   7.33692000
_cell_length_c   12.21510000
_cell_angle_alpha   73.39720000
_cell_angle_beta   90.00140000
_cell_angle_gamma   90.00010000
_symmetry_Int_Tables_number   1
_chemical_formula_structural   AgH10C9NO2
_chemical_formula_sum   'Ag2 H20 C18 N2 O4'
_cell_volume   451.65860417
_cell_formula_units_Z   2
loop_
 _symmetry_equiv_pos_site_id
 _symmetry_equiv_pos_as_xyz
  1  'x, y, z'
loop_
 _atom_site_type_symbol
 _atom_site_label
 _atom_site_symmetry_multiplicity
 _atom_site_fract_x
 _atom_site_fract_y
 _atom_site_fract_z
 _atom_site_occupancy
  Ag  Ag0  1  0.33245000  0.43676000  0.13208000  1.0
  Ag  Ag1  1  0.83245000  0.56325000  0.86791000  1.0
  H  H2  1  0.47078000  0.78789000  0.02816000  1.0
  H  H3  1  0.97079000  0.21211000  0.97184000  1.0
  H  H4  1  0.15298000  0.78168000  0.03055000  1.0
  H  H5  1  0.65299000  0.21831000  0.96945000  1.0
  H  H6  1  0.48211000  0.78509000  0.22501000  1.0
  H  H7  1  0.98210000  0.21492000  0.77499000  1.0
  H  H8  1  0.07344000  0.86950000  0.30415000  1.0
  H  H9  1  0.57343000  0.13050000  0.69584000  1.0
  H  H10  1  0.90692000  0.81860000  0.19009000  1.0
  H  H11  1  0.40692000  0.18140000  0.80991000  1.0
  H  H12  1  0.73432000  0.50695000  0.22527000  1.0
  H  H13  1  0.23431000  0.49306000  0.77472000  1.0
  H  H14  1  0.71359000  0.16996000  0.33746000  1.0
  H  H15  1  0.21359000  0.83005000  0.66253000  1.0
  H  H16  1  0.03472000  0.03788000  0.49200000  1.0
  H  H17  1  0.53473000  0.96212000  0.50799000  1.0
  H  H18  1  0.37779000  0.24990000  0.52679000  1.0
  H  H19  1  0.87778000  0.75009000  0.47321000  1.0
  H  H20  1  0.39361000  0.58655000  0.41630000  1.0
  H  H21  1  0.89359000  0.41344000  0.58371000  1.0
  C  C22  1  0.33152000  0.05002000  0.12388000  1.0
  C  C23  1  0.83152000  0.94999000  0.87612000  1.0
  C  C24  1  0.31363000  0.83256000  0.17107000  1.0
  C  C25  1  0.81363000  0.16744000  0.82893000  1.0
  C  C26  1  0.07399000  0.77946000  0.24596000  1.0
  C  C27  1  0.57398000  0.22055000  0.75404000  1.0
  C  C28  1  0.06372000  0.57221000  0.31290000  1.0
  C  C29  1  0.56370000  0.42780000  0.68709000  1.0
  C  C30  1  0.87533000  0.45075000  0.29232000  1.0
  C  C31  1  0.37532000  0.54926000  0.70768000  1.0
  C  C32  1  0.86325000  0.25964000  0.35604000  1.0
  C  C33  1  0.36324000  0.74038000  0.64395000  1.0
  C  C34  1  0.04310000  0.18634000  0.44120000  1.0
  C  C35  1  0.54310000  0.81366000  0.55879000  1.0
  C  C36  1  0.23455000  0.30493000  0.46128000  1.0
  C  C37  1  0.73455000  0.69506000  0.53872000  1.0
  C  C38  1  0.24434000  0.49603000  0.39827000  1.0
  C  C39  1  0.74433000  0.50396000  0.60173000  1.0
  N  N40  1  0.31421000  0.73907000  0.07900000  1.0
  N  N41  1  0.81422000  0.26094000  0.92100000  1.0
  O  O42  1  0.30034000  0.12895000  0.01850000  1.0
  O  O43  1  0.80033000  0.87106000  0.98150000  1.0
  O  O44  1  0.37592000  0.13727000  0.19900000  1.0
  O  O45  1  0.87592000  0.86273000  0.80101000  1.0
