# generated using pymatgen
data_NiH6C9O4
_symmetry_space_group_name_H-M   'P 1'
_cell_length_a   6.93153000
_cell_length_b   13.60790000
_cell_length_c   20.71620000
_cell_angle_alpha   98.80590000
_cell_angle_beta   96.01340000
_cell_angle_gamma   101.33500000
_symmetry_Int_Tables_number   1
_chemical_formula_structural   NiH6C9O4
_chemical_formula_sum   'Ni8 H48 C72 O32'
_cell_volume   1874.90294224
_cell_formula_units_Z   8
loop_
 _symmetry_equiv_pos_site_id
 _symmetry_equiv_pos_as_xyz
  1  'x, y, z'
loop_
 _atom_site_type_symbol
 _atom_site_label
 _atom_site_symmetry_multiplicity
 _atom_site_fract_x
 _atom_site_fract_y
 _atom_site_fract_z
 _atom_site_occupancy
  Ni  Ni0  1  0.96416000  0.14360000  0.28857000  1.0
  Ni  Ni1  1  0.03584000  0.85640000  0.71143000  1.0
  Ni  Ni2  1  0.18012000  0.93815000  0.23865000  1.0
  Ni  Ni3  1  0.81988000  0.06185000  0.76135000  1.0
  Ni  Ni4  1  0.64142000  0.94732000  0.23206000  1.0
  Ni  Ni5  1  0.35858000  0.05268000  0.76794000  1.0
  Ni  Ni6  1  0.43012000  0.15566000  0.28545000  1.0
  Ni  Ni7  1  0.56988000  0.84434000  0.71455000  1.0
  H  H8  1  0.75047000  0.22401000  0.37594000  1.0
  H  H9  1  0.24952000  0.77599000  0.62406000  1.0
  H  H10  1  0.78918000  0.28771000  0.31899000  1.0
  H  H11  1  0.21082000  0.71229000  0.68101000  1.0
  H  H12  1  0.88247000  0.86453000  0.14806000  1.0
  H  H13  1  0.11753000  0.13547000  0.85194000  1.0
  H  H14  1  0.81667000  0.80211000  0.20358000  1.0
  H  H15  1  0.18333000  0.19789000  0.79642000  1.0
  H  H16  1  0.47556000  0.99578000  0.32543000  1.0
  H  H17  1  0.52444000  0.00422000  0.67457000  1.0
  H  H18  1  0.13859000  0.09738000  0.19596000  1.0
  H  H19  1  0.86141000  0.90262000  0.80404000  1.0
  H  H20  1  0.47477000  0.48971000  0.35014000  1.0
  H  H21  1  0.52523000  0.51029000  0.64986000  1.0
  H  H22  1  0.53632000  0.67304000  0.34007000  1.0
  H  H23  1  0.46368000  0.32696000  0.65993000  1.0
  H  H24  1  0.14392000  0.68242000  0.13713000  1.0
  H  H25  1  0.85608000  0.31758000  0.86287000  1.0
  H  H26  1  0.94138000  0.55258000  0.04651000  1.0
  H  H27  1  0.05862000  0.44742000  0.95349000  1.0
  H  H28  1  0.88382000  0.36858000  0.05546000  1.0
  H  H29  1  0.11618000  0.63142000  0.94454000  1.0
  H  H30  1  0.02392000  0.31554000  0.15559000  1.0
  H  H31  1  0.97608000  0.68446000  0.84441000  1.0
  H  H32  1  0.16151000  0.99736000  0.02745000  1.0
  H  H33  1  0.83849000  0.00264000  0.97255000  1.0
  H  H34  1  0.16966000  0.98282000  0.90633000  1.0
  H  H35  1  0.83033000  0.01718000  0.09367000  1.0
  H  H36  1  0.49052000  0.70400000  0.84884000  1.0
  H  H37  1  0.50948000  0.29600000  0.15116000  1.0
  H  H38  1  0.61106000  0.58133000  0.90948000  1.0
  H  H39  1  0.38894000  0.41867000  0.09052000  1.0
  H  H40  1  0.59679000  0.59471000  0.03076000  1.0
  H  H41  1  0.40321000  0.40530000  0.96924000  1.0
  H  H42  1  0.46181000  0.73167000  0.08965000  1.0
  H  H43  1  0.53819000  0.26834000  0.91036000  1.0
  H  H44  1  0.74322000  0.03753000  0.43272000  1.0
  H  H45  1  0.25678000  0.96247000  0.56729000  1.0
  H  H46  1  0.65734000  0.98629000  0.53848000  1.0
  H  H47  1  0.34266000  0.01371000  0.46153000  1.0
  H  H48  1  0.79936000  0.65531000  0.53174000  1.0
  H  H49  1  0.20064000  0.34468000  0.46826000  1.0
  H  H50  1  0.91809000  0.53638000  0.45034000  1.0
  H  H51  1  0.08190000  0.46362000  0.54965000  1.0
  H  H52  1  0.01711000  0.58977000  0.34590000  1.0
  H  H53  1  0.98289000  0.41023000  0.65410000  1.0
  H  H54  1  0.99496000  0.75914000  0.32326000  1.0
  H  H55  1  0.00504000  0.24086000  0.67674000  1.0
  C  C56  1  0.23423000  0.33174000  0.27199000  1.0
  C  C57  1  0.76577000  0.66826000  0.72801000  1.0
  C  C58  1  0.26705000  0.44014000  0.26151000  1.0
  C  C59  1  0.73295000  0.55986000  0.73849000  1.0
  C  C60  1  0.39837000  0.51315000  0.30828000  1.0
  C  C61  1  0.60163000  0.48685000  0.69172000  1.0
  C  C62  1  0.43364000  0.61657000  0.30258000  1.0
  C  C63  1  0.56636000  0.38343000  0.69742000  1.0
  C  C64  1  0.33770000  0.64750000  0.24980000  1.0
  C  C65  1  0.66230000  0.35250000  0.75020000  1.0
  C  C66  1  0.20709000  0.57445000  0.19893000  1.0
  C  C67  1  0.79292000  0.42555000  0.80107000  1.0
  C  C68  1  0.11914000  0.60227000  0.14120000  1.0
  C  C69  1  0.88087000  0.39773000  0.85880000  1.0
  C  C70  1  0.00515000  0.52960000  0.09074000  1.0
  C  C71  1  0.99486000  0.47040000  0.90926000  1.0
  C  C72  1  0.97208000  0.42559000  0.09593000  1.0
  C  C73  1  0.02792000  0.57441000  0.90407000  1.0
  C  C74  1  0.05107000  0.39585000  0.15180000  1.0
  C  C75  1  0.94894000  0.60415000  0.84820000  1.0
  C  C76  1  0.17111000  0.46844000  0.20469000  1.0
  C  C77  1  0.82889000  0.53156000  0.79531000  1.0
  C  C78  1  0.37250000  0.75882000  0.24724000  1.0
  C  C79  1  0.62750000  0.24118000  0.75276000  1.0
  C  C80  1  0.33556000  0.90172000  0.11062000  1.0
  C  C81  1  0.66444000  0.09828000  0.88939000  1.0
  C  C82  1  0.31495000  0.87744000  0.03685000  1.0
  C  C83  1  0.68505000  0.12256000  0.96315000  1.0
  C  C84  1  0.22633000  0.93888000  0.00130000  1.0
  C  C85  1  0.77366000  0.06112000  0.99870000  1.0
  C  C86  1  0.23167000  0.93089000  0.93321000  1.0
  C  C87  1  0.76832000  0.06911000  0.06679000  1.0
  C  C88  1  0.32647000  0.86213000  0.89965000  1.0
  C  C89  1  0.67353000  0.13787000  0.10035000  1.0
  C  C90  1  0.40741000  0.79162000  0.93379000  1.0
  C  C91  1  0.59259000  0.20838000  0.06621000  1.0
  C  C92  1  0.48639000  0.71141000  0.90158000  1.0
  C  C93  1  0.51361000  0.28859000  0.09841000  1.0
  C  C94  1  0.55342000  0.64249000  0.93580000  1.0
  C  C95  1  0.44658000  0.35751000  0.06420000  1.0
  C  C96  1  0.54545000  0.65008000  0.00408000  1.0
  C  C97  1  0.45455000  0.34992000  0.99592000  1.0
  C  C98  1  0.47029000  0.72682000  0.03717000  1.0
  C  C99  1  0.52971000  0.27319000  0.96283000  1.0
  C  C100  1  0.39979000  0.79940000  0.00368000  1.0
  C  C101  1  0.60021000  0.20060000  0.99632000  1.0
  C  C102  1  0.35059000  0.87058000  0.82984000  1.0
  C  C103  1  0.64941000  0.12942000  0.17016000  1.0
  C  C104  1  0.93596000  0.94943000  0.34589000  1.0
  C  C105  1  0.06405000  0.05057000  0.65411000  1.0
  C  C106  1  0.85522000  0.90487000  0.40130000  1.0
  C  C107  1  0.14478000  0.09513000  0.59870000  1.0
  C  C108  1  0.76387000  0.96415000  0.44372000  1.0
  C  C109  1  0.23614000  0.03585000  0.55628000  1.0
  C  C110  1  0.71389000  0.93502000  0.50311000  1.0
  C  C111  1  0.28612000  0.06498000  0.49689000  1.0
  C  C112  1  0.75267000  0.84551000  0.51992000  1.0
  C  C113  1  0.24733000  0.15449000  0.48008000  1.0
  C  C114  1  0.82629000  0.77672000  0.47433000  1.0
  C  C115  1  0.17371000  0.22328000  0.52566000  1.0
  C  C116  1  0.84253000  0.67831000  0.48625000  1.0
  C  C117  1  0.15746000  0.32169000  0.51375000  1.0
  C  C118  1  0.90918000  0.61221000  0.44080000  1.0
  C  C119  1  0.09081000  0.38779000  0.55919000  1.0
  C  C120  1  0.96449000  0.64211000  0.38179000  1.0
  C  C121  1  0.03551000  0.35789000  0.61821000  1.0
  C  C122  1  0.95139000  0.73725000  0.36882000  1.0
  C  C123  1  0.04861000  0.26275000  0.63117000  1.0
  C  C124  1  0.88120000  0.80709000  0.41406000  1.0
  C  C125  1  0.11880000  0.19291000  0.58594000  1.0
  C  C126  1  0.74372000  0.83147000  0.58997000  1.0
  C  C127  1  0.25629000  0.16853000  0.41003000  1.0
  O  O128  1  0.19091000  0.92631000  0.13780000  1.0
  O  O129  1  0.80909000  0.07370000  0.86220000  1.0
  O  O130  1  0.73867000  0.21946000  0.32806000  1.0
  O  O131  1  0.26133000  0.78054000  0.67194000  1.0
  O  O132  1  0.55376000  0.80780000  0.25587000  1.0
  O  O133  1  0.44624000  0.19220000  0.74413000  1.0
  O  O134  1  0.87022000  0.87042000  0.19511000  1.0
  O  O135  1  0.12978000  0.12958000  0.80489000  1.0
  O  O136  1  0.45457000  0.00844000  0.28040000  1.0
  O  O137  1  0.54543000  0.99156000  0.71960000  1.0
  O  O138  1  0.15564000  0.08422000  0.24095000  1.0
  O  O139  1  0.84436000  0.91578000  0.75905000  1.0
  O  O140  1  0.38919000  0.29979000  0.28858000  1.0
  O  O141  1  0.61081000  0.70021000  0.71142000  1.0
  O  O142  1  0.59334000  0.84738000  0.61688000  1.0
  O  O143  1  0.40666000  0.15262000  0.38312000  1.0
  O  O144  1  0.49002000  0.83789000  0.80523000  1.0
  O  O145  1  0.50998000  0.16211000  0.19477000  1.0
  O  O146  1  0.89897000  0.81058000  0.61845000  1.0
  O  O147  1  0.10103000  0.18942000  0.38155000  1.0
  O  O148  1  0.50420000  0.89980000  0.14056000  1.0
  O  O149  1  0.49579000  0.10020000  0.85944000  1.0
  O  O150  1  0.09767000  0.93118000  0.32964000  1.0
  O  O151  1  0.90233000  0.06882000  0.67036000  1.0
  O  O152  1  0.21846000  0.79480000  0.23708000  1.0
  O  O153  1  0.78154000  0.20520000  0.76292000  1.0
  O  O154  1  0.05345000  0.28191000  0.26429000  1.0
  O  O155  1  0.94655000  0.71809000  0.73571000  1.0
  O  O156  1  0.83703000  0.00786000  0.31855000  1.0
  O  O157  1  0.16297000  0.99214000  0.68145000  1.0
  O  O158  1  0.23064000  0.91637000  0.79917000  1.0
  O  O159  1  0.76935000  0.08363000  0.20083000  1.0
