# generated using pymatgen
data_AlH9C21(NO4)3
_symmetry_space_group_name_H-M   'P 1'
_cell_length_a   4.04975000
_cell_length_b   24.52400000
_cell_length_c   24.52400000
_cell_angle_alpha   60.00000000
_cell_angle_beta   89.99980000
_cell_angle_gamma   89.99930000
_symmetry_Int_Tables_number   1
_chemical_formula_structural   AlH9C21(NO4)3
_chemical_formula_sum   'Al2 H18 C42 N6 O24'
_cell_volume   2109.31509513
_cell_formula_units_Z   2
loop_
 _symmetry_equiv_pos_site_id
 _symmetry_equiv_pos_as_xyz
  1  'x, y, z'
loop_
 _atom_site_type_symbol
 _atom_site_label
 _atom_site_symmetry_multiplicity
 _atom_site_fract_x
 _atom_site_fract_y
 _atom_site_fract_z
 _atom_site_occupancy
  Al  Al0  1  0.99168000  0.50000000  0.00000000  1.0
  Al  Al1  1  0.99197000  0.16666000  0.66667000  1.0
  H  H2  1  0.42142000  0.26362000  0.29631000  1.0
  H  H3  1  0.42149000  0.40300000  0.37036000  1.0
  H  H4  1  0.65083000  0.17408000  0.50107000  1.0
  H  H5  1  0.69411000  0.22519000  0.38541000  1.0
  H  H6  1  0.65066000  0.49254000  0.16558000  1.0
  H  H7  1  0.69402000  0.44143000  0.28125000  1.0
  H  H8  1  0.42144000  0.44008000  0.76361000  1.0
  H  H9  1  0.42147000  0.22665000  0.90299000  1.0
  H  H10  1  0.65082000  0.32485000  0.67407000  1.0
  H  H11  1  0.69409000  0.38941000  0.72518000  1.0
  H  H12  1  0.65064000  0.34188000  0.99253000  1.0
  H  H13  1  0.69402000  0.27733000  0.94142000  1.0
  H  H14  1  0.42143000  0.79631000  0.94007000  1.0
  H  H15  1  0.42153000  0.87035000  0.72665000  1.0
  H  H16  1  0.65082000  0.00107000  0.82485000  1.0
  H  H17  1  0.69410000  0.88540000  0.88941000  1.0
  H  H18  1  0.65069000  0.66557000  0.84189000  1.0
  H  H19  1  0.69407000  0.78123000  0.77733000  1.0
  C  C20  1  0.49404000  0.59508000  0.96263000  1.0
  C  C21  1  0.49403000  0.44229000  0.09508000  1.0
  C  C22  1  0.49404000  0.46263000  0.94229000  1.0
  C  C23  1  0.49428000  0.22433000  0.57158000  1.0
  C  C24  1  0.49428000  0.20409000  0.72433000  1.0
  C  C25  1  0.49429000  0.07157000  0.70410000  1.0
  C  C26  1  0.51848000  0.40756000  0.16560000  1.0
  C  C27  1  0.51865000  0.25905000  0.50107000  1.0
  C  C28  1  0.46197000  0.34306000  0.20416000  1.0
  C  C29  1  0.48049000  0.31356000  0.26947000  1.0
  C  C30  1  0.46215000  0.32355000  0.46252000  1.0
  C  C31  1  0.48059000  0.35305000  0.39721000  1.0
  C  C32  1  0.60315000  0.22437000  0.47184000  1.0
  C  C33  1  0.62497000  0.25343000  0.40663000  1.0
  C  C34  1  0.60304000  0.44224000  0.19482000  1.0
  C  C35  1  0.62495000  0.41319000  0.26003000  1.0
  C  C36  1  0.55954000  0.34847000  0.29864000  1.0
  C  C37  1  0.55955000  0.31815000  0.36803000  1.0
  C  C38  1  0.51848000  0.42684000  0.90756000  1.0
  C  C39  1  0.51864000  0.23989000  0.75905000  1.0
  C  C40  1  0.46198000  0.45279000  0.84306000  1.0
  C  C41  1  0.48050000  0.41698000  0.81356000  1.0
  C  C42  1  0.46214000  0.21394000  0.82356000  1.0
  C  C43  1  0.48058000  0.24975000  0.85305000  1.0
  C  C44  1  0.60314000  0.30379000  0.72437000  1.0
  C  C45  1  0.62497000  0.33995000  0.75342000  1.0
  C  C46  1  0.60302000  0.36294000  0.94224000  1.0
  C  C47  1  0.62494000  0.32679000  0.91318000  1.0
  C  C48  1  0.55954000  0.35290000  0.84846000  1.0
  C  C49  1  0.55955000  0.31384000  0.81814000  1.0
  C  C50  1  0.51849000  0.66559000  0.92685000  1.0
  C  C51  1  0.51865000  0.00106000  0.73989000  1.0
  C  C52  1  0.46198000  0.70415000  0.95279000  1.0
  C  C53  1  0.48050000  0.76945000  0.91698000  1.0
  C  C54  1  0.46217000  0.96250000  0.71394000  1.0
  C  C55  1  0.48062000  0.89720000  0.74975000  1.0
  C  C56  1  0.60315000  0.97183000  0.80380000  1.0
  C  C57  1  0.62499000  0.90662000  0.83995000  1.0
  C  C58  1  0.60305000  0.69481000  0.86295000  1.0
  C  C59  1  0.62497000  0.76002000  0.82679000  1.0
  C  C60  1  0.55956000  0.79864000  0.85289000  1.0
  C  C61  1  0.55958000  0.86802000  0.81383000  1.0
  N  N62  1  0.36449000  0.30430000  0.17618000  1.0
  N  N63  1  0.36475000  0.36232000  0.49049000  1.0
  N  N64  1  0.36452000  0.51953000  0.80430000  1.0
  N  N65  1  0.36472000  0.14720000  0.86232000  1.0
  N  N66  1  0.36450000  0.67618000  0.01952000  1.0
  N  N67  1  0.36476000  0.99049000  0.64719000  1.0
  O  O68  1  0.25187000  0.44745000  0.98000000  1.0
  O  O69  1  0.25186000  0.57255000  0.94746000  1.0
  O  O70  1  0.25187000  0.47999000  0.07256000  1.0
  O  O71  1  0.72618000  0.50026000  0.93550000  1.0
  O  O72  1  0.72619000  0.43549000  0.06424000  1.0
  O  O73  1  0.72618000  0.56423000  0.00027000  1.0
  O  O74  1  0.25215000  0.09412000  0.71925000  1.0
  O  O75  1  0.25214000  0.18662000  0.59413000  1.0
  O  O76  1  0.25213000  0.21924000  0.68663000  1.0
  O  O77  1  0.72646000  0.10240000  0.66646000  1.0
  O  O78  1  0.72646000  0.16645000  0.73114000  1.0
  O  O79  1  0.72646000  0.23114000  0.60241000  1.0
  O  O80  1  0.28182000  0.33252000  0.11993000  1.0
  O  O81  1  0.36836000  0.24634000  0.21059000  1.0
  O  O82  1  0.28193000  0.33410000  0.54673000  1.0
  O  O83  1  0.36887000  0.42028000  0.45609000  1.0
  O  O84  1  0.28182000  0.54756000  0.83252000  1.0
  O  O85  1  0.36843000  0.54308000  0.74633000  1.0
  O  O86  1  0.28191000  0.11917000  0.83410000  1.0
  O  O87  1  0.36881000  0.12364000  0.92029000  1.0
  O  O88  1  0.28184000  0.61992000  0.04757000  1.0
  O  O89  1  0.36839000  0.71059000  0.04308000  1.0
  O  O90  1  0.28192000  0.04673000  0.61918000  1.0
  O  O91  1  0.36889000  0.95608000  0.62364000  1.0
