# generated using pymatgen
data_Zn2H23C38N2O8F5
_symmetry_space_group_name_H-M   'P 1'
_cell_length_a   10.87750000
_cell_length_b   12.40380000
_cell_length_c   13.56020000
_cell_angle_alpha   80.96890000
_cell_angle_beta   87.98210000
_cell_angle_gamma   71.82730000
_symmetry_Int_Tables_number   1
_chemical_formula_structural   Zn2H23C38N2O8F5
_chemical_formula_sum   'Zn2 H23 C38 N2 O8 F5'
_cell_volume   1716.58249915
_cell_formula_units_Z   1
loop_
 _symmetry_equiv_pos_site_id
 _symmetry_equiv_pos_as_xyz
  1  'x, y, z'
loop_
 _atom_site_type_symbol
 _atom_site_label
 _atom_site_symmetry_multiplicity
 _atom_site_fract_x
 _atom_site_fract_y
 _atom_site_fract_z
 _atom_site_occupancy
  Zn  Zn0  1  0.45525000  0.61564000  0.51291000  1.0
  Zn  Zn1  1  0.54157000  0.38172000  0.48576000  1.0
  H  H2  1  0.81230000  0.67780000  0.44311000  1.0
  H  H3  1  0.30523000  0.12530000  0.69686000  1.0
  H  H4  1  0.24791000  0.94246000  0.71448000  1.0
  H  H5  1  0.53491000  0.81246000  0.43915000  1.0
  H  H6  1  0.63296000  0.91664000  0.36773000  1.0
  H  H7  1  0.75056000  0.05200000  0.28960000  1.0
  H  H8  1  0.42925000  0.24896000  0.61296000  1.0
  H  H9  1  0.05878000  0.63110000  0.35613000  1.0
  H  H10  1  0.02130000  0.68954000  0.46824000  1.0
  H  H11  1  0.87023000  0.60276000  0.61356000  1.0
  H  H12  1  0.09651000  0.55467000  0.64036000  1.0
  H  H13  1  0.17973000  0.32319000  0.47725000  1.0
  H  H14  1  0.93045000  0.36741000  0.40193000  1.0
  H  H15  1  0.12135000  0.41621000  0.36442000  1.0
  H  H16  1  0.42835000  0.56638000  0.82888000  1.0
  H  H17  1  0.28346000  0.75074000  0.65869000  1.0
  H  H18  1  0.11840000  0.40660000  0.63961000  1.0
  H  H19  1  0.72367000  0.26031000  0.77901000  1.0
  H  H20  1  0.81597000  0.31498000  0.10875000  1.0
  H  H21  1  0.81356000  0.23735000  0.95111000  1.0
  H  H22  1  0.30650000  0.75067000  0.22243000  1.0
  H  H23  1  0.34065000  0.67118000  0.92317000  1.0
  H  H24  1  0.23108000  0.79737000  0.04368000  1.0
  C  C25  1  0.48925000  0.57019000  0.30867000  1.0
  C  C26  1  0.49082000  0.55929000  0.02670000  1.0
  C  C27  1  0.53927000  0.53980000  0.12673000  1.0
  C  C28  1  0.73802000  0.49554000  0.50458000  1.0
  C  C29  1  0.55539000  0.48159000  0.95756000  1.0
  C  C30  1  0.66840000  0.38787000  0.99020000  1.0
  C  C31  1  0.72310000  0.37896000  0.08640000  1.0
  C  C32  1  0.66191000  0.45365000  0.14929000  1.0
  C  C33  1  0.51076000  0.49407000  0.85900000  1.0
  C  C34  1  0.67827000  0.32047000  0.83002000  1.0
  C  C35  1  0.46752000  0.60669000  0.19790000  1.0
  C  C36  1  0.11733000  0.50476000  0.49098000  1.0
  C  C37  1  0.31249000  0.91696000  0.65316000  1.0
  C  C38  1  0.66103000  0.17522000  0.38730000  1.0
  C  C39  1  0.68384000  0.07119000  0.35075000  1.0
  C  C40  1  0.52386000  0.43611000  0.69009000  1.0
  C  C41  1  0.61839000  0.99781000  0.39489000  1.0
  C  C42  1  0.53362000  0.02799000  0.47451000  1.0
  C  C43  1  0.51835000  0.13528000  0.50653000  1.0
  C  C44  1  0.46281000  0.95482000  0.52500000  1.0
  C  C45  1  0.37954000  0.99099000  0.60505000  1.0
  C  C46  1  0.36868000  0.09875000  0.63510000  1.0
  C  C47  1  0.07102000  0.49378000  0.60063000  1.0
  C  C48  1  0.43630000  0.16792000  0.58854000  1.0
  C  C49  1  0.47325000  0.84680000  0.49930000  1.0
  C  C50  1  0.33035000  0.81228000  0.62290000  1.0
  C  C51  1  0.25673000  0.50765000  0.49116000  1.0
  C  C52  1  0.88987000  0.60144000  0.42703000  1.0
  C  C53  1  0.02478000  0.61503000  0.43267000  1.0
  C  C54  1  0.92439000  0.51483000  0.60133000  1.0
  C  C55  1  0.97237000  0.38759000  0.46627000  1.0
  C  C56  1  0.87915000  0.49586000  0.50046000  1.0
  C  C57  1  0.10559000  0.40248000  0.44534000  1.0
  C  C58  1  0.72724000  0.30829000  0.92504000  1.0
  C  C59  1  0.56993000  0.41546000  0.79589000  1.0
  C  C60  1  0.35953000  0.69986000  0.16689000  1.0
  C  C61  1  0.31654000  0.72443000  0.06701000  1.0
  C  C62  1  0.37887000  0.65368000  0.99919000  1.0
  N  N63  1  0.41000000  0.77833000  0.54666000  1.0
  N  N64  1  0.58219000  0.20883000  0.46022000  1.0
  O  O65  1  0.48480000  0.64740000  0.36190000  1.0
  O  O66  1  0.49970000  0.46570000  0.34047000  1.0
  O  O67  1  0.65529000  0.58219000  0.53302000  1.0
  O  O68  1  0.71599000  0.41002000  0.47773000  1.0
  O  O69  1  0.44801000  0.53596000  0.65662000  1.0
  O  O70  1  0.56569000  0.35367000  0.63962000  1.0
  O  O71  1  0.27401000  0.60522000  0.48509000  1.0
  O  O72  1  0.34497000  0.41109000  0.50027000  1.0
  F  F73  1  0.89181000  0.44239000  0.68203000  1.0
  F  F74  1  0.86505000  0.58749000  0.32834000  1.0
  F  F75  1  0.72279000  0.45068000  0.23581000  1.0
  F  F76  1  0.72408000  0.24715000  0.34501000  1.0
  F  F77  1  0.98606000  0.29197000  0.54341000  1.0
