# generated using pymatgen
data_Cu4H24WC30S7(IN3)2
_symmetry_space_group_name_H-M   'P 1'
_cell_length_a   12.39260000
_cell_length_b   14.32380000
_cell_length_c   15.03200000
_cell_angle_alpha   61.56300000
_cell_angle_beta   89.99960000
_cell_angle_gamma   89.99980000
_symmetry_Int_Tables_number   1
_chemical_formula_structural   Cu4H24WC30S7(IN3)2
_chemical_formula_sum   'Cu8 H48 W2 C60 S14 I4 N12'
_cell_volume   2346.36132418
_cell_formula_units_Z   2
loop_
 _symmetry_equiv_pos_site_id
 _symmetry_equiv_pos_as_xyz
  1  'x, y, z'
loop_
 _atom_site_type_symbol
 _atom_site_label
 _atom_site_symmetry_multiplicity
 _atom_site_fract_x
 _atom_site_fract_y
 _atom_site_fract_z
 _atom_site_occupancy
  Cu  Cu0  1  0.83364000  0.80507000  0.16404000  1.0
  Cu  Cu1  1  0.33345000  0.03104000  0.16399000  1.0
  Cu  Cu2  1  0.33344000  0.96895000  0.83601000  1.0
  Cu  Cu3  1  0.83364000  0.19493000  0.83596000  1.0
  Cu  Cu4  1  0.82704000  0.91811000  0.87471000  1.0
  Cu  Cu5  1  0.32702000  0.20714000  0.87473000  1.0
  Cu  Cu6  1  0.32701000  0.79286000  0.12527000  1.0
  Cu  Cu7  1  0.82704000  0.08190000  0.12529000  1.0
  H  H8  1  0.81991000  0.56437000  0.28179000  1.0
  H  H9  1  0.31969000  0.15378000  0.28186000  1.0
  H  H10  1  0.31969000  0.84623000  0.71815000  1.0
  H  H11  1  0.81991000  0.43563000  0.71821000  1.0
  H  H12  1  0.70650000  0.41887000  0.28288000  1.0
  H  H13  1  0.20640000  0.29819000  0.28306000  1.0
  H  H14  1  0.20641000  0.70181000  0.71694000  1.0
  H  H15  1  0.70650000  0.58113000  0.71712000  1.0
  H  H16  1  0.51478000  0.66430000  0.04531000  1.0
  H  H17  1  0.01456000  0.29056000  0.04537000  1.0
  H  H18  1  0.01456000  0.70944000  0.95463000  1.0
  H  H19  1  0.51477000  0.33571000  0.95469000  1.0
  H  H20  1  0.63546000  0.79701000  0.05491000  1.0
  H  H21  1  0.13515000  0.14824000  0.05488000  1.0
  H  H22  1  0.13515000  0.85176000  0.94512000  1.0
  H  H23  1  0.63545000  0.20299000  0.94509000  1.0
  H  H24  1  0.84459000  0.31255000  0.06666000  1.0
  H  H25  1  0.34439000  0.62092000  0.06649000  1.0
  H  H26  1  0.34440000  0.37907000  0.93352000  1.0
  H  H27  1  0.84459000  0.68745000  0.93334000  1.0
  H  H28  1  0.73932000  0.44753000  0.08736000  1.0
  H  H29  1  0.23913000  0.46518000  0.08737000  1.0
  H  H30  1  0.23914000  0.53482000  0.91263000  1.0
  H  H31  1  0.73932000  0.55247000  0.91263000  1.0
  H  H32  1  0.48053000  0.21578000  0.20957000  1.0
  H  H33  1  0.98075000  0.57443000  0.21032000  1.0
  H  H34  1  0.98076000  0.42557000  0.78968000  1.0
  H  H35  1  0.48053000  0.78422000  0.79044000  1.0
  H  H36  1  0.59719000  0.09075000  0.18699000  1.0
  H  H37  1  0.09733000  0.72223000  0.18738000  1.0
  H  H38  1  0.09734000  0.27777000  0.81262000  1.0
  H  H39  1  0.59718000  0.90925000  0.81302000  1.0
  H  H40  1  0.02357000  0.04815000  0.78399000  1.0
  H  H41  1  0.52357000  0.16816000  0.78414000  1.0
  H  H42  1  0.52357000  0.83184000  0.21586000  1.0
  H  H43  1  0.02357000  0.95184000  0.21601000  1.0
  H  H44  1  0.15304000  0.08137000  0.64557000  1.0
  H  H45  1  0.65314000  0.27328000  0.64585000  1.0
  H  H46  1  0.65314000  0.72672000  0.35415000  1.0
  H  H47  1  0.15305000  0.91863000  0.35443000  1.0
  H  H48  1  0.95097000  0.88237000  0.56950000  1.0
  H  H49  1  0.45093000  0.54827000  0.56953000  1.0
  H  H50  1  0.45094000  0.45173000  0.43047000  1.0
  H  H51  1  0.95097000  0.11763000  0.43050000  1.0
  H  H52  1  0.82954000  0.85972000  0.70905000  1.0
  H  H53  1  0.32947000  0.43148000  0.70907000  1.0
  H  H54  1  0.32947000  0.56851000  0.29092000  1.0
  H  H55  1  0.82955000  0.14028000  0.29095000  1.0
  W  W56  1  0.82605000  0.00000000  0.00000000  1.0
  W  W57  1  0.32600000  0.00000000  0.00000000  1.0
  C  C58  1  0.75317000  0.58174000  0.22851000  1.0
  C  C59  1  0.25293000  0.18979000  0.22854000  1.0
  C  C60  1  0.25294000  0.81021000  0.77146000  1.0
  C  C61  1  0.75317000  0.41826000  0.77149000  1.0
  C  C62  1  0.68920000  0.50161000  0.22964000  1.0
  C  C63  1  0.18903000  0.26877000  0.22978000  1.0
  C  C64  1  0.18904000  0.73123000  0.77022000  1.0
  C  C65  1  0.68920000  0.49839000  0.77035000  1.0
  C  C66  1  0.60163000  0.52989000  0.16255000  1.0
  C  C67  1  0.10146000  0.30763000  0.16272000  1.0
  C  C68  1  0.10147000  0.69237000  0.83728000  1.0
  C  C69  1  0.60163000  0.47012000  0.83744000  1.0
  C  C70  1  0.58155000  0.63753000  0.09875000  1.0
  C  C71  1  0.08137000  0.26383000  0.09884000  1.0
  C  C72  1  0.08137000  0.73617000  0.90116000  1.0
  C  C73  1  0.58155000  0.36248000  0.90125000  1.0
  C  C74  1  0.64977000  0.71234000  0.10329000  1.0
  C  C75  1  0.14950000  0.18449000  0.10326000  1.0
  C  C76  1  0.14950000  0.81551000  0.89675000  1.0
  C  C77  1  0.64976000  0.28767000  0.89671000  1.0
  C  C78  1  0.76360000  0.29409000  0.09885000  1.0
  C  C79  1  0.26347000  0.60717000  0.09881000  1.0
  C  C80  1  0.26348000  0.39283000  0.90120000  1.0
  C  C81  1  0.76360000  0.70591000  0.90115000  1.0
  C  C82  1  0.70412000  0.36994000  0.10961000  1.0
  C  C83  1  0.20400000  0.52049000  0.10971000  1.0
  C  C84  1  0.20402000  0.47950000  0.89030000  1.0
  C  C85  1  0.70412000  0.63006000  0.89038000  1.0
  C  C86  1  0.59923000  0.34426000  0.14946000  1.0
  C  C87  1  0.09920000  0.50626000  0.14977000  1.0
  C  C88  1  0.09921000  0.49374000  0.85023000  1.0
  C  C89  1  0.59923000  0.65575000  0.85054000  1.0
  C  C90  1  0.56026000  0.24228000  0.17665000  1.0
  C  C91  1  0.06036000  0.58096000  0.17714000  1.0
  C  C92  1  0.06037000  0.41904000  0.82286000  1.0
  C  C93  1  0.56026000  0.75773000  0.82335000  1.0
  C  C94  1  0.62615000  0.17108000  0.16390000  1.0
  C  C95  1  0.12621000  0.66500000  0.16420000  1.0
  C  C96  1  0.12622000  0.33500000  0.83580000  1.0
  C  C97  1  0.62615000  0.82892000  0.83610000  1.0
  C  C98  1  0.01012000  0.01290000  0.73472000  1.0
  C  C99  1  0.51016000  0.25266000  0.73489000  1.0
  C  C100  1  0.51015000  0.74734000  0.26510000  1.0
  C  C101  1  0.01012000  0.98710000  0.26528000  1.0
  C  C102  1  0.08233000  0.03164000  0.65688000  1.0
  C  C103  1  0.58241000  0.31170000  0.65711000  1.0
  C  C104  1  0.58240000  0.68830000  0.34288000  1.0
  C  C105  1  0.08233000  0.96835000  0.34312000  1.0
  C  C106  1  0.06256000  0.98475000  0.59547000  1.0
  C  C107  1  0.56257000  0.41995000  0.59559000  1.0
  C  C108  1  0.56257000  0.58005000  0.40441000  1.0
  C  C109  1  0.06256000  0.01525000  0.40452000  1.0
  C  C110  1  0.96989000  0.92128000  0.61466000  1.0
  C  C111  1  0.46988000  0.46424000  0.61473000  1.0
  C  C112  1  0.46988000  0.53576000  0.38527000  1.0
  C  C113  1  0.96989000  0.07872000  0.38534000  1.0
  C  C114  1  0.90211000  0.90814000  0.69279000  1.0
  C  C115  1  0.40208000  0.39930000  0.69287000  1.0
  C  C116  1  0.40208000  0.60070000  0.30712000  1.0
  C  C117  1  0.90212000  0.09186000  0.30721000  1.0
  S  S118  1  0.93165000  0.86471000  0.01685000  1.0
  S  S119  1  0.43159000  0.11845000  0.01687000  1.0
  S  S120  1  0.43158000  0.88155000  0.98314000  1.0
  S  S121  1  0.93165000  0.13529000  0.98316000  1.0
  S  S122  1  0.72295000  0.05557000  0.86103000  1.0
  S  S123  1  0.22290000  0.08338000  0.86104000  1.0
  S  S124  1  0.22290000  0.91662000  0.13897000  1.0
  S  S125  1  0.72295000  0.94443000  0.13897000  1.0
  S  S126  1  0.51206000  0.43406000  0.16207000  1.0
  S  S127  1  0.01196000  0.40390000  0.16241000  1.0
  S  S128  1  0.01197000  0.59610000  0.83759000  1.0
  S  S129  1  0.51206000  0.56595000  0.83792000  1.0
  S  S130  1  0.15505000  0.00000000  0.50000000  1.0
  S  S131  1  0.65502000  0.50000000  0.50000000  1.0
  I  I132  1  0.92903000  0.71152000  0.33645000  1.0
  I  I133  1  0.42910000  0.95230000  0.33627000  1.0
  I  I134  1  0.42910000  0.04770000  0.66373000  1.0
  I  I135  1  0.92904000  0.28848000  0.66356000  1.0
  N  N136  1  0.73471000  0.68564000  0.16606000  1.0
  N  N137  1  0.23445000  0.14839000  0.16602000  1.0
  N  N138  1  0.23445000  0.85161000  0.83398000  1.0
  N  N139  1  0.73471000  0.31436000  0.83394000  1.0
  N  N140  1  0.72688000  0.19554000  0.12562000  1.0
  N  N141  1  0.22682000  0.67893000  0.12563000  1.0
  N  N142  1  0.22683000  0.32107000  0.87438000  1.0
  N  N143  1  0.72688000  0.80446000  0.87438000  1.0
  N  N144  1  0.92162000  0.95170000  0.75354000  1.0
  N  N145  1  0.42161000  0.29501000  0.75364000  1.0
  N  N146  1  0.42160000  0.70499000  0.24636000  1.0
  N  N147  1  0.92163000  0.04830000  0.24646000  1.0
