# generated using pymatgen
data_Cu3H20C12(N11O)2
_symmetry_space_group_name_H-M   'P 1'
_cell_length_a   7.81841000
_cell_length_b   8.51730000
_cell_length_c   10.80590000
_cell_angle_alpha   67.81710000
_cell_angle_beta   72.70620000
_cell_angle_gamma   87.12990000
_symmetry_Int_Tables_number   1
_chemical_formula_structural   Cu3H20C12(N11O)2
_chemical_formula_sum   'Cu3 H20 C12 N22 O2'
_cell_volume   634.62533937
_cell_formula_units_Z   1
loop_
 _symmetry_equiv_pos_site_id
 _symmetry_equiv_pos_as_xyz
  1  'x, y, z'
loop_
 _atom_site_type_symbol
 _atom_site_label
 _atom_site_symmetry_multiplicity
 _atom_site_fract_x
 _atom_site_fract_y
 _atom_site_fract_z
 _atom_site_occupancy
  Cu  Cu0  1  0.49751000  0.49851000  0.00103000  1.0
  Cu  Cu1  1  0.10395000  0.35637000  0.10946000  1.0
  Cu  Cu2  1  0.89813000  0.64407000  0.89055000  1.0
  H  H3  1  0.86543000  0.54279000  0.30459000  1.0
  H  H4  1  0.13561000  0.45698000  0.69501000  1.0
  H  H5  1  0.61495000  0.34646000  0.55742000  1.0
  H  H6  1  0.38545000  0.65349000  0.44217000  1.0
  H  H7  1  0.88958000  0.87379000  0.43831000  1.0
  H  H8  1  0.11073000  0.12605000  0.56157000  1.0
  H  H9  1  0.80809000  0.95556000  0.29083000  1.0
  H  H10  1  0.19227000  0.04428000  0.70896000  1.0
  H  H11  1  0.58308000  0.90274000  0.57474000  1.0
  H  H12  1  0.41680000  0.09740000  0.42519000  1.0
  H  H13  1  0.49497000  0.04311000  0.66309000  1.0
  H  H14  1  0.50540000  0.95709000  0.33686000  1.0
  H  H15  1  0.69567000  0.94448000  0.68205000  1.0
  H  H16  1  0.30457000  0.05551000  0.31776000  1.0
  H  H17  1  0.26666000  0.93532000  0.11700000  1.0
  H  H18  1  0.73360000  0.06468000  0.88277000  1.0
  H  H19  1  0.03907000  0.88934000  0.12873000  1.0
  H  H20  1  0.96122000  0.11063000  0.87117000  1.0
  H  H21  1  0.12814000  0.76930000  0.26953000  1.0
  H  H22  1  0.87224000  0.23057000  0.73026000  1.0
  C  C23  1  0.84688000  0.14069000  0.37264000  1.0
  C  C24  1  0.15340000  0.85913000  0.62713000  1.0
  C  C25  1  0.83227000  0.40693000  0.35246000  1.0
  C  C26  1  0.16832000  0.59291000  0.64716000  1.0
  C  C27  1  0.70882000  0.31188000  0.47705000  1.0
  C  C28  1  0.29165000  0.68809000  0.52256000  1.0
  C  C29  1  0.89953000  0.98582000  0.34114000  1.0
  C  C30  1  0.10078000  0.01400000  0.65871000  1.0
  C  C31  1  0.61722000  0.99928000  0.60897000  1.0
  C  C32  1  0.38299000  0.00081000  0.39088000  1.0
  C  C33  1  0.12972000  0.89590000  0.18784000  1.0
  C  C34  1  0.87061000  0.10402000  0.81203000  1.0
  N  N35  1  0.91620000  0.29897000  0.28841000  1.0
  N  N36  1  0.08425000  0.70074000  0.71129000  1.0
  N  N37  1  0.32546000  0.39463000  0.94562000  1.0
  N  N38  1  0.67382000  0.60577000  0.05286000  1.0
  N  N39  1  0.28600000  0.45283000  0.17124000  1.0
  N  N40  1  0.71223000  0.55033000  0.82982000  1.0
  N  N41  1  0.95503000  0.31190000  0.00458000  1.0
  N  N42  1  0.04414000  0.68944000  0.99612000  1.0
  N  N43  1  0.79952000  0.25987000  0.05742000  1.0
  N  N44  1  0.19966000  0.74150000  0.94282000  1.0
  N  N45  1  0.35757000  0.31199000  0.87243000  1.0
  N  N46  1  0.64197000  0.68679000  0.12757000  1.0
  N  N47  1  0.71982000  0.14465000  0.48853000  1.0
  N  N48  1  0.28047000  0.85530000  0.51120000  1.0
  N  N49  1  0.29012000  0.41900000  0.28969000  1.0
  N  N50  1  0.70954000  0.58066000  0.71132000  1.0
  N  N51  1  0.64664000  0.21523000  0.10036000  1.0
  N  N52  1  0.35250000  0.78623000  0.89961000  1.0
  N  N53  1  0.38530000  0.23557000  0.80021000  1.0
  N  N54  1  0.61418000  0.76270000  0.20006000  1.0
  N  N55  1  0.29069000  0.38880000  0.40392000  1.0
  N  N56  1  0.70926000  0.60929000  0.59736000  1.0
  O  O57  1  0.07803000  0.02074000  0.24848000  1.0
  O  O58  1  0.92227000  0.97909000  0.75146000  1.0
