# generated using pymatgen
data_SmH9C9(NO3)3
_symmetry_space_group_name_H-M   'P 1'
_cell_length_a   6.05476000
_cell_length_b   10.46170000
_cell_length_c   19.07790000
_cell_angle_alpha   90.00010000
_cell_angle_beta   89.99970000
_cell_angle_gamma   89.92310000
_symmetry_Int_Tables_number   1
_chemical_formula_structural   SmH9C9(NO3)3
_chemical_formula_sum   'Sm4 H36 C36 N12 O36'
_cell_volume   1208.45190882
_cell_formula_units_Z   4
loop_
 _symmetry_equiv_pos_site_id
 _symmetry_equiv_pos_as_xyz
  1  'x, y, z'
loop_
 _atom_site_type_symbol
 _atom_site_label
 _atom_site_symmetry_multiplicity
 _atom_site_fract_x
 _atom_site_fract_y
 _atom_site_fract_z
 _atom_site_occupancy
  Sm  Sm0  1  0.74310000  0.81059000  0.40353000  1.0
  Sm  Sm1  1  0.75691000  0.68941000  0.90352000  1.0
  Sm  Sm2  1  0.25690000  0.18941000  0.59647000  1.0
  Sm  Sm3  1  0.24310000  0.31059000  0.09648000  1.0
  H  H4  1  0.12289000  0.50795000  0.54375000  1.0
  H  H5  1  0.37711000  0.99205000  0.04375000  1.0
  H  H6  1  0.87711000  0.49205000  0.45625000  1.0
  H  H7  1  0.62289000  0.00795000  0.95625000  1.0
  H  H8  1  0.52820000  0.76610000  0.11769000  1.0
  H  H9  1  0.97181000  0.73390000  0.61768000  1.0
  H  H10  1  0.47181000  0.23390000  0.88231000  1.0
  H  H11  1  0.02819000  0.26610000  0.38232000  1.0
  H  H12  1  0.11727000  0.95997000  0.15099000  1.0
  H  H13  1  0.38273000  0.54004000  0.65099000  1.0
  H  H14  1  0.88273000  0.04003000  0.84901000  1.0
  H  H15  1  0.61727000  0.45996000  0.34901000  1.0
  H  H16  1  0.88470000  0.58779000  0.30086000  1.0
  H  H17  1  0.61530000  0.91221000  0.80086000  1.0
  H  H18  1  0.11530000  0.41221000  0.69914000  1.0
  H  H19  1  0.38470000  0.08779000  0.19914000  1.0
  H  H20  1  0.10307000  0.64425000  0.33225000  1.0
  H  H21  1  0.39693000  0.85575000  0.83225000  1.0
  H  H22  1  0.89693000  0.35575000  0.66775000  1.0
  H  H23  1  0.60307000  0.14425000  0.16775000  1.0
  H  H24  1  0.45503000  0.01986000  0.34331000  1.0
  H  H25  1  0.04497000  0.48014000  0.84330000  1.0
  H  H26  1  0.54497000  0.98015000  0.65669000  1.0
  H  H27  1  0.95502000  0.51986000  0.15670000  1.0
  H  H28  1  0.68907000  0.07815000  0.34698000  1.0
  H  H29  1  0.81093000  0.42185000  0.84698000  1.0
  H  H30  1  0.31093000  0.92185000  0.65302000  1.0
  H  H31  1  0.18907000  0.57815000  0.15302000  1.0
  H  H32  1  0.70524000  0.02732000  0.51643000  1.0
  H  H33  1  0.79476000  0.47268000  0.01643000  1.0
  H  H34  1  0.29476000  0.97268000  0.48357000  1.0
  H  H35  1  0.20524000  0.52732000  0.98357000  1.0
  H  H36  1  0.89566000  0.93927000  0.54140000  1.0
  H  H37  1  0.60433000  0.56073000  0.04140000  1.0
  H  H38  1  0.10434000  0.06073000  0.45860000  1.0
  H  H39  1  0.39566000  0.43927000  0.95860000  1.0
  C  C40  1  0.26116000  0.73076000  0.47545000  1.0
  C  C41  1  0.23884000  0.76925000  0.97545000  1.0
  C  C42  1  0.73884000  0.26924000  0.52455000  1.0
  C  C43  1  0.76116000  0.23075000  0.02455000  1.0
  C  C44  1  0.38451000  0.60745000  0.48803000  1.0
  C  C45  1  0.11550000  0.89255000  0.98803000  1.0
  C  C46  1  0.61550000  0.39256000  0.51197000  1.0
  C  C47  1  0.88450000  0.10745000  0.01197000  1.0
  C  C48  1  0.29108000  0.50418000  0.52369000  1.0
  C  C49  1  0.20892000  0.99582000  0.02369000  1.0
  C  C50  1  0.70893000  0.49582000  0.47631000  1.0
  C  C51  1  0.79108000  0.00418000  0.97631000  1.0
  C  C52  1  0.43327000  0.72183000  0.26157000  1.0
  C  C53  1  0.06673000  0.77817000  0.76157000  1.0
  C  C54  1  0.56673000  0.27817000  0.73842000  1.0
  C  C55  1  0.93327000  0.22183000  0.23843000  1.0
  C  C56  1  0.62158000  0.79144000  0.22676000  1.0
  C  C57  1  0.87843000  0.70856000  0.72676000  1.0
  C  C58  1  0.37842000  0.20856000  0.77324000  1.0
  C  C59  1  0.12158000  0.29144000  0.27324000  1.0
  C  C60  1  0.64930000  0.80482000  0.15427000  1.0
  C  C61  1  0.85071000  0.69518000  0.65427000  1.0
  C  C62  1  0.35071000  0.19517000  0.84573000  1.0
  C  C63  1  0.14929000  0.30483000  0.34573000  1.0
  C  C64  1  0.97241000  0.91238000  0.17218000  1.0
  C  C65  1  0.52760000  0.58762000  0.67217000  1.0
  C  C66  1  0.02759000  0.08762000  0.82782000  1.0
  C  C67  1  0.47240000  0.41238000  0.32783000  1.0
  C  C68  1  0.94455000  0.90280000  0.24451000  1.0
  C  C69  1  0.55546000  0.59720000  0.74451000  1.0
  C  C70  1  0.05545000  0.09720000  0.75549000  1.0
  C  C71  1  0.44454000  0.40280000  0.25549000  1.0
  C  C72  1  0.10173000  0.95698000  0.29776000  1.0
  C  C73  1  0.39827000  0.54302000  0.79775000  1.0
  C  C74  1  0.89827000  0.04302000  0.70224000  1.0
  C  C75  1  0.60172000  0.45699000  0.20225000  1.0
  N  N76  1  0.59346000  0.60240000  0.46453000  1.0
  N  N77  1  0.90655000  0.89760000  0.96453000  1.0
  N  N78  1  0.40655000  0.39760000  0.53547000  1.0
  N  N79  1  0.09346000  0.10240000  0.03547000  1.0
  N  N80  1  0.77008000  0.84136000  0.27072000  1.0
  N  N81  1  0.72992000  0.65864000  0.77072000  1.0
  N  N82  1  0.22992000  0.15864000  0.72928000  1.0
  N  N83  1  0.27008000  0.34137000  0.22928000  1.0
  N  N84  1  0.82515000  0.86451000  0.12705000  1.0
  N  N85  1  0.67486000  0.63549000  0.62705000  1.0
  N  N86  1  0.17485000  0.13549000  0.87295000  1.0
  N  N87  1  0.32514000  0.36451000  0.37295000  1.0
  O  O88  1  0.38307000  0.82655000  0.46203000  1.0
  O  O89  1  0.11693000  0.67345000  0.96203000  1.0
  O  O90  1  0.61693000  0.17345000  0.53797000  1.0
  O  O91  1  0.88307000  0.32655000  0.03797000  1.0
  O  O92  1  0.05279000  0.72985000  0.47967000  1.0
  O  O93  1  0.44721000  0.77015000  0.97967000  1.0
  O  O94  1  0.94721000  0.27015000  0.52033000  1.0
  O  O95  1  0.55278000  0.22985000  0.02033000  1.0
  O  O96  1  0.44274000  0.71489000  0.32872000  1.0
  O  O97  1  0.05726000  0.78511000  0.82871000  1.0
  O  O98  1  0.55726000  0.28510000  0.67128000  1.0
  O  O99  1  0.94274000  0.21490000  0.17129000  1.0
  O  O100  1  0.28098000  0.67613000  0.22456000  1.0
  O  O101  1  0.21902000  0.82387000  0.72456000  1.0
  O  O102  1  0.71902000  0.32387000  0.77544000  1.0
  O  O103  1  0.78097000  0.17613000  0.27544000  1.0
  O  O104  1  0.05112000  0.93931000  0.36182000  1.0
  O  O105  1  0.44888000  0.56070000  0.86181000  1.0
  O  O106  1  0.94888000  0.06070000  0.63818000  1.0
  O  O107  1  0.55113000  0.43931000  0.13819000  1.0
  O  O108  1  0.27198000  0.01558000  0.27645000  1.0
  O  O109  1  0.22802000  0.48441000  0.77645000  1.0
  O  O110  1  0.72802000  0.98442000  0.72355000  1.0
  O  O111  1  0.77198000  0.51558000  0.22355000  1.0
  O  O112  1  0.94764000  0.62627000  0.34407000  1.0
  O  O113  1  0.55236000  0.87373000  0.84407000  1.0
  O  O114  1  0.05236000  0.37373000  0.65593000  1.0
  O  O115  1  0.44764000  0.12627000  0.15593000  1.0
  O  O116  1  0.59107000  0.01980000  0.37323000  1.0
  O  O117  1  0.90893000  0.48020000  0.87322000  1.0
  O  O118  1  0.40892000  0.98020000  0.62677000  1.0
  O  O119  1  0.09107000  0.51980000  0.12678000  1.0
  O  O120  1  0.78246000  0.94527000  0.50526000  1.0
  O  O121  1  0.71754000  0.55473000  0.00526000  1.0
  O  O122  1  0.21753000  0.05473000  0.49474000  1.0
  O  O123  1  0.28246000  0.44527000  0.99474000  1.0
