# generated using pymatgen
data_CdH12C11N12O
_symmetry_space_group_name_H-M   'P 1'
_cell_length_a   10.23850000
_cell_length_b   11.83210000
_cell_length_c   14.19090000
_cell_angle_alpha   69.37700000
_cell_angle_beta   89.99990000
_cell_angle_gamma   89.99990000
_symmetry_Int_Tables_number   1
_chemical_formula_structural   CdH12C11N12O
_chemical_formula_sum   'Cd4 H48 C44 N48 O4'
_cell_volume   1608.96282079
_cell_formula_units_Z   4
loop_
 _symmetry_equiv_pos_site_id
 _symmetry_equiv_pos_as_xyz
  1  'x, y, z'
loop_
 _atom_site_type_symbol
 _atom_site_label
 _atom_site_symmetry_multiplicity
 _atom_site_fract_x
 _atom_site_fract_y
 _atom_site_fract_z
 _atom_site_occupancy
  Cd  Cd0  1  0.12556000  0.81608000  0.37196000  1.0
  Cd  Cd1  1  0.62556000  0.68392000  0.12805000  1.0
  Cd  Cd2  1  0.87444000  0.18392000  0.62804000  1.0
  Cd  Cd3  1  0.37444000  0.31608000  0.87196000  1.0
  H  H4  1  0.96654000  0.53022000  0.38808000  1.0
  H  H5  1  0.46654000  0.96978000  0.11192000  1.0
  H  H6  1  0.03346000  0.46978000  0.61192000  1.0
  H  H7  1  0.53346000  0.03022000  0.88808000  1.0
  H  H8  1  0.35636000  0.63967000  0.31429000  1.0
  H  H9  1  0.85636000  0.86033000  0.18571000  1.0
  H  H10  1  0.64364000  0.36033000  0.68571000  1.0
  H  H11  1  0.14364000  0.13967000  0.81429000  1.0
  H  H12  1  0.17218000  0.13458000  0.07905000  1.0
  H  H13  1  0.67218000  0.36542000  0.42095000  1.0
  H  H14  1  0.82782000  0.86541000  0.92095000  1.0
  H  H15  1  0.32782000  0.63458000  0.57905000  1.0
  H  H16  1  0.51376000  0.32706000  0.09155000  1.0
  H  H17  1  0.01377000  0.17294000  0.40845000  1.0
  H  H18  1  0.48623000  0.67294000  0.90845000  1.0
  H  H19  1  0.98623000  0.82706000  0.59155000  1.0
  H  H20  1  0.42877000  0.47158000  0.25962000  1.0
  H  H21  1  0.92877000  0.02842000  0.24038000  1.0
  H  H22  1  0.57123000  0.52842000  0.74038000  1.0
  H  H23  1  0.07123000  0.97158000  0.75962000  1.0
  H  H24  1  0.29886000  0.42369000  0.19980000  1.0
  H  H25  1  0.79886000  0.07631000  0.30020000  1.0
  H  H26  1  0.70114000  0.57631000  0.80020000  1.0
  H  H27  1  0.20114000  0.92369000  0.69980000  1.0
  H  H28  1  0.26008000  0.24739000  0.36607000  1.0
  H  H29  1  0.76008000  0.25260000  0.13393000  1.0
  H  H30  1  0.73992000  0.75261000  0.63393000  1.0
  H  H31  1  0.23992000  0.74739000  0.86607000  1.0
  H  H32  1  0.40232000  0.29023000  0.41481000  1.0
  H  H33  1  0.90232000  0.20977000  0.08519000  1.0
  H  H34  1  0.59768000  0.70977000  0.58519000  1.0
  H  H35  1  0.09768000  0.79023000  0.91481000  1.0
  H  H36  1  0.53790000  0.25693000  0.27938000  1.0
  H  H37  1  0.03790000  0.24307000  0.22062000  1.0
  H  H38  1  0.46210000  0.74308000  0.72062000  1.0
  H  H39  1  0.96210000  0.75693000  0.77938000  1.0
  H  H40  1  0.45022000  0.12512000  0.35044000  1.0
  H  H41  1  0.95022000  0.37488000  0.14956000  1.0
  H  H42  1  0.54978000  0.87488000  0.64956000  1.0
  H  H43  1  0.04978000  0.62512000  0.85044000  1.0
  H  H44  1  0.18790000  0.06089000  0.31673000  1.0
  H  H45  1  0.68790000  0.43911000  0.18327000  1.0
  H  H46  1  0.81211000  0.93911000  0.68326000  1.0
  H  H47  1  0.31210000  0.56089000  0.81673000  1.0
  H  H48  1  0.20119000  0.00425000  0.43528000  1.0
  H  H49  1  0.70119000  0.49575000  0.06472000  1.0
  H  H50  1  0.79881000  0.99575000  0.56472000  1.0
  H  H51  1  0.29881000  0.50425000  0.93528000  1.0
  C  C52  1  0.06759000  0.53310000  0.36439000  1.0
  C  C53  1  0.56760000  0.96690000  0.13561000  1.0
  C  C54  1  0.93241000  0.46690000  0.63561000  1.0
  C  C55  1  0.43240000  0.03310000  0.86439000  1.0
  C  C56  1  0.26410000  0.59147000  0.32738000  1.0
  C  C57  1  0.76410000  0.90853000  0.17262000  1.0
  C  C58  1  0.73590000  0.40853000  0.67262000  1.0
  C  C59  1  0.23590000  0.09147000  0.82738000  1.0
  C  C60  1  0.25362000  0.17282000  0.10652000  1.0
  C  C61  1  0.75362000  0.32718000  0.39348000  1.0
  C  C62  1  0.74638000  0.82718000  0.89348000  1.0
  C  C63  1  0.24638000  0.67282000  0.60653000  1.0
  C  C64  1  0.42762000  0.26985000  0.11044000  1.0
  C  C65  1  0.92762000  0.23015000  0.38956000  1.0
  C  C66  1  0.57238000  0.73015000  0.88956000  1.0
  C  C67  1  0.07238000  0.76985000  0.61044000  1.0
  C  C68  1  0.33693000  0.42081000  0.27303000  1.0
  C  C69  1  0.83693000  0.07919000  0.22697000  1.0
  C  C70  1  0.66307000  0.57919000  0.72697000  1.0
  C  C71  1  0.16307000  0.92081000  0.77303000  1.0
  C  C72  1  0.35557000  0.29131000  0.34481000  1.0
  C  C73  1  0.85556000  0.20869000  0.15519000  1.0
  C  C74  1  0.64444000  0.70869000  0.65519000  1.0
  C  C75  1  0.14444000  0.79131000  0.84481000  1.0
  C  C76  1  0.43975000  0.21838000  0.29825000  1.0
  C  C77  1  0.93975000  0.28162000  0.20175000  1.0
  C  C78  1  0.56025000  0.78162000  0.70175000  1.0
  C  C79  1  0.06025000  0.71838000  0.79825000  1.0
  C  C80  1  0.45534000  0.85728000  0.37205000  1.0
  C  C81  1  0.95535000  0.64272000  0.12795000  1.0
  C  C82  1  0.54465000  0.14272000  0.62795000  1.0
  C  C83  1  0.04465000  0.35728000  0.87205000  1.0
  C  C84  1  0.62530000  0.94003000  0.43611000  1.0
  C  C85  1  0.12530000  0.55997000  0.06389000  1.0
  C  C86  1  0.37470000  0.05997000  0.56389000  1.0
  C  C87  1  0.87470000  0.44003000  0.93611000  1.0
  C  C88  1  0.82703000  0.71207000  0.41283000  1.0
  C  C89  1  0.32703000  0.78794000  0.08717000  1.0
  C  C90  1  0.17297000  0.28794000  0.58718000  1.0
  C  C91  1  0.67297000  0.21206000  0.91282000  1.0
  C  C92  1  0.66325000  0.61723000  0.35949000  1.0
  C  C93  1  0.16325000  0.88277000  0.14051000  1.0
  C  C94  1  0.33675000  0.38277000  0.64051000  1.0
  C  C95  1  0.83675000  0.11723000  0.85949000  1.0
  N  N96  1  0.24547000  0.48640000  0.31327000  1.0
  N  N97  1  0.74547000  0.01360000  0.18673000  1.0
  N  N98  1  0.75453000  0.51360000  0.68673000  1.0
  N  N99  1  0.25453000  0.98640000  0.81327000  1.0
  N  N100  1  0.12044000  0.44740000  0.33636000  1.0
  N  N101  1  0.62044000  0.05260000  0.16364000  1.0
  N  N102  1  0.87956000  0.55260000  0.66364000  1.0
  N  N103  1  0.37956000  0.94740000  0.83636000  1.0
  N  N104  1  0.15244000  0.62404000  0.35976000  1.0
  N  N105  1  0.65245000  0.87596000  0.14024000  1.0
  N  N106  1  0.84755000  0.37596000  0.64024000  1.0
  N  N107  1  0.34755000  0.12404000  0.85976000  1.0
  N  N108  1  0.38380000  0.21549000  0.20466000  1.0
  N  N109  1  0.88380000  0.28451000  0.29534000  1.0
  N  N110  1  0.61620000  0.78451000  0.79534000  1.0
  N  N111  1  0.11620000  0.71549000  0.70466000  1.0
  N  N112  1  0.27230000  0.15304000  0.20376000  1.0
  N  N113  1  0.77230000  0.34697000  0.29624000  1.0
  N  N114  1  0.72770000  0.84696000  0.79624000  1.0
  N  N115  1  0.22770000  0.65304000  0.70376000  1.0
  N  N116  1  0.34714000  0.24418000  0.04664000  1.0
  N  N117  1  0.84714000  0.25582000  0.45336000  1.0
  N  N118  1  0.65286000  0.75582000  0.95336000  1.0
  N  N119  1  0.15286000  0.74418000  0.54664000  1.0
  N  N120  1  0.57428000  0.86575000  0.39804000  1.0
  N  N121  1  0.07428000  0.63425000  0.10197000  1.0
  N  N122  1  0.42572000  0.13425000  0.60197000  1.0
  N  N123  1  0.92572000  0.36575000  0.89803000  1.0
  N  N124  1  0.35145000  0.83925000  0.34379000  1.0
  N  N125  1  0.85145000  0.66075000  0.15622000  1.0
  N  N126  1  0.64855000  0.16075000  0.65622000  1.0
  N  N127  1  0.14855000  0.33925000  0.84378000  1.0
  N  N128  1  0.68387000  0.00206000  0.47097000  1.0
  N  N129  1  0.18386000  0.49794000  0.02904000  1.0
  N  N130  1  0.31614000  0.99794000  0.52903000  1.0
  N  N131  1  0.81613000  0.50206000  0.97097000  1.0
  N  N132  1  0.74819000  0.62258000  0.42484000  1.0
  N  N133  1  0.24819000  0.87742000  0.07516000  1.0
  N  N134  1  0.25182000  0.37742000  0.57516000  1.0
  N  N135  1  0.75181000  0.12258000  0.92483000  1.0
  N  N136  1  0.90396000  0.78802000  0.40876000  1.0
  N  N137  1  0.40396000  0.71198000  0.09124000  1.0
  N  N138  1  0.09605000  0.21198000  0.59124000  1.0
  N  N139  1  0.59605000  0.28802000  0.90876000  1.0
  N  N140  1  0.58355000  0.60144000  0.30477000  1.0
  N  N141  1  0.08355000  0.89856000  0.19523000  1.0
  N  N142  1  0.41646000  0.39856000  0.69523000  1.0
  N  N143  1  0.91646000  0.10143000  0.80477000  1.0
  O  O144  1  0.13828000  0.01401000  0.37872000  1.0
  O  O145  1  0.63828000  0.48599000  0.12127000  1.0
  O  O146  1  0.86172000  0.98600000  0.62127000  1.0
  O  O147  1  0.36172000  0.51400000  0.87873000  1.0
