# generated using pymatgen
data_CuH6(C3N2)2
_symmetry_space_group_name_H-M   'P 1'
_cell_length_a   3.99662000
_cell_length_b   9.82417000
_cell_length_c   18.26330000
_cell_angle_alpha   89.99970000
_cell_angle_beta   89.99990000
_cell_angle_gamma   86.87020000
_symmetry_Int_Tables_number   1
_chemical_formula_structural   CuH6(C3N2)2
_chemical_formula_sum   'Cu4 H24 C24 N16'
_cell_volume   716.01101888
_cell_formula_units_Z   4
loop_
 _symmetry_equiv_pos_site_id
 _symmetry_equiv_pos_as_xyz
  1  'x, y, z'
loop_
 _atom_site_type_symbol
 _atom_site_label
 _atom_site_symmetry_multiplicity
 _atom_site_fract_x
 _atom_site_fract_y
 _atom_site_fract_z
 _atom_site_occupancy
  Cu  Cu0  1  0.12478000  0.71633000  0.13789000  1.0
  Cu  Cu1  1  0.12476000  0.21633000  0.36211000  1.0
  Cu  Cu2  1  0.87523000  0.28367000  0.86211000  1.0
  Cu  Cu3  1  0.87524000  0.78367000  0.63789000  1.0
  H  H4  1  0.54554000  0.80490000  0.98577000  1.0
  H  H5  1  0.54555000  0.30491000  0.51423000  1.0
  H  H6  1  0.45446000  0.19509000  0.01423000  1.0
  H  H7  1  0.45445000  0.69509000  0.48577000  1.0
  H  H8  1  0.91302000  0.82497000  0.93354000  1.0
  H  H9  1  0.91303000  0.32497000  0.56646000  1.0
  H  H10  1  0.08699000  0.17503000  0.06646000  1.0
  H  H11  1  0.08696000  0.67503000  0.43354000  1.0
  H  H12  1  0.92313000  0.84124000  0.03089000  1.0
  H  H13  1  0.92314000  0.34124000  0.46911000  1.0
  H  H14  1  0.07687000  0.15876000  0.96911000  1.0
  H  H15  1  0.07685000  0.65876000  0.53089000  1.0
  H  H16  1  0.47459000  0.49607000  0.15413000  1.0
  H  H17  1  0.47458000  0.99608000  0.34587000  1.0
  H  H18  1  0.52539000  0.50392000  0.84587000  1.0
  H  H19  1  0.52543000  0.00392000  0.65414000  1.0
  H  H20  1  0.50121000  0.32275000  0.12321000  1.0
  H  H21  1  0.50119000  0.82276000  0.37678000  1.0
  H  H22  1  0.49878000  0.67724000  0.87678000  1.0
  H  H23  1  0.49881000  0.17724000  0.62322000  1.0
  H  H24  1  0.15005000  0.38581000  0.17381000  1.0
  H  H25  1  0.15003000  0.88582000  0.32618000  1.0
  H  H26  1  0.84994000  0.61418000  0.82618000  1.0
  H  H27  1  0.84997000  0.11418000  0.67382000  1.0
  C  C28  1  0.50942000  0.97378000  0.15163000  1.0
  C  C29  1  0.50939000  0.47378000  0.34836000  1.0
  C  C30  1  0.49060000  0.02622000  0.84837000  1.0
  C  C31  1  0.49060000  0.52623000  0.65164000  1.0
  C  C32  1  0.79800000  0.12224000  0.22029000  1.0
  C  C33  1  0.79800000  0.62224000  0.27971000  1.0
  C  C34  1  0.20200000  0.87775000  0.77971000  1.0
  C  C35  1  0.20200000  0.37776000  0.72029000  1.0
  C  C36  1  0.90962000  0.63552000  0.99298000  1.0
  C  C37  1  0.90962000  0.13553000  0.50702000  1.0
  C  C38  1  0.09039000  0.36447000  0.00702000  1.0
  C  C39  1  0.09038000  0.86447000  0.49298000  1.0
  C  C40  1  0.81844000  0.78454000  0.98525000  1.0
  C  C41  1  0.81845000  0.28454000  0.51475000  1.0
  C  C42  1  0.18156000  0.21546000  0.01474000  1.0
  C  C43  1  0.18154000  0.71546000  0.48525000  1.0
  C  C44  1  0.15996000  0.45743000  0.06249000  1.0
  C  C45  1  0.15994000  0.95743000  0.43751000  1.0
  C  C46  1  0.84006000  0.54257000  0.93751000  1.0
  C  C47  1  0.84006000  0.04257000  0.56249000  1.0
  C  C48  1  0.33245000  0.41298000  0.13178000  1.0
  C  C49  1  0.33244000  0.91298000  0.36822000  1.0
  C  C50  1  0.66753000  0.58702000  0.86822000  1.0
  C  C51  1  0.66756000  0.08702000  0.63178000  1.0
  N  N52  1  0.36069000  0.87655000  0.13816000  1.0
  N  N53  1  0.36066000  0.37656000  0.36184000  1.0
  N  N54  1  0.63934000  0.12344000  0.86184000  1.0
  N  N55  1  0.63933000  0.62345000  0.63816000  1.0
  N  N56  1  0.66907000  0.08393000  0.15917000  1.0
  N  N57  1  0.66903000  0.58394000  0.34082000  1.0
  N  N58  1  0.33095000  0.91606000  0.84083000  1.0
  N  N59  1  0.33095000  0.41607000  0.65918000  1.0
  N  N60  1  0.92751000  0.16739000  0.27220000  1.0
  N  N61  1  0.92751000  0.66738000  0.22780000  1.0
  N  N62  1  0.07249000  0.83261000  0.72780000  1.0
  N  N63  1  0.07250000  0.33262000  0.77220000  1.0
  N  N64  1  0.06775000  0.59181000  0.05522000  1.0
  N  N65  1  0.06775000  0.09182000  0.44478000  1.0
  N  N66  1  0.93225000  0.40818000  0.94478000  1.0
  N  N67  1  0.93225000  0.90819000  0.55522000  1.0
