# generated using pymatgen
data_Cu2NiH32C26(N3O7)2
_symmetry_space_group_name_H-M   'P 1'
_cell_length_a   8.70702000
_cell_length_b   9.03448000
_cell_length_c   11.49780000
_cell_angle_alpha   80.46250000
_cell_angle_beta   77.66750000
_cell_angle_gamma   83.49720000
_symmetry_Int_Tables_number   1
_chemical_formula_structural   Cu2NiH32C26(N3O7)2
_chemical_formula_sum   'Cu2 Ni1 H32 C26 N6 O14'
_cell_volume   868.52143476
_cell_formula_units_Z   1
loop_
 _symmetry_equiv_pos_site_id
 _symmetry_equiv_pos_as_xyz
  1  'x, y, z'
loop_
 _atom_site_type_symbol
 _atom_site_label
 _atom_site_symmetry_multiplicity
 _atom_site_fract_x
 _atom_site_fract_y
 _atom_site_fract_z
 _atom_site_occupancy
  Cu  Cu0  1  0.37575000  0.19146000  0.71366000  1.0
  Cu  Cu1  1  0.62417000  0.80866000  0.28612000  1.0
  Ni  Ni2  1  0.99997000  0.00007000  0.00004000  1.0
  H  H3  1  0.93292000  0.49291000  0.88075000  1.0
  H  H4  1  0.06723000  0.50718000  0.11932000  1.0
  H  H5  1  0.98586000  0.62152000  0.74880000  1.0
  H  H6  1  0.01428000  0.37854000  0.25127000  1.0
  H  H7  1  0.49108000  0.53245000  0.78513000  1.0
  H  H8  1  0.50895000  0.46755000  0.21489000  1.0
  H  H9  1  0.42325000  0.42471000  0.92733000  1.0
  H  H10  1  0.57672000  0.57536000  0.07267000  1.0
  H  H11  1  0.79202000  0.09283000  0.66729000  1.0
  H  H12  1  0.20796000  0.90727000  0.33278000  1.0
  H  H13  1  0.71826000  0.00688000  0.81519000  1.0
  H  H14  1  0.28176000  0.99322000  0.18484000  1.0
  H  H15  1  0.67246000  0.84627000  0.65085000  1.0
  H  H16  1  0.32756000  0.15353000  0.34908000  1.0
  H  H17  1  0.58274000  0.66862000  0.57045000  1.0
  H  H18  1  0.41731000  0.33130000  0.42954000  1.0
  H  H19  1  0.37456000  0.55350000  0.50419000  1.0
  H  H20  1  0.62559000  0.44634000  0.49578000  1.0
  H  H21  1  0.10613000  0.68680000  0.51681000  1.0
  H  H22  1  0.89394000  0.31297000  0.48315000  1.0
  H  H23  1  0.04814000  0.93430000  0.59215000  1.0
  H  H24  1  0.95191000  0.06550000  0.40782000  1.0
  H  H25  1  0.20124000  0.63709000  0.89545000  1.0
  H  H26  1  0.79875000  0.36310000  0.10476000  1.0
  H  H27  1  0.09381000  0.81092000  0.17708000  1.0
  H  H28  1  0.90621000  0.18903000  0.82285000  1.0
  H  H29  1  0.92758000  0.89677000  0.23752000  1.0
  H  H30  1  0.07242000  0.10315000  0.76242000  1.0
  H  H31  1  0.69415000  0.98811000  0.11171000  1.0
  H  H32  1  0.30590000  0.01196000  0.88826000  1.0
  H  H33  1  0.74507000  0.90168000  0.99585000  1.0
  H  H34  1  0.25499000  0.09834000  0.00412000  1.0
  C  C35  1  0.93044000  0.72629000  0.90932000  1.0
  C  C36  1  0.06949000  0.27384000  0.09075000  1.0
  C  C37  1  0.99908000  0.59238000  0.84317000  1.0
  C  C38  1  0.00097000  0.40778000  0.15692000  1.0
  C  C39  1  0.26057000  0.45215000  0.80712000  1.0
  C  C40  1  0.73940000  0.54809000  0.19291000  1.0
  C  C41  1  0.42820000  0.43234000  0.82980000  1.0
  C  C42  1  0.57175000  0.56771000  0.17021000  1.0
  C  C43  1  0.64906000  0.24411000  0.78242000  1.0
  C  C44  1  0.35076000  0.75588000  0.21756000  1.0
  C  C45  1  0.68750000  0.08934000  0.74040000  1.0
  C  C46  1  0.31242000  0.91066000  0.25962000  1.0
  C  C47  1  0.56170000  0.91937000  0.65752000  1.0
  C  C48  1  0.43833000  0.08049000  0.34247000  1.0
  C  C49  1  0.43481000  0.86558000  0.61823000  1.0
  C  C50  1  0.56520000  0.13428000  0.38178000  1.0
  C  C51  1  0.46453000  0.72563000  0.57431000  1.0
  C  C52  1  0.53550000  0.27423000  0.42570000  1.0
  C  C53  1  0.34940000  0.66125000  0.53753000  1.0
  C  C54  1  0.65068000  0.33857000  0.46247000  1.0
  C  C55  1  0.19816000  0.73676000  0.54499000  1.0
  C  C56  1  0.80189000  0.26301000  0.45500000  1.0
  C  C57  1  0.16519000  0.87497000  0.58603000  1.0
  C  C58  1  0.83485000  0.12480000  0.41396000  1.0
  C  C59  1  0.28173000  0.94536000  0.62167000  1.0
  C  C60  1  0.71828000  0.05448000  0.37830000  1.0
  N  N61  1  0.16428000  0.56256000  0.85097000  1.0
  N  N62  1  0.83575000  0.43766000  0.14918000  1.0
  N  N63  1  0.49964000  0.29611000  0.78462000  1.0
  N  N64  1  0.50017000  0.70389000  0.21535000  1.0
  N  N65  1  0.55414000  0.04395000  0.70075000  1.0
  N  N66  1  0.44584000  0.95593000  0.29924000  1.0
  O  O67  1  0.02119000  0.90626000  0.17170000  1.0
  O  O68  1  0.97891000  0.09380000  0.82832000  1.0
  O  O69  1  0.74924000  0.99980000  0.02785000  1.0
  O  O70  1  0.25081000  0.00026000  0.97212000  1.0
  O  O71  1  0.03140000  0.79105000  0.94484000  1.0
  O  O72  1  0.96845000  0.20910000  0.05527000  1.0
  O  O73  1  0.78363000  0.76120000  0.92244000  1.0
  O  O74  1  0.21628000  0.23886000  0.07760000  1.0
  O  O75  1  0.21406000  0.36347000  0.74885000  1.0
  O  O76  1  0.78586000  0.63695000  0.25104000  1.0
  O  O77  1  0.75238000  0.30936000  0.81218000  1.0
  O  O78  1  0.24745000  0.69064000  0.18778000  1.0
  O  O79  1  0.24306000  0.08001000  0.65479000  1.0
  O  O80  1  0.75692000  0.91990000  0.34506000  1.0
