# generated using pymatgen
data_NiH8C6N2O5
_symmetry_space_group_name_H-M   'P 1'
_cell_length_a   7.02892000
_cell_length_b   7.76856000
_cell_length_c   15.34380000
_cell_angle_alpha   81.04460000
_cell_angle_beta   89.93310000
_cell_angle_gamma   89.17310000
_symmetry_Int_Tables_number   1
_chemical_formula_structural   NiH8C6N2O5
_chemical_formula_sum   'Ni4 H32 C24 N8 O20'
_cell_volume   827.54172494
_cell_formula_units_Z   4
loop_
 _symmetry_equiv_pos_site_id
 _symmetry_equiv_pos_as_xyz
  1  'x, y, z'
loop_
 _atom_site_type_symbol
 _atom_site_label
 _atom_site_symmetry_multiplicity
 _atom_site_fract_x
 _atom_site_fract_y
 _atom_site_fract_z
 _atom_site_occupancy
  Ni  Ni0  1  0.25553000  0.29696000  0.35478000  1.0
  Ni  Ni1  1  0.75833000  0.70122000  0.14607000  1.0
  Ni  Ni2  1  0.74325000  0.70126000  0.64501000  1.0
  Ni  Ni3  1  0.24375000  0.29878000  0.85472000  1.0
  H  H4  1  0.08173000  0.18874000  0.53556000  1.0
  H  H5  1  0.58059000  0.80567000  0.96227000  1.0
  H  H6  1  0.92430000  0.80620000  0.46169000  1.0
  H  H7  1  0.42179000  0.19330000  0.03916000  1.0
  H  H8  1  0.10438000  0.64928000  0.35599000  1.0
  H  H9  1  0.60096000  0.34968000  0.14484000  1.0
  H  H10  1  0.90299000  0.34658000  0.64174000  1.0
  H  H11  1  0.40159000  0.64974000  0.85672000  1.0
  H  H12  1  0.27976000  0.92051000  0.39005000  1.0
  H  H13  1  0.78106000  0.08250000  0.10896000  1.0
  H  H14  1  0.71490000  0.08448000  0.60769000  1.0
  H  H15  1  0.22082000  0.91665000  0.89111000  1.0
  H  H16  1  0.51614000  0.31162000  0.51041000  1.0
  H  H17  1  0.02112000  0.69160000  0.98582000  1.0
  H  H18  1  0.48186000  0.69440000  0.48557000  1.0
  H  H19  1  0.98059000  0.30759000  0.01403000  1.0
  H  H20  1  0.81547000  0.28683000  0.34368000  1.0
  H  H21  1  0.32825000  0.70846000  0.15964000  1.0
  H  H22  1  0.17281000  0.70509000  0.65842000  1.0
  H  H23  1  0.67195000  0.29307000  0.84195000  1.0
  H  H24  1  0.14909000  0.30942000  0.16396000  1.0
  H  H25  1  0.64914000  0.69893000  0.33512000  1.0
  H  H26  1  0.85102000  0.68599000  0.83754000  1.0
  H  H27  1  0.35578000  0.31625000  0.66126000  1.0
  H  H28  1  0.33038000  0.09976000  0.23572000  1.0
  H  H29  1  0.83379000  0.90199000  0.26557000  1.0
  H  H30  1  0.66202000  0.90230000  0.76583000  1.0
  H  H31  1  0.16382000  0.09855000  0.73292000  1.0
  H  H32  1  0.52680000  0.14599000  0.28113000  1.0
  H  H33  1  0.03101000  0.85805000  0.21985000  1.0
  H  H34  1  0.46779000  0.85630000  0.71927000  1.0
  H  H35  1  0.97049000  0.14559000  0.78022000  1.0
  C  C36  1  0.04752000  0.32714000  0.51891000  1.0
  C  C37  1  0.54533000  0.66841000  0.97972000  1.0
  C  C38  1  0.95907000  0.66776000  0.47869000  1.0
  C  C39  1  0.45673000  0.33066000  0.02179000  1.0
  C  C40  1  0.06297000  0.58263000  0.42062000  1.0
  C  C41  1  0.55942000  0.41512000  0.07962000  1.0
  C  C42  1  0.94423000  0.41293000  0.57692000  1.0
  C  C43  1  0.44248000  0.58403000  0.92197000  1.0
  C  C44  1  0.37792000  0.95616000  0.43877000  1.0
  C  C45  1  0.87946000  0.04666000  0.05975000  1.0
  C  C46  1  0.61766000  0.04901000  0.55846000  1.0
  C  C47  1  0.12240000  0.95244000  0.94031000  1.0
  C  C48  1  0.50735000  0.17346000  0.50551000  1.0
  C  C49  1  0.01186000  0.82944000  0.99207000  1.0
  C  C50  1  0.48918000  0.83233000  0.49157000  1.0
  C  C51  1  0.98995000  0.16964000  0.00799000  1.0
  C  C52  1  0.85594000  0.15095000  0.33710000  1.0
  C  C53  1  0.36879000  0.84358000  0.16534000  1.0
  C  C54  1  0.13010000  0.84070000  0.66381000  1.0
  C  C55  1  0.63236000  0.15814000  0.83552000  1.0
  C  C56  1  0.08027000  0.42563000  0.18474000  1.0
  C  C57  1  0.58536000  0.57813000  0.31848000  1.0
  C  C58  1  0.92093000  0.56959000  0.81720000  1.0
  C  C59  1  0.42279000  0.43155000  0.68249000  1.0
  N  N60  1  0.10751000  0.41183000  0.44069000  1.0
  N  N61  1  0.60420000  0.58429000  0.05850000  1.0
  N  N62  1  0.89937000  0.58347000  0.55690000  1.0
  N  N63  1  0.39804000  0.41476000  0.94298000  1.0
  N  N64  1  0.38697000  0.12677000  0.44536000  1.0
  N  N65  1  0.88993000  0.87655000  0.05206000  1.0
  N  N66  1  0.60947000  0.87861000  0.55168000  1.0
  N  N67  1  0.11190000  0.12252000  0.94801000  1.0
  O  O68  1  0.02410000  0.09844000  0.35499000  1.0
  O  O69  1  0.54006000  0.88807000  0.15025000  1.0
  O  O70  1  0.95715000  0.88612000  0.65028000  1.0
  O  O71  1  0.46054000  0.11327000  0.84925000  1.0
  O  O72  1  0.72652000  0.05797000  0.31022000  1.0
  O  O73  1  0.23923000  0.94406000  0.18760000  1.0
  O  O74  1  0.25842000  0.94094000  0.68427000  1.0
  O  O75  1  0.76249000  0.05813000  0.81365000  1.0
  O  O76  1  0.12000000  0.46064000  0.26068000  1.0
  O  O77  1  0.62817000  0.53442000  0.24435000  1.0
  O  O78  1  0.87941000  0.53134000  0.74249000  1.0
  O  O79  1  0.37812000  0.46855000  0.75733000  1.0
  O  O80  1  0.96897000  0.51308000  0.12912000  1.0
  O  O81  1  0.47697000  0.49587000  0.37575000  1.0
  O  O82  1  0.03591000  0.48647000  0.87297000  1.0
  O  O83  1  0.53725000  0.51445000  0.62760000  1.0
  O  O84  1  0.39585000  0.19430000  0.26185000  1.0
  O  O85  1  0.90441000  0.80856000  0.23967000  1.0
  O  O86  1  0.59612000  0.80834000  0.73994000  1.0
  O  O87  1  0.09785000  0.19278000  0.75994000  1.0
