# generated using pymatgen
data_CdH24C26(N2O3)2
_symmetry_space_group_name_H-M   'P 1'
_cell_length_a   12.41080000
_cell_length_b   13.10440000
_cell_length_c   16.19020000
_cell_angle_alpha   89.99970000
_cell_angle_beta   89.99990000
_cell_angle_gamma   82.76490000
_symmetry_Int_Tables_number   1
_chemical_formula_structural   CdH24C26(N2O3)2
_chemical_formula_sum   'Cd4 H96 C104 N16 O24'
_cell_volume   2612.14525747
_cell_formula_units_Z   4
loop_
 _symmetry_equiv_pos_site_id
 _symmetry_equiv_pos_as_xyz
  1  'x, y, z'
loop_
 _atom_site_type_symbol
 _atom_site_label
 _atom_site_symmetry_multiplicity
 _atom_site_fract_x
 _atom_site_fract_y
 _atom_site_fract_z
 _atom_site_occupancy
  Cd  Cd0  1  0.97793000  0.36385000  0.45540000  1.0
  Cd  Cd1  1  0.02206000  0.13615000  0.95540000  1.0
  Cd  Cd2  1  0.02207000  0.63615000  0.54460000  1.0
  Cd  Cd3  1  0.97794000  0.86385000  0.04460000  1.0
  H  H4  1  0.70186000  0.34108000  0.83100000  1.0
  H  H5  1  0.29814000  0.15892000  0.33100000  1.0
  H  H6  1  0.29814000  0.65892000  0.16900000  1.0
  H  H7  1  0.70186000  0.84108000  0.66900000  1.0
  H  H8  1  0.21002000  0.42452000  0.06726000  1.0
  H  H9  1  0.78999000  0.07549000  0.56725000  1.0
  H  H10  1  0.78999000  0.57548000  0.93274000  1.0
  H  H11  1  0.21001000  0.92452000  0.43274000  1.0
  H  H12  1  0.73195000  0.38847000  0.49915000  1.0
  H  H13  1  0.26804000  0.11152000  0.99915000  1.0
  H  H14  1  0.26805000  0.61152000  0.50085000  1.0
  H  H15  1  0.73195000  0.88847000  0.00085000  1.0
  H  H16  1  0.60168000  0.40508000  0.61879000  1.0
  H  H17  1  0.39832000  0.09491000  0.11879000  1.0
  H  H18  1  0.39832000  0.59492000  0.38121000  1.0
  H  H19  1  0.60167000  0.90507000  0.88121000  1.0
  H  H20  1  0.99507000  0.31491000  0.65386000  1.0
  H  H21  1  0.00493000  0.18510000  0.15386000  1.0
  H  H22  1  0.00493000  0.68509000  0.34614000  1.0
  H  H23  1  0.99507000  0.81491000  0.84614000  1.0
  H  H24  1  0.94170000  0.41968000  0.26570000  1.0
  H  H25  1  0.05831000  0.08032000  0.76570000  1.0
  H  H26  1  0.05829000  0.58032000  0.73429000  1.0
  H  H27  1  0.94170000  0.91969000  0.23429000  1.0
  H  H28  1  0.04150000  0.43150000  0.13348000  1.0
  H  H29  1  0.95851000  0.06851000  0.63348000  1.0
  H  H30  1  0.95850000  0.56850000  0.86652000  1.0
  H  H31  1  0.04150000  0.93150000  0.36652000  1.0
  H  H32  1  0.34032000  0.38482000  0.27433000  1.0
  H  H33  1  0.65969000  0.11518000  0.77432000  1.0
  H  H34  1  0.65968000  0.61518000  0.72567000  1.0
  H  H35  1  0.34032000  0.88482000  0.22568000  1.0
  H  H36  1  0.22594000  0.38099000  0.40108000  1.0
  H  H37  1  0.77406000  0.11900000  0.90108000  1.0
  H  H38  1  0.77405000  0.61901000  0.59892000  1.0
  H  H39  1  0.22595000  0.88100000  0.09892000  1.0
  H  H40  1  0.88043000  0.32684000  0.77896000  1.0
  H  H41  1  0.11956000  0.17317000  0.27897000  1.0
  H  H42  1  0.11956000  0.67317000  0.22104000  1.0
  H  H43  1  0.88043000  0.82683000  0.72104000  1.0
  H  H44  1  0.39340000  0.53396000  0.85125000  1.0
  H  H45  1  0.60660000  0.96603000  0.35126000  1.0
  H  H46  1  0.60660000  0.46603000  0.14875000  1.0
  H  H47  1  0.39340000  0.03397000  0.64874000  1.0
  H  H48  1  0.60390000  0.25245000  0.89752000  1.0
  H  H49  1  0.39611000  0.24755000  0.39752000  1.0
  H  H50  1  0.39610000  0.74755000  0.10248000  1.0
  H  H51  1  0.60389000  0.75246000  0.60249000  1.0
  H  H52  1  0.51611000  0.23703000  0.03379000  1.0
  H  H53  1  0.48390000  0.26296000  0.53379000  1.0
  H  H54  1  0.48390000  0.76296000  0.96621000  1.0
  H  H55  1  0.51610000  0.73704000  0.46622000  1.0
  H  H56  1  0.30338000  0.51728000  0.98659000  1.0
  H  H57  1  0.69662000  0.98271000  0.48659000  1.0
  H  H58  1  0.69662000  0.48271000  0.01341000  1.0
  H  H59  1  0.30337000  0.01729000  0.51341000  1.0
  H  H60  1  0.29478000  0.28888000  0.81335000  1.0
  H  H61  1  0.70521000  0.21112000  0.31335000  1.0
  H  H62  1  0.70521000  0.71112000  0.18665000  1.0
  H  H63  1  0.29479000  0.78888000  0.68665000  1.0
  H  H64  1  0.26031000  0.13836000  0.73375000  1.0
  H  H65  1  0.73968000  0.36164000  0.23375000  1.0
  H  H66  1  0.73969000  0.86165000  0.26625000  1.0
  H  H67  1  0.26032000  0.63836000  0.76625000  1.0
  H  H68  1  0.14729000  0.20795000  0.68370000  1.0
  H  H69  1  0.85270000  0.29205000  0.18369000  1.0
  H  H70  1  0.85270000  0.79205000  0.31631000  1.0
  H  H71  1  0.14730000  0.70795000  0.81631000  1.0
  H  H72  1  0.09168000  0.40192000  0.73170000  1.0
  H  H73  1  0.90832000  0.09808000  0.23170000  1.0
  H  H74  1  0.90832000  0.59808000  0.26830000  1.0
  H  H75  1  0.09168000  0.90192000  0.76830000  1.0
  H  H76  1  0.17176000  0.45304000  0.80670000  1.0
  H  H77  1  0.82824000  0.04697000  0.30670000  1.0
  H  H78  1  0.82824000  0.54697000  0.19330000  1.0
  H  H79  1  0.17177000  0.95304000  0.69330000  1.0
  H  H80  1  0.30664000  0.19646000  0.59143000  1.0
  H  H81  1  0.69335000  0.30353000  0.09143000  1.0
  H  H82  1  0.69336000  0.80353000  0.40857000  1.0
  H  H83  1  0.30665000  0.69647000  0.90857000  1.0
  H  H84  1  0.38417000  0.24932000  0.66863000  1.0
  H  H85  1  0.61582000  0.25068000  0.16863000  1.0
  H  H86  1  0.61582000  0.75068000  0.33137000  1.0
  H  H87  1  0.38418000  0.74932000  0.83137000  1.0
  H  H88  1  0.32342000  0.38485000  0.57155000  1.0
  H  H89  1  0.67657000  0.11514000  0.07155000  1.0
  H  H90  1  0.67657000  0.61515000  0.42845000  1.0
  H  H91  1  0.32343000  0.88485000  0.92845000  1.0
  H  H92  1  0.32968000  0.44036000  0.71134000  1.0
  H  H93  1  0.67032000  0.05964000  0.21134000  1.0
  H  H94  1  0.67032000  0.55964000  0.28866000  1.0
  H  H95  1  0.32968000  0.94036000  0.78866000  1.0
  H  H96  1  0.21682000  0.51176000  0.66408000  1.0
  H  H97  1  0.78318000  0.98824000  0.16408000  1.0
  H  H98  1  0.78318000  0.48824000  0.33592000  1.0
  H  H99  1  0.21683000  0.01176000  0.83592000  1.0
  C  C100  1  0.76006000  0.37631000  0.56267000  1.0
  C  C101  1  0.23993000  0.12369000  0.06267000  1.0
  C  C102  1  0.23994000  0.62369000  0.43733000  1.0
  C  C103  1  0.76006000  0.87631000  0.93733000  1.0
  C  C104  1  0.68816000  0.38462000  0.62859000  1.0
  C  C105  1  0.31184000  0.11538000  0.12860000  1.0
  C  C106  1  0.31184000  0.61538000  0.37141000  1.0
  C  C107  1  0.68816000  0.88462000  0.87141000  1.0
  C  C108  1  0.73000000  0.36642000  0.70866000  1.0
  C  C109  1  0.27000000  0.13358000  0.20867000  1.0
  C  C110  1  0.27000000  0.63359000  0.29133000  1.0
  C  C111  1  0.72999000  0.86641000  0.79134000  1.0
  C  C112  1  0.90749000  0.33480000  0.64855000  1.0
  C  C113  1  0.09250000  0.16521000  0.14855000  1.0
  C  C114  1  0.09251000  0.66521000  0.35145000  1.0
  C  C115  1  0.90749000  0.83479000  0.85145000  1.0
  C  C116  1  0.02996000  0.41333000  0.26495000  1.0
  C  C117  1  0.97005000  0.08667000  0.76495000  1.0
  C  C118  1  0.97004000  0.58667000  0.73504000  1.0
  C  C119  1  0.02996000  0.91333000  0.23504000  1.0
  C  C120  1  0.08609000  0.41893000  0.19140000  1.0
  C  C121  1  0.91392000  0.08107000  0.69140000  1.0
  C  C122  1  0.91391000  0.58106000  0.80859000  1.0
  C  C123  1  0.08608000  0.91894000  0.30860000  1.0
  C  C124  1  0.20002000  0.40547000  0.19286000  1.0
  C  C125  1  0.79999000  0.09453000  0.69285000  1.0
  C  C126  1  0.79998000  0.59453000  0.80714000  1.0
  C  C127  1  0.20001000  0.90547000  0.30714000  1.0
  C  C128  1  0.25237000  0.39249000  0.26983000  1.0
  C  C129  1  0.74764000  0.10750000  0.76983000  1.0
  C  C130  1  0.74763000  0.60751000  0.73016000  1.0
  C  C131  1  0.25237000  0.89249000  0.23017000  1.0
  C  C132  1  0.18862000  0.39021000  0.34010000  1.0
  C  C133  1  0.81138000  0.10978000  0.84010000  1.0
  C  C134  1  0.81137000  0.60979000  0.65990000  1.0
  C  C135  1  0.18863000  0.89022000  0.15990000  1.0
  C  C136  1  0.84254000  0.34118000  0.71843000  1.0
  C  C137  1  0.15746000  0.15882000  0.21844000  1.0
  C  C138  1  0.15746000  0.65882000  0.28156000  1.0
  C  C139  1  0.84254000  0.84118000  0.78157000  1.0
  C  C140  1  0.55772000  0.41407000  0.78544000  1.0
  C  C141  1  0.44228000  0.08593000  0.28544000  1.0
  C  C142  1  0.44228000  0.58593000  0.21456000  1.0
  C  C143  1  0.55772000  0.91408000  0.71456000  1.0
  C  C144  1  0.50532000  0.39640000  0.86639000  1.0
  C  C145  1  0.49467000  0.10359000  0.36640000  1.0
  C  C146  1  0.49468000  0.60360000  0.13360000  1.0
  C  C147  1  0.50532000  0.89641000  0.63361000  1.0
  C  C148  1  0.41827000  0.46846000  0.89126000  1.0
  C  C149  1  0.58173000  0.03154000  0.39127000  1.0
  C  C150  1  0.58173000  0.53154000  0.10874000  1.0
  C  C151  1  0.41827000  0.96847000  0.60874000  1.0
  C  C152  1  0.53920000  0.31157000  0.91717000  1.0
  C  C153  1  0.46081000  0.18843000  0.41717000  1.0
  C  C154  1  0.46080000  0.68843000  0.08283000  1.0
  C  C155  1  0.53919000  0.81158000  0.58283000  1.0
  C  C156  1  0.36296000  0.36441000  0.10464000  1.0
  C  C157  1  0.63705000  0.13559000  0.60464000  1.0
  C  C158  1  0.63704000  0.63558000  0.89536000  1.0
  C  C159  1  0.36296000  0.86441000  0.39536000  1.0
  C  C160  1  0.40404000  0.37468000  0.01879000  1.0
  C  C161  1  0.59596000  0.12531000  0.51879000  1.0
  C  C162  1  0.59596000  0.62531000  0.98121000  1.0
  C  C163  1  0.40404000  0.87469000  0.48121000  1.0
  C  C164  1  0.48918000  0.30112000  0.99288000  1.0
  C  C165  1  0.51082000  0.19887000  0.49288000  1.0
  C  C166  1  0.51082000  0.69887000  0.00712000  1.0
  C  C167  1  0.48918000  0.80113000  0.50712000  1.0
  C  C168  1  0.36773000  0.45772000  0.96690000  1.0
  C  C169  1  0.63227000  0.04227000  0.46690000  1.0
  C  C170  1  0.63227000  0.54227000  0.03310000  1.0
  C  C171  1  0.36773000  0.95773000  0.53310000  1.0
  C  C172  1  0.13885000  0.25246000  0.84836000  1.0
  C  C173  1  0.86115000  0.24755000  0.34836000  1.0
  C  C174  1  0.86115000  0.74755000  0.15164000  1.0
  C  C175  1  0.13885000  0.75246000  0.65164000  1.0
  C  C176  1  0.21422000  0.29083000  0.78393000  1.0
  C  C177  1  0.78578000  0.20917000  0.28393000  1.0
  C  C178  1  0.78578000  0.70917000  0.21607000  1.0
  C  C179  1  0.21422000  0.79083000  0.71607000  1.0
  C  C180  1  0.22771000  0.21494000  0.71070000  1.0
  C  C181  1  0.77229000  0.28506000  0.21070000  1.0
  C  C182  1  0.77229000  0.78506000  0.28930000  1.0
  C  C183  1  0.22772000  0.71494000  0.78930000  1.0
  C  C184  1  0.17573000  0.39957000  0.75395000  1.0
  C  C185  1  0.82427000  0.10042000  0.25395000  1.0
  C  C186  1  0.82427000  0.60042000  0.24605000  1.0
  C  C187  1  0.17573000  0.89958000  0.74605000  1.0
  C  C188  1  0.30157000  0.25027000  0.64372000  1.0
  C  C189  1  0.69843000  0.24973000  0.14372000  1.0
  C  C190  1  0.69843000  0.74973000  0.35628000  1.0
  C  C191  1  0.30157000  0.75027000  0.85628000  1.0
  C  C192  1  0.15990000  0.36301000  0.55862000  1.0
  C  C193  1  0.84010000  0.13698000  0.05862000  1.0
  C  C194  1  0.84010000  0.63699000  0.44138000  1.0
  C  C195  1  0.15990000  0.86302000  0.94139000  1.0
  C  C196  1  0.26137000  0.35928000  0.61326000  1.0
  C  C197  1  0.73863000  0.14072000  0.11326000  1.0
  C  C198  1  0.73863000  0.64072000  0.38674000  1.0
  C  C199  1  0.26137000  0.85928000  0.88674000  1.0
  C  C200  1  0.24831000  0.43468000  0.68613000  1.0
  C  C201  1  0.75169000  0.06532000  0.18613000  1.0
  C  C202  1  0.75169000  0.56532000  0.31387000  1.0
  C  C203  1  0.24831000  0.93468000  0.81387000  1.0
  N  N204  1  0.86811000  0.35196000  0.57185000  1.0
  N  N205  1  0.13189000  0.14804000  0.07185000  1.0
  N  N206  1  0.13189000  0.64803000  0.42815000  1.0
  N  N207  1  0.86811000  0.85196000  0.92815000  1.0
  N  N208  1  0.66477000  0.37043000  0.77871000  1.0
  N  N209  1  0.33523000  0.12957000  0.27872000  1.0
  N  N210  1  0.33523000  0.62958000  0.22128000  1.0
  N  N211  1  0.66476000  0.87043000  0.72128000  1.0
  N  N212  1  0.07966000  0.39850000  0.33854000  1.0
  N  N213  1  0.92034000  0.10150000  0.83853000  1.0
  N  N214  1  0.92033000  0.60150000  0.66146000  1.0
  N  N215  1  0.07967000  0.89850000  0.16146000  1.0
  N  N216  1  0.25619000  0.40609000  0.11826000  1.0
  N  N217  1  0.74383000  0.09391000  0.61826000  1.0
  N  N218  1  0.74382000  0.59391000  0.88174000  1.0
  N  N219  1  0.25618000  0.90609000  0.38174000  1.0
  O  O220  1  0.42162000  0.32206000  0.15932000  1.0
  O  O221  1  0.57839000  0.17794000  0.65932000  1.0
  O  O222  1  0.57838000  0.67794000  0.84068000  1.0
  O  O223  1  0.42162000  0.82205000  0.34068000  1.0
  O  O224  1  0.50924000  0.46559000  0.73000000  1.0
  O  O225  1  0.49076000  0.03442000  0.23000000  1.0
  O  O226  1  0.49076000  0.53441000  0.27000000  1.0
  O  O227  1  0.50924000  0.96559000  0.77000000  1.0
  O  O228  1  0.09973000  0.44861000  0.54717000  1.0
  O  O229  1  0.90026000  0.05138000  0.04716000  1.0
  O  O230  1  0.90026000  0.55138000  0.45283000  1.0
  O  O231  1  0.09974000  0.94862000  0.95283000  1.0
  O  O232  1  0.17439000  0.16630000  0.88299000  1.0
  O  O233  1  0.82561000  0.33370000  0.38299000  1.0
  O  O234  1  0.82561000  0.83370000  0.11701000  1.0
  O  O235  1  0.17439000  0.66630000  0.61701000  1.0
  O  O236  1  0.04631000  0.30099000  0.86393000  1.0
  O  O237  1  0.95369000  0.19901000  0.36393000  1.0
  O  O238  1  0.95369000  0.69901000  0.13607000  1.0
  O  O239  1  0.04631000  0.80099000  0.63607000  1.0
  O  O240  1  0.13919000  0.28098000  0.52259000  1.0
  O  O241  1  0.86080000  0.21902000  0.02259000  1.0
  O  O242  1  0.86081000  0.71902000  0.47741000  1.0
  O  O243  1  0.13920000  0.78098000  0.97741000  1.0
