# generated using pymatgen
data_CdHC2SN3
_symmetry_space_group_name_H-M   'P 1'
_cell_length_a   6.02575000
_cell_length_b   6.70051000
_cell_length_c   11.38260000
_cell_angle_alpha   90.00040000
_cell_angle_beta   90.00000000
_cell_angle_gamma   112.44900000
_symmetry_Int_Tables_number   1
_chemical_formula_structural   CdHC2SN3
_chemical_formula_sum   'Cd4 H4 C8 S4 N12'
_cell_volume   424.75227322
_cell_formula_units_Z   4
loop_
 _symmetry_equiv_pos_site_id
 _symmetry_equiv_pos_as_xyz
  1  'x, y, z'
loop_
 _atom_site_type_symbol
 _atom_site_label
 _atom_site_symmetry_multiplicity
 _atom_site_fract_x
 _atom_site_fract_y
 _atom_site_fract_z
 _atom_site_occupancy
  Cd  Cd0  1  0.25175000  0.74488000  0.38920000  1.0
  Cd  Cd1  1  0.74825000  0.75512000  0.88920000  1.0
  Cd  Cd2  1  0.74825000  0.25513000  0.61080000  1.0
  Cd  Cd3  1  0.25175000  0.24488000  0.11080000  1.0
  H  H4  1  0.84817000  0.53989000  0.16065000  1.0
  H  H5  1  0.15182000  0.96010000  0.66064000  1.0
  H  H6  1  0.15181000  0.46009000  0.83936000  1.0
  H  H7  1  0.84818000  0.03989000  0.33936000  1.0
  C  C8  1  0.76421000  0.46802000  0.24270000  1.0
  C  C9  1  0.23579000  0.03197000  0.74271000  1.0
  C  C10  1  0.23578000  0.53197000  0.75729000  1.0
  C  C11  1  0.76421000  0.96803000  0.25730000  1.0
  C  C12  1  0.50818000  0.28133000  0.37123000  1.0
  C  C13  1  0.49183000  0.21868000  0.87123000  1.0
  C  C14  1  0.49183000  0.71869000  0.62877000  1.0
  C  C15  1  0.50818000  0.78132000  0.12877000  1.0
  S  S16  1  0.25233000  0.11556000  0.44258000  1.0
  S  S17  1  0.74768000  0.38445000  0.94258000  1.0
  S  S18  1  0.74767000  0.88446000  0.55742000  1.0
  S  S19  1  0.25232000  0.61555000  0.05742000  1.0
  N  N20  1  0.71798000  0.38178000  0.42730000  1.0
  N  N21  1  0.28203000  0.11822000  0.92730000  1.0
  N  N22  1  0.28203000  0.61823000  0.57271000  1.0
  N  N23  1  0.71797000  0.88178000  0.07270000  1.0
  N  N24  1  0.53206000  0.33240000  0.25422000  1.0
  N  N25  1  0.46794000  0.16760000  0.75422000  1.0
  N  N26  1  0.46793000  0.66759000  0.74576000  1.0
  N  N27  1  0.53206000  0.83240000  0.24578000  1.0
  N  N28  1  0.88157000  0.50054000  0.34447000  1.0
  N  N29  1  0.11844000  0.99946000  0.84447000  1.0
  N  N30  1  0.11843000  0.49945000  0.65553000  1.0
  N  N31  1  0.88157000  0.00053000  0.15553000  1.0
