# generated using pymatgen
data_TbH9C10NO7
_symmetry_space_group_name_H-M   'P 1'
_cell_length_a   9.23496000
_cell_length_b   9.54311000
_cell_length_c   14.24170000
_cell_angle_alpha   89.99990000
_cell_angle_beta   89.99990000
_cell_angle_gamma   83.01060000
_symmetry_Int_Tables_number   1
_chemical_formula_structural   TbH9C10NO7
_chemical_formula_sum   'Tb4 H36 C40 N4 O28'
_cell_volume   1245.79719666
_cell_formula_units_Z   4
loop_
 _symmetry_equiv_pos_site_id
 _symmetry_equiv_pos_as_xyz
  1  'x, y, z'
loop_
 _atom_site_type_symbol
 _atom_site_label
 _atom_site_symmetry_multiplicity
 _atom_site_fract_x
 _atom_site_fract_y
 _atom_site_fract_z
 _atom_site_occupancy
  Tb  Tb0  1  0.38002000  0.01693000  0.11415000  1.0
  Tb  Tb1  1  0.61998000  0.48307000  0.61415000  1.0
  Tb  Tb2  1  0.61998000  0.98307000  0.88586000  1.0
  Tb  Tb3  1  0.38002000  0.51693000  0.38586000  1.0
  H  H4  1  0.25179000  0.41795000  0.91239000  1.0
  H  H5  1  0.74821000  0.08205000  0.41239000  1.0
  H  H6  1  0.74821000  0.58205000  0.08761000  1.0
  H  H7  1  0.25179000  0.91795000  0.58761000  1.0
  H  H8  1  0.43087000  0.37053000  0.86698000  1.0
  H  H9  1  0.56913000  0.12947000  0.36698000  1.0
  H  H10  1  0.56913000  0.62947000  0.13302000  1.0
  H  H11  1  0.43087000  0.87053000  0.63302000  1.0
  H  H12  1  0.35229000  0.53265000  0.05070000  1.0
  H  H13  1  0.64771000  0.96735000  0.55070000  1.0
  H  H14  1  0.64771000  0.46735000  0.94930000  1.0
  H  H15  1  0.35229000  0.03265000  0.44930000  1.0
  H  H16  1  0.39852000  0.61194000  0.94527000  1.0
  H  H17  1  0.60148000  0.88806000  0.44527000  1.0
  H  H18  1  0.60148000  0.38806000  0.05473000  1.0
  H  H19  1  0.39852000  0.11194000  0.55473000  1.0
  H  H20  1  0.02042000  0.00373000  0.06632000  1.0
  H  H21  1  0.97958000  0.49627000  0.56632000  1.0
  H  H22  1  0.97959000  0.99627000  0.93368000  1.0
  H  H23  1  0.02041000  0.50373000  0.43368000  1.0
  H  H24  1  0.96076000  0.31062000  0.34331000  1.0
  H  H25  1  0.03924000  0.18938000  0.84331000  1.0
  H  H26  1  0.03924000  0.68938000  0.65668000  1.0
  H  H27  1  0.96077000  0.81062000  0.15668000  1.0
  H  H28  1  0.73438000  0.25516000  0.25752000  1.0
  H  H29  1  0.26562000  0.24484000  0.75752000  1.0
  H  H30  1  0.26562000  0.74484000  0.74247000  1.0
  H  H31  1  0.73438000  0.75516000  0.24247000  1.0
  H  H32  1  0.47138000  0.78759000  0.25240000  1.0
  H  H33  1  0.52862000  0.71241000  0.75240000  1.0
  H  H34  1  0.52861000  0.21241000  0.74760000  1.0
  H  H35  1  0.47138000  0.28759000  0.24760000  1.0
  H  H36  1  0.49213000  0.93168000  0.30231000  1.0
  H  H37  1  0.50787000  0.56832000  0.80231000  1.0
  H  H38  1  0.50787000  0.06832000  0.69769000  1.0
  H  H39  1  0.49213000  0.43168000  0.19769000  1.0
  C  C40  1  0.38018000  0.25939000  0.99065000  1.0
  C  C41  1  0.61982000  0.24061000  0.49065000  1.0
  C  C42  1  0.61982000  0.74061000  0.00935000  1.0
  C  C43  1  0.38018000  0.75939000  0.50935000  1.0
  C  C44  1  0.36733000  0.39174000  0.93160000  1.0
  C  C45  1  0.63267000  0.10826000  0.43160000  1.0
  C  C46  1  0.63267000  0.60826000  0.06840000  1.0
  C  C47  1  0.36733000  0.89175000  0.56840000  1.0
  C  C48  1  0.41914000  0.51416000  0.98689000  1.0
  C  C49  1  0.58086000  0.98584000  0.48689000  1.0
  C  C50  1  0.58086000  0.48583000  0.01311000  1.0
  C  C51  1  0.41914000  0.01416000  0.51311000  1.0
  C  C52  1  0.73133000  0.08454000  0.09995000  1.0
  C  C53  1  0.26867000  0.41546000  0.59995000  1.0
  C  C54  1  0.26867000  0.91546000  0.90005000  1.0
  C  C55  1  0.73133000  0.58454000  0.40005000  1.0
  C  C56  1  0.85965000  0.12547000  0.15453000  1.0
  C  C57  1  0.14035000  0.37453000  0.65453000  1.0
  C  C58  1  0.14035000  0.87453000  0.84547000  1.0
  C  C59  1  0.85965000  0.62547000  0.34547000  1.0
  C  C60  1  0.00129000  0.07334000  0.12664000  1.0
  C  C61  1  0.99871000  0.42666000  0.62664000  1.0
  C  C62  1  0.99872000  0.92666000  0.87336000  1.0
  C  C63  1  0.00129000  0.57334000  0.37336000  1.0
  C  C64  1  0.10448000  0.18845000  0.24731000  1.0
  C  C65  1  0.89552000  0.31155000  0.74731000  1.0
  C  C66  1  0.89553000  0.81155000  0.75269000  1.0
  C  C67  1  0.10447000  0.68845000  0.25269000  1.0
  C  C68  1  0.96754000  0.24370000  0.28123000  1.0
  C  C69  1  0.03246000  0.25629000  0.78123000  1.0
  C  C70  1  0.03247000  0.75630000  0.71877000  1.0
  C  C71  1  0.96753000  0.74370000  0.21877000  1.0
  C  C72  1  0.84317000  0.21195000  0.23417000  1.0
  C  C73  1  0.15683000  0.28804000  0.73417000  1.0
  C  C74  1  0.15683000  0.78805000  0.76583000  1.0
  C  C75  1  0.84317000  0.71195000  0.26583000  1.0
  C  C76  1  0.24520000  0.22383000  0.28921000  1.0
  C  C77  1  0.75479000  0.27617000  0.78921000  1.0
  C  C78  1  0.75480000  0.77617000  0.71079000  1.0
  C  C79  1  0.24520000  0.72383000  0.21079000  1.0
  N  N80  1  0.12052000  0.10333000  0.17166000  1.0
  N  N81  1  0.87948000  0.39667000  0.67166000  1.0
  N  N82  1  0.87948000  0.89667000  0.82834000  1.0
  N  N83  1  0.12052000  0.60333000  0.32834000  1.0
  O  O84  1  0.36246000  0.15404000  0.25680000  1.0
  O  O85  1  0.63754000  0.34596000  0.75680000  1.0
  O  O86  1  0.63755000  0.84596000  0.74320000  1.0
  O  O87  1  0.36245000  0.65404000  0.24320000  1.0
  O  O88  1  0.50554000  0.88189000  0.24275000  1.0
  O  O89  1  0.49446000  0.61811000  0.74275000  1.0
  O  O90  1  0.49446000  0.11811000  0.75725000  1.0
  O  O91  1  0.50554000  0.38189000  0.25725000  1.0
  O  O92  1  0.60680000  0.10808000  0.13848000  1.0
  O  O93  1  0.39320000  0.39193000  0.63848000  1.0
  O  O94  1  0.39321000  0.89192000  0.86152000  1.0
  O  O95  1  0.60679000  0.60808000  0.36152000  1.0
  O  O96  1  0.46012000  0.14725000  0.96334000  1.0
  O  O97  1  0.53988000  0.35275000  0.46333000  1.0
  O  O98  1  0.53988000  0.85275000  0.03667000  1.0
  O  O99  1  0.46012000  0.64725000  0.53667000  1.0
  O  O100  1  0.31302000  0.26036000  0.06829000  1.0
  O  O101  1  0.68698000  0.23964000  0.56829000  1.0
  O  O102  1  0.68698000  0.73964000  0.93171000  1.0
  O  O103  1  0.31302000  0.76036000  0.43171000  1.0
  O  O104  1  0.75927000  0.02848000  0.01986000  1.0
  O  O105  1  0.24073000  0.47152000  0.51986000  1.0
  O  O106  1  0.24074000  0.97152000  0.98014000  1.0
  O  O107  1  0.75926000  0.52848000  0.48014000  1.0
  O  O108  1  0.24192000  0.32038000  0.34957000  1.0
  O  O109  1  0.75808000  0.17962000  0.84957000  1.0
  O  O110  1  0.75808000  0.67962000  0.65043000  1.0
  O  O111  1  0.24192000  0.82038000  0.15043000  1.0
