# generated using pymatgen
data_Pr3PH19C13NO24
_symmetry_space_group_name_H-M   'P 1'
_cell_length_a   10.85140000
_cell_length_b   11.01710000
_cell_length_c   11.81960000
_cell_angle_alpha   90.00000000
_cell_angle_beta   90.00000000
_cell_angle_gamma   106.37600000
_symmetry_Int_Tables_number   1
_chemical_formula_structural   Pr3PH19C13NO24
_chemical_formula_sum   'Pr6 P2 H38 C26 N2 O48'
_cell_volume   1355.72034669
_cell_formula_units_Z   2
loop_
 _symmetry_equiv_pos_site_id
 _symmetry_equiv_pos_as_xyz
  1  'x, y, z'
loop_
 _atom_site_type_symbol
 _atom_site_label
 _atom_site_symmetry_multiplicity
 _atom_site_fract_x
 _atom_site_fract_y
 _atom_site_fract_z
 _atom_site_occupancy
  Pr  Pr0  1  0.69820000  0.03017000  0.89767000  1.0
  Pr  Pr1  1  0.30179000  0.96983000  0.39767000  1.0
  Pr  Pr2  1  0.68670000  0.80136000  0.39598000  1.0
  Pr  Pr3  1  0.31330000  0.19864000  0.89599000  1.0
  Pr  Pr4  1  0.62270000  0.58002000  0.75567000  1.0
  Pr  Pr5  1  0.37730000  0.41998000  0.25568000  1.0
  P  P6  1  0.65653000  0.47083000  0.45408000  1.0
  P  P7  1  0.34348000  0.52917000  0.95409000  1.0
  H  H8  1  0.41741000  0.92953000  0.96500000  1.0
  H  H9  1  0.58259000  0.07046000  0.46500000  1.0
  H  H10  1  0.42385000  0.92211000  0.83794000  1.0
  H  H11  1  0.57614000  0.07790000  0.33794000  1.0
  H  H12  1  0.38370000  0.40903000  0.64997000  1.0
  H  H13  1  0.61630000  0.59097000  0.14997000  1.0
  H  H14  1  0.32818000  0.51402000  0.69403000  1.0
  H  H15  1  0.67181000  0.48597000  0.19403000  1.0
  H  H16  1  0.77614000  0.58800000  0.99041000  1.0
  H  H17  1  0.22387000  0.41199000  0.49041000  1.0
  H  H18  1  0.73779000  0.71615000  0.97081000  1.0
  H  H19  1  0.26221000  0.28384000  0.47081000  1.0
  H  H20  1  0.88650000  0.77097000  0.77021000  1.0
  H  H21  1  0.11350000  0.22902000  0.27021000  1.0
  H  H22  1  0.87316000  0.76465000  0.63760000  1.0
  H  H23  1  0.12684000  0.23535000  0.13760000  1.0
  H  H24  1  0.82236000  0.42635000  0.61167000  1.0
  H  H25  1  0.17765000  0.57365000  0.11167000  1.0
  H  H26  1  0.71327000  0.27425000  0.46304000  1.0
  H  H27  1  0.28673000  0.72575000  0.96304000  1.0
  H  H28  1  0.81842000  0.37764000  0.36571000  1.0
  H  H29  1  0.18159000  0.62236000  0.86571000  1.0
  H  H30  1  0.97402000  0.28723000  0.48268000  1.0
  H  H31  1  0.02598000  0.71277000  0.98268000  1.0
  H  H32  1  0.85929000  0.22480000  0.59247000  1.0
  H  H33  1  0.14072000  0.77520000  0.09247000  1.0
  H  H34  1  0.99577000  0.36638000  0.73388000  1.0
  H  H35  1  0.00423000  0.63363000  0.23388000  1.0
  H  H36  1  0.08999000  0.28121000  0.66237000  1.0
  H  H37  1  0.91001000  0.71879000  0.16237000  1.0
  H  H38  1  0.01299000  0.51753000  0.42928000  1.0
  H  H39  1  0.98701000  0.48247000  0.92928000  1.0
  H  H40  1  0.91925000  0.60540000  0.49829000  1.0
  H  H41  1  0.08076000  0.39461000  0.99829000  1.0
  H  H42  1  0.14294000  0.65392000  0.57998000  1.0
  H  H43  1  0.85706000  0.34608000  0.07998000  1.0
  H  H44  1  0.02354000  0.58334000  0.68298000  1.0
  H  H45  1  0.97646000  0.41666000  0.18298000  1.0
  C  C46  1  0.76920000  0.37247000  0.44745000  1.0
  C  C47  1  0.23080000  0.62753000  0.94745000  1.0
  C  C48  1  0.93375000  0.30860000  0.56303000  1.0
  C  C49  1  0.06625000  0.69140000  0.06303000  1.0
  C  C50  1  0.03825000  0.35290000  0.65189000  1.0
  C  C51  1  0.96176000  0.64710000  0.15189000  1.0
  C  C52  1  0.96928000  0.53267000  0.50993000  1.0
  C  C53  1  0.03072000  0.46733000  0.00993000  1.0
  C  C54  1  0.06895000  0.56703000  0.60306000  1.0
  C  C55  1  0.93105000  0.43297000  0.10306000  1.0
  C  C56  1  0.66640000  0.97875000  0.62293000  1.0
  C  C57  1  0.33360000  0.02124000  0.12293000  1.0
  C  C58  1  0.64112000  0.84355000  0.66959000  1.0
  C  C59  1  0.35888000  0.15644000  0.16960000  1.0
  C  C60  1  0.00366000  0.11522000  0.97124000  1.0
  C  C61  1  0.99634000  0.88479000  0.47124000  1.0
  C  C62  1  0.00391000  0.06417000  0.84839000  1.0
  C  C63  1  0.99609000  0.93584000  0.34839000  1.0
  C  C64  1  0.60315000  0.29170000  0.86345000  1.0
  C  C65  1  0.39685000  0.70830000  0.36345000  1.0
  C  C66  1  0.74557000  0.33530000  0.82782000  1.0
  C  C67  1  0.25442000  0.66471000  0.32782000  1.0
  C  C68  1  0.67837000  0.84540000  0.11905000  1.0
  C  C69  1  0.32163000  0.15460000  0.61905000  1.0
  C  C70  1  0.65139000  0.96690000  0.16581000  1.0
  C  C71  1  0.34861000  0.03309000  0.66581000  1.0
  N  N72  1  0.86969000  0.41060000  0.53838000  1.0
  N  N73  1  0.13032000  0.58941000  0.03838000  1.0
  O  O74  1  0.53794000  0.39890000  0.38844000  1.0
  O  O75  1  0.46207000  0.60110000  0.88845000  1.0
  O  O76  1  0.72560000  0.60032000  0.40165000  1.0
  O  O77  1  0.27440000  0.39968000  0.90165000  1.0
  O  O78  1  0.63969000  0.47816000  0.58256000  1.0
  O  O79  1  0.36031000  0.52184000  0.08256000  1.0
  O  O80  1  0.13142000  0.46867000  0.61810000  1.0
  O  O81  1  0.86859000  0.53133000  0.11810000  1.0
  O  O82  1  0.68958000  0.99189000  0.51762000  1.0
  O  O83  1  0.31042000  0.00811000  0.01762000  1.0
  O  O84  1  0.66263000  0.06521000  0.69143000  1.0
  O  O85  1  0.33736000  0.93479000  0.19143000  1.0
  O  O86  1  0.61786000  0.75152000  0.59997000  1.0
  O  O87  1  0.38214000  0.24848000  0.09997000  1.0
  O  O88  1  0.64702000  0.82859000  0.77534000  1.0
  O  O89  1  0.35299000  0.17140000  0.27534000  1.0
  O  O90  1  0.89768000  0.10824000  0.01716000  1.0
  O  O91  1  0.10231000  0.89175000  0.51716000  1.0
  O  O92  1  0.11447000  0.16349000  0.01500000  1.0
  O  O93  1  0.88552000  0.83650000  0.51500000  1.0
  O  O94  1  0.89632000  0.00485000  0.80674000  1.0
  O  O95  1  0.10368000  0.99517000  0.30675000  1.0
  O  O96  1  0.11155000  0.08759000  0.79928000  1.0
  O  O97  1  0.88845000  0.91243000  0.29928000  1.0
  O  O98  1  0.53457000  0.36674000  0.84852000  1.0
  O  O99  1  0.46543000  0.63326000  0.34851000  1.0
  O  O100  1  0.55819000  0.18153000  0.90384000  1.0
  O  O101  1  0.44181000  0.81847000  0.40384000  1.0
  O  O102  1  0.78264000  0.44184000  0.77903000  1.0
  O  O103  1  0.21736000  0.55816000  0.27903000  1.0
  O  O104  1  0.81173000  0.26042000  0.84948000  1.0
  O  O105  1  0.18827000  0.73957000  0.34948000  1.0
  O  O106  1  0.66644000  0.75352000  0.18647000  1.0
  O  O107  1  0.33357000  0.24649000  0.68647000  1.0
  O  O108  1  0.70981000  0.84594000  0.01585000  1.0
  O  O109  1  0.29019000  0.15406000  0.51586000  1.0
  O  O110  1  0.64876000  0.97563000  0.27245000  1.0
  O  O111  1  0.35123000  0.02437000  0.77246000  1.0
  O  O112  1  0.63216000  0.04590000  0.09580000  1.0
  O  O113  1  0.36783000  0.95409000  0.59580000  1.0
  O  O114  1  0.46642000  0.89913000  0.90614000  1.0
  O  O115  1  0.53358000  0.10087000  0.40614000  1.0
  O  O116  1  0.40435000  0.50237000  0.65682000  1.0
  O  O117  1  0.59565000  0.49763000  0.15682000  1.0
  O  O118  1  0.76061000  0.64460000  0.93137000  1.0
  O  O119  1  0.23939000  0.35540000  0.43137000  1.0
  O  O120  1  0.85401000  0.71211000  0.70845000  1.0
  O  O121  1  0.14599000  0.28789000  0.20845000  1.0
