# generated using pymatgen
data_HgH8C12I2N4O
_symmetry_space_group_name_H-M   'P 1'
_cell_length_a   5.27095000
_cell_length_b   17.09980000
_cell_length_c   20.40690000
_cell_angle_alpha   103.00200000
_cell_angle_beta   90.00000000
_cell_angle_gamma   90.00000000
_symmetry_Int_Tables_number   1
_chemical_formula_structural   HgH8C12I2N4O
_chemical_formula_sum   'Hg4 H32 C48 I8 N16 O4'
_cell_volume   1792.16254404
_cell_formula_units_Z   4
loop_
 _symmetry_equiv_pos_site_id
 _symmetry_equiv_pos_as_xyz
  1  'x, y, z'
loop_
 _atom_site_type_symbol
 _atom_site_label
 _atom_site_symmetry_multiplicity
 _atom_site_fract_x
 _atom_site_fract_y
 _atom_site_fract_z
 _atom_site_occupancy
  Hg  Hg0  1  0.42038000  0.75000000  0.75000000  1.0
  Hg  Hg1  1  0.57962000  0.25000000  0.25000000  1.0
  Hg  Hg2  1  0.52651000  0.75000000  0.25000000  1.0
  Hg  Hg3  1  0.47350000  0.25000000  0.75000000  1.0
  H  H4  1  0.78324000  0.68454000  0.61299000  1.0
  H  H5  1  0.78323000  0.81546000  0.88701000  1.0
  H  H6  1  0.21676000  0.31546000  0.38701000  1.0
  H  H7  1  0.21676000  0.18454000  0.11299000  1.0
  H  H8  1  0.14312000  0.72326000  0.54652000  1.0
  H  H9  1  0.14311000  0.77674000  0.95348000  1.0
  H  H10  1  0.85688000  0.27674000  0.45348000  1.0
  H  H11  1  0.85688000  0.22326000  0.04652000  1.0
  H  H12  1  0.08538000  0.96409000  0.67075000  1.0
  H  H13  1  0.08538000  0.53591000  0.82925000  1.0
  H  H14  1  0.91462000  0.03591000  0.32925000  1.0
  H  H15  1  0.91462000  0.46409000  0.17075000  1.0
  H  H16  1  0.72913000  0.91467000  0.73203000  1.0
  H  H17  1  0.72913000  0.58533000  0.76797000  1.0
  H  H18  1  0.27087000  0.08533000  0.26797000  1.0
  H  H19  1  0.27087000  0.41467000  0.23203000  1.0
  H  H20  1  0.10609000  0.67594000  0.34774000  1.0
  H  H21  1  0.10610000  0.82406000  0.15226000  1.0
  H  H22  1  0.89390000  0.32406000  0.65226000  1.0
  H  H23  1  0.89391000  0.17594000  0.84774000  1.0
  H  H24  1  0.76168000  0.71547000  0.43299000  1.0
  H  H25  1  0.76169000  0.78453000  0.06701000  1.0
  H  H26  1  0.23830000  0.28452000  0.56701000  1.0
  H  H27  1  0.23832000  0.21548000  0.93299000  1.0
  H  H28  1  0.96352000  0.96330000  0.44180000  1.0
  H  H29  1  0.96352000  0.53670000  0.05820000  1.0
  H  H30  1  0.03648000  0.03670000  0.55820000  1.0
  H  H31  1  0.03648000  0.46330000  0.94180000  1.0
  H  H32  1  0.29167000  0.91309000  0.35435000  1.0
  H  H33  1  0.29167000  0.58691000  0.14565000  1.0
  H  H34  1  0.70833000  0.08691000  0.64565000  1.0
  H  H35  1  0.70833000  0.41309000  0.85436000  1.0
  C  C36  1  0.85539000  0.74600000  0.62363000  1.0
  C  C37  1  0.85539000  0.75400000  0.87637000  1.0
  C  C38  1  0.14462000  0.25400000  0.37638000  1.0
  C  C39  1  0.14461000  0.24600000  0.12363000  1.0
  C  C40  1  0.05442000  0.76778000  0.58651000  1.0
  C  C41  1  0.05441000  0.73222000  0.91348000  1.0
  C  C42  1  0.94558000  0.23222000  0.41349000  1.0
  C  C43  1  0.94558000  0.26778000  0.08652000  1.0
  C  C44  1  0.13955000  0.84748000  0.60280000  1.0
  C  C45  1  0.13955000  0.65252000  0.89720000  1.0
  C  C46  1  0.86045000  0.15252000  0.39720000  1.0
  C  C47  1  0.86045000  0.34748000  0.10280000  1.0
  C  C48  1  0.02177000  0.90195000  0.65597000  1.0
  C  C49  1  0.02178000  0.59805000  0.84403000  1.0
  C  C50  1  0.97823000  0.09805000  0.34403000  1.0
  C  C51  1  0.97822000  0.40195000  0.15597000  1.0
  C  C52  1  0.82537000  0.87455000  0.69020000  1.0
  C  C53  1  0.82537000  0.62545000  0.80980000  1.0
  C  C54  1  0.17464000  0.12545000  0.30981000  1.0
  C  C55  1  0.17463000  0.37455000  0.19020000  1.0
  C  C56  1  0.34696000  0.87544000  0.56743000  1.0
  C  C57  1  0.34696000  0.62456000  0.93256000  1.0
  C  C58  1  0.65304000  0.12456000  0.43257000  1.0
  C  C59  1  0.65304000  0.37544000  0.06744000  1.0
  C  C60  1  0.65297000  0.87310000  0.49759000  1.0
  C  C61  1  0.65296000  0.62690000  0.00241000  1.0
  C  C62  1  0.34703000  0.12690000  0.50241000  1.0
  C  C63  1  0.34704000  0.37310000  0.99759000  1.0
  C  C64  1  0.06726000  0.73908000  0.36984000  1.0
  C  C65  1  0.06727000  0.76092000  0.13016000  1.0
  C  C66  1  0.93273000  0.26092000  0.63016000  1.0
  C  C67  1  0.93274000  0.23908000  0.86984000  1.0
  C  C68  1  0.87640000  0.76128000  0.41777000  1.0
  C  C69  1  0.87640000  0.73872000  0.08223000  1.0
  C  C70  1  0.12359000  0.23871000  0.58223000  1.0
  C  C71  1  0.12361000  0.26128000  0.91777000  1.0
  C  C72  1  0.83668000  0.84319000  0.44498000  1.0
  C  C73  1  0.83668000  0.65681000  0.05502000  1.0
  C  C74  1  0.16331000  0.15681000  0.55502000  1.0
  C  C75  1  0.16332000  0.34319000  0.94498000  1.0
  C  C76  1  0.98806000  0.89927000  0.42220000  1.0
  C  C77  1  0.98806000  0.60073000  0.07780000  1.0
  C  C78  1  0.01193000  0.10073000  0.57780000  1.0
  C  C79  1  0.01194000  0.39927000  0.92220000  1.0
  C  C80  1  0.17092000  0.87144000  0.37364000  1.0
  C  C81  1  0.17091000  0.62856000  0.12637000  1.0
  C  C82  1  0.82907000  0.12856000  0.62636000  1.0
  C  C83  1  0.82908000  0.37144000  0.87364000  1.0
  I  I84  1  0.32148000  0.60594000  0.66876000  1.0
  I  I85  1  0.32148000  0.89406000  0.83124000  1.0
  I  I86  1  0.67852000  0.39406000  0.33125000  1.0
  I  I87  1  0.67853000  0.10595000  0.16875000  1.0
  I  I88  1  0.61637000  0.89947000  0.23341000  1.0
  I  I89  1  0.61636000  0.60053000  0.26659000  1.0
  I  I90  1  0.38363000  0.10053000  0.76659000  1.0
  I  I91  1  0.38365000  0.39947000  0.73341000  1.0
  N  N92  1  0.74291000  0.79819000  0.67427000  1.0
  N  N93  1  0.74290000  0.70181000  0.82573000  1.0
  N  N94  1  0.25710000  0.20181000  0.32573000  1.0
  N  N95  1  0.25709000  0.29819000  0.17427000  1.0
  N  N96  1  0.44338000  0.94803000  0.57939000  1.0
  N  N97  1  0.44338000  0.55197000  0.92061000  1.0
  N  N98  1  0.55662000  0.05197000  0.42061000  1.0
  N  N99  1  0.55662000  0.44803000  0.07939000  1.0
  N  N100  1  0.64040000  0.94633000  0.53479000  1.0
  N  N101  1  0.64039000  0.55367000  0.96521000  1.0
  N  N102  1  0.35960000  0.05367000  0.46521000  1.0
  N  N103  1  0.35961000  0.44633000  0.03479000  1.0
  N  N104  1  0.21063000  0.79286000  0.34800000  1.0
  N  N105  1  0.21063000  0.70714000  0.15201000  1.0
  N  N106  1  0.78937000  0.20714000  0.65200000  1.0
  N  N107  1  0.78938000  0.29286000  0.84800000  1.0
  O  O108  1  0.47164000  0.82418000  0.51574000  1.0
  O  O109  1  0.47164000  0.67582000  0.98426000  1.0
  O  O110  1  0.52836000  0.17582000  0.48425000  1.0
  O  O111  1  0.52836000  0.32418000  0.01574000  1.0
