# generated using pymatgen
data_AgH7C8SN3
_symmetry_space_group_name_H-M   'P 1'
_cell_length_a   7.91611000
_cell_length_b   10.56470000
_cell_length_c   11.46520000
_cell_angle_alpha   84.45420000
_cell_angle_beta   72.23700000
_cell_angle_gamma   79.79600000
_symmetry_Int_Tables_number   1
_chemical_formula_structural   AgH7C8SN3
_chemical_formula_sum   'Ag4 H28 C32 S4 N12'
_cell_volume   897.76682136
_cell_formula_units_Z   4
loop_
 _symmetry_equiv_pos_site_id
 _symmetry_equiv_pos_as_xyz
  1  'x, y, z'
loop_
 _atom_site_type_symbol
 _atom_site_label
 _atom_site_symmetry_multiplicity
 _atom_site_fract_x
 _atom_site_fract_y
 _atom_site_fract_z
 _atom_site_occupancy
  Ag  Ag0  1  0.63507000  0.85344000  0.55243000  1.0
  Ag  Ag1  1  0.36493000  0.14656000  0.44757000  1.0
  Ag  Ag2  1  0.86107000  0.87904000  0.71359000  1.0
  Ag  Ag3  1  0.13892000  0.12096000  0.28641000  1.0
  H  H4  1  0.28331000  0.69705000  0.56827000  1.0
  H  H5  1  0.71669000  0.30295000  0.43173000  1.0
  H  H6  1  0.49960000  0.37132000  0.75139000  1.0
  H  H7  1  0.50040000  0.62868000  0.24861000  1.0
  H  H8  1  0.70538000  0.56594000  0.72516000  1.0
  H  H9  1  0.29462000  0.43406000  0.27484000  1.0
  H  H10  1  0.16168000  0.49605000  0.57311000  1.0
  H  H11  1  0.83831000  0.50395000  0.42689000  1.0
  H  H12  1  0.27873000  0.34899000  0.61473000  1.0
  H  H13  1  0.72127000  0.65101000  0.38527000  1.0
  H  H14  1  0.01422000  0.63619000  0.80449000  1.0
  H  H15  1  0.98578000  0.36381000  0.19551000  1.0
  H  H16  1  0.75648000  0.61278000  0.98881000  1.0
  H  H17  1  0.24352000  0.38722000  0.01119000  1.0
  H  H18  1  0.65750000  0.40123000  0.05395000  1.0
  H  H19  1  0.34250000  0.59878000  0.94605000  1.0
  H  H20  1  0.07777000  0.23113000  0.74798000  1.0
  H  H21  1  0.92223000  0.76887000  0.25203000  1.0
  H  H22  1  0.86334000  0.13237000  0.02636000  1.0
  H  H23  1  0.13666000  0.86763000  0.97364000  1.0
  H  H24  1  0.87562000  0.10121000  0.87424000  1.0
  H  H25  1  0.12438000  0.89879000  0.12576000  1.0
  H  H26  1  0.56125000  0.18400000  0.18223000  1.0
  H  H27  1  0.43875000  0.81600000  0.81777000  1.0
  H  H28  1  0.22525000  0.13646000  0.97152000  1.0
  H  H29  1  0.77476000  0.86354000  0.02847000  1.0
  H  H30  1  0.57380000  0.13985000  0.81697000  1.0
  H  H31  1  0.42620000  0.86015000  0.18303000  1.0
  C  C32  1  0.09030000  0.83789000  0.43118000  1.0
  C  C33  1  0.90970000  0.16211000  0.56883000  1.0
  C  C34  1  0.23394000  0.97806000  0.71368000  1.0
  C  C35  1  0.76604000  0.02194000  0.28633000  1.0
  C  C36  1  0.37341000  0.63725000  0.61327000  1.0
  C  C37  1  0.62659000  0.36275000  0.38673000  1.0
  C  C38  1  0.48772000  0.46765000  0.70945000  1.0
  C  C39  1  0.51228000  0.53235000  0.29055000  1.0
  C  C40  1  0.58819000  0.56492000  0.69523000  1.0
  C  C41  1  0.41181000  0.43508000  0.30476000  1.0
  C  C42  1  0.21377000  0.44535000  0.64638000  1.0
  C  C43  1  0.78623000  0.55465000  0.35362000  1.0
  C  C44  1  0.06256000  0.43474000  0.76328000  1.0
  C  C45  1  0.93744000  0.56527000  0.23672000  1.0
  C  C46  1  0.97170000  0.54212000  0.83176000  1.0
  C  C47  1  0.02831000  0.45788000  0.16824000  1.0
  C  C48  1  0.82632000  0.52912000  0.93555000  1.0
  C  C49  1  0.17368000  0.47088000  0.06445000  1.0
  C  C50  1  0.77101000  0.40968000  0.97226000  1.0
  C  C51  1  0.22899000  0.59032000  0.02773000  1.0
  C  C52  1  0.86205000  0.30127000  0.90550000  1.0
  C  C53  1  0.13796000  0.69873000  0.09451000  1.0
  C  C54  1  0.00682000  0.31499000  0.80110000  1.0
  C  C55  1  0.99319000  0.68502000  0.19891000  1.0
  C  C56  1  0.81344000  0.16898000  0.94775000  1.0
  C  C57  1  0.18656000  0.83102000  0.05225000  1.0
  C  C58  1  0.51323000  0.17201000  0.10565000  1.0
  C  C59  1  0.48677000  0.82799000  0.89435000  1.0
  C  C60  1  0.34579000  0.14788000  0.99289000  1.0
  C  C61  1  0.65421000  0.85212000  0.00711000  1.0
  C  C62  1  0.51586000  0.15163000  0.91473000  1.0
  C  C63  1  0.48414000  0.84837000  0.08527000  1.0
  S  S64  1  0.96309000  0.74298000  0.52838000  1.0
  S  S65  1  0.03691000  0.25703000  0.47162000  1.0
  S  S66  1  0.40930000  0.05289000  0.65739000  1.0
  S  S67  1  0.59070000  0.94711000  0.34261000  1.0
  N  N68  1  0.18454000  0.90302000  0.35994000  1.0
  N  N69  1  0.81547000  0.09698000  0.64005000  1.0
  N  N70  1  0.11116000  0.92192000  0.75929000  1.0
  N  N71  1  0.88884000  0.07809000  0.24071000  1.0
  N  N72  1  0.51526000  0.67044000  0.63509000  1.0
  N  N73  1  0.48473000  0.32956000  0.36491000  1.0
  N  N74  1  0.35232000  0.51497000  0.65664000  1.0
  N  N75  1  0.64768000  0.48503000  0.34335000  1.0
  N  N76  1  0.34588000  0.16061000  0.11182000  1.0
  N  N77  1  0.65412000  0.83939000  0.88818000  1.0
  N  N78  1  0.62035000  0.16619000  0.98808000  1.0
  N  N79  1  0.37964000  0.83382000  0.01192000  1.0
