# generated using pymatgen
data_ZnH15C23N3O4F3
_symmetry_space_group_name_H-M   'P 1'
_cell_length_a   13.98280000
_cell_length_b   15.19420000
_cell_length_c   15.24070000
_cell_angle_alpha   91.14590000
_cell_angle_beta   90.49330000
_cell_angle_gamma   91.13650000
_symmetry_Int_Tables_number   1
_chemical_formula_structural   ZnH15C23N3O4F3
_chemical_formula_sum   'Zn2 H30 C46 N6 O8 F6'
_cell_volume   3236.58461653
_cell_formula_units_Z   2
loop_
 _symmetry_equiv_pos_site_id
 _symmetry_equiv_pos_as_xyz
  1  'x, y, z'
loop_
 _atom_site_type_symbol
 _atom_site_label
 _atom_site_symmetry_multiplicity
 _atom_site_fract_x
 _atom_site_fract_y
 _atom_site_fract_z
 _atom_site_occupancy
  Zn  Zn0  1  0.40513000  0.49722000  0.49464000  1.0
  Zn  Zn1  1  0.60272000  0.49185000  0.49623000  1.0
  H  H2  1  0.32491000  0.89337000  0.65110000  1.0
  H  H3  1  0.66600000  0.54794000  0.77645000  1.0
  H  H4  1  0.75783000  0.54315000  0.62347000  1.0
  H  H5  1  0.25134000  0.58293000  0.39087000  1.0
  H  H6  1  0.75424000  0.43940000  0.36880000  1.0
  H  H7  1  0.25239000  0.41092000  0.60047000  1.0
  H  H8  1  0.66128000  0.82501000  0.33706000  1.0
  H  H9  1  0.78133000  0.78748000  0.42598000  1.0
  H  H10  1  0.73812000  0.67856000  0.39779000  1.0
  H  H11  1  0.70161000  0.73002000  0.49680000  1.0
  H  H12  1  0.36396000  0.16738000  0.69635000  1.0
  H  H13  1  0.60933000  0.09630000  0.31596000  1.0
  H  H14  1  0.51041000  0.30343000  0.69211000  1.0
  H  H15  1  0.41966000  0.28817000  0.77168000  1.0
  H  H16  1  0.39734000  0.35227000  0.67751000  1.0
  H  H17  1  0.27552000  0.01383000  0.72133000  1.0
  H  H18  1  0.16214000  0.12203000  0.68972000  1.0
  H  H19  1  0.17199000  0.05123000  0.59462000  1.0
  H  H20  1  0.23199000  0.15630000  0.59921000  1.0
  H  H21  1  0.66155000  0.97428000  0.24749000  1.0
  H  H22  1  0.59743000  0.85866000  0.16012000  1.0
  H  H23  1  0.49802000  0.92142000  0.19806000  1.0
  H  H24  1  0.36023000  0.50507000  0.93463000  1.0
  H  H25  1  0.52841000  0.82076000  0.24926000  1.0
  H  H26  1  0.64828000  0.44359000  0.04790000  1.0
  H  H27  1  0.37886000  0.57576000  0.06552000  1.0
  H  H28  1  0.66636000  0.54397000  0.93951000  1.0
  H  H29  1  0.36119000  0.51331000  0.77161000  1.0
  H  H30  1  0.64814000  0.42440000  0.20960000  1.0
  H  H31  1  0.37670000  0.54984000  0.22632000  1.0
  C  C32  1  0.51500000  0.52390000  0.66600000  1.0
  C  C33  1  0.58921000  0.45706000  0.17721000  1.0
  C  C34  1  0.43588000  0.52716000  0.18628000  1.0
  C  C35  1  0.59943000  0.53868000  0.81197000  1.0
  C  C36  1  0.51380000  0.52908000  0.76404000  1.0
  C  C37  1  0.51212000  0.48560000  0.22768000  1.0
  C  C38  1  0.51351000  0.52199000  0.94892000  1.0
  C  C39  1  0.51369000  0.51137000  0.04489000  1.0
  C  C40  1  0.89902000  0.52187000  0.56854000  1.0
  C  C41  1  0.11015000  0.54282000  0.43552000  1.0
  C  C42  1  0.89700000  0.46313000  0.42375000  1.0
  C  C43  1  0.51161000  0.47531000  0.32504000  1.0
  C  C44  1  0.11085000  0.44772000  0.55653000  1.0
  C  C45  1  0.79974000  0.52074000  0.56760000  1.0
  C  C46  1  0.20949000  0.54392000  0.43657000  1.0
  C  C47  1  0.79770000  0.46233000  0.42476000  1.0
  C  C48  1  0.21009000  0.44891000  0.55496000  1.0
  C  C49  1  0.95163000  0.49314000  0.49610000  1.0
  C  C50  1  0.05697000  0.49450000  0.49601000  1.0
  C  C51  1  0.48820000  0.32615000  0.52180000  1.0
  C  C52  1  0.50037000  0.66451000  0.47784000  1.0
  C  C53  1  0.56262000  0.81646000  0.42942000  1.0
  C  C54  1  0.36279000  0.02549000  0.61831000  1.0
  C  C55  1  0.43405000  0.17577000  0.58245000  1.0
  C  C56  1  0.50457000  0.76307000  0.48474000  1.0
  C  C57  1  0.48628000  0.22736000  0.52155000  1.0
  C  C58  1  0.44177000  0.80437000  0.54206000  1.0
  C  C59  1  0.53198000  0.18535000  0.45241000  1.0
  C  C60  1  0.43125000  0.89546000  0.54868000  1.0
  C  C61  1  0.53117000  0.09434000  0.43801000  1.0
  C  C62  1  0.48132000  0.94824000  0.48700000  1.0
  C  C63  1  0.47608000  0.04205000  0.49662000  1.0
  C  C64  1  0.54114000  0.90805000  0.42218000  1.0
  C  C65  1  0.58172000  0.96425000  0.35585000  1.0
  C  C66  1  0.42210000  0.08251000  0.56561000  1.0
  C  C67  1  0.36938000  0.93570000  0.61046000  1.0
  C  C68  1  0.57773000  0.05404000  0.36550000  1.0
  C  C69  1  0.71889000  0.74192000  0.42815000  1.0
  C  C70  1  0.43291000  0.29315000  0.70103000  1.0
  C  C71  1  0.21056000  0.09926000  0.63803000  1.0
  C  C72  1  0.55790000  0.87992000  0.21846000  1.0
  C  C73  1  0.42748000  0.51586000  0.90039000  1.0
  C  C74  1  0.58953000  0.46901000  0.08697000  1.0
  C  C75  1  0.43716000  0.54074000  0.09636000  1.0
  C  C76  1  0.59927000  0.53554000  0.90301000  1.0
  C  C77  1  0.42757000  0.51959000  0.80935000  1.0
  N  N78  1  0.75140000  0.49121000  0.49615000  1.0
  N  N79  1  0.25693000  0.49688000  0.49563000  1.0
  N  N80  1  0.63756000  0.78056000  0.38222000  1.0
  N  N81  1  0.39868000  0.21245000  0.65810000  1.0
  N  N82  1  0.29604000  0.06180000  0.67920000  1.0
  N  N83  1  0.62465000  0.92646000  0.27971000  1.0
  O  O84  1  0.43436000  0.51654000  0.62649000  1.0
  O  O85  1  0.59199000  0.46456000  0.36333000  1.0
  O  O86  1  0.43095000  0.47985000  0.36286000  1.0
  O  O87  1  0.59651000  0.52457000  0.62914000  1.0
  O  O88  1  0.40771000  0.36324000  0.51450000  1.0
  O  O89  1  0.57777000  0.62213000  0.47479000  1.0
  O  O90  1  0.41659000  0.62982000  0.47501000  1.0
  O  O91  1  0.56966000  0.36483000  0.52545000  1.0
  F  F92  1  0.38910000  0.75457000  0.59841000  1.0
  F  F93  1  0.57882000  0.23599000  0.39250000  1.0
  F  F94  1  0.94621000  0.55330000  0.64071000  1.0
  F  F95  1  0.06352000  0.59096000  0.37577000  1.0
  F  F96  1  0.94221000  0.43294000  0.35148000  1.0
  F  F97  1  0.06505000  0.39871000  0.61685000  1.0
