# generated using pymatgen
data_SnH15Au(C10N)2
_symmetry_space_group_name_H-M   'P 1'
_cell_length_a   7.24666000
_cell_length_b   11.88470000
_cell_length_c   11.88460000
_cell_angle_alpha   105.32300000
_cell_angle_beta   103.19600000
_cell_angle_gamma   103.19600000
_symmetry_Int_Tables_number   1
_chemical_formula_structural   SnH15Au(C10N)2
_chemical_formula_sum   'Sn2 H30 Au2 C40 N4'
_cell_volume   914.57699362
_cell_formula_units_Z   2
loop_
 _symmetry_equiv_pos_site_id
 _symmetry_equiv_pos_as_xyz
  1  'x, y, z'
loop_
 _atom_site_type_symbol
 _atom_site_label
 _atom_site_symmetry_multiplicity
 _atom_site_fract_x
 _atom_site_fract_y
 _atom_site_fract_z
 _atom_site_occupancy
  Sn  Sn0  1  0.74999000  0.69041000  0.30959000  1.0
  Sn  Sn1  1  0.25000000  0.30959000  0.69041000  1.0
  H  H2  1  0.07567000  0.58216000  0.41706000  1.0
  H  H3  1  0.42433000  0.58294000  0.41784000  1.0
  H  H4  1  0.92433000  0.41784000  0.58295000  1.0
  H  H5  1  0.57567000  0.41705000  0.58216000  1.0
  H  H6  1  0.14618000  0.38273000  0.36918000  1.0
  H  H7  1  0.35383000  0.63083000  0.61728000  1.0
  H  H8  1  0.85383000  0.61728000  0.63083000  1.0
  H  H9  1  0.64618000  0.36917000  0.38272000  1.0
  H  H10  1  0.92808000  0.20920000  0.18447000  1.0
  H  H11  1  0.57193000  0.81553000  0.79081000  1.0
  H  H12  1  0.07193000  0.79080000  0.81553000  1.0
  H  H13  1  0.42807000  0.18447000  0.20920000  1.0
  H  H14  1  0.63536000  0.23379000  0.04458000  1.0
  H  H15  1  0.86465000  0.95542000  0.76621000  1.0
  H  H16  1  0.36466000  0.76621000  0.95542000  1.0
  H  H17  1  0.13535000  0.04458000  0.23379000  1.0
  H  H18  1  0.55836000  0.42930000  0.09474000  1.0
  H  H19  1  0.94163000  0.90526000  0.57069000  1.0
  H  H20  1  0.44164000  0.57069000  0.90526000  1.0
  H  H21  1  0.05836000  0.09474000  0.42930000  1.0
  H  H22  1  0.90089000  0.70903000  0.08240000  1.0
  H  H23  1  0.59911000  0.91760000  0.29097000  1.0
  H  H24  1  0.09910000  0.29097000  0.91760000  1.0
  H  H25  1  0.40089000  0.08240000  0.70903000  1.0
  H  H26  1  0.89616000  0.83810000  0.95057000  1.0
  H  H27  1  0.60385000  0.04943000  0.16190000  1.0
  H  H28  1  0.10384000  0.16190000  0.04943000  1.0
  H  H29  1  0.39615000  0.95058000  0.83810000  1.0
  H  H30  1  0.75000000  0.01010000  0.98990000  1.0
  H  H31  1  0.25000000  0.98990000  0.01010000  1.0
  Au  Au32  1  0.50000000  0.00000000  0.50000000  1.0
  Au  Au33  1  0.00000000  0.50000000  0.00000000  1.0
  C  C34  1  0.24224000  0.87046000  0.44075000  1.0
  C  C35  1  0.25776000  0.55925000  0.12955000  1.0
  C  C36  1  0.75777000  0.12955000  0.55926000  1.0
  C  C37  1  0.74224000  0.44075000  0.87045000  1.0
  C  C38  1  0.81253000  0.51985000  0.25919000  1.0
  C  C39  1  0.68746000  0.74081000  0.48015000  1.0
  C  C40  1  0.18747000  0.48015000  0.74081000  1.0
  C  C41  1  0.31253000  0.25919000  0.51985000  1.0
  C  C42  1  0.97787000  0.50567000  0.33586000  1.0
  C  C43  1  0.52213000  0.66415000  0.49433000  1.0
  C  C44  1  0.02213000  0.49433000  0.66415000  1.0
  C  C45  1  0.47787000  0.33585000  0.50567000  1.0
  C  C46  1  0.01872000  0.39399000  0.30890000  1.0
  C  C47  1  0.48129000  0.69110000  0.60601000  1.0
  C  C48  1  0.98129000  0.60601000  0.69110000  1.0
  C  C49  1  0.51872000  0.30889000  0.39399000  1.0
  C  C50  1  0.89570000  0.29614000  0.20424000  1.0
  C  C51  1  0.60431000  0.79577000  0.70387000  1.0
  C  C52  1  0.10431000  0.70386000  0.79577000  1.0
  C  C53  1  0.39569000  0.20423000  0.29614000  1.0
  C  C54  1  0.73156000  0.30952000  0.12692000  1.0
  C  C55  1  0.76845000  0.87308000  0.69048000  1.0
  C  C56  1  0.26845000  0.69048000  0.87308000  1.0
  C  C57  1  0.23155000  0.12692000  0.30952000  1.0
  C  C58  1  0.68899000  0.42086000  0.15483000  1.0
  C  C59  1  0.81101000  0.84517000  0.57914000  1.0
  C  C60  1  0.31101000  0.57914000  0.84517000  1.0
  C  C61  1  0.18899000  0.15483000  0.42086000  1.0
  C  C62  1  0.75000000  0.80387000  0.19613000  1.0
  C  C63  1  0.25000000  0.19613000  0.80387000  1.0
  C  C64  1  0.83410000  0.78313000  0.10038000  1.0
  C  C65  1  0.66590000  0.89962000  0.21687000  1.0
  C  C66  1  0.16589000  0.21687000  0.89962000  1.0
  C  C67  1  0.33410000  0.10038000  0.78313000  1.0
  C  C68  1  0.83305000  0.85656000  0.02593000  1.0
  C  C69  1  0.66695000  0.97407000  0.14344000  1.0
  C  C70  1  0.16695000  0.14344000  0.97407000  1.0
  C  C71  1  0.33305000  0.02593000  0.85656000  1.0
  C  C72  1  0.75000000  0.95235000  0.04765000  1.0
  C  C73  1  0.25000000  0.04765000  0.95235000  1.0
  N  N74  1  0.08563000  0.79653000  0.40540000  1.0
  N  N75  1  0.41436000  0.59460000  0.20348000  1.0
  N  N76  1  0.91436000  0.20347000  0.59460000  1.0
  N  N77  1  0.58563000  0.40540000  0.79652000  1.0
