# generated using pymatgen
data_Zr3H34C49(ClO8)2
_symmetry_space_group_name_H-M   'P 1'
_cell_length_a   19.01795500
_cell_length_b   19.07347532
_cell_length_c   19.07630000
_cell_angle_alpha   90.17372845
_cell_angle_beta   119.88428026
_cell_angle_gamma   119.87385243
_symmetry_Int_Tables_number   1
_chemical_formula_structural   Zr3H34C49(ClO8)2
_chemical_formula_sum   'Zr6 H68 C98 Cl4 O32'
_cell_volume   4903.41862937
_cell_formula_units_Z   2
loop_
 _symmetry_equiv_pos_site_id
 _symmetry_equiv_pos_as_xyz
  1  'x, y, z'
loop_
 _atom_site_type_symbol
 _atom_site_label
 _atom_site_symmetry_multiplicity
 _atom_site_fract_x
 _atom_site_fract_y
 _atom_site_fract_z
 _atom_site_occupancy
  Zr  Zr0  1  0.49635000  0.90415000  0.90694000  1.0
  Zr  Zr1  1  0.50423000  0.09301000  0.09579000  1.0
  Zr  Zr2  1  0.68629000  0.08959000  0.09242000  1.0
  Zr  Zr3  1  0.31431000  0.90762000  0.91032000  1.0
  Zr  Zr4  1  0.50024000  0.90610000  0.09378000  1.0
  Zr  Zr5  1  0.50033000  0.09090000  0.90908000  1.0
  H  H6  1  0.64367000  0.92263000  0.07151000  1.0
  H  H7  1  0.35685000  0.92848000  0.07722000  1.0
  H  H8  1  0.64925000  0.21724000  0.07440000  1.0
  H  H9  1  0.35134000  0.92563000  0.78269000  1.0
  H  H10  1  0.51834000  0.46411000  0.12009000  1.0
  H  H11  1  0.53234000  0.55882000  0.90969000  1.0
  H  H12  1  0.43477000  0.64824000  0.06963000  1.0
  H  H13  1  0.42467000  0.51308000  0.06848000  1.0
  H  H14  1  0.45804000  0.29451000  0.87565000  1.0
  H  H15  1  0.44455000  0.41764000  0.86391000  1.0
  H  H16  1  0.46683000  0.08965000  0.44033000  1.0
  H  H17  1  0.48098000  0.87948000  0.53514000  1.0
  H  H18  1  0.54238000  0.12422000  0.70546000  1.0
  H  H19  1  0.55534000  0.13587000  0.58204000  1.0
  H  H20  1  0.56509000  0.93001000  0.35155000  1.0
  H  H21  1  0.57510000  0.93129000  0.48667000  1.0
  H  H22  1  0.84514000  0.46643000  0.90553000  1.0
  H  H23  1  0.15083000  0.55408000  0.12052000  1.0
  H  H24  1  0.07839000  0.65817000  0.87314000  1.0
  H  H25  1  0.94372000  0.52073000  0.86054000  1.0
  H  H26  1  0.92105000  0.28492000  0.06990000  1.0
  H  H27  1  0.05417000  0.41037000  0.06821000  1.0
  H  H28  1  0.84951000  0.88009000  0.44692000  1.0
  H  H29  1  0.15526000  0.09538000  0.53429000  1.0
  H  H30  1  0.07969000  0.93037000  0.71551000  1.0
  H  H31  1  0.94643000  0.93210000  0.59030000  1.0
  H  H32  1  0.92196000  0.12682000  0.34185000  1.0
  H  H33  1  0.05660000  0.13971000  0.47951000  1.0
  H  H34  1  0.29194000  0.12196000  0.10670000  1.0
  H  H35  1  0.07058000  0.89773000  0.88243000  1.0
  H  H36  1  0.70856000  0.89322000  0.87800000  1.0
  H  H37  1  0.92993000  0.11771000  0.10204000  1.0
  H  H38  1  0.06729000  0.46954000  0.44560000  1.0
  H  H39  1  0.93319000  0.55443000  0.53043000  1.0
  H  H40  1  0.28377000  0.65368000  0.71398000  1.0
  H  H41  1  0.16038000  0.51819000  0.58967000  1.0
  H  H42  1  0.71670000  0.28593000  0.34622000  1.0
  H  H43  1  0.84004000  0.41018000  0.48176000  1.0
  H  H44  1  0.54987000  0.38691000  0.20134000  1.0
  H  H45  1  0.59608000  0.33175000  0.18429000  1.0
  H  H46  1  0.47034000  0.27445000  0.14462000  1.0
  H  H47  1  0.56943000  0.67143000  0.86500000  1.0
  H  H48  1  0.60167000  0.76793000  0.92334000  1.0
  H  H49  1  0.48094000  0.69615000  0.83128000  1.0
  H  H50  1  0.42941000  0.13396000  0.32750000  1.0
  H  H51  1  0.39817000  0.07619000  0.23128000  1.0
  H  H52  1  0.51860000  0.16837000  0.30357000  1.0
  H  H53  1  0.44845000  0.79790000  0.61180000  1.0
  H  H54  1  0.40452000  0.81591000  0.66883000  1.0
  H  H55  1  0.52986000  0.85469000  0.72432000  1.0
  H  H56  1  0.68729000  0.38853000  0.85889000  1.0
  H  H57  1  0.64960000  0.32661000  0.91869000  1.0
  H  H58  1  0.63091000  0.27587000  0.82839000  1.0
  H  H59  1  0.30758000  0.66766000  0.20470000  1.0
  H  H60  1  0.34656000  0.76633000  0.18287000  1.0
  H  H61  1  0.36640000  0.69592000  0.15026000  1.0
  H  H62  1  0.69255000  0.79597000  0.33378000  1.0
  H  H63  1  0.65403000  0.81700000  0.23471000  1.0
  H  H64  1  0.63376000  0.85048000  0.30427000  1.0
  H  H65  1  0.31323000  0.14229000  0.61215000  1.0
  H  H66  1  0.35066000  0.08197000  0.67334000  1.0
  H  H67  1  0.36977000  0.17213000  0.72489000  1.0
  H  H68  1  0.03982000  0.39438000  0.33445000  1.0
  H  H69  1  0.91928000  0.33499000  0.23557000  1.0
  H  H70  1  0.95586000  0.28115000  0.30426000  1.0
  H  H71  1  0.96077000  0.66567000  0.60561000  1.0
  H  H72  1  0.08130000  0.76453000  0.66487000  1.0
  H  H73  1  0.04484000  0.69595000  0.71883000  1.0
  C  C74  1  0.48927000  0.75747000  0.99317000  1.0
  C  C75  1  0.51090000  0.00658000  0.24230000  1.0
  C  C76  1  0.49790000  0.23306000  0.00248000  1.0
  C  C77  1  0.50270000  0.99742000  0.76691000  1.0
  C  C78  1  0.73369000  0.00011000  0.99395000  1.0
  C  C79  1  0.25826000  0.75930000  0.76920000  1.0
  C  C80  1  0.26683000  0.00599000  0.99982000  1.0
  C  C81  1  0.74231000  0.23073000  0.24072000  1.0
  C  C82  1  0.73436000  0.99794000  0.23812000  1.0
  C  C83  1  0.73386000  0.22776000  0.99284000  1.0
  C  C84  1  0.26682000  0.00743000  0.77237000  1.0
  C  C85  1  0.26606000  0.76200000  0.00197000  1.0
  C  C86  1  0.49249000  0.30831000  0.00243000  1.0
  C  C87  1  0.48510000  0.67741000  0.98816000  1.0
  C  C88  1  0.50840000  0.35541000  0.07273000  1.0
  C  C89  1  0.50267000  0.42562000  0.06518000  1.0
  C  C90  1  0.51086000  0.65152000  0.94005000  1.0
  C  C91  1  0.50813000  0.57703000  0.94318000  1.0
  C  C92  1  0.45530000  0.62709000  0.03425000  1.0
  C  C93  1  0.45089000  0.55228000  0.03429000  1.0
  C  C94  1  0.47063000  0.33250000  0.92871000  1.0
  C  C95  1  0.46407000  0.40169000  0.92272000  1.0
  C  C96  1  0.48094000  0.45023000  0.99189000  1.0
  C  C97  1  0.47902000  0.52659000  0.98934000  1.0
  C  C98  1  0.51464000  0.01140000  0.32216000  1.0
  C  C99  1  0.50775000  0.99739000  0.69147000  1.0
  C  C100  1  0.48863000  0.05939000  0.34785000  1.0
  C  C101  1  0.49124000  0.05628000  0.42229000  1.0
  C  C102  1  0.49142000  0.92696000  0.64412000  1.0
  C  C103  1  0.49690000  0.93445000  0.57379000  1.0
  C  C104  1  0.52958000  0.07112000  0.66731000  1.0
  C  C105  1  0.53585000  0.07706000  0.59798000  1.0
  C  C106  1  0.54442000  0.96534000  0.37256000  1.0
  C  C107  1  0.54878000  0.96536000  0.44733000  1.0
  C  C108  1  0.52057000  0.01030000  0.47290000  1.0
  C  C109  1  0.51873000  0.00781000  0.54928000  1.0
  C  C110  1  0.80822000  0.30329000  0.98690000  1.0
  C  C111  1  0.19033000  0.68162000  0.00180000  1.0
  C  C112  1  0.78447000  0.35327000  0.93735000  1.0
  C  C113  1  0.86165000  0.42529000  0.94013000  1.0
  C  C114  1  0.21276000  0.65214000  0.07307000  1.0
  C  C115  1  0.13512000  0.57570000  0.06499000  1.0
  C  C116  1  0.09305000  0.63384000  0.92681000  1.0
  C  C117  1  0.01791000  0.55760000  0.92029000  1.0
  C  C118  1  0.90556000  0.32540000  0.03361000  1.0
  C  C119  1  0.97994000  0.39602000  0.03335000  1.0
  C  C120  1  0.95925000  0.44844000  0.98733000  1.0
  C  C121  1  0.03791000  0.52727000  0.99021000  1.0
  C  C122  1  0.81003000  0.99833000  0.31872000  1.0
  C  C123  1  0.19241000  0.01361000  0.69712000  1.0
  C  C124  1  0.78755000  0.92724000  0.34850000  1.0
  C  C125  1  0.86521000  0.93548000  0.42507000  1.0
  C  C126  1  0.21607000  0.06337000  0.64724000  1.0
  C  C127  1  0.13882000  0.06064000  0.57537000  1.0
  C  C128  1  0.09510000  0.96680000  0.67509000  1.0
  C  C129  1  0.02064000  0.96711000  0.60460000  1.0
  C  C130  1  0.90731000  0.07332000  0.36642000  1.0
  C  C131  1  0.98242000  0.07998000  0.44277000  1.0
  C  C132  1  0.96244000  0.01022000  0.47335000  1.0
  C  C133  1  0.04120000  0.01326000  0.55221000  1.0
  C  C134  1  0.21376000  0.07372000  0.05702000  1.0
  C  C135  1  0.14049000  0.07593000  0.05544000  1.0
  C  C136  1  0.16471000  0.14139000  0.11844000  1.0
  C  C137  1  0.08823000  0.94673000  0.92979000  1.0
  C  C138  1  0.01253000  0.94648000  0.92571000  1.0
  C  C139  1  0.90897000  0.88253000  0.85926000  1.0
  C  C140  1  0.78675000  0.94295000  0.92620000  1.0
  C  C141  1  0.86000000  0.94446000  0.92400000  1.0
  C  C142  1  0.83578000  0.88138000  0.85863000  1.0
  C  C143  1  0.91228000  0.07031000  0.05307000  1.0
  C  C144  1  0.98798000  0.07435000  0.05334000  1.0
  C  C145  1  0.09152000  0.14077000  0.11727000  1.0
  C  C146  1  0.18765000  0.00923000  0.99530000  1.0
  C  C147  1  0.03802000  0.01105000  0.98979000  1.0
  C  C148  1  0.81287000  0.00472000  0.99063000  1.0
  C  C149  1  0.96248000  0.01017000  0.98885000  1.0
  C  C150  1  0.82235000  0.30613000  0.32126000  1.0
  C  C151  1  0.17817000  0.67874000  0.69380000  1.0
  C  C152  1  0.92302000  0.35709000  0.34975000  1.0
  C  C153  1  0.99039000  0.42791000  0.42501000  1.0
  C  C154  1  0.07751000  0.65029000  0.64283000  1.0
  C  C155  1  0.01008000  0.57501000  0.57202000  1.0
  C  C156  1  0.20603000  0.63052000  0.67300000  1.0
  C  C157  1  0.13722000  0.55546000  0.60313000  1.0
  C  C158  1  0.79446000  0.32693000  0.36943000  1.0
  C  C159  1  0.86323000  0.39675000  0.44450000  1.0
  C  C160  1  0.96310000  0.44942000  0.47322000  1.0
  C  C161  1  0.03733000  0.52675000  0.55048000  1.0
  C  C162  1  0.53278000  0.33636000  0.15526000  1.0
  C  C163  1  0.54284000  0.69937000  0.88744000  1.0
  C  C164  1  0.45656000  0.11192000  0.29992000  1.0
  C  C165  1  0.46691000  0.84434000  0.66302000  1.0
  C  C166  1  0.68287000  0.33546000  0.88331000  1.0
  C  C167  1  0.31347000  0.69804000  0.15729000  1.0
  C  C168  1  0.68681000  0.84311000  0.30281000  1.0
  C  C169  1  0.31765000  0.11751000  0.66502000  1.0
  C  C170  1  0.96163000  0.34136000  0.30354000  1.0
  C  C171  1  0.03897000  0.69658000  0.65858000  1.0
  Cl  Cl172  1  0.12209000  0.21977000  0.19292000  1.0
  Cl  Cl173  1  0.28797000  0.22086000  0.19579000  1.0
  Cl  Cl174  1  0.71253000  0.80401000  0.77921000  1.0
  Cl  Cl175  1  0.87841000  0.80688000  0.78030000  1.0
  O  O176  1  0.49028000  0.79059000  0.93513000  1.0
  O  O177  1  0.51011000  0.06475000  0.20928000  1.0
  O  O178  1  0.50021000  0.20156000  0.06214000  1.0
  O  O179  1  0.50060000  0.93781000  0.79844000  1.0
  O  O180  1  0.76334000  0.05804000  0.05558000  1.0
  O  O181  1  0.23273000  0.79335000  0.80126000  1.0
  O  O182  1  0.23717000  0.94438000  0.94185000  1.0
  O  O183  1  0.76786000  0.19872000  0.20665000  1.0
  O  O184  1  0.64301000  0.93886000  0.20516000  1.0
  O  O185  1  0.64233000  0.19607000  0.93599000  1.0
  O  O186  1  0.35833000  0.06412000  0.80392000  1.0
  O  O187  1  0.35741000  0.79481000  0.06093000  1.0
  O  O188  1  0.76533000  0.19984000  0.05430000  1.0
  O  O189  1  0.23534000  0.94585000  0.80017000  1.0
  O  O190  1  0.23565000  0.79338000  0.94367000  1.0
  O  O191  1  0.76478000  0.05619000  0.20669000  1.0
  O  O192  1  0.64388000  0.93862000  0.93658000  1.0
  O  O193  1  0.65261000  0.20301000  0.21014000  1.0
  O  O194  1  0.35664000  0.06340000  0.06127000  1.0
  O  O195  1  0.34793000  0.78987000  0.79685000  1.0
  O  O196  1  0.50021000  0.05640000  0.79538000  1.0
  O  O197  1  0.49257000  0.78858000  0.05509000  1.0
  O  O198  1  0.50775000  0.94473000  0.21127000  1.0
  O  O199  1  0.50051000  0.20472000  0.94355000  1.0
  O  O200  1  0.39326000  0.94623000  0.84484000  1.0
  O  O201  1  0.60734000  0.15508000  0.05377000  1.0
  O  O202  1  0.39746000  0.94879000  0.05553000  1.0
  O  O203  1  0.60307000  0.94434000  0.05119000  1.0
  O  O204  1  0.57895000  0.03702000  0.11652000  1.0
  O  O205  1  0.42158000  0.88342000  0.96287000  1.0
  O  O206  1  0.42446000  0.03828000  0.96456000  1.0
  O  O207  1  0.57614000  0.03537000  0.96174000  1.0
