# generated using pymatgen
data_CuH12C8(N3Cl)2
_symmetry_space_group_name_H-M   'P 1'
_cell_length_a   7.50984000
_cell_length_b   8.95965000
_cell_length_c   9.39002000
_cell_angle_alpha   89.99980000
_cell_angle_beta   89.99990000
_cell_angle_gamma   83.13800000
_symmetry_Int_Tables_number   1
_chemical_formula_structural   CuH12C8(N3Cl)2
_chemical_formula_sum   'Cu2 H24 C16 N12 Cl4'
_cell_volume   627.28674833
_cell_formula_units_Z   2
loop_
 _symmetry_equiv_pos_site_id
 _symmetry_equiv_pos_as_xyz
  1  'x, y, z'
loop_
 _atom_site_type_symbol
 _atom_site_label
 _atom_site_symmetry_multiplicity
 _atom_site_fract_x
 _atom_site_fract_y
 _atom_site_fract_z
 _atom_site_occupancy
  Cu  Cu0  1  0.00000000  0.00000000  0.50000000  1.0
  Cu  Cu1  1  0.00000000  0.50000000  1.00000000  1.0
  H  H2  1  0.60926000  0.94887000  0.63621000  1.0
  H  H3  1  0.39074000  0.55113000  0.13621000  1.0
  H  H4  1  0.39074000  0.05113000  0.36379000  1.0
  H  H5  1  0.60926000  0.44887000  0.86379000  1.0
  H  H6  1  0.13146000  0.79715000  0.77974000  1.0
  H  H7  1  0.86854000  0.70285000  0.27974000  1.0
  H  H8  1  0.86855000  0.20285000  0.22026000  1.0
  H  H9  1  0.13145000  0.29714000  0.72026000  1.0
  H  H10  1  0.56389000  0.69142000  0.94167000  1.0
  H  H11  1  0.43611000  0.80858000  0.44167000  1.0
  H  H12  1  0.43612000  0.30858000  0.05833000  1.0
  H  H13  1  0.56389000  0.19142000  0.55833000  1.0
  H  H14  1  0.43807000  0.82134000  0.82422000  1.0
  H  H15  1  0.56193000  0.67866000  0.32421000  1.0
  H  H16  1  0.56193000  0.17866000  0.17578000  1.0
  H  H17  1  0.43807000  0.32134000  0.67579000  1.0
  H  H18  1  0.62915000  0.90152000  0.09929000  1.0
  H  H19  1  0.37085000  0.59848000  0.59929000  1.0
  H  H20  1  0.37085000  0.09848000  0.90071000  1.0
  H  H21  1  0.62915000  0.40152000  0.40071000  1.0
  H  H22  1  0.39748000  0.88798000  0.08162000  1.0
  H  H23  1  0.60252000  0.61202000  0.58162000  1.0
  H  H24  1  0.60252000  0.11202000  0.91837000  1.0
  H  H25  1  0.39748000  0.38798000  0.41838000  1.0
  C  C26  1  0.72384000  0.90047000  0.69824000  1.0
  C  C27  1  0.27616000  0.59953000  0.19824000  1.0
  C  C28  1  0.27616000  0.09953000  0.30176000  1.0
  C  C29  1  0.72384000  0.40047000  0.80176000  1.0
  C  C30  1  0.98703000  0.82160000  0.77447000  1.0
  C  C31  1  0.01297000  0.67840000  0.27447000  1.0
  C  C32  1  0.01297000  0.17840000  0.22553000  1.0
  C  C33  1  0.98703000  0.32160000  0.72553000  1.0
  C  C34  1  0.54883000  0.80683000  0.90116000  1.0
  C  C35  1  0.45117000  0.69317000  0.40116000  1.0
  C  C36  1  0.45117000  0.19317000  0.09884000  1.0
  C  C37  1  0.54883000  0.30683000  0.59884000  1.0
  C  C38  1  0.51600000  0.91810000  0.02412000  1.0
  C  C39  1  0.48400000  0.58190000  0.52412000  1.0
  C  C40  1  0.48400000  0.08190000  0.97588000  1.0
  C  C41  1  0.51600000  0.41810000  0.47588000  1.0
  N  N42  1  0.89791000  0.89990000  0.66571000  1.0
  N  N43  1  0.10209000  0.60010000  0.16571000  1.0
  N  N44  1  0.10209000  0.10011000  0.33429000  1.0
  N  N45  1  0.89791000  0.39990000  0.83429000  1.0
  N  N46  1  0.71120000  0.82634000  0.82116000  1.0
  N  N47  1  0.28880000  0.67365000  0.32116000  1.0
  N  N48  1  0.28880000  0.17366000  0.17884000  1.0
  N  N49  1  0.71120000  0.32634000  0.67884000  1.0
  N  N50  1  0.87780000  0.77495000  0.87149000  1.0
  N  N51  1  0.12219000  0.72505000  0.37149000  1.0
  N  N52  1  0.12220000  0.22505000  0.12851000  1.0
  N  N53  1  0.87780000  0.27495000  0.62851000  1.0
  Cl  Cl54  1  0.26713000  0.00827000  0.62378000  1.0
  Cl  Cl55  1  0.73287000  0.49173000  0.12378000  1.0
  Cl  Cl56  1  0.73287000  0.99173000  0.37622000  1.0
  Cl  Cl57  1  0.26713000  0.50827000  0.87622000  1.0
