# generated using pymatgen
data_AlH5C7O5
_symmetry_space_group_name_H-M   'P 1'
_cell_length_a   6.68882000
_cell_length_b   13.10850000
_cell_length_c   16.93680000
_cell_angle_alpha   90.00090000
_cell_angle_beta   90.00060000
_cell_angle_gamma   100.18700000
_symmetry_Int_Tables_number   1
_chemical_formula_structural   AlH5C7O5
_chemical_formula_sum   'Al4 H20 C28 O20'
_cell_volume   1461.61505391
_cell_formula_units_Z   4
loop_
 _symmetry_equiv_pos_site_id
 _symmetry_equiv_pos_as_xyz
  1  'x, y, z'
loop_
 _atom_site_type_symbol
 _atom_site_label
 _atom_site_symmetry_multiplicity
 _atom_site_fract_x
 _atom_site_fract_y
 _atom_site_fract_z
 _atom_site_occupancy
  Al  Al0  1  0.16400000  0.75287000  0.74999000  1.0
  Al  Al1  1  0.83600000  0.24713000  0.25001000  1.0
  Al  Al2  1  0.66355000  0.75129000  0.74999000  1.0
  Al  Al3  1  0.33645000  0.24871000  0.25001000  1.0
  H  H4  1  0.17671000  0.97299000  0.92386000  1.0
  H  H5  1  0.82330000  0.02700000  0.07614000  1.0
  H  H6  1  0.82328000  0.02703000  0.42387000  1.0
  H  H7  1  0.17669000  0.97298000  0.57614000  1.0
  H  H8  1  0.21444000  0.08331000  0.04654000  1.0
  H  H9  1  0.78557000  0.91669000  0.95347000  1.0
  H  H10  1  0.78555000  0.91669000  0.54653000  1.0
  H  H11  1  0.21441000  0.08331000  0.45348000  1.0
  H  H12  1  0.30532000  0.45955000  0.04786000  1.0
  H  H13  1  0.69468000  0.54045000  0.95213000  1.0
  H  H14  1  0.69469000  0.54045000  0.54786000  1.0
  H  H15  1  0.30531000  0.45956000  0.45213000  1.0
  H  H16  1  0.83982000  0.44165000  0.05965000  1.0
  H  H17  1  0.16019000  0.55837000  0.94035000  1.0
  H  H18  1  0.16019000  0.55836000  0.55964000  1.0
  H  H19  1  0.83981000  0.44163000  0.44034000  1.0
  H  H20  1  0.36481000  0.61495000  0.75007000  1.0
  H  H21  1  0.63520000  0.38505000  0.24989000  1.0
  H  H22  1  0.95911000  0.88963000  0.75008000  1.0
  H  H23  1  0.04090000  0.11036000  0.24987000  1.0
  C  C24  1  0.45636000  0.87326000  0.85925000  1.0
  C  C25  1  0.54365000  0.12673000  0.14075000  1.0
  C  C26  1  0.54363000  0.12674000  0.35926000  1.0
  C  C27  1  0.45635000  0.87326000  0.64074000  1.0
  C  C28  1  0.52062000  0.06075000  0.06829000  1.0
  C  C29  1  0.47939000  0.93924000  0.93171000  1.0
  C  C30  1  0.47937000  0.93926000  0.56829000  1.0
  C  C31  1  0.52059000  0.06075000  0.43171000  1.0
  C  C32  1  0.31732000  0.98535000  0.95784000  1.0
  C  C33  1  0.68269000  0.01465000  0.04217000  1.0
  C  C34  1  0.68268000  0.01465000  0.45784000  1.0
  C  C35  1  0.31730000  0.98535000  0.54217000  1.0
  C  C36  1  0.87264000  0.63027000  0.64101000  1.0
  C  C37  1  0.12737000  0.36973000  0.35898000  1.0
  C  C38  1  0.12737000  0.36974000  0.14102000  1.0
  C  C39  1  0.87264000  0.63026000  0.85898000  1.0
  C  C40  1  0.33779000  0.04586000  0.02577000  1.0
  C  C41  1  0.66222000  0.95414000  0.97423000  1.0
  C  C42  1  0.66221000  0.95415000  0.52578000  1.0
  C  C43  1  0.33775000  0.04585000  0.47423000  1.0
  C  C44  1  0.84903000  0.56315000  0.92967000  1.0
  C  C45  1  0.15099000  0.43686000  0.07033000  1.0
  C  C46  1  0.15097000  0.43684000  0.42967000  1.0
  C  C47  1  0.84903000  0.56316000  0.57033000  1.0
  C  C48  1  0.00901000  0.53232000  0.96545000  1.0
  C  C49  1  0.99100000  0.46769000  0.03456000  1.0
  C  C50  1  0.99097000  0.46768000  0.46544000  1.0
  C  C51  1  0.00902000  0.53232000  0.53455000  1.0
  O  O52  1  0.61650000  0.84665000  0.66848000  1.0
  O  O53  1  0.38349000  0.15337000  0.33153000  1.0
  O  O54  1  0.38349000  0.15334000  0.16850000  1.0
  O  O55  1  0.61651000  0.84665000  0.83151000  1.0
  O  O56  1  0.27810000  0.84889000  0.83065000  1.0
  O  O57  1  0.72191000  0.15111000  0.16936000  1.0
  O  O58  1  0.72189000  0.15111000  0.33066000  1.0
  O  O59  1  0.27809000  0.84888000  0.66934000  1.0
  O  O60  1  0.05094000  0.65752000  0.83088000  1.0
  O  O61  1  0.94907000  0.34249000  0.16913000  1.0
  O  O62  1  0.94907000  0.34247000  0.33088000  1.0
  O  O63  1  0.05095000  0.65753000  0.66912000  1.0
  O  O64  1  0.39192000  0.68991000  0.75000000  1.0
  O  O65  1  0.60809000  0.31009000  0.25000000  1.0
  O  O66  1  0.71013000  0.65534000  0.66859000  1.0
  O  O67  1  0.28988000  0.34468000  0.33141000  1.0
  O  O68  1  0.28988000  0.34468000  0.16859000  1.0
  O  O69  1  0.71012000  0.65532000  0.83140000  1.0
  O  O70  1  0.93472000  0.81465000  0.75000000  1.0
  O  O71  1  0.06528000  0.18535000  0.25000000  1.0
