# generated using pymatgen
data_ZnH30C32(SN10)2
_symmetry_space_group_name_H-M   'P 1'
_cell_length_a   8.45417000
_cell_length_b   9.40925000
_cell_length_c   11.62370000
_cell_angle_alpha   81.24630000
_cell_angle_beta   84.99740000
_cell_angle_gamma   89.54310000
_symmetry_Int_Tables_number   1
_chemical_formula_structural   ZnH30C32(SN10)2
_chemical_formula_sum   'Zn1 H30 C32 S2 N20'
_cell_volume   910.37034248
_cell_formula_units_Z   1
loop_
 _symmetry_equiv_pos_site_id
 _symmetry_equiv_pos_as_xyz
  1  'x, y, z'
loop_
 _atom_site_type_symbol
 _atom_site_label
 _atom_site_symmetry_multiplicity
 _atom_site_fract_x
 _atom_site_fract_y
 _atom_site_fract_z
 _atom_site_occupancy
  Zn  Zn0  1  0.00000000  0.00000000  0.00000000  1.0
  H  H1  1  0.09297000  0.96284000  0.28698000  1.0
  H  H2  1  0.90703000  0.03716000  0.71301000  1.0
  H  H3  1  0.37865000  0.87158000  0.99221000  1.0
  H  H4  1  0.62135000  0.12842000  0.00780000  1.0
  H  H5  1  0.31528000  0.90618000  0.43444000  1.0
  H  H6  1  0.68472000  0.09383000  0.56556000  1.0
  H  H7  1  0.49569000  0.83736000  0.37971000  1.0
  H  H8  1  0.50431000  0.16264000  0.62029000  1.0
  H  H9  1  0.40997000  0.71777000  0.60092000  1.0
  H  H10  1  0.59003000  0.28223000  0.39908000  1.0
  H  H11  1  0.19121000  0.30165000  0.61766000  1.0
  H  H12  1  0.80879000  0.69836000  0.38234000  1.0
  H  H13  1  0.20841000  0.60424000  0.29972000  1.0
  H  H14  1  0.79159000  0.39576000  0.70028000  1.0
  H  H15  1  0.07378000  0.23832000  0.45757000  1.0
  H  H16  1  0.92622000  0.76168000  0.54242000  1.0
  H  H17  1  0.01041000  0.37810000  0.35059000  1.0
  H  H18  1  0.98959000  0.62190000  0.64941000  1.0
  H  H19  1  0.45308000  0.40912000  0.75537000  1.0
  H  H20  1  0.54692000  0.59087000  0.24463000  1.0
  H  H21  1  0.36311000  0.57235000  0.78502000  1.0
  H  H22  1  0.63689000  0.42765000  0.21498000  1.0
  H  H23  1  0.88979000  0.34597000  0.97384000  1.0
  H  H24  1  0.11021000  0.65402000  0.02617000  1.0
  H  H25  1  0.32519000  0.17945000  0.85173000  1.0
  H  H26  1  0.67481000  0.82055000  0.14827000  1.0
  H  H27  1  0.53731000  0.13475000  0.21946000  1.0
  H  H28  1  0.46269000  0.86525000  0.78054000  1.0
  H  H29  1  0.13261000  0.38222000  0.14443000  1.0
  H  H30  1  0.86739000  0.61778000  0.85557000  1.0
  C  C31  1  0.18822000  0.92809000  0.22873000  1.0
  C  C32  1  0.81178000  0.07191000  0.77126000  1.0
  C  C33  1  0.33567000  0.88027000  0.08152000  1.0
  C  C34  1  0.66433000  0.11973000  0.91848000  1.0
  C  C35  1  0.36592000  0.82471000  0.38360000  1.0
  C  C36  1  0.63409000  0.17529000  0.61640000  1.0
  C  C37  1  0.31476000  0.67634000  0.44355000  1.0
  C  C38  1  0.68524000  0.32367000  0.55645000  1.0
  C  C39  1  0.34741000  0.64033000  0.56041000  1.0
  C  C40  1  0.65260000  0.35967000  0.43959000  1.0
  C  C41  1  0.30224000  0.50732000  0.62420000  1.0
  C  C42  1  0.69775000  0.49268000  0.37580000  1.0
  C  C43  1  0.22497000  0.40769000  0.56997000  1.0
  C  C44  1  0.77503000  0.59231000  0.43003000  1.0
  C  C45  1  0.19265000  0.44183000  0.45331000  1.0
  C  C46  1  0.80735000  0.55818000  0.54669000  1.0
  C  C47  1  0.23632000  0.57727000  0.39044000  1.0
  C  C48  1  0.76368000  0.42273000  0.60956000  1.0
  C  C49  1  0.11356000  0.33227000  0.39402000  1.0
  C  C50  1  0.88644000  0.66773000  0.60598000  1.0
  C  C51  1  0.34371000  0.47297000  0.74947000  1.0
  C  C52  1  0.65629000  0.52703000  0.25053000  1.0
  C  C53  1  0.00566000  0.33705000  0.92755000  1.0
  C  C54  1  0.99434000  0.66295000  0.07245000  1.0
  C  C55  1  0.22431000  0.24773000  0.86803000  1.0
  C  C56  1  0.77569000  0.75226000  0.13197000  1.0
  C  C57  1  0.83033000  0.05147000  0.23912000  1.0
  C  C58  1  0.16966000  0.94853000  0.76088000  1.0
  C  C59  1  0.42704000  0.19403000  0.22750000  1.0
  C  C60  1  0.57296000  0.80597000  0.77250000  1.0
  C  C61  1  0.22644000  0.31993000  0.18601000  1.0
  C  C62  1  0.77356000  0.68008000  0.81399000  1.0
  S  S63  1  0.79148000  0.99644000  0.37756000  1.0
  S  S64  1  0.20850000  0.00356000  0.62244000  1.0
  N  N65  1  0.85984000  0.08753000  0.13676000  1.0
  N  N66  1  0.14015000  0.91247000  0.86324000  1.0
  N  N67  1  0.19461000  0.94156000  0.11228000  1.0
  N  N68  1  0.80540000  0.05844000  0.88771000  1.0
  N  N69  1  0.32025000  0.86171000  0.26539000  1.0
  N  N70  1  0.67975000  0.13829000  0.73461000  1.0
  N  N71  1  0.41598000  0.83017000  0.17245000  1.0
  N  N72  1  0.58402000  0.16982000  0.82755000  1.0
  N  N73  1  0.22221000  0.28309000  0.30347000  1.0
  N  N74  1  0.77779000  0.71691000  0.69653000  1.0
  N  N75  1  0.08828000  0.21154000  0.93239000  1.0
  N  N76  1  0.91172000  0.78846000  0.06761000  1.0
  N  N77  1  0.08266000  0.44843000  0.86327000  1.0
  N  N78  1  0.91734000  0.55156000  0.13673000  1.0
  N  N79  1  0.22229000  0.38890000  0.82643000  1.0
  N  N80  1  0.77771000  0.61110000  0.17357000  1.0
  N  N81  1  0.35089000  0.20178000  0.33194000  1.0
  N  N82  1  0.64911000  0.79822000  0.66806000  1.0
  N  N83  1  0.35546000  0.26501000  0.13477000  1.0
  N  N84  1  0.64454000  0.73499000  0.86523000  1.0
