# generated using pymatgen
data_CdH8C8(SN3)2
_symmetry_space_group_name_H-M   'P 1'
_cell_length_a   5.53005000
_cell_length_b   6.93341000
_cell_length_c   16.21730000
_cell_angle_alpha   89.99950000
_cell_angle_beta   94.37660000
_cell_angle_gamma   90.00000000
_symmetry_Int_Tables_number   1
_chemical_formula_structural   CdH8C8(SN3)2
_chemical_formula_sum   'Cd2 H16 C16 S4 N12'
_cell_volume   619.99221918
_cell_formula_units_Z   2
loop_
 _symmetry_equiv_pos_site_id
 _symmetry_equiv_pos_as_xyz
  1  'x, y, z'
loop_
 _atom_site_type_symbol
 _atom_site_label
 _atom_site_symmetry_multiplicity
 _atom_site_fract_x
 _atom_site_fract_y
 _atom_site_fract_z
 _atom_site_occupancy
  Cd  Cd0  1  0.00002000  0.00000000  0.00000000  1.0
  Cd  Cd1  1  0.99999000  0.50001000  0.50000000  1.0
  H  H2  1  0.52537000  0.23153000  0.86828000  1.0
  H  H3  1  0.47463000  0.73152000  0.63172000  1.0
  H  H4  1  0.47464000  0.76848000  0.13171000  1.0
  H  H5  1  0.52536000  0.26847000  0.36829000  1.0
  H  H6  1  0.49126000  0.17318000  0.69891000  1.0
  H  H7  1  0.50872000  0.67318000  0.80109000  1.0
  H  H8  1  0.50872000  0.82681000  0.30108000  1.0
  H  H9  1  0.49128000  0.32681000  0.19891000  1.0
  H  H10  1  0.91021000  0.97284000  0.67190000  1.0
  H  H11  1  0.08977000  0.47284000  0.82810000  1.0
  H  H12  1  0.08977000  0.02714000  0.32810000  1.0
  H  H13  1  0.91023000  0.52715000  0.17190000  1.0
  H  H14  1  0.12616000  0.92641000  0.81824000  1.0
  H  H15  1  0.87383000  0.42641000  0.68176000  1.0
  H  H16  1  0.87383000  0.07359000  0.18175000  1.0
  H  H17  1  0.12617000  0.57359000  0.31825000  1.0
  C  C18  1  0.50461000  0.23131000  0.04297000  1.0
  C  C19  1  0.49540000  0.73131000  0.45703000  1.0
  C  C20  1  0.49542000  0.76871000  0.95703000  1.0
  C  C21  1  0.50461000  0.26870000  0.54297000  1.0
  C  C22  1  0.64979000  0.15850000  0.83011000  1.0
  C  C23  1  0.35020000  0.65850000  0.66989000  1.0
  C  C24  1  0.35021000  0.84149000  0.16989000  1.0
  C  C25  1  0.64980000  0.34149000  0.33011000  1.0
  C  C26  1  0.63455000  0.12835000  0.74406000  1.0
  C  C27  1  0.36543000  0.62835000  0.75594000  1.0
  C  C28  1  0.36543000  0.87164000  0.25594000  1.0
  C  C29  1  0.63457000  0.37164000  0.24406000  1.0
  C  C30  1  0.84360000  0.02621000  0.72888000  1.0
  C  C31  1  0.15639000  0.52621000  0.77112000  1.0
  C  C32  1  0.15639000  0.97378000  0.27111000  1.0
  C  C33  1  0.84361000  0.47378000  0.22889000  1.0
  S  S34  1  0.24976000  0.34088000  0.01792000  1.0
  S  S35  1  0.75025000  0.84088000  0.48209000  1.0
  S  S36  1  0.75028000  0.65913000  0.98208000  1.0
  S  S37  1  0.24974000  0.15914000  0.51792000  1.0
  N  N38  1  0.96918000  0.00098000  0.80297000  1.0
  N  N39  1  0.03081000  0.50097000  0.69703000  1.0
  N  N40  1  0.03082000  0.99903000  0.19703000  1.0
  N  N41  1  0.96918000  0.49903000  0.30297000  1.0
  N  N42  1  0.85437000  0.08011000  0.86526000  1.0
  N  N43  1  0.14563000  0.58011000  0.63474000  1.0
  N  N44  1  0.14564000  0.91989000  0.13473000  1.0
  N  N45  1  0.85437000  0.41989000  0.36527000  1.0
  N  N46  1  0.68834000  0.15038000  0.06393000  1.0
  N  N47  1  0.31168000  0.65039000  0.43607000  1.0
  N  N48  1  0.31168000  0.84964000  0.93606000  1.0
  N  N49  1  0.68833000  0.34964000  0.56394000  1.0
