# generated using pymatgen
data_H8AuC4SI
_symmetry_space_group_name_H-M   'P 1'
_cell_length_a   8.07116000
_cell_length_b   11.27450000
_cell_length_c   15.95600000
_cell_angle_alpha   90.00000000
_cell_angle_beta   90.00000000
_cell_angle_gamma   90.00000000
_symmetry_Int_Tables_number   1
_chemical_formula_structural   H8AuC4SI
_chemical_formula_sum   'H64 Au8 C32 S8 I8'
_cell_volume   1451.96876981
_cell_formula_units_Z   8
loop_
 _symmetry_equiv_pos_site_id
 _symmetry_equiv_pos_as_xyz
  1  'x, y, z'
loop_
 _atom_site_type_symbol
 _atom_site_label
 _atom_site_symmetry_multiplicity
 _atom_site_fract_x
 _atom_site_fract_y
 _atom_site_fract_z
 _atom_site_occupancy
  H  H0  1  0.65387000  0.07532000  0.32553000  1.0
  H  H1  1  0.15387000  0.57531000  0.17447000  1.0
  H  H2  1  0.84613000  0.07531000  0.82553000  1.0
  H  H3  1  0.34613000  0.57532000  0.67447000  1.0
  H  H4  1  0.55058000  0.21538000  0.33527000  1.0
  H  H5  1  0.05057000  0.71538000  0.16473000  1.0
  H  H6  1  0.94942000  0.21538000  0.83527000  1.0
  H  H7  1  0.44943000  0.71538000  0.66473000  1.0
  H  H8  1  0.90408000  0.17076000  0.26944000  1.0
  H  H9  1  0.40408000  0.67076000  0.23056000  1.0
  H  H10  1  0.59592000  0.17076000  0.76944000  1.0
  H  H11  1  0.09592000  0.67077000  0.73056000  1.0
  H  H12  1  0.74184000  0.24121000  0.21430000  1.0
  H  H13  1  0.24184000  0.74121000  0.28571000  1.0
  H  H14  1  0.75816000  0.24121000  0.71429000  1.0
  H  H15  1  0.25816000  0.74121000  0.78571000  1.0
  H  H16  1  0.94748000  0.38956000  0.28538000  1.0
  H  H17  1  0.44748000  0.88956000  0.21462000  1.0
  H  H18  1  0.55252000  0.38956000  0.78538000  1.0
  H  H19  1  0.05252000  0.88956000  0.71462000  1.0
  H  H20  1  0.73807000  0.40675000  0.31790000  1.0
  H  H21  1  0.23807000  0.90675000  0.18210000  1.0
  H  H22  1  0.76193000  0.40675000  0.81790000  1.0
  H  H23  1  0.26193000  0.90675000  0.68210000  1.0
  H  H24  1  0.87750000  0.38885000  0.45256000  1.0
  H  H25  1  0.37750000  0.88885000  0.04744000  1.0
  H  H26  1  0.62250000  0.38885000  0.95256000  1.0
  H  H27  1  0.12250000  0.88885000  0.54744000  1.0
  H  H28  1  0.02228000  0.28321000  0.41107000  1.0
  H  H29  1  0.52228000  0.78321000  0.08893000  1.0
  H  H30  1  0.47772000  0.28321000  0.91107000  1.0
  H  H31  1  0.97772000  0.78321000  0.58893000  1.0
  H  H32  1  0.37431000  0.11128000  0.68381000  1.0
  H  H33  1  0.87431000  0.61128000  0.81619000  1.0
  H  H34  1  0.12569000  0.11128000  0.18381000  1.0
  H  H35  1  0.62569000  0.61128000  0.31619000  1.0
  H  H36  1  0.27736000  0.21135000  0.75633000  1.0
  H  H37  1  0.77736000  0.71135000  0.74367000  1.0
  H  H38  1  0.22264000  0.21135000  0.25633000  1.0
  H  H39  1  0.72264000  0.71135000  0.24367000  1.0
  H  H40  1  0.12887000  0.10552000  0.59574000  1.0
  H  H41  1  0.62888000  0.60552000  0.90426000  1.0
  H  H42  1  0.37113000  0.10552000  0.09574000  1.0
  H  H43  1  0.87113000  0.60552000  0.40426000  1.0
  H  H44  1  0.03880000  0.11051000  0.69722000  1.0
  H  H45  1  0.53880000  0.61051000  0.80278000  1.0
  H  H46  1  0.46120000  0.11051000  0.19722000  1.0
  H  H47  1  0.96120000  0.61051000  0.30278000  1.0
  H  H48  1  0.92673000  0.27235000  0.59353000  1.0
  H  H49  1  0.42674000  0.77235000  0.90647000  1.0
  H  H50  1  0.57326000  0.27235000  0.09353000  1.0
  H  H51  1  0.07326000  0.77235000  0.40647000  1.0
  H  H52  1  0.01250000  0.33112000  0.68700000  1.0
  H  H53  1  0.51250000  0.83112000  0.81300000  1.0
  H  H54  1  0.48750000  0.33112000  0.18700000  1.0
  H  H55  1  0.98750000  0.83112000  0.31300000  1.0
  H  H56  1  0.15620000  0.44217000  0.57721000  1.0
  H  H57  1  0.65620000  0.94217000  0.92279000  1.0
  H  H58  1  0.34380000  0.44217000  0.07721000  1.0
  H  H59  1  0.84379000  0.94217000  0.42279000  1.0
  H  H60  1  0.18490000  0.31184000  0.51532000  1.0
  H  H61  1  0.68490000  0.81185000  0.98468000  1.0
  H  H62  1  0.31510000  0.31184000  0.01532000  1.0
  H  H63  1  0.81510000  0.81184000  0.48468000  1.0
  Au  Au64  1  0.46234000  0.00041000  0.52399000  1.0
  Au  Au65  1  0.96234000  0.50041000  0.97601000  1.0
  Au  Au66  1  0.03766000  0.00041000  0.02399000  1.0
  Au  Au67  1  0.53766000  0.50041000  0.47601000  1.0
  Au  Au68  1  0.55456000  0.25261000  0.53047000  1.0
  Au  Au69  1  0.05456000  0.75260000  0.96953000  1.0
  Au  Au70  1  0.94544000  0.25260000  0.03047000  1.0
  Au  Au71  1  0.44544000  0.75261000  0.46953000  1.0
  C  C72  1  0.67140000  0.17068000  0.33573000  1.0
  C  C73  1  0.17140000  0.67068000  0.16428000  1.0
  C  C74  1  0.82860000  0.17068000  0.83572000  1.0
  C  C75  1  0.32860000  0.67068000  0.66428000  1.0
  C  C76  1  0.79562000  0.22881000  0.27684000  1.0
  C  C77  1  0.29561000  0.72881000  0.22316000  1.0
  C  C78  1  0.70439000  0.22881000  0.77684000  1.0
  C  C79  1  0.20439000  0.72882000  0.72316000  1.0
  C  C80  1  0.84447000  0.34582000  0.31808000  1.0
  C  C81  1  0.34447000  0.84582000  0.18192000  1.0
  C  C82  1  0.65553000  0.34581000  0.81808000  1.0
  C  C83  1  0.15553000  0.84582000  0.68192000  1.0
  C  C84  1  0.89440000  0.31609000  0.40777000  1.0
  C  C85  1  0.39440000  0.81609000  0.09223000  1.0
  C  C86  1  0.60560000  0.31609000  0.90777000  1.0
  C  C87  1  0.10560000  0.81609000  0.59223000  1.0
  C  C88  1  0.28592000  0.18464000  0.69025000  1.0
  C  C89  1  0.78592000  0.68464000  0.80975000  1.0
  C  C90  1  0.21408000  0.18464000  0.19025000  1.0
  C  C91  1  0.71408000  0.68464000  0.30975000  1.0
  C  C92  1  0.11584000  0.15995000  0.65258000  1.0
  C  C93  1  0.61584000  0.65995000  0.84742000  1.0
  C  C94  1  0.38415000  0.15995000  0.15258000  1.0
  C  C95  1  0.88416000  0.65995000  0.34742000  1.0
  C  C96  1  0.04174000  0.28031000  0.62999000  1.0
  C  C97  1  0.54174000  0.78031000  0.87001000  1.0
  C  C98  1  0.45826000  0.28031000  0.12999000  1.0
  C  C99  1  0.95827000  0.78031000  0.37001000  1.0
  C  C100  1  0.17312000  0.34573000  0.57941000  1.0
  C  C101  1  0.67312000  0.84573000  0.92059000  1.0
  C  C102  1  0.32687000  0.34573000  0.07941000  1.0
  C  C103  1  0.82688000  0.84573000  0.42059000  1.0
  S  S104  1  0.76424000  0.18975000  0.44017000  1.0
  S  S105  1  0.26424000  0.68975000  0.05983000  1.0
  S  S106  1  0.73576000  0.18975000  0.94017000  1.0
  S  S107  1  0.23576000  0.68975000  0.55983000  1.0
  S  S108  1  0.36900000  0.31449000  0.63411000  1.0
  S  S109  1  0.86900000  0.81449000  0.86589000  1.0
  S  S110  1  0.13100000  0.31449000  0.13411000  1.0
  S  S111  1  0.63100000  0.81449000  0.36589000  1.0
  I  I112  1  0.66482000  0.94396000  0.64460000  1.0
  I  I113  1  0.16482000  0.44396000  0.85539000  1.0
  I  I114  1  0.83518000  0.94396000  0.14460000  1.0
  I  I115  1  0.33518000  0.44396000  0.35540000  1.0
  I  I116  1  0.24230000  0.05517000  0.41098000  1.0
  I  I117  1  0.74229000  0.55517000  0.08901000  1.0
  I  I118  1  0.25771000  0.05517000  0.91098000  1.0
  I  I119  1  0.75771000  0.55517000  0.58902000  1.0
