# generated using pymatgen
data_GdH18C19N3O11
_symmetry_space_group_name_H-M   'P 1'
_cell_length_a   7.21807000
_cell_length_b   11.11120000
_cell_length_c   13.46300000
_cell_angle_alpha   102.78500000
_cell_angle_beta   101.76500000
_cell_angle_gamma   90.80320000
_symmetry_Int_Tables_number   1
_chemical_formula_structural   GdH18C19N3O11
_chemical_formula_sum   'Gd2 H36 C38 N6 O22'
_cell_volume   1028.88122055
_cell_formula_units_Z   2
loop_
 _symmetry_equiv_pos_site_id
 _symmetry_equiv_pos_as_xyz
  1  'x, y, z'
loop_
 _atom_site_type_symbol
 _atom_site_label
 _atom_site_symmetry_multiplicity
 _atom_site_fract_x
 _atom_site_fract_y
 _atom_site_fract_z
 _atom_site_occupancy
  Gd  Gd0  1  0.11260000  0.89116000  0.66069000  1.0
  Gd  Gd1  1  0.88739000  0.10884000  0.33931000  1.0
  H  H2  1  0.83602000  0.73152000  0.18660000  1.0
  H  H3  1  0.16399000  0.26846000  0.81340000  1.0
  H  H4  1  0.95594000  0.34936000  0.17013000  1.0
  H  H5  1  0.04406000  0.65063000  0.82987000  1.0
  H  H6  1  0.13248000  0.61789000  0.46012000  1.0
  H  H7  1  0.86752000  0.38211000  0.53988000  1.0
  H  H8  1  0.39206000  0.48738000  0.61916000  1.0
  H  H9  1  0.60796000  0.51263000  0.38084000  1.0
  H  H10  1  0.70674000  0.36441000  0.88625000  1.0
  H  H11  1  0.29325000  0.63559000  0.11375000  1.0
  H  H12  1  0.56937000  0.74240000  0.91838000  1.0
  H  H13  1  0.43062000  0.25760000  0.08163000  1.0
  H  H14  1  0.79278000  0.26054000  0.75387000  1.0
  H  H15  1  0.20722000  0.73946000  0.24612000  1.0
  H  H16  1  0.71314000  0.85043000  0.52768000  1.0
  H  H17  1  0.28685000  0.14956000  0.47232000  1.0
  H  H18  1  0.76918000  0.99072000  0.54061000  1.0
  H  H19  1  0.23082000  0.00928000  0.45939000  1.0
  H  H20  1  0.40571000  0.07012000  0.63349000  1.0
  H  H21  1  0.59428000  0.92987000  0.36651000  1.0
  H  H22  1  0.52961000  0.95436000  0.62189000  1.0
  H  H23  1  0.47038000  0.04564000  0.37811000  1.0
  H  H24  1  0.72937000  0.93449000  0.78767000  1.0
  H  H25  1  0.27062000  0.06552000  0.21233000  1.0
  H  H26  1  0.55586000  0.17743000  0.91012000  1.0
  H  H27  1  0.44414000  0.82258000  0.08989000  1.0
  H  H28  1  0.61660000  0.09544000  0.01097000  1.0
  H  H29  1  0.38341000  0.90457000  0.98904000  1.0
  H  H30  1  0.52534000  0.01232000  0.87844000  1.0
  H  H31  1  0.47466000  0.98769000  0.12157000  1.0
  H  H32  1  0.90814000  0.26825000  0.97971000  1.0
  H  H33  1  0.09187000  0.73175000  0.02029000  1.0
  H  H34  1  0.08602000  0.16086000  0.95680000  1.0
  H  H35  1  0.91399000  0.83914000  0.04320000  1.0
  H  H36  1  0.96536000  0.16274000  0.06163000  1.0
  H  H37  1  0.03465000  0.83727000  0.93837000  1.0
  C  C38  1  0.98832000  0.82054000  0.38790000  1.0
  C  C39  1  0.01168000  0.17946000  0.61209000  1.0
  C  C40  1  0.97997000  0.68806000  0.32984000  1.0
  C  C41  1  0.02004000  0.31194000  0.67016000  1.0
  C  C42  1  0.89721000  0.65945000  0.22370000  1.0
  C  C43  1  0.10280000  0.34054000  0.77630000  1.0
  C  C44  1  0.89126000  0.53755000  0.16537000  1.0
  C  C45  1  0.10874000  0.46244000  0.83462000  1.0
  C  C46  1  0.96587000  0.44469000  0.21452000  1.0
  C  C47  1  0.03412000  0.55531000  0.78548000  1.0
  C  C48  1  0.05158000  0.47354000  0.32058000  1.0
  C  C49  1  0.94841000  0.52645000  0.67942000  1.0
  C  C50  1  0.06072000  0.59569000  0.37821000  1.0
  C  C51  1  0.93929000  0.40431000  0.62178000  1.0
  C  C52  1  0.13368000  0.37395000  0.37423000  1.0
  C  C53  1  0.86633000  0.62605000  0.62577000  1.0
  C  C54  1  0.37259000  0.72826000  0.72488000  1.0
  C  C55  1  0.62740000  0.27174000  0.27513000  1.0
  C  C56  1  0.47454000  0.62604000  0.76438000  1.0
  C  C57  1  0.52547000  0.37396000  0.23563000  1.0
  C  C58  1  0.46594000  0.50698000  0.70092000  1.0
  C  C59  1  0.53406000  0.49302000  0.29908000  1.0
  C  C60  1  0.55256000  0.41244000  0.74493000  1.0
  C  C61  1  0.44743000  0.58757000  0.25507000  1.0
  C  C62  1  0.64524000  0.43682000  0.84962000  1.0
  C  C63  1  0.35476000  0.56317000  0.15038000  1.0
  C  C64  1  0.65291000  0.55618000  0.91235000  1.0
  C  C65  1  0.34709000  0.44381000  0.08765000  1.0
  C  C66  1  0.56747000  0.65014000  0.86920000  1.0
  C  C67  1  0.43252000  0.34986000  0.13081000  1.0
  C  C68  1  0.53748000  0.28248000  0.68419000  1.0
  C  C69  1  0.46253000  0.71752000  0.31581000  1.0
  C  C70  1  0.85017000  0.99747000  0.83502000  1.0
  C  C71  1  0.14983000  0.00254000  0.16498000  1.0
  C  C72  1  0.61478000  0.09219000  0.92862000  1.0
  C  C73  1  0.38523000  0.90782000  0.07139000  1.0
  C  C74  1  0.95093000  0.17402000  0.98144000  1.0
  C  C75  1  0.04907000  0.82599000  0.01856000  1.0
  N  N76  1  0.80981000  0.50176000  0.05766000  1.0
  N  N77  1  0.19019000  0.49823000  0.94234000  1.0
  N  N78  1  0.73678000  0.58908000  0.01946000  1.0
  N  N79  1  0.26322000  0.41091000  0.98055000  1.0
  N  N80  1  0.80761000  0.08340000  0.91195000  1.0
  N  N81  1  0.19238000  0.91660000  0.08806000  1.0
  O  O82  1  0.07664000  0.85036000  0.48269000  1.0
  O  O83  1  0.92336000  0.14963000  0.51731000  1.0
  O  O84  1  0.91196000  0.89761000  0.33791000  1.0
  O  O85  1  0.08804000  0.10239000  0.66208000  1.0
  O  O86  1  0.07843000  0.26109000  0.32296000  1.0
  O  O87  1  0.92157000  0.73891000  0.67705000  1.0
  O  O88  1  0.24371000  0.40330000  0.46048000  1.0
  O  O89  1  0.75630000  0.59671000  0.53952000  1.0
  O  O90  1  0.34974000  0.82665000  0.79167000  1.0
  O  O91  1  0.65025000  0.17335000  0.20833000  1.0
  O  O92  1  0.30361000  0.71481000  0.62828000  1.0
  O  O93  1  0.69638000  0.28519000  0.37173000  1.0
  O  O94  1  0.40232000  0.23400000  0.61472000  1.0
  O  O95  1  0.59769000  0.76601000  0.38528000  1.0
  O  O96  1  0.67791000  0.20982000  0.71351000  1.0
  O  O97  1  0.32209000  0.79018000  0.28648000  1.0
  O  O98  1  0.75674000  0.92768000  0.58037000  1.0
  O  O99  1  0.24326000  0.07232000  0.41963000  1.0
  O  O100  1  0.40812000  0.98313000  0.63867000  1.0
  O  O101  1  0.59187000  0.01686000  0.36133000  1.0
  O  O102  1  0.01398000  0.98660000  0.81679000  1.0
  O  O103  1  0.98601000  0.01340000  0.18321000  1.0
