# generated using pymatgen
data_ZnH7C9NO7
_symmetry_space_group_name_H-M   'P 1'
_cell_length_a   5.19007000
_cell_length_b   9.31881000
_cell_length_c   21.32370000
_cell_angle_alpha   90.00000000
_cell_angle_beta   90.00020000
_cell_angle_gamma   103.20200000
_symmetry_Int_Tables_number   1
_chemical_formula_structural   ZnH7C9NO7
_chemical_formula_sum   'Zn4 H28 C36 N4 O28'
_cell_volume   1004.06963785
_cell_formula_units_Z   4
loop_
 _symmetry_equiv_pos_site_id
 _symmetry_equiv_pos_as_xyz
  1  'x, y, z'
loop_
 _atom_site_type_symbol
 _atom_site_label
 _atom_site_symmetry_multiplicity
 _atom_site_fract_x
 _atom_site_fract_y
 _atom_site_fract_z
 _atom_site_occupancy
  Zn  Zn0  1  0.42544000  0.26589000  0.37418000  1.0
  Zn  Zn1  1  0.07458000  0.23411000  0.87418000  1.0
  Zn  Zn2  1  0.57457000  0.73410000  0.62582000  1.0
  Zn  Zn3  1  0.92540000  0.76588000  0.12582000  1.0
  H  H4  1  0.24626000  0.38369000  0.47968000  1.0
  H  H5  1  0.25375000  0.11632000  0.97969000  1.0
  H  H6  1  0.75375000  0.61632000  0.52031000  1.0
  H  H7  1  0.74625000  0.88367000  0.02031000  1.0
  H  H8  1  0.02877000  0.25403000  0.44817000  1.0
  H  H9  1  0.47124000  0.24600000  0.94817000  1.0
  H  H10  1  0.97124000  0.74598000  0.55183000  1.0
  H  H11  1  0.52875000  0.75400000  0.05183000  1.0
  H  H12  1  0.28523000  0.35410000  0.18402000  1.0
  H  H13  1  0.21477000  0.14588000  0.68402000  1.0
  H  H14  1  0.71477000  0.64588000  0.81598000  1.0
  H  H15  1  0.78522000  0.85412000  0.31599000  1.0
  H  H16  1  0.57375000  0.02647000  0.22618000  1.0
  H  H17  1  0.92624000  0.47352000  0.72618000  1.0
  H  H18  1  0.42624000  0.97353000  0.77382000  1.0
  H  H19  1  0.07375000  0.52648000  0.27382000  1.0
  H  H20  1  0.74345000  0.21310000  0.04063000  1.0
  H  H21  1  0.75654000  0.28690000  0.54063000  1.0
  H  H22  1  0.25655000  0.78691000  0.95937000  1.0
  H  H23  1  0.24346000  0.71310000  0.45937000  1.0
  H  H24  1  0.16782000  0.34565000  0.02044000  1.0
  H  H25  1  0.33217000  0.15434000  0.52044000  1.0
  H  H26  1  0.83218000  0.65435000  0.97956000  1.0
  H  H27  1  0.66783000  0.84565000  0.47957000  1.0
  H  H28  1  0.39651000  0.40461000  0.08241000  1.0
  H  H29  1  0.10348000  0.09538000  0.58240000  1.0
  H  H30  1  0.60348000  0.59539000  0.91759000  1.0
  H  H31  1  0.89652000  0.90461000  0.41760000  1.0
  C  C32  1  0.09931000  0.27979000  0.17091000  1.0
  C  C33  1  0.40072000  0.22019000  0.67091000  1.0
  C  C34  1  0.90070000  0.72021000  0.82909000  1.0
  C  C35  1  0.59929000  0.77981000  0.32909000  1.0
  C  C36  1  0.94206000  0.18637000  0.21347000  1.0
  C  C37  1  0.55794000  0.31362000  0.71348000  1.0
  C  C38  1  0.05794000  0.81362000  0.78652000  1.0
  C  C39  1  0.44205000  0.68639000  0.28652000  1.0
  C  C40  1  0.69950000  0.10023000  0.19340000  1.0
  C  C41  1  0.80047000  0.39977000  0.69339000  1.0
  C  C42  1  0.30048000  0.89976000  0.80660000  1.0
  C  C43  1  0.19952000  0.60024000  0.30661000  1.0
  C  C44  1  0.62103000  0.10792000  0.13085000  1.0
  C  C45  1  0.87896000  0.39207000  0.63085000  1.0
  C  C46  1  0.37896000  0.89208000  0.86915000  1.0
  C  C47  1  0.12104000  0.60793000  0.36915000  1.0
  C  C48  1  0.78819000  0.20164000  0.09000000  1.0
  C  C49  1  0.71183000  0.29835000  0.59001000  1.0
  C  C50  1  0.21181000  0.79836000  0.90999000  1.0
  C  C51  1  0.28818000  0.70165000  0.41000000  1.0
  C  C52  1  0.04244000  0.17861000  0.27965000  1.0
  C  C53  1  0.45753000  0.32137000  0.77966000  1.0
  C  C54  1  0.95756000  0.82138000  0.72034000  1.0
  C  C55  1  0.54247000  0.67863000  0.22034000  1.0
  C  C56  1  0.36328000  0.01375000  0.10643000  1.0
  C  C57  1  0.13673000  0.48625000  0.60643000  1.0
  C  C58  1  0.63672000  0.98625000  0.89357000  1.0
  C  C59  1  0.86326000  0.51376000  0.39357000  1.0
  C  C60  1  0.18928000  0.39012000  0.06812000  1.0
  C  C61  1  0.31072000  0.10987000  0.56812000  1.0
  C  C62  1  0.81072000  0.60988000  0.93188000  1.0
  C  C63  1  0.68929000  0.89012000  0.43189000  1.0
  C  C64  1  0.12315000  0.54167000  0.06921000  1.0
  C  C65  1  0.37685000  0.95834000  0.56920000  1.0
  C  C66  1  0.87685000  0.45833000  0.93080000  1.0
  C  C67  1  0.62316000  0.04167000  0.43080000  1.0
  N  N68  1  0.02114000  0.28504000  0.11070000  1.0
  N  N69  1  0.47889000  0.21495000  0.61071000  1.0
  N  N70  1  0.97888000  0.71496000  0.88929000  1.0
  N  N71  1  0.52112000  0.78505000  0.38930000  1.0
  O  O72  1  0.26996000  0.26659000  0.29005000  1.0
  O  O73  1  0.23005000  0.23340000  0.79006000  1.0
  O  O74  1  0.73004000  0.73340000  0.70994000  1.0
  O  O75  1  0.76994000  0.76660000  0.20994000  1.0
  O  O76  1  0.90817000  0.09144000  0.31771000  1.0
  O  O77  1  0.59180000  0.40857000  0.81770000  1.0
  O  O78  1  0.09183000  0.90856000  0.68229000  1.0
  O  O79  1  0.40820000  0.59143000  0.18230000  1.0
  O  O80  1  0.25471000  0.91021000  0.14422000  1.0
  O  O81  1  0.24530000  0.58978000  0.64423000  1.0
  O  O82  1  0.74528000  0.08979000  0.85578000  1.0
  O  O83  1  0.75471000  0.41022000  0.35577000  1.0
  O  O84  1  0.27427000  0.04150000  0.05433000  1.0
  O  O85  1  0.22573000  0.45850000  0.55433000  1.0
  O  O86  1  0.72574000  0.95850000  0.94567000  1.0
  O  O87  1  0.77426000  0.54150000  0.44567000  1.0
  O  O88  1  0.93237000  0.55862000  0.10387000  1.0
  O  O89  1  0.56764000  0.94138000  0.60387000  1.0
  O  O90  1  0.06762000  0.44138000  0.89613000  1.0
  O  O91  1  0.43237000  0.05863000  0.39614000  1.0
  O  O92  1  0.26313000  0.63766000  0.03435000  1.0
  O  O93  1  0.23685000  0.86234000  0.53435000  1.0
  O  O94  1  0.73686000  0.36234000  0.96566000  1.0
  O  O95  1  0.76317000  0.13766000  0.46565000  1.0
  O  O96  1  0.20072000  0.32663000  0.44049000  1.0
  O  O97  1  0.29928000  0.17340000  0.94050000  1.0
  O  O98  1  0.79929000  0.67338000  0.55951000  1.0
  O  O99  1  0.70072000  0.82660000  0.05950000  1.0
