# generated using pymatgen
data_CuH11C9(NO)3
_symmetry_space_group_name_H-M   'P 1'
_cell_length_a   9.72946000
_cell_length_b   10.46270000
_cell_length_c   27.09900000
_cell_angle_alpha   89.98520000
_cell_angle_beta   90.02840000
_cell_angle_gamma   89.99020000
_symmetry_Int_Tables_number   1
_chemical_formula_structural   CuH11C9(NO)3
_chemical_formula_sum   'Cu8 H88 C72 N24 O24'
_cell_volume   2758.58074520
_cell_formula_units_Z   8
loop_
 _symmetry_equiv_pos_site_id
 _symmetry_equiv_pos_as_xyz
  1  'x, y, z'
loop_
 _atom_site_type_symbol
 _atom_site_label
 _atom_site_symmetry_multiplicity
 _atom_site_fract_x
 _atom_site_fract_y
 _atom_site_fract_z
 _atom_site_occupancy
  Cu  Cu0  1  0.67720000  0.38710000  0.66696000  1.0
  Cu  Cu1  1  0.67761000  0.61215000  0.33295000  1.0
  Cu  Cu2  1  0.32285000  0.88717000  0.83304000  1.0
  Cu  Cu3  1  0.32291000  0.11301000  0.16697000  1.0
  Cu  Cu4  1  0.82307000  0.60549000  0.83481000  1.0
  Cu  Cu5  1  0.82244000  0.39483000  0.16506000  1.0
  Cu  Cu6  1  0.17687000  0.10543000  0.66517000  1.0
  Cu  Cu7  1  0.17711000  0.89481000  0.33483000  1.0
  H  H8  1  0.91394000  0.27670000  0.60999000  1.0
  H  H9  1  0.91368000  0.72370000  0.39001000  1.0
  H  H10  1  0.08606000  0.77678000  0.88996000  1.0
  H  H11  1  0.08599000  0.22307000  0.10999000  1.0
  H  H12  1  0.58163000  0.72438000  0.88916000  1.0
  H  H13  1  0.58212000  0.27517000  0.11064000  1.0
  H  H14  1  0.41839000  0.22429000  0.61085000  1.0
  H  H15  1  0.41856000  0.77591000  0.38925000  1.0
  H  H16  1  0.52324000  0.27583000  0.81390000  1.0
  H  H17  1  0.52351000  0.72389000  0.18639000  1.0
  H  H18  1  0.47676000  0.77589000  0.68611000  1.0
  H  H19  1  0.47629000  0.22397000  0.31408000  1.0
  H  H20  1  0.53951000  0.16889000  0.76282000  1.0
  H  H21  1  0.53935000  0.83082000  0.23751000  1.0
  H  H22  1  0.46061000  0.66893000  0.73721000  1.0
  H  H23  1  0.46029000  0.33147000  0.26313000  1.0
  H  H24  1  0.37300000  0.21031000  0.78556000  1.0
  H  H25  1  0.37303000  0.78950000  0.21448000  1.0
  H  H26  1  0.62707000  0.71042000  0.71444000  1.0
  H  H27  1  0.62665000  0.28985000  0.28598000  1.0
  H  H28  1  0.40725000  0.43525000  0.75984000  1.0
  H  H29  1  0.40653000  0.56471000  0.24024000  1.0
  H  H30  1  0.59272000  0.93533000  0.74015000  1.0
  H  H31  1  0.59285000  0.06522000  0.25987000  1.0
  H  H32  1  0.03066000  0.70040000  0.73754000  1.0
  H  H33  1  0.02883000  0.30047000  0.26216000  1.0
  H  H34  1  0.96936000  0.20034000  0.76246000  1.0
  H  H35  1  0.96997000  0.79976000  0.23720000  1.0
  H  H36  1  0.09586000  0.48813000  0.70186000  1.0
  H  H37  1  0.09458000  0.51262000  0.29789000  1.0
  H  H38  1  0.90427000  0.98811000  0.79820000  1.0
  H  H39  1  0.90379000  0.01220000  0.20195000  1.0
  H  H40  1  0.14692000  0.43329000  0.76098000  1.0
  H  H41  1  0.14841000  0.56613000  0.23887000  1.0
  H  H42  1  0.85314000  0.93321000  0.73910000  1.0
  H  H43  1  0.85321000  0.06630000  0.26122000  1.0
  H  H44  1  0.23676000  0.56245000  0.73297000  1.0
  H  H45  1  0.23600000  0.43664000  0.26772000  1.0
  H  H46  1  0.76327000  0.06239000  0.76709000  1.0
  H  H47  1  0.76328000  0.93726000  0.23308000  1.0
  H  H48  1  0.52583000  0.53118000  0.60052000  1.0
  H  H49  1  0.52552000  0.46912000  0.39961000  1.0
  H  H50  1  0.47411000  0.03122000  0.89947000  1.0
  H  H51  1  0.47426000  0.96869000  0.10056000  1.0
  H  H52  1  0.51267000  0.54350000  0.53524000  1.0
  H  H53  1  0.51269000  0.45657000  0.46489000  1.0
  H  H54  1  0.48743000  0.04350000  0.96474000  1.0
  H  H55  1  0.48748000  0.95651000  0.03529000  1.0
  H  H56  1  0.61039000  0.65713000  0.56838000  1.0
  H  H57  1  0.61076000  0.34339000  0.43167000  1.0
  H  H58  1  0.38940000  0.15701000  0.93163000  1.0
  H  H59  1  0.38959000  0.84294000  0.06837000  1.0
  H  H60  1  0.06860000  0.24296000  0.53314000  1.0
  H  H61  1  0.06882000  0.75736000  0.46687000  1.0
  H  H62  1  0.93139000  0.74282000  0.96680000  1.0
  H  H63  1  0.93132000  0.25692000  0.03308000  1.0
  H  H64  1  0.11942000  0.40285000  0.52248000  1.0
  H  H65  1  0.11927000  0.59732000  0.47746000  1.0
  H  H66  1  0.88068000  0.90273000  0.97747000  1.0
  H  H67  1  0.88060000  0.09701000  0.02243000  1.0
  H  H68  1  0.02003000  0.32215000  0.47738000  1.0
  H  H69  1  0.02040000  0.67816000  0.52263000  1.0
  H  H70  1  0.97992000  0.82185000  0.02258000  1.0
  H  H71  1  0.97987000  0.17777000  0.97734000  1.0
  H  H72  1  0.42380000  0.75934000  0.96845000  1.0
  H  H73  1  0.42349000  0.24063000  0.03142000  1.0
  H  H74  1  0.57630000  0.25939000  0.53156000  1.0
  H  H75  1  0.57633000  0.74077000  0.46860000  1.0
  H  H76  1  0.46004000  0.66254000  0.02117000  1.0
  H  H77  1  0.45945000  0.33742000  0.97870000  1.0
  H  H78  1  0.54007000  0.16272000  0.47883000  1.0
  H  H79  1  0.54023000  0.83758000  0.52129000  1.0
  H  H80  1  0.36658000  0.59904000  0.97058000  1.0
  H  H81  1  0.36688000  0.40113000  0.02941000  1.0
  H  H82  1  0.63342000  0.09906000  0.52942000  1.0
  H  H83  1  0.63354000  0.90108000  0.47070000  1.0
  H  H84  1  0.97261000  0.47487000  0.90376000  1.0
  H  H85  1  0.97287000  0.52461000  0.09610000  1.0
  H  H86  1  0.02753000  0.97490000  0.59624000  1.0
  H  H87  1  0.02760000  0.02528000  0.40371000  1.0
  H  H88  1  0.87810000  0.34424000  0.92862000  1.0
  H  H89  1  0.87816000  0.65523000  0.07128000  1.0
  H  H90  1  0.12204000  0.84430000  0.57139000  1.0
  H  H91  1  0.12204000  0.15590000  0.42860000  1.0
  H  H92  1  0.97081000  0.44621000  0.96851000  1.0
  H  H93  1  0.97123000  0.55362000  0.03136000  1.0
  H  H94  1  0.02915000  0.94620000  0.53149000  1.0
  H  H95  1  0.02919000  0.05396000  0.46847000  1.0
  C  C96  1  0.47727000  0.24594000  0.77879000  1.0
  C  C97  1  0.47723000  0.75380000  0.22144000  1.0
  C  C98  1  0.52278000  0.74601000  0.72122000  1.0
  C  C99  1  0.52244000  0.25425000  0.27906000  1.0
  C  C100  1  0.47204000  0.36024000  0.74329000  1.0
  C  C101  1  0.47183000  0.63933000  0.25688000  1.0
  C  C102  1  0.52796000  0.86029000  0.75671000  1.0
  C  C103  1  0.52784000  0.14030000  0.24341000  1.0
  C  C104  1  0.40616000  0.32016000  0.69418000  1.0
  C  C105  1  0.40632000  0.67950000  0.30601000  1.0
  C  C106  1  0.59387000  0.82023000  0.80582000  1.0
  C  C107  1  0.59364000  0.18091000  0.19438000  1.0
  C  C108  1  0.68645000  0.47034000  0.76336000  1.0
  C  C109  1  0.68590000  0.52995000  0.23644000  1.0
  C  C110  1  0.31356000  0.97034000  0.73665000  1.0
  C  C111  1  0.31366000  0.02990000  0.26336000  1.0
  C  C112  1  0.82127000  0.51088000  0.74032000  1.0
  C  C113  1  0.82055000  0.48816000  0.25953000  1.0
  C  C114  1  0.17878000  0.01088000  0.75968000  1.0
  C  C115  1  0.17893000  0.98922000  0.24030000  1.0
  C  C116  1  0.03925000  0.61553000  0.76183000  1.0
  C  C117  1  0.03874000  0.38528000  0.23788000  1.0
  C  C118  1  0.96075000  0.11549000  0.73818000  1.0
  C  C119  1  0.96121000  0.88419000  0.26168000  1.0
  C  C120  1  0.13537000  0.51862000  0.73776000  1.0
  C  C121  1  0.13523000  0.48133000  0.26225000  1.0
  C  C122  1  0.86470000  0.01857000  0.76229000  1.0
  C  C123  1  0.86463000  0.98126000  0.23784000  1.0
  C  C124  1  0.09803000  0.66578000  0.81078000  1.0
  C  C125  1  0.09766000  0.33446000  0.18909000  1.0
  C  C126  1  0.90189000  0.16573000  0.68923000  1.0
  C  C127  1  0.90264000  0.83313000  0.31051000  1.0
  C  C128  1  0.58240000  0.55547000  0.56678000  1.0
  C  C129  1  0.58234000  0.44495000  0.43332000  1.0
  C  C130  1  0.41757000  0.05538000  0.93323000  1.0
  C  C131  1  0.41770000  0.94456000  0.06679000  1.0
  C  C132  1  0.70748000  0.47409000  0.56224000  1.0
  C  C133  1  0.70718000  0.52663000  0.43787000  1.0
  C  C134  1  0.29262000  0.97386000  0.93779000  1.0
  C  C135  1  0.29268000  0.02602000  0.06223000  1.0
  C  C136  1  0.80561000  0.46647000  0.52364000  1.0
  C  C137  1  0.80549000  0.53425000  0.47645000  1.0
  C  C138  1  0.19451000  0.96610000  0.97639000  1.0
  C  C139  1  0.19453000  0.03368000  0.02360000  1.0
  C  C140  1  0.90583000  0.38036000  0.54069000  1.0
  C  C141  1  0.90564000  0.62030000  0.45937000  1.0
  C  C142  1  0.09430000  0.88011000  0.95931000  1.0
  C  C143  1  0.09423000  0.11960000  0.04067000  1.0
  C  C144  1  0.03492000  0.33421000  0.51726000  1.0
  C  C145  1  0.03501000  0.66617000  0.48274000  1.0
  C  C146  1  0.96512000  0.83400000  0.98270000  1.0
  C  C147  1  0.96505000  0.16569000  0.01722000  1.0
  C  C148  1  0.45189000  0.66294000  0.98078000  1.0
  C  C149  1  0.45180000  0.33696000  0.01909000  1.0
  C  C150  1  0.54817000  0.16304000  0.51922000  1.0
  C  C151  1  0.54828000  0.83717000  0.48090000  1.0
  C  C152  1  0.58367000  0.61953000  0.95852000  1.0
  C  C153  1  0.58393000  0.37998000  0.04123000  1.0
  C  C154  1  0.41633000  0.11963000  0.54145000  1.0
  C  C155  1  0.41643000  0.88060000  0.45864000  1.0
  C  C156  1  0.68306000  0.53374000  0.97635000  1.0
  C  C157  1  0.68322000  0.46581000  0.02340000  1.0
  C  C158  1  0.31697000  0.03392000  0.52360000  1.0
  C  C159  1  0.31699000  0.96626000  0.47648000  1.0
  C  C160  1  0.78422000  0.52718000  0.93880000  1.0
  C  C161  1  0.78465000  0.47219000  0.06091000  1.0
  C  C162  1  0.21582000  0.02723000  0.56114000  1.0
  C  C163  1  0.21588000  0.97297000  0.43888000  1.0
  C  C164  1  0.90825000  0.44423000  0.93483000  1.0
  C  C165  1  0.90853000  0.55529000  0.06500000  1.0
  C  C166  1  0.09183000  0.94428000  0.56515000  1.0
  C  C167  1  0.09185000  0.05592000  0.43483000  1.0
  N  N168  1  0.60669000  0.41048000  0.73217000  1.0
  N  N169  1  0.60609000  0.58870000  0.26800000  1.0
  N  N170  1  0.39332000  0.91051000  0.76783000  1.0
  N  N171  1  0.39333000  0.08983000  0.23221000  1.0
  N  N172  1  0.90326000  0.56647000  0.77204000  1.0
  N  N173  1  0.90395000  0.43625000  0.22725000  1.0
  N  N174  1  0.09673000  0.06642000  0.72794000  1.0
  N  N175  1  0.09702000  0.93356000  0.27201000  1.0
  N  N176  1  0.74585000  0.39663000  0.59946000  1.0
  N  N177  1  0.74535000  0.60418000  0.40067000  1.0
  N  N178  1  0.25420000  0.89659000  0.90054000  1.0
  N  N179  1  0.25426000  0.10332000  0.09945000  1.0
  N  N180  1  0.86551000  0.34125000  0.58592000  1.0
  N  N181  1  0.86509000  0.65952000  0.41417000  1.0
  N  N182  1  0.13453000  0.84121000  0.91406000  1.0
  N  N183  1  0.13451000  0.15861000  0.08591000  1.0
  N  N184  1  0.62764000  0.65993000  0.91384000  1.0
  N  N185  1  0.62825000  0.33922000  0.08583000  1.0
  N  N186  1  0.37238000  0.15991000  0.58614000  1.0
  N  N187  1  0.37255000  0.84040000  0.41392000  1.0
  N  N188  1  0.74878000  0.60541000  0.90152000  1.0
  N  N189  1  0.74944000  0.39369000  0.09813000  1.0
  N  N190  1  0.25123000  0.10537000  0.59844000  1.0
  N  N191  1  0.25138000  0.89493000  0.40158000  1.0
  O  O192  1  0.48426000  0.32236000  0.65494000  1.0
  O  O193  1  0.48458000  0.67724000  0.34530000  1.0
  O  O194  1  0.51579000  0.82244000  0.84507000  1.0
  O  O195  1  0.51602000  0.17796000  0.15502000  1.0
  O  O196  1  0.84221000  0.48847000  0.69448000  1.0
  O  O197  1  0.83997000  0.50581000  0.30589000  1.0
  O  O198  1  0.15785000  0.98856000  0.80552000  1.0
  O  O199  1  0.15792000  0.01152000  0.19445000  1.0
  O  O200  1  0.66181000  0.49733000  0.80854000  1.0
  O  O201  1  0.66168000  0.50511000  0.19090000  1.0
  O  O202  1  0.33817000  0.99732000  0.69145000  1.0
  O  O203  1  0.33828000  0.00294000  0.30857000  1.0
  O  O204  1  0.01257000  0.67744000  0.84771000  1.0
  O  O205  1  0.01229000  0.32245000  0.15207000  1.0
  O  O206  1  0.98734000  0.17730000  0.65228000  1.0
  O  O207  1  0.98769000  0.82241000  0.34762000  1.0
  O  O208  1  0.22192000  0.69467000  0.81360000  1.0
  O  O209  1  0.22154000  0.30533000  0.18630000  1.0
  O  O210  1  0.77801000  0.19461000  0.68642000  1.0
  O  O211  1  0.77906000  0.80289000  0.31305000  1.0
  O  O212  1  0.28389000  0.28550000  0.69351000  1.0
  O  O213  1  0.28413000  0.71449000  0.30685000  1.0
  O  O214  1  0.71614000  0.78552000  0.80648000  1.0
  O  O215  1  0.71565000  0.21655000  0.19393000  1.0
