# generated using pymatgen
data_CuPH28C28IN2
_symmetry_space_group_name_H-M   'P 1'
_cell_length_a   9.32484000
_cell_length_b   13.07150000
_cell_length_c   14.58040000
_cell_angle_alpha   107.22000000
_cell_angle_beta   101.10100000
_cell_angle_gamma   107.59100000
_symmetry_Int_Tables_number   1
_chemical_formula_structural   CuPH28C28IN2
_chemical_formula_sum   'Cu2 P2 H56 C56 I2 N4'
_cell_volume   1538.58528430
_cell_formula_units_Z   2
loop_
 _symmetry_equiv_pos_site_id
 _symmetry_equiv_pos_as_xyz
  1  'x, y, z'
loop_
 _atom_site_type_symbol
 _atom_site_label
 _atom_site_symmetry_multiplicity
 _atom_site_fract_x
 _atom_site_fract_y
 _atom_site_fract_z
 _atom_site_occupancy
  Cu  Cu0  1  0.52640000  0.61895000  0.52933000  1.0
  Cu  Cu1  1  0.47359000  0.38105000  0.47067000  1.0
  P  P2  1  0.69778000  0.75378000  0.49833000  1.0
  P  P3  1  0.30221000  0.24622000  0.50166000  1.0
  H  H4  1  0.78634000  0.55531000  0.45097000  1.0
  H  H5  1  0.21365000  0.44468000  0.54903000  1.0
  H  H6  1  0.86689000  0.85673000  0.37329000  1.0
  H  H7  1  0.13312000  0.14326000  0.62671000  1.0
  H  H8  1  0.66893000  0.85209000  0.69247000  1.0
  H  H9  1  0.33107000  0.14792000  0.30754000  1.0
  H  H10  1  0.67906000  0.11916000  0.46247000  1.0
  H  H11  1  0.32095000  0.88085000  0.53753000  1.0
  H  H12  1  0.78915000  0.01003000  0.54817000  1.0
  H  H13  1  0.21085000  0.98998000  0.45182000  1.0
  H  H14  1  0.22387000  0.64996000  0.49077000  1.0
  H  H15  1  0.77612000  0.35005000  0.50923000  1.0
  H  H16  1  0.05185000  0.71163000  0.58802000  1.0
  H  H17  1  0.94816000  0.28838000  0.41199000  1.0
  H  H18  1  0.39567000  0.76464000  0.85933000  1.0
  H  H19  1  0.60432000  0.23536000  0.14066000  1.0
  H  H20  1  0.55176000  0.69436000  0.74972000  1.0
  H  H21  1  0.44824000  0.30563000  0.25028000  1.0
  H  H22  1  0.95985000  0.49699000  0.35280000  1.0
  H  H23  1  0.04015000  0.50301000  0.64720000  1.0
  H  H24  1  0.04854000  0.89561000  0.56170000  1.0
  H  H25  1  0.95145000  0.10439000  0.43830000  1.0
  H  H26  1  0.23658000  0.03896000  0.72689000  1.0
  H  H27  1  0.76341000  0.96104000  0.27311000  1.0
  H  H28  1  0.14130000  0.09304000  0.87578000  1.0
  H  H29  1  0.85870000  0.90697000  0.12422000  1.0
  H  H30  1  0.85430000  0.00165000  0.85685000  1.0
  H  H31  1  0.14569000  0.99835000  0.14315000  1.0
  H  H32  1  0.03661000  0.79827000  0.27475000  1.0
  H  H33  1  0.96341000  0.20174000  0.72525000  1.0
  H  H34  1  0.08451000  0.61720000  0.26486000  1.0
  H  H35  1  0.91550000  0.38280000  0.73515000  1.0
  H  H36  1  0.98638000  0.75658000  0.74475000  1.0
  H  H37  1  0.01362000  0.24342000  0.25526000  1.0
  H  H38  1  0.43426000  0.68795000  0.32423000  1.0
  H  H39  1  0.56573000  0.31206000  0.67577000  1.0
  H  H40  1  0.32639000  0.79806000  0.23639000  1.0
  H  H41  1  0.67360000  0.20194000  0.76360000  1.0
  H  H42  1  0.44948000  0.01401000  0.30499000  1.0
  H  H43  1  0.55052000  0.98599000  0.69501000  1.0
  H  H44  1  0.14625000  0.79529000  0.06596000  1.0
  H  H45  1  0.85375000  0.20471000  0.93405000  1.0
  H  H46  1  0.94144000  0.76195000  0.04587000  1.0
  H  H47  1  0.05857000  0.23804000  0.95414000  1.0
  H  H48  1  0.08423000  0.61881000  0.91206000  1.0
  H  H49  1  0.91578000  0.38118000  0.08795000  1.0
  H  H50  1  0.88039000  0.58221000  0.89527000  1.0
  H  H51  1  0.11962000  0.41779000  0.10473000  1.0
  H  H52  1  0.91680000  0.56348000  0.06363000  1.0
  H  H53  1  0.08321000  0.43652000  0.93638000  1.0
  H  H54  1  0.12305000  0.61065000  0.08619000  1.0
  H  H55  1  0.87696000  0.38935000  0.91382000  1.0
  H  H56  1  0.06162000  0.91161000  0.97916000  1.0
  H  H57  1  0.93839000  0.08839000  0.02084000  1.0
  H  H58  1  0.91097000  0.78543000  0.88036000  1.0
  H  H59  1  0.08903000  0.21457000  0.11964000  1.0
  C  C60  1  0.81670000  0.71042000  0.41956000  1.0
  C  C61  1  0.18330000  0.28957000  0.58044000  1.0
  C  C62  1  0.84189000  0.60816000  0.41225000  1.0
  C  C63  1  0.15811000  0.39183000  0.58775000  1.0
  C  C64  1  0.88686000  0.77782000  0.36901000  1.0
  C  C65  1  0.11315000  0.22218000  0.63099000  1.0
  C  C66  1  0.84579000  0.86406000  0.61593000  1.0
  C  C67  1  0.15420000  0.13594000  0.38407000  1.0
  C  C68  1  0.79310000  0.89487000  0.70016000  1.0
  C  C69  1  0.20690000  0.10512000  0.29985000  1.0
  C  C70  1  0.62658000  0.02467000  0.43090000  1.0
  C  C71  1  0.37342000  0.97533000  0.56909000  1.0
  C  C72  1  0.62091000  0.84139000  0.44090000  1.0
  C  C73  1  0.37909000  0.15861000  0.55910000  1.0
  C  C74  1  0.68832000  0.96299000  0.47957000  1.0
  C  C75  1  0.31168000  0.03702000  0.52043000  1.0
  C  C76  1  0.25906000  0.67762000  0.57277000  1.0
  C  C77  1  0.74094000  0.32239000  0.42723000  1.0
  C  C78  1  0.16427000  0.71267000  0.62746000  1.0
  C  C79  1  0.83573000  0.28733000  0.37254000  1.0
  C  C80  1  0.21212000  0.74596000  0.73256000  1.0
  C  C81  1  0.78788000  0.25404000  0.26744000  1.0
  C  C82  1  0.35613000  0.74164000  0.77798000  1.0
  C  C83  1  0.64387000  0.25836000  0.22201000  1.0
  C  C84  1  0.44252000  0.70353000  0.71789000  1.0
  C  C85  1  0.55747000  0.29647000  0.28210000  1.0
  C  C86  1  0.93820000  0.57532000  0.35684000  1.0
  C  C87  1  0.06180000  0.42467000  0.64316000  1.0
  C  C88  1  0.00591000  0.91772000  0.62649000  1.0
  C  C89  1  0.99409000  0.08228000  0.37351000  1.0
  C  C90  1  0.11188000  0.99938000  0.71985000  1.0
  C  C91  1  0.88811000  0.00062000  0.28015000  1.0
  C  C92  1  0.05813000  0.02983000  0.80295000  1.0
  C  C93  1  0.94187000  0.97018000  0.19705000  1.0
  C  C94  1  0.89790000  0.97814000  0.79264000  1.0
  C  C95  1  0.10210000  0.02187000  0.20736000  1.0
  C  C96  1  0.98256000  0.74457000  0.31331000  1.0
  C  C97  1  0.01745000  0.25542000  0.68669000  1.0
  C  C98  1  0.00890000  0.64340000  0.30750000  1.0
  C  C99  1  0.99111000  0.35659000  0.69250000  1.0
  C  C100  1  0.10670000  0.77382000  0.79002000  1.0
  C  C101  1  0.89329000  0.22617000  0.20997000  1.0
  C  C102  1  0.48896000  0.78254000  0.35340000  1.0
  C  C103  1  0.51103000  0.21746000  0.64660000  1.0
  C  C104  1  0.42848000  0.84455000  0.30453000  1.0
  C  C105  1  0.57152000  0.15545000  0.69546000  1.0
  C  C106  1  0.49756000  0.96572000  0.34291000  1.0
  C  C107  1  0.50245000  0.03428000  0.65709000  1.0
  C  C108  1  0.02999000  0.75339000  0.00706000  1.0
  C  C109  1  0.97002000  0.24660000  0.99295000  1.0
  C  C110  1  0.99784000  0.62547000  0.95320000  1.0
  C  C111  1  0.00217000  0.37453000  0.04680000  1.0
  C  C112  1  0.00824000  0.56247000  0.02566000  1.0
  C  C113  1  0.99176000  0.43753000  0.97434000  1.0
  C  C114  1  0.03023000  0.81878000  0.93551000  1.0
  C  C115  1  0.96977000  0.18122000  0.06449000  1.0
  I  I116  1  0.30968000  0.46219000  0.35695000  1.0
  I  I117  1  0.69032000  0.53781000  0.64304000  1.0
  N  N118  1  0.39631000  0.67179000  0.61628000  1.0
  N  N119  1  0.60369000  0.32821000  0.38372000  1.0
  N  N120  1  0.14931000  0.80881000  0.88633000  1.0
  N  N121  1  0.85069000  0.19118000  0.11367000  1.0
