# generated using pymatgen
data_Tb2CuH28(C10O11)2
_symmetry_space_group_name_H-M   'P 1'
_cell_length_a   6.98657000
_cell_length_b   9.98900000
_cell_length_c   11.39130000
_cell_angle_alpha   107.86500000
_cell_angle_beta   101.72900000
_cell_angle_gamma   98.36280000
_symmetry_Int_Tables_number   1
_chemical_formula_structural   Tb2CuH28(C10O11)2
_chemical_formula_sum   'Tb2 Cu1 H28 C20 O22'
_cell_volume   722.20065005
_cell_formula_units_Z   1
loop_
 _symmetry_equiv_pos_site_id
 _symmetry_equiv_pos_as_xyz
  1  'x, y, z'
loop_
 _atom_site_type_symbol
 _atom_site_label
 _atom_site_symmetry_multiplicity
 _atom_site_fract_x
 _atom_site_fract_y
 _atom_site_fract_z
 _atom_site_occupancy
  Tb  Tb0  1  0.63371000  0.71616000  0.09791000  1.0
  Tb  Tb1  1  0.36630000  0.28384000  0.90209000  1.0
  Cu  Cu2  1  0.00000000  0.00000000  0.50000000  1.0
  H  H3  1  0.03907000  0.90348000  0.14549000  1.0
  H  H4  1  0.96093000  0.09652000  0.85451000  1.0
  H  H5  1  0.06664000  0.85463000  0.26730000  1.0
  H  H6  1  0.93336000  0.14538000  0.73271000  1.0
  H  H7  1  0.52769000  0.00879000  0.14472000  1.0
  H  H8  1  0.47230000  0.99121000  0.85528000  1.0
  H  H9  1  0.66736000  0.01803000  0.27791000  1.0
  H  H10  1  0.33264000  0.98197000  0.72209000  1.0
  H  H11  1  0.29884000  0.71291000  0.23270000  1.0
  H  H12  1  0.70117000  0.28709000  0.76729000  1.0
  H  H13  1  0.24053000  0.56559000  0.10839000  1.0
  H  H14  1  0.75948000  0.43441000  0.89160000  1.0
  H  H15  1  0.43263000  0.59054000  0.34262000  1.0
  H  H16  1  0.56736000  0.40947000  0.65738000  1.0
  H  H17  1  0.61006000  0.59060000  0.47840000  1.0
  H  H18  1  0.38994000  0.40941000  0.52160000  1.0
  H  H19  1  0.51484000  0.64718000  0.67385000  1.0
  H  H20  1  0.48516000  0.35282000  0.32614000  1.0
  H  H21  1  0.32337000  0.75534000  0.69962000  1.0
  H  H22  1  0.67663000  0.24467000  0.30038000  1.0
  H  H23  1  0.98572000  0.53291000  0.19452000  1.0
  H  H24  1  0.01429000  0.46708000  0.80548000  1.0
  H  H25  1  0.89553000  0.46973000  0.30556000  1.0
  H  H26  1  0.10448000  0.53027000  0.69444000  1.0
  H  H27  1  0.16413000  0.16871000  0.25749000  1.0
  H  H28  1  0.83585000  0.83127000  0.74250000  1.0
  H  H29  1  0.00619000  0.26278000  0.35201000  1.0
  H  H30  1  0.99380000  0.73720000  0.64799000  1.0
  C  C31  1  0.68703000  0.76845000  0.42152000  1.0
  C  C32  1  0.31297000  0.23155000  0.57848000  1.0
  C  C33  1  0.52751000  0.65892000  0.43780000  1.0
  C  C34  1  0.47248000  0.34108000  0.56220000  1.0
  C  C35  1  0.40589000  0.72515000  0.52538000  1.0
  C  C36  1  0.59411000  0.27486000  0.47462000  1.0
  C  C37  1  0.26713000  0.81036000  0.47917000  1.0
  C  C38  1  0.73287000  0.18964000  0.52083000  1.0
  C  C39  1  0.41452000  0.70802000  0.63840000  1.0
  C  C40  1  0.58548000  0.29198000  0.36159000  1.0
  C  C41  1  0.71106000  0.37657000  0.11501000  1.0
  C  C42  1  0.28894000  0.62343000  0.88500000  1.0
  C  C43  1  0.91784000  0.43485000  0.20875000  1.0
  C  C44  1  0.08216000  0.56515000  0.79126000  1.0
  C  C45  1  0.04701000  0.32622000  0.19496000  1.0
  C  C46  1  0.95299000  0.67378000  0.80504000  1.0
  C  C47  1  0.14540000  0.30137000  0.08753000  1.0
  C  C48  1  0.85460000  0.69862000  0.91247000  1.0
  C  C49  1  0.07392000  0.24925000  0.27232000  1.0
  C  C50  1  0.92607000  0.75073000  0.72767000  1.0
  O  O51  1  0.73308000  0.74570000  0.31646000  1.0
  O  O52  1  0.26692000  0.25430000  0.68354000  1.0
  O  O53  1  0.77571000  0.87752000  0.52190000  1.0
  O  O54  1  0.22429000  0.12249000  0.47810000  1.0
  O  O55  1  0.23073000  0.80029000  0.36322000  1.0
  O  O56  1  0.76927000  0.19972000  0.63678000  1.0
  O  O57  1  0.18852000  0.88865000  0.56107000  1.0
  O  O58  1  0.81147000  0.11136000  0.43892000  1.0
  O  O59  1  0.60688000  0.46812000  0.09466000  1.0
  O  O60  1  0.39313000  0.53188000  0.90535000  1.0
  O  O61  1  0.64092000  0.24321000  0.05779000  1.0
  O  O62  1  0.35909000  0.75679000  0.94221000  1.0
  O  O63  1  0.14902000  0.39267000  0.02800000  1.0
  O  O64  1  0.85099000  0.60733000  0.97201000  1.0
  O  O65  1  0.22719000  0.19480000  0.05571000  1.0
  O  O66  1  0.77280000  0.80520000  0.94429000  1.0
  O  O67  1  0.96721000  0.87268000  0.20078000  1.0
  O  O68  1  0.03279000  0.12732000  0.79922000  1.0
  O  O69  1  0.57837000  0.95157000  0.19430000  1.0
  O  O70  1  0.42163000  0.04843000  0.80569000  1.0
  O  O71  1  0.32860000  0.66449000  0.15065000  1.0
  O  O72  1  0.67141000  0.33551000  0.84935000  1.0
