# generated using pymatgen
data_AgH8C12SN5O3
_symmetry_space_group_name_H-M   'P 1'
_cell_length_a   7.01015000
_cell_length_b   13.12220000
_cell_length_c   14.73560000
_cell_angle_alpha   90.00030000
_cell_angle_beta   90.00010000
_cell_angle_gamma   102.13600000
_symmetry_Int_Tables_number   1
_chemical_formula_structural   AgH8C12SN5O3
_chemical_formula_sum   'Ag4 H32 C48 S4 N20 O12'
_cell_volume   1325.21330027
_cell_formula_units_Z   4
loop_
 _symmetry_equiv_pos_site_id
 _symmetry_equiv_pos_as_xyz
  1  'x, y, z'
loop_
 _atom_site_type_symbol
 _atom_site_label
 _atom_site_symmetry_multiplicity
 _atom_site_fract_x
 _atom_site_fract_y
 _atom_site_fract_z
 _atom_site_occupancy
  Ag  Ag0  1  0.75267000  0.75538000  0.47445000  1.0
  Ag  Ag1  1  0.25268000  0.25538000  0.02554000  1.0
  Ag  Ag2  1  0.24733000  0.24463000  0.52555000  1.0
  Ag  Ag3  1  0.74733000  0.74462000  0.97446000  1.0
  H  H4  1  0.68835000  0.46552000  0.73013000  1.0
  H  H5  1  0.18835000  0.96552000  0.76987000  1.0
  H  H6  1  0.31165000  0.53448000  0.26987000  1.0
  H  H7  1  0.81165000  0.03448000  0.23013000  1.0
  H  H8  1  0.72793000  0.31920000  0.62899000  1.0
  H  H9  1  0.22793000  0.81919000  0.87101000  1.0
  H  H10  1  0.27207000  0.68080000  0.37101000  1.0
  H  H11  1  0.77207000  0.18080000  0.12899000  1.0
  H  H12  1  0.76533000  0.34939000  0.46182000  1.0
  H  H13  1  0.26532000  0.84939000  0.03818000  1.0
  H  H14  1  0.23467000  0.65061000  0.53818000  1.0
  H  H15  1  0.73467000  0.15061000  0.96182000  1.0
  H  H16  1  0.76304000  0.52968000  0.40174000  1.0
  H  H17  1  0.26303000  0.02968000  0.09826000  1.0
  H  H18  1  0.23697000  0.47032000  0.59826000  1.0
  H  H19  1  0.73696000  0.97032000  0.90174000  1.0
  H  H20  1  0.07532000  0.62698000  0.68494000  1.0
  H  H21  1  0.57533000  0.12698000  0.81506000  1.0
  H  H22  1  0.92467000  0.37301000  0.31506000  1.0
  H  H23  1  0.42467000  0.87301000  0.18494000  1.0
  H  H24  1  0.32395000  0.54993000  0.76949000  1.0
  H  H25  1  0.82395000  0.04993000  0.73051000  1.0
  H  H26  1  0.67605000  0.45007000  0.23050000  1.0
  H  H27  1  0.17605000  0.95007000  0.26949000  1.0
  H  H28  1  0.30723000  0.54145000  0.93811000  1.0
  H  H29  1  0.80722000  0.04145000  0.56189000  1.0
  H  H30  1  0.69278000  0.45854000  0.06189000  1.0
  H  H31  1  0.19278000  0.95855000  0.43811000  1.0
  H  H32  1  0.05115000  0.61524000  0.01803000  1.0
  H  H33  1  0.55115000  0.11524000  0.48197000  1.0
  H  H34  1  0.94886000  0.38476000  0.98197000  1.0
  H  H35  1  0.44886000  0.88476000  0.51803000  1.0
  C  C36  1  0.68170000  0.66393000  0.67519000  1.0
  C  C37  1  0.18170000  0.16393000  0.82481000  1.0
  C  C38  1  0.31830000  0.33607000  0.32481000  1.0
  C  C39  1  0.81829000  0.83607000  0.17519000  1.0
  C  C40  1  0.77241000  0.69604000  0.76085000  1.0
  C  C41  1  0.27242000  0.19604000  0.73916000  1.0
  C  C42  1  0.22759000  0.30396000  0.23915000  1.0
  C  C43  1  0.72758000  0.80396000  0.26085000  1.0
  C  C44  1  0.70823000  0.57499000  0.61828000  1.0
  C  C45  1  0.20823000  0.07499000  0.88172000  1.0
  C  C46  1  0.29177000  0.42501000  0.38172000  1.0
  C  C47  1  0.79177000  0.92501000  0.11828000  1.0
  C  C48  1  0.70591000  0.47746000  0.65701000  1.0
  C  C49  1  0.20590000  0.97746000  0.84298000  1.0
  C  C50  1  0.29410000  0.52254000  0.34299000  1.0
  C  C51  1  0.79410000  0.02254000  0.15701000  1.0
  C  C52  1  0.72807000  0.39572000  0.60038000  1.0
  C  C53  1  0.22806000  0.89572000  0.89962000  1.0
  C  C54  1  0.27193000  0.60428000  0.39962000  1.0
  C  C55  1  0.77193000  0.10428000  0.10038000  1.0
  C  C56  1  0.74936000  0.41253000  0.50719000  1.0
  C  C57  1  0.24936000  0.91253000  0.99281000  1.0
  C  C58  1  0.25064000  0.58748000  0.49281000  1.0
  C  C59  1  0.75063000  0.08747000  0.00719000  1.0
  C  C60  1  0.74817000  0.51185000  0.47411000  1.0
  C  C61  1  0.24816000  0.01185000  0.02589000  1.0
  C  C62  1  0.25184000  0.48815000  0.52589000  1.0
  C  C63  1  0.75183000  0.98815000  0.97411000  1.0
  C  C64  1  0.92460000  0.65350000  0.80739000  1.0
  C  C65  1  0.42461000  0.15351000  0.69261000  1.0
  C  C66  1  0.07540000  0.34649000  0.19261000  1.0
  C  C67  1  0.57539000  0.84649000  0.30739000  1.0
  C  C68  1  0.07049000  0.61936000  0.75851000  1.0
  C  C69  1  0.57050000  0.11936000  0.74150000  1.0
  C  C70  1  0.92950000  0.38064000  0.24149000  1.0
  C  C71  1  0.42950000  0.88064000  0.25850000  1.0
  C  C72  1  0.20980000  0.57843000  0.80547000  1.0
  C  C73  1  0.70980000  0.07843000  0.69453000  1.0
  C  C74  1  0.79020000  0.42157000  0.19452000  1.0
  C  C75  1  0.29020000  0.92157000  0.30547000  1.0
  C  C76  1  0.20210000  0.57452000  0.89983000  1.0
  C  C77  1  0.70210000  0.07452000  0.60018000  1.0
  C  C78  1  0.79790000  0.42548000  0.10017000  1.0
  C  C79  1  0.29790000  0.92548000  0.39983000  1.0
  C  C80  1  0.05752000  0.61382000  0.94413000  1.0
  C  C81  1  0.55752000  0.11382000  0.55587000  1.0
  C  C82  1  0.94248000  0.38617000  0.05586000  1.0
  C  C83  1  0.44248000  0.88618000  0.44414000  1.0
  S  S84  1  0.54817000  0.80739000  0.72828000  1.0
  S  S85  1  0.04818000  0.30739000  0.77172000  1.0
  S  S86  1  0.45182000  0.19261000  0.27172000  1.0
  S  S87  1  0.95182000  0.69261000  0.22828000  1.0
  N  N88  1  0.55376000  0.72114000  0.64935000  1.0
  N  N89  1  0.05376000  0.22113000  0.85065000  1.0
  N  N90  1  0.44624000  0.27886000  0.35065000  1.0
  N  N91  1  0.94624000  0.77887000  0.14935000  1.0
  N  N92  1  0.70728000  0.77578000  0.79754000  1.0
  N  N93  1  0.20729000  0.27579000  0.70246000  1.0
  N  N94  1  0.29272000  0.22421000  0.20246000  1.0
  N  N95  1  0.79272000  0.72422000  0.29754000  1.0
  N  N96  1  0.72892000  0.59161000  0.52792000  1.0
  N  N97  1  0.22892000  0.09161000  0.97208000  1.0
  N  N98  1  0.27109000  0.40839000  0.47208000  1.0
  N  N99  1  0.77107000  0.90839000  0.02792000  1.0
  N  N100  1  0.92099000  0.65237000  0.89941000  1.0
  N  N101  1  0.42100000  0.15238000  0.60059000  1.0
  N  N102  1  0.07901000  0.34762000  0.10059000  1.0
  N  N103  1  0.57900000  0.84763000  0.39941000  1.0
  N  N104  1  0.08826000  0.86060000  0.60688000  1.0
  N  N105  1  0.58826000  0.36060000  0.89312000  1.0
  N  N106  1  0.91175000  0.13940000  0.39312000  1.0
  N  N107  1  0.41174000  0.63940000  0.10688000  1.0
  O  O108  1  0.25191000  0.89048000  0.64531000  1.0
  O  O109  1  0.75191000  0.39048000  0.85469000  1.0
  O  O110  1  0.74810000  0.10952000  0.35469000  1.0
  O  O111  1  0.24809000  0.60952000  0.14531000  1.0
  O  O112  1  0.95254000  0.90892000  0.61821000  1.0
  O  O113  1  0.45254000  0.40892000  0.88179000  1.0
  O  O114  1  0.04747000  0.09109000  0.38180000  1.0
  O  O115  1  0.54746000  0.59108000  0.11821000  1.0
  O  O116  1  0.06181000  0.77980000  0.55548000  1.0
  O  O117  1  0.56181000  0.27980000  0.94452000  1.0
  O  O118  1  0.93819000  0.22021000  0.44453000  1.0
  O  O119  1  0.43819000  0.72021000  0.05548000  1.0
