# generated using pymatgen
data_CdH13C20N5O6
_symmetry_space_group_name_H-M   'P 1'
_cell_length_a   10.43330000
_cell_length_b   11.22240000
_cell_length_c   18.05290000
_cell_angle_alpha   90.00020000
_cell_angle_beta   90.00070000
_cell_angle_gamma   103.05500000
_symmetry_Int_Tables_number   1
_chemical_formula_structural   CdH13C20N5O6
_chemical_formula_sum   'Cd4 H52 C80 N20 O24'
_cell_volume   2059.12110862
_cell_formula_units_Z   4
loop_
 _symmetry_equiv_pos_site_id
 _symmetry_equiv_pos_as_xyz
  1  'x, y, z'
loop_
 _atom_site_type_symbol
 _atom_site_label
 _atom_site_symmetry_multiplicity
 _atom_site_fract_x
 _atom_site_fract_y
 _atom_site_fract_z
 _atom_site_occupancy
  Cd  Cd0  1  0.61853000  0.94345000  0.07883000  1.0
  Cd  Cd1  1  0.88147000  0.05656000  0.57884000  1.0
  Cd  Cd2  1  0.38149000  0.05656000  0.92116000  1.0
  Cd  Cd3  1  0.11852000  0.94344000  0.42117000  1.0
  H  H4  1  0.63943000  0.35991000  0.74810000  1.0
  H  H5  1  0.86052000  0.64005000  0.24808000  1.0
  H  H6  1  0.36051000  0.64004000  0.25191000  1.0
  H  H7  1  0.13946000  0.35993000  0.75191000  1.0
  H  H8  1  0.54063000  0.50478000  0.81357000  1.0
  H  H9  1  0.95933000  0.49519000  0.31356000  1.0
  H  H10  1  0.45932000  0.49518000  0.18644000  1.0
  H  H11  1  0.04065000  0.50480000  0.68644000  1.0
  H  H12  1  0.81026000  0.50663000  0.99564000  1.0
  H  H13  1  0.68977000  0.49340000  0.49564000  1.0
  H  H14  1  0.18976000  0.49340000  0.00435000  1.0
  H  H15  1  0.31024000  0.50662000  0.50436000  1.0
  H  H16  1  0.91048000  0.35996000  0.92899000  1.0
  H  H17  1  0.58953000  0.64006000  0.42900000  1.0
  H  H18  1  0.08953000  0.64006000  0.07099000  1.0
  H  H19  1  0.41047000  0.35996000  0.57100000  1.0
  H  H20  1  0.74281000  0.25526000  0.67722000  1.0
  H  H21  1  0.75719000  0.74475000  0.17722000  1.0
  H  H22  1  0.25716000  0.74472000  0.32279000  1.0
  H  H23  1  0.24282000  0.25526000  0.82278000  1.0
  H  H24  1  0.02926000  0.07647000  0.75394000  1.0
  H  H25  1  0.47072000  0.92353000  0.25394000  1.0
  H  H26  1  0.97073000  0.92354000  0.24606000  1.0
  H  H27  1  0.52927000  0.07647000  0.74605000  1.0
  H  H28  1  0.75513000  0.70729000  0.03207000  1.0
  H  H29  1  0.74487000  0.29273000  0.53208000  1.0
  H  H30  1  0.24487000  0.29272000  0.96792000  1.0
  H  H31  1  0.25513000  0.70728000  0.46793000  1.0
  H  H32  1  0.38662000  0.76634000  0.96816000  1.0
  H  H33  1  0.11338000  0.23368000  0.46817000  1.0
  H  H34  1  0.61339000  0.23368000  0.03182000  1.0
  H  H35  1  0.88661000  0.76632000  0.53183000  1.0
  H  H36  1  0.96666000  0.19813000  0.18208000  1.0
  H  H37  1  0.53337000  0.80186000  0.68206000  1.0
  H  H38  1  0.03337000  0.80185000  0.81794000  1.0
  H  H39  1  0.46664000  0.19815000  0.31795000  1.0
  H  H40  1  0.38109000  0.21002000  0.21097000  1.0
  H  H41  1  0.11894000  0.78995000  0.71098000  1.0
  H  H42  1  0.61895000  0.78997000  0.78902000  1.0
  H  H43  1  0.88107000  0.21004000  0.28903000  1.0
  H  H44  1  0.15242000  0.95675000  0.05677000  1.0
  H  H45  1  0.34757000  0.04326000  0.55678000  1.0
  H  H46  1  0.84760000  0.04328000  0.94322000  1.0
  H  H47  1  0.65241000  0.95673000  0.44323000  1.0
  H  H48  1  0.43530000  0.60021000  0.88437000  1.0
  H  H49  1  0.06470000  0.39979000  0.38437000  1.0
  H  H50  1  0.56470000  0.39980000  0.11563000  1.0
  H  H51  1  0.93530000  0.60020000  0.61563000  1.0
  H  H52  1  0.97904000  0.19828000  0.86064000  1.0
  H  H53  1  0.52093000  0.80172000  0.36064000  1.0
  H  H54  1  0.02095000  0.80172000  0.13936000  1.0
  H  H55  1  0.47905000  0.19828000  0.63935000  1.0
  C  C56  1  0.67775000  0.39128000  0.80242000  1.0
  C  C57  1  0.82222000  0.60870000  0.30241000  1.0
  C  C58  1  0.32221000  0.60869000  0.19759000  1.0
  C  C59  1  0.17777000  0.39129000  0.69758000  1.0
  C  C60  1  0.62081000  0.47336000  0.84010000  1.0
  C  C61  1  0.87916000  0.52663000  0.34009000  1.0
  C  C62  1  0.37915000  0.52662000  0.15991000  1.0
  C  C63  1  0.12083000  0.47337000  0.65991000  1.0
  C  C64  1  0.66823000  0.51808000  0.91001000  1.0
  C  C65  1  0.83177000  0.48192000  0.41001000  1.0
  C  C66  1  0.33177000  0.48192000  0.08999000  1.0
  C  C67  1  0.16823000  0.51808000  0.58999000  1.0
  C  C68  1  0.77317000  0.47497000  0.94091000  1.0
  C  C69  1  0.72684000  0.52504000  0.44091000  1.0
  C  C70  1  0.22683000  0.52503000  0.05909000  1.0
  C  C71  1  0.27316000  0.47497000  0.55909000  1.0
  C  C72  1  0.82973000  0.39170000  0.90310000  1.0
  C  C73  1  0.67028000  0.60832000  0.40310000  1.0
  C  C74  1  0.17027000  0.60831000  0.09689000  1.0
  C  C75  1  0.32973000  0.39170000  0.59690000  1.0
  C  C76  1  0.78377000  0.34888000  0.83255000  1.0
  C  C77  1  0.71621000  0.65111000  0.33255000  1.0
  C  C78  1  0.21621000  0.65109000  0.16745000  1.0
  C  C79  1  0.28378000  0.34889000  0.66745000  1.0
  C  C80  1  0.84010000  0.26541000  0.78822000  1.0
  C  C81  1  0.65989000  0.73459000  0.28822000  1.0
  C  C82  1  0.15988000  0.73459000  0.21178000  1.0
  C  C83  1  0.34011000  0.26541000  0.71177000  1.0
  C  C84  1  0.81165000  0.22920000  0.71540000  1.0
  C  C85  1  0.68834000  0.77081000  0.21540000  1.0
  C  C86  1  0.18833000  0.77079000  0.28460000  1.0
  C  C87  1  0.31166000  0.22919000  0.78459000  1.0
  C  C88  1  0.95999000  0.13507000  0.75208000  1.0
  C  C89  1  0.54000000  0.86492000  0.25207000  1.0
  C  C90  1  0.04000000  0.86492000  0.24792000  1.0
  C  C91  1  0.46000000  0.13508000  0.74792000  1.0
  C  C92  1  0.61243000  0.60870000  0.94783000  1.0
  C  C93  1  0.88757000  0.39130000  0.44783000  1.0
  C  C94  1  0.38756000  0.39130000  0.05217000  1.0
  C  C95  1  0.11243000  0.60870000  0.55217000  1.0
  C  C96  1  0.66097000  0.69042000  0.00395000  1.0
  C  C97  1  0.83903000  0.30960000  0.50396000  1.0
  C  C98  1  0.33902000  0.30959000  0.99604000  1.0
  C  C99  1  0.16097000  0.69041000  0.49605000  1.0
  C  C100  1  0.47233000  0.72727000  0.97164000  1.0
  C  C101  1  0.02768000  0.27275000  0.47164000  1.0
  C  C102  1  0.52768000  0.27275000  0.02835000  1.0
  C  C103  1  0.97232000  0.72726000  0.52836000  1.0
  C  C104  1  0.04512000  0.06941000  0.11701000  1.0
  C  C105  1  0.45490000  0.93059000  0.61700000  1.0
  C  C106  1  0.95491000  0.93059000  0.88300000  1.0
  C  C107  1  0.54510000  0.06941000  0.38300000  1.0
  C  C108  1  0.05375000  0.16488000  0.16781000  1.0
  C  C109  1  0.44627000  0.83511000  0.66780000  1.0
  C  C110  1  0.94627000  0.83511000  0.83220000  1.0
  C  C111  1  0.55373000  0.16490000  0.33221000  1.0
  C  C112  1  0.17473000  0.21173000  0.20209000  1.0
  C  C113  1  0.32529000  0.78825000  0.70208000  1.0
  C  C114  1  0.82530000  0.78826000  0.79791000  1.0
  C  C115  1  0.67471000  0.21175000  0.29792000  1.0
  C  C116  1  0.28775000  0.17155000  0.18408000  1.0
  C  C117  1  0.21226000  0.82843000  0.68408000  1.0
  C  C118  1  0.71228000  0.82845000  0.81592000  1.0
  C  C119  1  0.78773000  0.17157000  0.31593000  1.0
  C  C120  1  0.15827000  0.02994000  0.09715000  1.0
  C  C121  1  0.34173000  0.97006000  0.59716000  1.0
  C  C122  1  0.84175000  0.97007000  0.90285000  1.0
  C  C123  1  0.65825000  0.02994000  0.40285000  1.0
  C  C124  1  0.27954000  0.08159000  0.12964000  1.0
  C  C125  1  0.22046000  0.91840000  0.62966000  1.0
  C  C126  1  0.72048000  0.91842000  0.87035000  1.0
  C  C127  1  0.77953000  0.08159000  0.37036000  1.0
  C  C128  1  0.39881000  0.03628000  0.10849000  1.0
  C  C129  1  0.10119000  0.96372000  0.60851000  1.0
  C  C130  1  0.60121000  0.96373000  0.89149000  1.0
  C  C131  1  0.89881000  0.03628000  0.39150000  1.0
  C  C132  1  0.91238000  0.99747000  0.09194000  1.0
  C  C133  1  0.58763000  0.00255000  0.59194000  1.0
  C  C134  1  0.08765000  0.00255000  0.90806000  1.0
  C  C135  1  0.41236000  0.99746000  0.40806000  1.0
  N  N136  1  0.57342000  0.76317000  0.01770000  1.0
  N  N137  1  0.92659000  0.23685000  0.51770000  1.0
  N  N138  1  0.42658000  0.23685000  0.98229000  1.0
  N  N139  1  0.07341000  0.76316000  0.48230000  1.0
  N  N140  1  0.49260000  0.63471000  0.92865000  1.0
  N  N141  1  0.00740000  0.36530000  0.42865000  1.0
  N  N142  1  0.50739000  0.36530000  0.07134000  1.0
  N  N143  1  0.99260000  0.63471000  0.57135000  1.0
  N  N144  1  0.88588000  0.14858000  0.69418000  1.0
  N  N145  1  0.61411000  0.85142000  0.19418000  1.0
  N  N146  1  0.11410000  0.85141000  0.30582000  1.0
  N  N147  1  0.38590000  0.14858000  0.80581000  1.0
  N  N148  1  0.93621000  0.20450000  0.80977000  1.0
  N  N149  1  0.56377000  0.79549000  0.30976000  1.0
  N  N150  1  0.06377000  0.79549000  0.19023000  1.0
  N  N151  1  0.43622000  0.20451000  0.69023000  1.0
  N  N152  1  0.18278000  0.30166000  0.26179000  1.0
  N  N153  1  0.31727000  0.69832000  0.76177000  1.0
  N  N154  1  0.81726000  0.69832000  0.73822000  1.0
  N  N155  1  0.68275000  0.30167000  0.23823000  1.0
  O  O156  1  0.89823000  0.88309000  0.08444000  1.0
  O  O157  1  0.60177000  0.11692000  0.58443000  1.0
  O  O158  1  0.10179000  0.11693000  0.91556000  1.0
  O  O159  1  0.39822000  0.88307000  0.41556000  1.0
  O  O160  1  0.82278000  0.05781000  0.08365000  1.0
  O  O161  1  0.67723000  0.94221000  0.58364000  1.0
  O  O162  1  0.17725000  0.94220000  0.91635000  1.0
  O  O163  1  0.32276000  0.05780000  0.41636000  1.0
  O  O164  1  0.39077000  0.96231000  0.05370000  1.0
  O  O165  1  0.10923000  0.03770000  0.55373000  1.0
  O  O166  1  0.60925000  0.03771000  0.94627000  1.0
  O  O167  1  0.89077000  0.96230000  0.44628000  1.0
  O  O168  1  0.50361000  0.07208000  0.14604000  1.0
  O  O169  1  0.99640000  0.92791000  0.64606000  1.0
  O  O170  1  0.49641000  0.92793000  0.85394000  1.0
  O  O171  1  0.00360000  0.07208000  0.35395000  1.0
  O  O172  1  0.28146000  0.32271000  0.30213000  1.0
  O  O173  1  0.21860000  0.67728000  0.80213000  1.0
  O  O174  1  0.71858000  0.67728000  0.69787000  1.0
  O  O175  1  0.78143000  0.32272000  0.19789000  1.0
  O  O176  1  0.08856000  0.35222000  0.26985000  1.0
  O  O177  1  0.41148000  0.64776000  0.76982000  1.0
  O  O178  1  0.91145000  0.64776000  0.73018000  1.0
  O  O179  1  0.58854000  0.35223000  0.23017000  1.0
