# generated using pymatgen
data_ZnH14C29SN2O9
_symmetry_space_group_name_H-M   'P 1'
_cell_length_a   11.75660000
_cell_length_b   13.19360000
_cell_length_c   28.11010000
_cell_angle_alpha   89.52490000
_cell_angle_beta   84.97430000
_cell_angle_gamma   86.58110000
_symmetry_Int_Tables_number   1
_chemical_formula_structural   ZnH14C29SN2O9
_chemical_formula_sum   'Zn2 H28 C58 S2 N4 O18'
_cell_volume   4335.69652876
_cell_formula_units_Z   2
loop_
 _symmetry_equiv_pos_site_id
 _symmetry_equiv_pos_as_xyz
  1  'x, y, z'
loop_
 _atom_site_type_symbol
 _atom_site_label
 _atom_site_symmetry_multiplicity
 _atom_site_fract_x
 _atom_site_fract_y
 _atom_site_fract_z
 _atom_site_occupancy
  Zn  Zn0  1  0.61557000  0.50221000  0.49522000  1.0
  Zn  Zn1  1  0.38182000  0.49572000  0.50512000  1.0
  H  H2  1  0.67691000  0.50796000  0.34149000  1.0
  H  H3  1  0.32294000  0.46305000  0.66039000  1.0
  H  H4  1  0.44913000  0.75701000  0.12292000  1.0
  H  H5  1  0.58280000  0.25292000  0.87665000  1.0
  H  H6  1  0.67670000  0.52946000  0.64478000  1.0
  H  H7  1  0.31225000  0.49301000  0.35424000  1.0
  H  H8  1  0.67931000  0.53205000  0.73421000  1.0
  H  H9  1  0.31324000  0.49359000  0.26475000  1.0
  H  H10  1  0.43196000  0.75230000  0.87856000  1.0
  H  H11  1  0.53571000  0.24905000  0.12216000  1.0
  H  H12  1  0.42945000  0.75591000  0.96662000  1.0
  H  H13  1  0.54570000  0.24683000  0.03388000  1.0
  H  H14  1  0.45034000  0.75955000  0.03487000  1.0
  H  H15  1  0.57313000  0.24976000  0.96490000  1.0
  H  H16  1  0.35554000  0.17402000  0.51078000  1.0
  H  H17  1  0.64603000  0.82423000  0.48931000  1.0
  H  H18  1  0.72050000  0.17932000  0.48559000  1.0
  H  H19  1  0.28138000  0.81896000  0.51581000  1.0
  H  H20  1  0.26352000  0.00838000  0.51778000  1.0
  H  H21  1  0.73845000  0.98996000  0.48326000  1.0
  H  H22  1  0.77950000  0.62691000  0.43831000  1.0
  H  H23  1  0.21787000  0.37184000  0.56275000  1.0
  H  H24  1  0.00580000  0.34801000  0.57040000  1.0
  H  H25  1  0.99182000  0.64980000  0.43024000  1.0
  H  H26  1  0.80790000  0.40346000  0.54135000  1.0
  H  H27  1  0.18972000  0.59339000  0.45879000  1.0
  H  H28  1  0.82296000  0.61406000  0.27476000  1.0
  H  H29  1  0.13533000  0.48304000  0.72474000  1.0
  C  C30  1  0.47597000  0.69770000  0.50074000  1.0
  C  C31  1  0.52615000  0.30057000  0.49957000  1.0
  C  C32  1  0.49509000  0.50082000  0.40643000  1.0
  C  C33  1  0.49721000  0.49659000  0.59416000  1.0
  C  C34  1  0.47362000  0.59806000  0.17996000  1.0
  C  C35  1  0.54182000  0.40924000  0.82001000  1.0
  C  C36  1  0.50406000  0.40751000  0.17960000  1.0
  C  C37  1  0.48163000  0.59570000  0.82066000  1.0
  C  C38  1  0.39229000  0.49754000  0.28201000  1.0
  C  C39  1  0.60181000  0.51689000  0.71757000  1.0
  C  C40  1  0.39180000  0.49710000  0.33154000  1.0
  C  C41  1  0.60034000  0.51547000  0.66815000  1.0
  C  C42  1  0.59759000  0.50598000  0.32443000  1.0
  C  C43  1  0.40043000  0.47831000  0.67683000  1.0
  C  C44  1  0.59771000  0.50781000  0.27485000  1.0
  C  C45  1  0.40244000  0.47882000  0.72630000  1.0
  C  C46  1  0.49465000  0.50307000  0.25345000  1.0
  C  C47  1  0.50336000  0.49891000  0.74685000  1.0
  C  C48  1  0.49450000  0.50317000  0.10203000  1.0
  C  C49  1  0.50582000  0.50268000  0.89808000  1.0
  C  C50  1  0.47656000  0.59596000  0.12738000  1.0
  C  C51  1  0.53549000  0.41131000  0.87260000  1.0
  C  C52  1  0.46163000  0.68661000  0.10262000  1.0
  C  C53  1  0.55984000  0.32200000  0.89715000  1.0
  C  C54  1  0.50849000  0.41017000  0.12701000  1.0
  C  C55  1  0.48020000  0.59397000  0.87322000  1.0
  C  C56  1  0.49439000  0.50126000  0.35298000  1.0
  C  C57  1  0.49962000  0.49667000  0.64754000  1.0
  C  C58  1  0.47729000  0.59637000  0.97430000  1.0
  C  C59  1  0.51829000  0.40924000  0.02591000  1.0
  C  C60  1  0.52562000  0.40967000  0.97371000  1.0
  C  C61  1  0.47878000  0.59714000  0.02631000  1.0
  C  C62  1  0.50290000  0.50294000  0.94910000  1.0
  C  C63  1  0.49728000  0.50323000  0.05101000  1.0
  C  C64  1  0.45156000  0.68430000  0.94816000  1.0
  C  C65  1  0.53133000  0.31938000  0.05222000  1.0
  C  C66  1  0.45263000  0.68338000  0.89846000  1.0
  C  C67  1  0.52590000  0.31948000  0.10200000  1.0
  C  C68  1  0.46244000  0.68691000  0.05292000  1.0
  C  C69  1  0.55409000  0.32136000  0.94693000  1.0
  C  C70  1  0.53618000  0.18700000  0.49859000  1.0
  C  C71  1  0.46555000  0.81128000  0.50200000  1.0
  C  C72  1  0.34715000  0.96790000  0.51142000  1.0
  C  C73  1  0.65476000  0.03036000  0.48955000  1.0
  C  C74  1  0.35653000  0.86350000  0.51027000  1.0
  C  C75  1  0.64534000  0.13476000  0.49083000  1.0
  C  C76  1  0.56295000  0.86554000  0.49531000  1.0
  C  C77  1  0.43875000  0.13277000  0.50510000  1.0
  C  C78  1  0.55615000  0.97283000  0.49633000  1.0
  C  C79  1  0.44574000  0.02544000  0.50442000  1.0
  C  C80  1  0.04302000  0.40304000  0.54540000  1.0
  C  C81  1  0.95455000  0.59471000  0.45520000  1.0
  C  C82  1  0.15881000  0.41534000  0.54153000  1.0
  C  C83  1  0.83871000  0.58270000  0.45919000  1.0
  C  C84  1  0.14467000  0.54083000  0.48290000  1.0
  C  C85  1  0.85289000  0.45659000  0.51753000  1.0
  C  C86  1  0.02468000  0.53446000  0.48411000  1.0
  C  C87  1  0.97290000  0.46310000  0.51639000  1.0
  S  S88  1  0.72878000  0.51241000  0.23774000  1.0
  S  S89  1  0.27832000  0.45487000  0.76515000  1.0
  N  N90  1  0.49348000  0.50314000  0.20238000  1.0
  N  N91  1  0.50577000  0.50078000  0.79783000  1.0
  N  N92  1  0.78968000  0.51417000  0.49005000  1.0
  N  N93  1  0.20786000  0.48360000  0.51052000  1.0
  O  O94  1  0.57640000  0.65558000  0.49350000  1.0
  O  O95  1  0.42560000  0.34316000  0.50134000  1.0
  O  O96  1  0.38384000  0.65095000  0.50704000  1.0
  O  O97  1  0.61863000  0.34678000  0.49850000  1.0
  O  O98  1  0.59249000  0.49740000  0.42312000  1.0
  O  O99  1  0.40052000  0.48819000  0.57788000  1.0
  O  O100  1  0.39841000  0.50402000  0.43082000  1.0
  O  O101  1  0.59215000  0.50541000  0.56943000  1.0
  O  O102  1  0.45467000  0.67566000  0.20395000  1.0
  O  O103  1  0.57582000  0.33458000  0.79582000  1.0
  O  O104  1  0.46391000  0.67292000  0.79707000  1.0
  O  O105  1  0.50890000  0.32896000  0.20330000  1.0
  O  O106  1  0.76422000  0.41200000  0.22138000  1.0
  O  O107  1  0.72132000  0.59675000  0.20502000  1.0
  O  O108  1  0.81792000  0.54027000  0.27601000  1.0
  O  O109  1  0.30152000  0.36540000  0.79273000  1.0
  O  O110  1  0.23300000  0.54825000  0.78768000  1.0
  O  O111  1  0.18905000  0.42415000  0.72748000  1.0
