# generated using pymatgen
data_SmCuH13C15N2O13
_symmetry_space_group_name_H-M   'P 1'
_cell_length_a   8.10618000
_cell_length_b   10.96680000
_cell_length_c   11.80320000
_cell_angle_alpha   101.05500000
_cell_angle_beta   106.48800000
_cell_angle_gamma   102.64000000
_symmetry_Int_Tables_number   1
_chemical_formula_structural   SmCuH13C15N2O13
_chemical_formula_sum   'Sm2 Cu2 H26 C30 N4 O26'
_cell_volume   944.93238732
_cell_formula_units_Z   2
loop_
 _symmetry_equiv_pos_site_id
 _symmetry_equiv_pos_as_xyz
  1  'x, y, z'
loop_
 _atom_site_type_symbol
 _atom_site_label
 _atom_site_symmetry_multiplicity
 _atom_site_fract_x
 _atom_site_fract_y
 _atom_site_fract_z
 _atom_site_occupancy
  Sm  Sm0  1  0.98608000  0.66250000  0.42136000  1.0
  Sm  Sm1  1  0.01391000  0.33750000  0.57864000  1.0
  Cu  Cu2  1  0.96466000  0.76965000  0.94415000  1.0
  Cu  Cu3  1  0.03533000  0.23035000  0.05585000  1.0
  H  H4  1  0.17333000  0.88742000  0.64830000  1.0
  H  H5  1  0.82667000  0.11258000  0.35170000  1.0
  H  H6  1  0.24560000  0.91347000  0.54201000  1.0
  H  H7  1  0.75441000  0.08653000  0.45799000  1.0
  H  H8  1  0.60471000  0.32247000  0.34962000  1.0
  H  H9  1  0.39528000  0.67753000  0.65037000  1.0
  H  H10  1  0.78318000  0.86769000  0.44323000  1.0
  H  H11  1  0.21682000  0.13231000  0.55677000  1.0
  H  H12  1  0.84955000  0.87324000  0.33006000  1.0
  H  H13  1  0.15045000  0.12676000  0.66994000  1.0
  H  H14  1  0.70247000  0.67398000  0.52273000  1.0
  H  H15  1  0.29753000  0.32602000  0.47727000  1.0
  H  H16  1  0.83935000  0.66320000  0.64243000  1.0
  H  H17  1  0.16064000  0.33681000  0.35757000  1.0
  H  H18  1  0.49096000  0.54434000  0.19860000  1.0
  H  H19  1  0.50904000  0.45566000  0.80140000  1.0
  H  H20  1  0.55197000  0.64890000  0.03899000  1.0
  H  H21  1  0.44804000  0.35110000  0.96101000  1.0
  H  H22  1  0.31396000  0.74162000  0.92277000  1.0
  H  H23  1  0.68605000  0.25839000  0.07723000  1.0
  H  H24  1  0.50168000  0.94641000  0.28080000  1.0
  H  H25  1  0.49832000  0.05359000  0.71920000  1.0
  H  H26  1  0.58174000  0.05524000  0.12775000  1.0
  H  H27  1  0.41826000  0.94478000  0.87226000  1.0
  H  H28  1  0.37165000  0.17110000  0.02198000  1.0
  H  H29  1  0.62834000  0.82889000  0.97801000  1.0
  C  C30  1  0.70681000  0.41499000  0.36456000  1.0
  C  C31  1  0.29319000  0.58500000  0.63544000  1.0
  C  C32  1  0.20203000  0.51478000  0.26865000  1.0
  C  C33  1  0.79797000  0.48521000  0.73135000  1.0
  C  C34  1  0.23373000  0.58081000  0.17248000  1.0
  C  C35  1  0.76627000  0.41919000  0.82752000  1.0
  C  C36  1  0.39348000  0.58567000  0.14714000  1.0
  C  C37  1  0.60652000  0.41432000  0.85286000  1.0
  C  C38  1  0.42740000  0.64449000  0.05840000  1.0
  C  C39  1  0.57261000  0.35551000  0.94159000  1.0
  C  C40  1  0.29979000  0.69673000  0.99544000  1.0
  C  C41  1  0.70021000  0.30327000  0.00456000  1.0
  C  C42  1  0.11298000  0.63717000  0.10724000  1.0
  C  C43  1  0.88702000  0.36282000  0.89276000  1.0
  C  C44  1  0.93524000  0.64124000  0.12161000  1.0
  C  C45  1  0.06476000  0.35876000  0.87839000  1.0
  C  C46  1  0.21666000  0.94279000  0.35681000  1.0
  C  C47  1  0.78335000  0.05721000  0.64319000  1.0
  C  C48  1  0.25565000  0.99999000  0.25717000  1.0
  C  C49  1  0.74435000  0.00001000  0.74283000  1.0
  C  C50  1  0.41374000  0.99587000  0.23234000  1.0
  C  C51  1  0.58626000  0.00414000  0.76766000  1.0
  C  C52  1  0.45790000  0.05572000  0.14676000  1.0
  C  C53  1  0.54209000  0.94428000  0.85324000  1.0
  C  C54  1  0.34437000  0.12077000  0.08863000  1.0
  C  C55  1  0.65562000  0.87923000  0.91137000  1.0
  C  C56  1  0.14466000  0.06186000  0.19103000  1.0
  C  C57  1  0.85534000  0.93814000  0.80897000  1.0
  C  C58  1  0.96495000  0.06687000  0.19956000  1.0
  C  C59  1  0.03505000  0.93313000  0.80045000  1.0
  N  N60  1  0.14851000  0.69339000  0.02107000  1.0
  N  N61  1  0.85149000  0.30660000  0.97893000  1.0
  N  N62  1  0.19207000  0.12324000  0.11095000  1.0
  N  N63  1  0.80792000  0.87676000  0.88905000  1.0
  O  O64  1  0.20773000  0.84294000  0.58097000  1.0
  O  O65  1  0.79227000  0.15706000  0.41903000  1.0
  O  O66  1  0.65950000  0.51383000  0.34717000  1.0
  O  O67  1  0.34050000  0.48617000  0.65283000  1.0
  O  O68  1  0.81194000  0.81454000  0.37763000  1.0
  O  O69  1  0.18806000  0.18547000  0.62238000  1.0
  O  O70  1  0.87294000  0.41774000  0.39997000  1.0
  O  O71  1  0.12706000  0.58225000  0.60002000  1.0
  O  O72  1  0.83006000  0.70389000  0.57163000  1.0
  O  O73  1  0.16994000  0.29611000  0.42837000  1.0
  O  O74  1  0.13529000  0.82315000  0.32688000  1.0
  O  O75  1  0.86470000  0.17684000  0.67312000  1.0
  O  O76  1  0.28009000  0.01893000  0.46459000  1.0
  O  O77  1  0.71991000  0.98107000  0.53540000  1.0
  O  O78  1  0.89539000  0.00494000  0.26169000  1.0
  O  O79  1  0.10461000  0.99506000  0.73831000  1.0
  O  O80  1  0.88796000  0.13642000  0.13828000  1.0
  O  O81  1  0.11204000  0.86358000  0.86172000  1.0
  O  O82  1  0.84458000  0.69818000  0.05193000  1.0
  O  O83  1  0.15542000  0.30181000  0.94808000  1.0
  O  O84  1  0.88032000  0.58877000  0.19516000  1.0
  O  O85  1  0.11967000  0.41121000  0.80483000  1.0
  O  O86  1  0.21672000  0.58462000  0.37204000  1.0
  O  O87  1  0.78329000  0.41540000  0.62797000  1.0
  O  O88  1  0.17216000  0.39251000  0.24137000  1.0
  O  O89  1  0.82784000  0.60749000  0.75864000  1.0
