# generated using pymatgen
data_Zr6H23C52S10Br2N5O32
_symmetry_space_group_name_H-M   'P 1'
_cell_length_a   16.42711165
_cell_length_b   16.43410000
_cell_length_c   16.43530000
_cell_angle_alpha   119.70140000
_cell_angle_beta   91.30142681
_cell_angle_gamma   60.33607550
_symmetry_Int_Tables_number   1
_chemical_formula_structural   Zr6H23C52S10Br2N5O32
_chemical_formula_sum   'Zr6 H23 C52 S10 Br2 N5 O32'
_cell_volume   3200.10165574
_cell_formula_units_Z   1
loop_
 _symmetry_equiv_pos_site_id
 _symmetry_equiv_pos_as_xyz
  1  'x, y, z'
loop_
 _atom_site_type_symbol
 _atom_site_label
 _atom_site_symmetry_multiplicity
 _atom_site_fract_x
 _atom_site_fract_y
 _atom_site_fract_z
 _atom_site_occupancy
  Zr  Zr0  1  0.40238000  0.48535000  0.09779000  1.0
  Zr  Zr1  1  0.60087000  0.51128000  0.89892000  1.0
  Zr  Zr2  1  0.39315000  0.70885000  0.10651000  1.0
  Zr  Zr3  1  0.61033000  0.28711000  0.88938000  1.0
  Zr  Zr4  1  0.61085000  0.49879000  0.10746000  1.0
  Zr  Zr5  1  0.39225000  0.49850000  0.88910000  1.0
  H  H6  1  0.42380000  0.65505000  0.24796000  1.0
  H  H7  1  0.75117000  0.34312000  0.92043000  1.0
  H  H8  1  0.40956000  0.67359000  0.91919000  1.0
  H  H9  1  0.42223000  0.32255000  0.90617000  1.0
  H  H10  1  0.63949000  0.48603000  0.38755000  1.0
  H  H11  1  0.10125000  0.51024000  0.87300000  1.0
  H  H12  1  0.88127000  0.98712000  0.87525000  1.0
  H  H13  1  0.63835000  0.98808000  0.60391000  1.0
  H  H14  1  0.12794000  0.97323000  0.36348000  1.0
  H  H15  1  0.14876000  0.69342000  0.34468000  1.0
  H  H16  1  0.86769000  0.02353000  0.62533000  1.0
  H  H17  1  0.84843000  0.30324000  0.64549000  1.0
  H  H18  1  0.38964000  0.23419000  0.12606000  1.0
  H  H19  1  0.30349000  0.51144000  0.57188000  1.0
  H  H20  1  0.34259000  0.50178000  0.66798000  1.0
  H  H21  1  0.93644000  0.49340000  0.18846000  1.0
  H  H22  1  0.82832000  0.50747000  0.16056000  1.0
  H  H23  1  0.09087000  0.10338000  0.17939000  1.0
  H  H24  1  0.17962000  0.96955000  0.15167000  1.0
  H  H25  1  0.30284000  0.10388000  0.42714000  1.0
  H  H26  1  0.34514000  0.97059000  0.32287000  1.0
  H  H27  1  0.67640000  0.73846000  0.81264000  1.0
  H  H28  1  0.64500000  0.67707000  0.85666000  1.0
  C  C29  1  0.51499000  0.47947000  0.26192000  1.0
  C  C30  1  0.76543000  0.51807000  0.00992000  1.0
  C  C31  1  0.49687000  0.50356000  0.72738000  1.0
  C  C32  1  0.23153000  0.49259000  0.99195000  1.0
  C  C33  1  0.23389000  0.74744000  0.25958000  1.0
  C  C34  1  0.51357000  0.21752000  0.99390000  1.0
  C  C35  1  0.76322000  0.24932000  0.73064000  1.0
  C  C36  1  0.49487000  0.78208000  0.01260000  1.0
  C  C37  1  0.50554000  0.76866000  0.27126000  1.0
  C  C38  1  0.22106000  0.76750000  0.00115000  1.0
  C  C39  1  0.50567000  0.22855000  0.71857000  1.0
  C  C40  1  0.77420000  0.22790000  0.00106000  1.0
  C  C41  1  0.43629000  0.49159000  0.58016000  1.0
  C  C42  1  0.57734000  0.48540000  0.40773000  1.0
  C  C43  1  0.50177000  0.49592000  0.63620000  1.0
  C  C44  1  0.51343000  0.48117000  0.35195000  1.0
  C  C45  1  0.54984000  0.48917000  0.49087000  1.0
  C  C46  1  0.46523000  0.48778000  0.49668000  1.0
  C  C47  1  0.90945000  0.51263000  0.07398000  1.0
  C  C48  1  0.08154000  0.50815000  0.93432000  1.0
  C  C49  1  0.85258000  0.51903000  0.00937000  1.0
  C  C50  1  0.13887000  0.50008000  0.99642000  1.0
  C  C51  1  0.99781000  0.51293000  0.96208000  1.0
  C  C52  1  0.99301000  0.50889000  0.04529000  1.0
  C  C53  1  0.08576000  0.97271000  0.07003000  1.0
  C  C54  1  0.90715000  0.02263000  0.93664000  1.0
  C  C55  1  0.13254000  0.85563000  0.00254000  1.0
  C  C56  1  0.86089000  0.13790000  0.00257000  1.0
  C  C57  1  0.98899000  0.96180000  0.96058000  1.0
  C  C58  1  0.00339000  0.03224000  0.04468000  1.0
  C  C59  1  0.43860000  0.97401000  0.40467000  1.0
  C  C60  1  0.57540000  0.02368000  0.57972000  1.0
  C  C61  1  0.50823000  0.85694000  0.35543000  1.0
  C  C62  1  0.50702000  0.13887000  0.62875000  1.0
  C  C63  1  0.55128000  0.96298000  0.49798000  1.0
  C  C64  1  0.46468000  0.03345000  0.48636000  1.0
  C  C65  1  0.09955000  0.94260000  0.39265000  1.0
  C  C66  1  0.11071000  0.78435000  0.38236000  1.0
  C  C67  1  0.03020000  0.85779000  0.46334000  1.0
  C  C68  1  0.97965000  0.97726000  0.51349000  1.0
  C  C69  1  0.89654000  0.05406000  0.59643000  1.0
  C  C70  1  0.88604000  0.21231000  0.60733000  1.0
  C  C71  1  0.96692000  0.13882000  0.52673000  1.0
  C  C72  1  0.01692000  0.01939000  0.47601000  1.0
  C  C73  1  0.14547000  0.82770000  0.34681000  1.0
  C  C74  1  0.85060000  0.16894000  0.64222000  1.0
  C  C75  1  0.56777000  0.84759000  0.94357000  1.0
  C  C76  1  0.44760000  0.14948000  0.06666000  1.0
  C  C77  1  0.49967000  0.86759000  0.01320000  1.0
  C  C78  1  0.51354000  0.13031000  0.99780000  1.0
  C  C79  1  0.46661000  0.04716000  0.04773000  1.0
  C  C80  1  0.54720000  0.95209000  0.96480000  1.0
  S  S81  1  0.59632000  0.49449000  0.58719000  1.0
  S  S82  1  0.41993000  0.48113000  0.39963000  1.0
  S  S83  1  0.89994000  0.52195000  0.91719000  1.0
  S  S84  1  0.09128000  0.49933000  0.08937000  1.0
  S  S85  1  0.07579000  0.82072000  0.91105000  1.0
  S  S86  1  0.91598000  0.17305000  0.09462000  1.0
  S  S87  1  0.60334000  0.82208000  0.40832000  1.0
  S  S88  1  0.41345000  0.17414000  0.57535000  1.0
  S  S89  1  0.41423000  0.01089000  0.10241000  1.0
  S  S90  1  0.59972000  0.98823000  0.91036000  1.0
  Br  Br91  1  0.01278000  0.20106000  0.48273000  1.0
  Br  Br92  1  0.98617000  0.79566000  0.50914000  1.0
  N  N93  1  0.35876000  0.48818000  0.60122000  1.0
  N  N94  1  0.88685000  0.51191000  0.15243000  1.0
  N  N95  1  0.11330000  0.02238000  0.14949000  1.0
  N  N96  1  0.35937000  0.02378000  0.37710000  1.0
  N  N97  1  0.64325000  0.74483000  0.86849000  1.0
  O  O98  1  0.44672000  0.47630000  0.22411000  1.0
  O  O99  1  0.72581000  0.52088000  0.94219000  1.0
  O  O100  1  0.56214000  0.51142000  0.76912000  1.0
  O  O101  1  0.27129000  0.48563000  0.05817000  1.0
  O  O102  1  0.26473000  0.78868000  0.23000000  1.0
  O  O103  1  0.57933000  0.18673000  0.92555000  1.0
  O  O104  1  0.73360000  0.20811000  0.76147000  1.0
  O  O105  1  0.42666000  0.81095000  0.07783000  1.0
  O  O106  1  0.57414000  0.66540000  0.23677000  1.0
  O  O107  1  0.25727000  0.66449000  0.93076000  1.0
  O  O108  1  0.43470000  0.33051000  0.75330000  1.0
  O  O109  1  0.74185000  0.32999000  0.06997000  1.0
  O  O110  1  0.25895000  0.79942000  0.07122000  1.0
  O  O111  1  0.57517000  0.19658000  0.75555000  1.0
  O  O112  1  0.73909000  0.19605000  0.92983000  1.0
  O  O113  1  0.43222000  0.80027000  0.23678000  1.0
  O  O114  1  0.27271000  0.64278000  0.22245000  1.0
  O  O115  1  0.56113000  0.67902000  0.94282000  1.0
  O  O116  1  0.72602000  0.35389000  0.76926000  1.0
  O  O117  1  0.44481000  0.31909000  0.06046000  1.0
  O  O118  1  0.26526000  0.49255000  0.92254000  1.0
  O  O119  1  0.58230000  0.48341000  0.22985000  1.0
  O  O120  1  0.73388000  0.51205000  0.07707000  1.0
  O  O121  1  0.42681000  0.50332000  0.76163000  1.0
  O  O122  1  0.44539000  0.37191000  0.93146000  1.0
  O  O123  1  0.43463000  0.62407000  0.94215000  1.0
  O  O124  1  0.68020000  0.38648000  0.94237000  1.0
  O  O125  1  0.44579000  0.60967000  0.17693000  1.0
  O  O126  1  0.54284000  0.59139000  0.04779000  1.0
  O  O127  1  0.55108000  0.40525000  0.03967000  1.0
  O  O128  1  0.54255000  0.41569000  0.86649000  1.0
  O  O129  1  0.36970000  0.58035000  0.03923000  1.0
