# generated using pymatgen
data_LiBH4C4(NF2)2
_symmetry_space_group_name_H-M   'P 1'
_cell_length_a   4.95832000
_cell_length_b   9.08808000
_cell_length_c   15.65130000
_cell_angle_alpha   90.00000000
_cell_angle_beta   90.00010000
_cell_angle_gamma   90.00000000
_symmetry_Int_Tables_number   1
_chemical_formula_structural   LiBH4C4(NF2)2
_chemical_formula_sum   'Li4 B4 H16 C16 N8 F16'
_cell_volume   705.27275821
_cell_formula_units_Z   4
loop_
 _symmetry_equiv_pos_site_id
 _symmetry_equiv_pos_as_xyz
  1  'x, y, z'
loop_
 _atom_site_type_symbol
 _atom_site_label
 _atom_site_symmetry_multiplicity
 _atom_site_fract_x
 _atom_site_fract_y
 _atom_site_fract_z
 _atom_site_occupancy
  Li  Li0  1  0.47195000  0.58552000  0.55811000  1.0
  Li  Li1  1  0.97195000  0.91448000  0.44189000  1.0
  Li  Li2  1  0.52805000  0.08552000  0.94189000  1.0
  Li  Li3  1  0.02805000  0.41448000  0.05811000  1.0
  B  B4  1  0.02938000  0.56595000  0.43084000  1.0
  B  B5  1  0.52938000  0.93405000  0.56916000  1.0
  B  B6  1  0.97063000  0.06595000  0.06916000  1.0
  B  B7  1  0.47062000  0.43405000  0.93084000  1.0
  H  H8  1  0.66118000  0.65479000  0.75980000  1.0
  H  H9  1  0.16118000  0.84521000  0.24020000  1.0
  H  H10  1  0.33882000  0.15479000  0.74020000  1.0
  H  H11  1  0.83882000  0.34521000  0.25980000  1.0
  H  H12  1  0.76694000  0.83898000  0.74448000  1.0
  H  H13  1  0.26694000  0.66102000  0.25552000  1.0
  H  H14  1  0.23306000  0.33898000  0.75552000  1.0
  H  H15  1  0.73306000  0.16102000  0.24447000  1.0
  H  H16  1  0.76773000  0.76557000  0.89861000  1.0
  H  H17  1  0.26773000  0.73443000  0.10139000  1.0
  H  H18  1  0.23226000  0.26557000  0.60139000  1.0
  H  H19  1  0.73226000  0.23443000  0.39861000  1.0
  H  H20  1  0.99276000  0.61811000  0.87819000  1.0
  H  H21  1  0.49275000  0.88189000  0.12181000  1.0
  H  H22  1  0.00724000  0.11811000  0.62181000  1.0
  H  H23  1  0.50724000  0.38189000  0.37819000  1.0
  C  C24  1  0.03971000  0.67859000  0.70472000  1.0
  C  C25  1  0.53971000  0.82141000  0.29528000  1.0
  C  C26  1  0.96029000  0.17859000  0.79529000  1.0
  C  C27  1  0.46029000  0.32141000  0.20472000  1.0
  C  C28  1  0.83558000  0.72909000  0.76419000  1.0
  C  C29  1  0.33558000  0.77091000  0.23581000  1.0
  C  C30  1  0.16442000  0.22909000  0.73581000  1.0
  C  C31  1  0.66442000  0.27091000  0.26419000  1.0
  C  C32  1  0.93455000  0.72901000  0.85756000  1.0
  C  C33  1  0.43454000  0.77099000  0.14244000  1.0
  C  C34  1  0.06545000  0.22901000  0.64244000  1.0
  C  C35  1  0.56545000  0.27099000  0.35756000  1.0
  C  C36  1  0.15972000  0.82717000  0.87193000  1.0
  C  C37  1  0.65972000  0.67283000  0.12807000  1.0
  C  C38  1  0.84028000  0.32717000  0.62807000  1.0
  C  C39  1  0.34028000  0.17283000  0.37193000  1.0
  N  N40  1  0.20464000  0.63686000  0.65789000  1.0
  N  N41  1  0.70465000  0.86314000  0.34211000  1.0
  N  N42  1  0.79536000  0.13686000  0.84211000  1.0
  N  N43  1  0.29536000  0.36314000  0.15789000  1.0
  N  N44  1  0.33813000  0.90761000  0.88371000  1.0
  N  N45  1  0.83813000  0.59239000  0.11629000  1.0
  N  N46  1  0.66187000  0.40761000  0.61629000  1.0
  N  N47  1  0.16187000  0.09239000  0.38371000  1.0
  F  F48  1  0.19158000  0.48293000  0.48911000  1.0
  F  F49  1  0.69158000  0.01707000  0.51089000  1.0
  F  F50  1  0.80843000  0.98293000  0.01089000  1.0
  F  F51  1  0.30842000  0.51707000  0.98911000  1.0
  F  F52  1  0.75596000  0.55957000  0.45557000  1.0
  F  F53  1  0.25596000  0.94043000  0.54443000  1.0
  F  F54  1  0.24404000  0.05957000  0.04443000  1.0
  F  F55  1  0.74404000  0.44043000  0.95557000  1.0
  F  F56  1  0.12376000  0.71388000  0.43344000  1.0
  F  F57  1  0.62376000  0.78612000  0.56656000  1.0
  F  F58  1  0.87624000  0.21388000  0.06656000  1.0
  F  F59  1  0.37624000  0.28612000  0.93344000  1.0
  F  F60  1  0.06081000  0.50802000  0.34803000  1.0
  F  F61  1  0.56081000  0.99198000  0.65197000  1.0
  F  F62  1  0.93919000  0.00802000  0.15197000  1.0
  F  F63  1  0.43919000  0.49198000  0.84803000  1.0
