# generated using pymatgen
data_CdH16C23(NO2)4
_symmetry_space_group_name_H-M   'P 1'
_cell_length_a   7.09277000
_cell_length_b   12.95210000
_cell_length_c   13.80120000
_cell_angle_alpha   112.45100000
_cell_angle_beta   102.62700000
_cell_angle_gamma   95.14260000
_symmetry_Int_Tables_number   1
_chemical_formula_structural   CdH16C23(NO2)4
_chemical_formula_sum   'Cd2 H32 C46 N8 O16'
_cell_volume   1122.16406007
_cell_formula_units_Z   2
loop_
 _symmetry_equiv_pos_site_id
 _symmetry_equiv_pos_as_xyz
  1  'x, y, z'
loop_
 _atom_site_type_symbol
 _atom_site_label
 _atom_site_symmetry_multiplicity
 _atom_site_fract_x
 _atom_site_fract_y
 _atom_site_fract_z
 _atom_site_occupancy
  Cd  Cd0  1  0.26789000  0.57442000  0.50578000  1.0
  Cd  Cd1  1  0.73210000  0.42558000  0.49422000  1.0
  H  H2  1  0.42278000  0.49457000  0.67192000  1.0
  H  H3  1  0.57722000  0.50544000  0.32808000  1.0
  H  H4  1  0.19307000  0.51681000  0.66966000  1.0
  H  H5  1  0.80694000  0.48319000  0.33035000  1.0
  H  H6  1  0.31074000  0.84014000  0.54181000  1.0
  H  H7  1  0.68926000  0.15986000  0.45819000  1.0
  H  H8  1  0.45733000  0.03310000  0.69105000  1.0
  H  H9  1  0.54268000  0.96690000  0.30894000  1.0
  H  H10  1  0.60037000  0.04903000  0.88206000  1.0
  H  H11  1  0.39963000  0.95097000  0.11793000  1.0
  H  H12  1  0.66333000  0.95329000  0.00729000  1.0
  H  H13  1  0.33667000  0.04671000  0.99270000  1.0
  H  H14  1  0.63342000  0.77412000  0.03615000  1.0
  H  H15  1  0.36657000  0.22589000  0.96385000  1.0
  H  H16  1  0.47738000  0.58887000  0.87906000  1.0
  H  H17  1  0.52262000  0.41113000  0.12094000  1.0
  H  H18  1  0.28294000  0.74797000  0.05536000  1.0
  H  H19  1  0.71706000  0.25203000  0.94464000  1.0
  H  H20  1  0.93710000  0.66841000  0.94232000  1.0
  H  H21  1  0.06290000  0.33159000  0.05768000  1.0
  H  H22  1  0.70536000  0.56600000  0.00479000  1.0
  H  H23  1  0.29465000  0.43400000  0.99521000  1.0
  H  H24  1  0.82307000  0.54719000  0.17983000  1.0
  H  H25  1  0.17693000  0.45281000  0.82017000  1.0
  H  H26  1  0.93636000  0.96217000  0.13847000  1.0
  H  H27  1  0.06364000  0.03782000  0.86153000  1.0
  H  H28  1  0.00624000  0.88031000  0.27730000  1.0
  H  H29  1  0.99375000  0.11968000  0.72269000  1.0
  H  H30  1  0.17073000  0.01056000  0.47222000  1.0
  H  H31  1  0.82928000  0.98944000  0.52778000  1.0
  H  H32  1  0.25262000  0.21838000  0.52845000  1.0
  H  H33  1  0.74739000  0.78162000  0.47155000  1.0
  C  C34  1  0.36840000  0.85068000  0.62588000  1.0
  C  C35  1  0.63160000  0.14932000  0.37411000  1.0
  C  C36  1  0.45230000  0.95923000  0.71044000  1.0
  C  C37  1  0.54770000  0.04077000  0.28955000  1.0
  C  C38  1  0.52892000  0.96744000  0.81435000  1.0
  C  C39  1  0.47108000  0.03257000  0.18565000  1.0
  C  C40  1  0.51670000  0.86816000  0.83488000  1.0
  C  C41  1  0.48328000  0.13185000  0.16512000  1.0
  C  C42  1  0.59190000  0.87151000  0.94014000  1.0
  C  C43  1  0.40810000  0.12850000  0.05986000  1.0
  C  C44  1  0.57581000  0.77242000  0.95545000  1.0
  C  C45  1  0.42418000  0.22758000  0.04455000  1.0
  C  C46  1  0.48650000  0.66716000  0.86647000  1.0
  C  C47  1  0.51349000  0.33284000  0.13354000  1.0
  C  C48  1  0.41194000  0.65919000  0.76199000  1.0
  C  C49  1  0.58805000  0.34081000  0.23801000  1.0
  C  C50  1  0.42565000  0.76150000  0.74458000  1.0
  C  C51  1  0.57435000  0.23850000  0.25542000  1.0
  C  C52  1  0.18388000  0.61339000  0.31675000  1.0
  C  C53  1  0.81613000  0.38661000  0.68325000  1.0
  C  C54  1  0.11662000  0.63481000  0.21608000  1.0
  C  C55  1  0.88338000  0.36519000  0.78392000  1.0
  C  C56  1  0.24236000  0.69086000  0.17845000  1.0
  C  C57  1  0.75764000  0.30913000  0.82155000  1.0
  C  C58  1  0.18074000  0.70254000  0.08075000  1.0
  C  C59  1  0.81926000  0.29746000  0.91925000  1.0
  C  C60  1  0.98593000  0.65789000  0.01797000  1.0
  C  C61  1  0.01407000  0.34211000  0.98203000  1.0
  C  C62  1  0.85744000  0.60198000  0.05368000  1.0
  C  C63  1  0.14256000  0.39801000  0.94632000  1.0
  C  C64  1  0.92222000  0.59095000  0.15153000  1.0
  C  C65  1  0.07778000  0.40905000  0.84847000  1.0
  C  C66  1  0.18261000  0.33708000  0.40765000  1.0
  C  C67  1  0.81738000  0.66292000  0.59235000  1.0
  C  C68  1  0.13844000  0.20946000  0.36688000  1.0
  C  C69  1  0.86156000  0.79054000  0.63312000  1.0
  C  C70  1  0.04968000  0.13441000  0.25764000  1.0
  C  C71  1  0.95032000  0.86559000  0.74236000  1.0
  C  C72  1  0.00164000  0.01671000  0.22454000  1.0
  C  C73  1  0.99836000  0.98329000  0.77546000  1.0
  C  C74  1  0.04319000  0.97189000  0.30203000  1.0
  C  C75  1  0.95681000  0.02810000  0.69796000  1.0
  C  C76  1  0.13407000  0.04502000  0.41121000  1.0
  C  C77  1  0.86594000  0.95497000  0.58879000  1.0
  C  C78  1  0.18114000  0.16231000  0.44329000  1.0
  C  C79  1  0.81886000  0.83769000  0.55671000  1.0
  N  N80  1  0.35685000  0.75646000  0.64229000  1.0
  N  N81  1  0.64315000  0.24354000  0.35771000  1.0
  N  N82  1  0.33059000  0.55139000  0.67139000  1.0
  N  N83  1  0.66940000  0.44861000  0.32861000  1.0
  N  N84  1  0.00964000  0.17949000  0.17437000  1.0
  N  N85  1  0.99036000  0.82051000  0.82563000  1.0
  N  N86  1  0.44333000  0.74795000  0.24589000  1.0
  N  N87  1  0.55667000  0.25205000  0.75411000  1.0
  O  O88  1  0.06070000  0.61675000  0.37256000  1.0
  O  O89  1  0.93931000  0.38325000  0.62744000  1.0
  O  O90  1  0.35363000  0.59096000  0.33996000  1.0
  O  O91  1  0.64638000  0.40903000  0.66004000  1.0
  O  O92  1  0.04067000  0.38986000  0.41492000  1.0
  O  O93  1  0.95932000  0.61013000  0.58507000  1.0
  O  O94  1  0.09082000  0.27863000  0.19927000  1.0
  O  O95  1  0.90918000  0.72136000  0.80073000  1.0
  O  O96  1  0.89809000  0.11659000  0.08261000  1.0
  O  O97  1  0.10191000  0.88341000  0.91739000  1.0
  O  O98  1  0.36082000  0.38725000  0.43990000  1.0
  O  O99  1  0.63918000  0.61275000  0.56010000  1.0
  O  O100  1  0.57849000  0.73382000  0.20080000  1.0
  O  O101  1  0.42151000  0.26618000  0.79920000  1.0
  O  O102  1  0.46524000  0.81182000  0.34292000  1.0
  O  O103  1  0.53477000  0.18818000  0.65708000  1.0
