# generated using pymatgen
data_CdH12C13(N3O2)2
_symmetry_space_group_name_H-M   'P 1'
_cell_length_a   7.99522000
_cell_length_b   8.33097000
_cell_length_c   11.59160000
_cell_angle_alpha   90.92650000
_cell_angle_beta   103.88000000
_cell_angle_gamma   100.43900000
_symmetry_Int_Tables_number   1
_chemical_formula_structural   CdH12C13(N3O2)2
_chemical_formula_sum   'Cd2 H24 C26 N12 O8'
_cell_volume   735.70203907
_cell_formula_units_Z   2
loop_
 _symmetry_equiv_pos_site_id
 _symmetry_equiv_pos_as_xyz
  1  'x, y, z'
loop_
 _atom_site_type_symbol
 _atom_site_label
 _atom_site_symmetry_multiplicity
 _atom_site_fract_x
 _atom_site_fract_y
 _atom_site_fract_z
 _atom_site_occupancy
  Cd  Cd0  1  0.10524000  0.15104000  0.15685000  1.0
  Cd  Cd1  1  0.89476000  0.84896000  0.84315000  1.0
  H  H2  1  0.08219000  0.76993000  0.52972000  1.0
  H  H3  1  0.91781000  0.23007000  0.47028000  1.0
  H  H4  1  0.06507000  0.59024000  0.13367000  1.0
  H  H5  1  0.93493000  0.40976000  0.86633000  1.0
  H  H6  1  0.79295000  0.78132000  0.30621000  1.0
  H  H7  1  0.20705000  0.21869000  0.69378000  1.0
  H  H8  1  0.90428000  0.82646000  0.19148000  1.0
  H  H9  1  0.09572000  0.17354000  0.80852000  1.0
  H  H10  1  0.37628000  0.93240000  0.71314000  1.0
  H  H11  1  0.62372000  0.06760000  0.28686000  1.0
  H  H12  1  0.60519000  0.18839000  0.75011000  1.0
  H  H13  1  0.39481000  0.81161000  0.24989000  1.0
  H  H14  1  0.61600000  0.38855000  0.59457000  1.0
  H  H15  1  0.38400000  0.61145000  0.40543000  1.0
  H  H16  1  0.41157000  0.33092000  0.39223000  1.0
  H  H17  1  0.58843000  0.66908000  0.60778000  1.0
  H  H18  1  0.47711000  0.04994000  0.12289000  1.0
  H  H19  1  0.52289000  0.95007000  0.87711000  1.0
  H  H20  1  0.48603000  0.85095000  0.07609000  1.0
  H  H21  1  0.51397000  0.14905000  0.92391000  1.0
  H  H22  1  0.55312000  0.58760000  0.12526000  1.0
  H  H23  1  0.44688000  0.41240000  0.87474000  1.0
  H  H24  1  0.63715000  0.42058000  0.08569000  1.0
  H  H25  1  0.36285000  0.57943000  0.91431000  1.0
  C  C26  1  0.02396000  0.53949000  0.21030000  1.0
  C  C27  1  0.97604000  0.46051000  0.78970000  1.0
  C  C28  1  0.91816000  0.78486000  0.28186000  1.0
  C  C29  1  0.08184000  0.21514000  0.71814000  1.0
  C  C30  1  0.06489000  0.89659000  0.36741000  1.0
  C  C31  1  0.93511000  0.10341000  0.63259000  1.0
  C  C32  1  0.26564000  0.99349000  0.53324000  1.0
  C  C33  1  0.73436000  0.00650000  0.46676000  1.0
  C  C34  1  0.38270000  0.02042000  0.64530000  1.0
  C  C35  1  0.61730000  0.97957000  0.35470000  1.0
  C  C36  1  0.50796000  0.16479000  0.66483000  1.0
  C  C37  1  0.49204000  0.83521000  0.33517000  1.0
  C  C38  1  0.51538000  0.27750000  0.57573000  1.0
  C  C39  1  0.48462000  0.72250000  0.42428000  1.0
  C  C40  1  0.40045000  0.24882000  0.46323000  1.0
  C  C41  1  0.59955000  0.75119000  0.53677000  1.0
  C  C42  1  0.27489000  0.10378000  0.44224000  1.0
  C  C43  1  0.72511000  0.89622000  0.55775000  1.0
  C  C44  1  0.25112000  0.93109000  0.99427000  1.0
  C  C45  1  0.74887000  0.06891000  0.00573000  1.0
  C  C46  1  0.44801000  0.96606000  0.04391000  1.0
  C  C47  1  0.55199000  0.03395000  0.95609000  1.0
  C  C48  1  0.37096000  0.36315000  0.09739000  1.0
  C  C49  1  0.62904000  0.63685000  0.90261000  1.0
  C  C50  1  0.52047000  0.47711000  0.06443000  1.0
  C  C51  1  0.47953000  0.52289000  0.93557000  1.0
  N  N52  1  0.03251000  0.39206000  0.25030000  1.0
  N  N53  1  0.96749000  0.60794000  0.74970000  1.0
  N  N54  1  0.96069000  0.38255000  0.34582000  1.0
  N  N55  1  0.03931000  0.61745000  0.65418000  1.0
  N  N56  1  0.90981000  0.51762000  0.36507000  1.0
  N  N57  1  0.09019000  0.48238000  0.63493000  1.0
  N  N58  1  0.94874000  0.61759000  0.28079000  1.0
  N  N59  1  0.05126000  0.38241000  0.71921000  1.0
  N  N60  1  0.12944000  0.86514000  0.48313000  1.0
  N  N61  1  0.87056000  0.13486000  0.51687000  1.0
  N  N62  1  0.14877000  0.03799000  0.33968000  1.0
  N  N63  1  0.85123000  0.96201000  0.66032000  1.0
  O  O64  1  0.15298000  0.90649000  0.06721000  1.0
  O  O65  1  0.84701000  0.09351000  0.93279000  1.0
  O  O66  1  0.19102000  0.92597000  0.88166000  1.0
  O  O67  1  0.80898000  0.07403000  0.11834000  1.0
  O  O68  1  0.21565000  0.34522000  0.02999000  1.0
  O  O69  1  0.78435000  0.65477000  0.97000000  1.0
  O  O70  1  0.40580000  0.28800000  0.19257000  1.0
  O  O71  1  0.59420000  0.71200000  0.80743000  1.0
