# generated using pymatgen
data_SrH11C7NO8
_symmetry_space_group_name_H-M   'P 1'
_cell_length_a   6.98671000
_cell_length_b   8.47079000
_cell_length_c   10.33650000
_cell_angle_alpha   68.69070000
_cell_angle_beta   72.65410000
_cell_angle_gamma   75.76050000
_symmetry_Int_Tables_number   1
_chemical_formula_structural   SrH11C7NO8
_chemical_formula_sum   'Sr2 H22 C14 N2 O16'
_cell_volume   537.44737451
_cell_formula_units_Z   2
loop_
 _symmetry_equiv_pos_site_id
 _symmetry_equiv_pos_as_xyz
  1  'x, y, z'
loop_
 _atom_site_type_symbol
 _atom_site_label
 _atom_site_symmetry_multiplicity
 _atom_site_fract_x
 _atom_site_fract_y
 _atom_site_fract_z
 _atom_site_occupancy
  Sr  Sr0  1  0.27149000  0.61568000  0.39842000  1.0
  Sr  Sr1  1  0.72851000  0.38432000  0.60158000  1.0
  H  H2  1  0.36349000  0.44351000  0.91013000  1.0
  H  H3  1  0.63650000  0.55649000  0.08987000  1.0
  H  H4  1  0.88798000  0.22123000  0.89003000  1.0
  H  H5  1  0.11202000  0.77877000  0.10997000  1.0
  H  H6  1  0.01171000  0.17074000  0.28926000  1.0
  H  H7  1  0.98830000  0.82927000  0.71074000  1.0
  H  H8  1  0.35247000  0.88643000  0.06587000  1.0
  H  H9  1  0.64753000  0.11356000  0.93413000  1.0
  H  H10  1  0.45360000  0.92912000  0.16427000  1.0
  H  H11  1  0.54640000  0.07087000  0.83573000  1.0
  H  H12  1  0.53315000  0.90059000  0.39839000  1.0
  H  H13  1  0.46685000  0.09941000  0.60161000  1.0
  H  H14  1  0.34922000  0.86761000  0.53131000  1.0
  H  H15  1  0.65077000  0.13240000  0.46869000  1.0
  H  H16  1  0.89651000  0.90414000  0.42996000  1.0
  H  H17  1  0.10349000  0.09586000  0.57004000  1.0
  H  H18  1  0.85446000  0.74934000  0.56818000  1.0
  H  H19  1  0.14554000  0.25066000  0.43182000  1.0
  H  H20  1  0.29994000  0.34210000  0.21328000  1.0
  H  H21  1  0.70007000  0.65790000  0.78672000  1.0
  H  H22  1  0.46269000  0.27812000  0.31241000  1.0
  H  H23  1  0.53731000  0.72188000  0.68759000  1.0
  C  C24  1  0.23926000  0.36859000  0.96220000  1.0
  C  C25  1  0.76073000  0.63141000  0.03779000  1.0
  C  C26  1  0.13110000  0.34055000  0.88056000  1.0
  C  C27  1  0.86890000  0.65945000  0.11944000  1.0
  C  C28  1  0.97220000  0.24577000  0.95190000  1.0
  C  C29  1  0.02780000  0.75423000  0.04810000  1.0
  C  C30  1  0.92428000  0.18296000  0.10061000  1.0
  C  C31  1  0.07571000  0.81705000  0.89939000  1.0
  C  C32  1  0.04199000  0.21691000  0.17294000  1.0
  C  C33  1  0.95802000  0.78310000  0.82706000  1.0
  C  C34  1  0.17968000  0.41494000  0.72089000  1.0
  C  C35  1  0.82032000  0.58506000  0.27911000  1.0
  C  C36  1  0.74967000  0.08531000  0.18147000  1.0
  C  C37  1  0.25033000  0.91470000  0.81853000  1.0
  N  N38  1  0.19514000  0.30843000  0.10530000  1.0
  N  N39  1  0.80486000  0.69157000  0.89470000  1.0
  O  O40  1  0.05493000  0.41409000  0.65348000  1.0
  O  O41  1  0.94507000  0.58591000  0.34652000  1.0
  O  O42  1  0.34263000  0.47983000  0.65933000  1.0
  O  O43  1  0.65737000  0.52017000  0.34067000  1.0
  O  O44  1  0.64665000  0.05785000  0.11203000  1.0
  O  O45  1  0.35335000  0.94215000  0.88797000  1.0
  O  O46  1  0.71169000  0.03679000  0.31845000  1.0
  O  O47  1  0.28831000  0.96321000  0.68155000  1.0
  O  O48  1  0.35749000  0.85840000  0.16701000  1.0
  O  O49  1  0.64251000  0.14159000  0.83299000  1.0
  O  O50  1  0.43410000  0.81962000  0.45588000  1.0
  O  O51  1  0.56590000  0.18037000  0.54412000  1.0
  O  O52  1  0.96438000  0.81438000  0.50130000  1.0
  O  O53  1  0.03562000  0.18562000  0.49869000  1.0
  O  O54  1  0.34099000  0.36027000  0.29400000  1.0
  O  O55  1  0.65902000  0.63973000  0.70600000  1.0
