# generated using pymatgen
data_HgH22C32I2(N2O)2
_symmetry_space_group_name_H-M   'P 1'
_cell_length_a   14.85760000
_cell_length_b   15.49530000
_cell_length_c   16.24220000
_cell_angle_alpha   90.00010000
_cell_angle_beta   90.00000000
_cell_angle_gamma   89.99990000
_symmetry_Int_Tables_number   1
_chemical_formula_structural   HgH22C32I2(N2O)2
_chemical_formula_sum   'Hg4 H88 C128 I8 N16 O8'
_cell_volume   3739.32751163
_cell_formula_units_Z   4
loop_
 _symmetry_equiv_pos_site_id
 _symmetry_equiv_pos_as_xyz
  1  'x, y, z'
loop_
 _atom_site_type_symbol
 _atom_site_label
 _atom_site_symmetry_multiplicity
 _atom_site_fract_x
 _atom_site_fract_y
 _atom_site_fract_z
 _atom_site_occupancy
  Hg  Hg0  1  0.71168000  0.04637000  0.52873000  1.0
  Hg  Hg1  1  0.78832000  0.95363000  0.02873000  1.0
  Hg  Hg2  1  0.28832000  0.54637000  0.97126000  1.0
  Hg  Hg3  1  0.21168000  0.45363000  0.47127000  1.0
  H  H4  1  0.88403000  0.93717000  0.44178000  1.0
  H  H5  1  0.61597000  0.06283000  0.94178000  1.0
  H  H6  1  0.11597000  0.43717000  0.05822000  1.0
  H  H7  1  0.38403000  0.56283000  0.55822000  1.0
  H  H8  1  0.05077000  0.91091000  0.45657000  1.0
  H  H9  1  0.44923000  0.08909000  0.95657000  1.0
  H  H10  1  0.94923000  0.41091000  0.04344000  1.0
  H  H11  1  0.55077000  0.58909000  0.54344000  1.0
  H  H12  1  0.05090000  0.10335000  0.64959000  1.0
  H  H13  1  0.44910000  0.89666000  0.14959000  1.0
  H  H14  1  0.94910000  0.60335000  0.85040000  1.0
  H  H15  1  0.55090000  0.39665000  0.35041000  1.0
  H  H16  1  0.88696000  0.12050000  0.62728000  1.0
  H  H17  1  0.61303000  0.87950000  0.12729000  1.0
  H  H18  1  0.11303000  0.62050000  0.87271000  1.0
  H  H19  1  0.38697000  0.37950000  0.37272000  1.0
  H  H20  1  0.16598000  0.05665000  0.67330000  1.0
  H  H21  1  0.33402000  0.94335000  0.17330000  1.0
  H  H22  1  0.83402000  0.55665000  0.82670000  1.0
  H  H23  1  0.66598000  0.44335000  0.32670000  1.0
  H  H24  1  0.35879000  0.04773000  0.55264000  1.0
  H  H25  1  0.14121000  0.95227000  0.05264000  1.0
  H  H26  1  0.64121000  0.54773000  0.94736000  1.0
  H  H27  1  0.85879000  0.45227000  0.44736000  1.0
  H  H28  1  0.51118000  0.01140000  0.60685000  1.0
  H  H29  1  0.98882000  0.98860000  0.10685000  1.0
  H  H30  1  0.48882000  0.51140000  0.89315000  1.0
  H  H31  1  0.01118000  0.48860000  0.39315000  1.0
  H  H32  1  0.60607000  0.95082000  0.71591000  1.0
  H  H33  1  0.89393000  0.04917000  0.21592000  1.0
  H  H34  1  0.39393000  0.45083000  0.78409000  1.0
  H  H35  1  0.10607000  0.54918000  0.28408000  1.0
  H  H36  1  0.62182000  0.87364000  0.84888000  1.0
  H  H37  1  0.87818000  0.12636000  0.34889000  1.0
  H  H38  1  0.37818000  0.37364000  0.65112000  1.0
  H  H39  1  0.12182000  0.62636000  0.15111000  1.0
  H  H40  1  0.48462000  0.83385000  0.92961000  1.0
  H  H41  1  0.01538000  0.16615000  0.42962000  1.0
  H  H42  1  0.51537000  0.33385000  0.57039000  1.0
  H  H43  1  0.98462000  0.66615000  0.07038000  1.0
  H  H44  1  0.33362000  0.87585000  0.88029000  1.0
  H  H45  1  0.16638000  0.12414000  0.38029000  1.0
  H  H46  1  0.66638000  0.37586000  0.61971000  1.0
  H  H47  1  0.83362000  0.62414000  0.11971000  1.0
  H  H48  1  0.25685000  0.81829000  0.66756000  1.0
  H  H49  1  0.24315000  0.18171000  0.16756000  1.0
  H  H50  1  0.74315000  0.31829000  0.83243000  1.0
  H  H51  1  0.75685000  0.68171000  0.33244000  1.0
  H  H52  1  0.17076000  0.68682000  0.63348000  1.0
  H  H53  1  0.32924000  0.31318000  0.13347000  1.0
  H  H54  1  0.82924000  0.18682000  0.86653000  1.0
  H  H55  1  0.67076000  0.81318000  0.36653000  1.0
  H  H56  1  0.02636000  0.65401000  0.70438000  1.0
  H  H57  1  0.47364000  0.34599000  0.20437000  1.0
  H  H58  1  0.97364000  0.15401000  0.79562000  1.0
  H  H59  1  0.52637000  0.84599000  0.29563000  1.0
  H  H60  1  0.97103000  0.75084000  0.81510000  1.0
  H  H61  1  0.52897000  0.24916000  0.31510000  1.0
  H  H62  1  0.02897000  0.25084000  0.68490000  1.0
  H  H63  1  0.47104000  0.74916000  0.18490000  1.0
  H  H64  1  0.98829000  0.88138000  0.89964000  1.0
  H  H65  1  0.51171000  0.11863000  0.39964000  1.0
  H  H66  1  0.01171000  0.38137000  0.60036000  1.0
  H  H67  1  0.48829000  0.61863000  0.10037000  1.0
  H  H68  1  0.06990000  0.01777000  0.92986000  1.0
  H  H69  1  0.43010000  0.98224000  0.42986000  1.0
  H  H70  1  0.93010000  0.51776000  0.57014000  1.0
  H  H71  1  0.56990000  0.48224000  0.07014000  1.0
  H  H72  1  0.24900000  0.07834000  0.91632000  1.0
  H  H73  1  0.25100000  0.92166000  0.41632000  1.0
  H  H74  1  0.75101000  0.57834000  0.58368000  1.0
  H  H75  1  0.74899000  0.42166000  0.08368000  1.0
  H  H76  1  0.17004000  0.30025000  0.74675000  1.0
  H  H77  1  0.32996000  0.69975000  0.24675000  1.0
  H  H78  1  0.82996000  0.80025000  0.75325000  1.0
  H  H79  1  0.67004000  0.19975000  0.25324000  1.0
  H  H80  1  0.21181000  0.44510000  0.80402000  1.0
  H  H81  1  0.28819000  0.55490000  0.30402000  1.0
  H  H82  1  0.78819000  0.94510000  0.69598000  1.0
  H  H83  1  0.71181000  0.05490000  0.19598000  1.0
  H  H84  1  0.33598000  0.33443000  0.00597000  1.0
  H  H85  1  0.16402000  0.66557000  0.50597000  1.0
  H  H86  1  0.66402000  0.83443000  0.49403000  1.0
  H  H87  1  0.83598000  0.16557000  0.99403000  1.0
  H  H88  1  0.29782000  0.18631000  0.96039000  1.0
  H  H89  1  0.20218000  0.81369000  0.46039000  1.0
  H  H90  1  0.70218000  0.68631000  0.53961000  1.0
  H  H91  1  0.79782000  0.31369000  0.03961000  1.0
  C  C92  1  0.92415000  0.97168000  0.48754000  1.0
  C  C93  1  0.57585000  0.02832000  0.98755000  1.0
  C  C94  1  0.07585000  0.47168000  0.01245000  1.0
  C  C95  1  0.42415000  0.52832000  0.51246000  1.0
  C  C96  1  0.01618000  0.95731000  0.49570000  1.0
  C  C97  1  0.48382000  0.04269000  0.99570000  1.0
  C  C98  1  0.98382000  0.45731000  0.00430000  1.0
  C  C99  1  0.51618000  0.54269000  0.50430000  1.0
  C  C100  1  0.06452000  0.00409000  0.55462000  1.0
  C  C101  1  0.43548000  0.99592000  0.05462000  1.0
  C  C102  1  0.93548000  0.50408000  0.94538000  1.0
  C  C103  1  0.56452000  0.49591000  0.44538000  1.0
  C  C104  1  0.01792000  0.06436000  0.60269000  1.0
  C  C105  1  0.48208000  0.93565000  0.10269000  1.0
  C  C106  1  0.98208000  0.56436000  0.89730000  1.0
  C  C107  1  0.51792000  0.43564000  0.39731000  1.0
  C  C108  1  0.92587000  0.07471000  0.59049000  1.0
  C  C109  1  0.57413000  0.92529000  0.09049000  1.0
  C  C110  1  0.07413000  0.57471000  0.90951000  1.0
  C  C111  1  0.42587000  0.42529000  0.40951000  1.0
  C  C112  1  0.16304000  0.98564000  0.56482000  1.0
  C  C113  1  0.33696000  0.01437000  0.06482000  1.0
  C  C114  1  0.83695000  0.48564000  0.93518000  1.0
  C  C115  1  0.66304000  0.51436000  0.43519000  1.0
  C  C116  1  0.28987000  0.99854000  0.66004000  1.0
  C  C117  1  0.21013000  0.00146000  0.16004000  1.0
  C  C118  1  0.71013000  0.49854000  0.83996000  1.0
  C  C119  1  0.78987000  0.50146000  0.33996000  1.0
  C  C120  1  0.36702000  0.01667000  0.61227000  1.0
  C  C121  1  0.13298000  0.98333000  0.11227000  1.0
  C  C122  1  0.63298000  0.51667000  0.88773000  1.0
  C  C123  1  0.86702000  0.48333000  0.38773000  1.0
  C  C124  1  0.45086000  0.99613000  0.64233000  1.0
  C  C125  1  0.04914000  0.00387000  0.14233000  1.0
  C  C126  1  0.54914000  0.49613000  0.85767000  1.0
  C  C127  1  0.95086000  0.50387000  0.35767000  1.0
  C  C128  1  0.46089000  0.95585000  0.72029000  1.0
  C  C129  1  0.03911000  0.04415000  0.22030000  1.0
  C  C130  1  0.53910000  0.45585000  0.77970000  1.0
  C  C131  1  0.96089000  0.54415000  0.27970000  1.0
  C  C132  1  0.54680000  0.93321000  0.75165000  1.0
  C  C133  1  0.95320000  0.06679000  0.25165000  1.0
  C  C134  1  0.45320000  0.43321000  0.74835000  1.0
  C  C135  1  0.04680000  0.56679000  0.24835000  1.0
  C  C136  1  0.55518000  0.89027000  0.82563000  1.0
  C  C137  1  0.94482000  0.10973000  0.32563000  1.0
  C  C138  1  0.44481000  0.39028000  0.67438000  1.0
  C  C139  1  0.05518000  0.60972000  0.17437000  1.0
  C  C140  1  0.47760000  0.86884000  0.87171000  1.0
  C  C141  1  0.02240000  0.13116000  0.37171000  1.0
  C  C142  1  0.52239000  0.36884000  0.62829000  1.0
  C  C143  1  0.97760000  0.63116000  0.12829000  1.0
  C  C144  1  0.39316000  0.89236000  0.84438000  1.0
  C  C145  1  0.10684000  0.10764000  0.34438000  1.0
  C  C146  1  0.60683000  0.39236000  0.65562000  1.0
  C  C147  1  0.89316000  0.60764000  0.15562000  1.0
  C  C148  1  0.38224000  0.93664000  0.76844000  1.0
  C  C149  1  0.11776000  0.06335000  0.26844000  1.0
  C  C150  1  0.61776000  0.43664000  0.73155000  1.0
  C  C151  1  0.88224000  0.56336000  0.23156000  1.0
  C  C152  1  0.29590000  0.96011000  0.73712000  1.0
  C  C153  1  0.20410000  0.03989000  0.23712000  1.0
  C  C154  1  0.70410000  0.46011000  0.76288000  1.0
  C  C155  1  0.79590000  0.53989000  0.26288000  1.0
  C  C156  1  0.21173000  0.93849000  0.78261000  1.0
  C  C157  1  0.28827000  0.06151000  0.28260000  1.0
  C  C158  1  0.78827000  0.43849000  0.71739000  1.0
  C  C159  1  0.71173000  0.56151000  0.21740000  1.0
  C  C160  1  0.16422000  0.86085000  0.76263000  1.0
  C  C161  1  0.33578000  0.13915000  0.26263000  1.0
  C  C162  1  0.83578000  0.36085000  0.73737000  1.0
  C  C163  1  0.66422000  0.63914000  0.23737000  1.0
  C  C164  1  0.19439000  0.80395000  0.69998000  1.0
  C  C165  1  0.30561000  0.19605000  0.19998000  1.0
  C  C166  1  0.80561000  0.30395000  0.80002000  1.0
  C  C167  1  0.69440000  0.69604000  0.30002000  1.0
  C  C168  1  0.14561000  0.73121000  0.68005000  1.0
  C  C169  1  0.35439000  0.26879000  0.18005000  1.0
  C  C170  1  0.85439000  0.23121000  0.81995000  1.0
  C  C171  1  0.64562000  0.76879000  0.31995000  1.0
  C  C172  1  0.06445000  0.71154000  0.72130000  1.0
  C  C173  1  0.43556000  0.28846000  0.22130000  1.0
  C  C174  1  0.93555000  0.21154000  0.77870000  1.0
  C  C175  1  0.56445000  0.78846000  0.27870000  1.0
  C  C176  1  0.03389000  0.76504000  0.78312000  1.0
  C  C177  1  0.46610000  0.23496000  0.28312000  1.0
  C  C178  1  0.96610000  0.26504000  0.71688000  1.0
  C  C179  1  0.53390000  0.73496000  0.21688000  1.0
  C  C180  1  0.08253000  0.84022000  0.80553000  1.0
  C  C181  1  0.41747000  0.15978000  0.30553000  1.0
  C  C182  1  0.91747000  0.34022000  0.69447000  1.0
  C  C183  1  0.58253000  0.65978000  0.19447000  1.0
  C  C184  1  0.05078000  0.89675000  0.86767000  1.0
  C  C185  1  0.44922000  0.10325000  0.36767000  1.0
  C  C186  1  0.94922000  0.39675000  0.63233000  1.0
  C  C187  1  0.55078000  0.60325000  0.13233000  1.0
  C  C188  1  0.09589000  0.97207000  0.88474000  1.0
  C  C189  1  0.40411000  0.02793000  0.38474000  1.0
  C  C190  1  0.90411000  0.47207000  0.61527000  1.0
  C  C191  1  0.59589000  0.52793000  0.11527000  1.0
  C  C192  1  0.17584000  0.99315000  0.84168000  1.0
  C  C193  1  0.32416000  0.00685000  0.34168000  1.0
  C  C194  1  0.82416000  0.49315000  0.65832000  1.0
  C  C195  1  0.67584000  0.50685000  0.15832000  1.0
  C  C196  1  0.19834000  0.14552000  0.81521000  1.0
  C  C197  1  0.30166000  0.85448000  0.31521000  1.0
  C  C198  1  0.80166000  0.64552000  0.68479000  1.0
  C  C199  1  0.69834000  0.35448000  0.18479000  1.0
  C  C200  1  0.22971000  0.23101000  0.84859000  1.0
  C  C201  1  0.27029000  0.76899000  0.34859000  1.0
  C  C202  1  0.77029000  0.73101000  0.65141000  1.0
  C  C203  1  0.72971000  0.26899000  0.15141000  1.0
  C  C204  1  0.20657000  0.30548000  0.80461000  1.0
  C  C205  1  0.29343000  0.69452000  0.30461000  1.0
  C  C206  1  0.79343000  0.80548000  0.69539000  1.0
  C  C207  1  0.70657000  0.19452000  0.19539000  1.0
  C  C208  1  0.22979000  0.38582000  0.83645000  1.0
  C  C209  1  0.27021000  0.61418000  0.33645000  1.0
  C  C210  1  0.77021000  0.88582000  0.66355000  1.0
  C  C211  1  0.72979000  0.11418000  0.16355000  1.0
  C  C212  1  0.29909000  0.32391000  0.94874000  1.0
  C  C213  1  0.20091000  0.67609000  0.44874000  1.0
  C  C214  1  0.70091000  0.82391000  0.55126000  1.0
  C  C215  1  0.79909000  0.17609000  0.05125000  1.0
  C  C216  1  0.27769000  0.24089000  0.92229000  1.0
  C  C217  1  0.22231000  0.75911000  0.42229000  1.0
  C  C218  1  0.72231000  0.74090000  0.57771000  1.0
  C  C219  1  0.77770000  0.25911000  0.07771000  1.0
  I  I220  1  0.68576000  0.00237000  0.37091000  1.0
  I  I221  1  0.81424000  0.99763000  0.87091000  1.0
  I  I222  1  0.31424000  0.50237000  0.12908000  1.0
  I  I223  1  0.18576000  0.49763000  0.62909000  1.0
  I  I224  1  0.68316000  0.14836000  0.65807000  1.0
  I  I225  1  0.81685000  0.85165000  0.15808000  1.0
  I  I226  1  0.31685000  0.64835000  0.84192000  1.0
  I  I227  1  0.18316000  0.35165000  0.34192000  1.0
  N  N228  1  0.87990000  0.02916000  0.53425000  1.0
  N  N229  1  0.62011000  0.97084000  0.03425000  1.0
  N  N230  1  0.12010000  0.52916000  0.96574000  1.0
  N  N231  1  0.37990000  0.47084000  0.46575000  1.0
  N  N232  1  0.20254000  0.02087000  0.63151000  1.0
  N  N233  1  0.29746000  0.97914000  0.13151000  1.0
  N  N234  1  0.79746000  0.52086000  0.86848000  1.0
  N  N235  1  0.70254000  0.47913000  0.36849000  1.0
  N  N236  1  0.21685000  0.07444000  0.86028000  1.0
  N  N237  1  0.28315000  0.92557000  0.36028000  1.0
  N  N238  1  0.78315000  0.57444000  0.63972000  1.0
  N  N239  1  0.71685000  0.42556000  0.13972000  1.0
  N  N240  1  0.27511000  0.39517000  0.90740000  1.0
  N  N241  1  0.22489000  0.60483000  0.40740000  1.0
  N  N242  1  0.72489000  0.89517000  0.59260000  1.0
  N  N243  1  0.77511000  0.10483000  0.09260000  1.0
  O  O244  1  0.20378000  0.93759000  0.51553000  1.0
  O  O245  1  0.29622000  0.06242000  0.01553000  1.0
  O  O246  1  0.79622000  0.43758000  0.98447000  1.0
  O  O247  1  0.70378000  0.56241000  0.48447000  1.0
  O  O248  1  0.15476000  0.14294000  0.74931000  1.0
  O  O249  1  0.34524000  0.85706000  0.24930000  1.0
  O  O250  1  0.84523000  0.64294000  0.75070000  1.0
  O  O251  1  0.65476000  0.35706000  0.25070000  1.0
