# generated using pymatgen
data_AgH3CN6
_symmetry_space_group_name_H-M   'P 1'
_cell_length_a   3.64563000
_cell_length_b   9.02662000
_cell_length_c   14.48260000
_cell_angle_alpha   87.87270000
_cell_angle_beta   88.82840000
_cell_angle_gamma   79.72400000
_symmetry_Int_Tables_number   1
_chemical_formula_structural   AgH3CN6
_chemical_formula_sum   'Ag4 H12 C4 N24'
_cell_volume   468.57522332
_cell_formula_units_Z   4
loop_
 _symmetry_equiv_pos_site_id
 _symmetry_equiv_pos_as_xyz
  1  'x, y, z'
loop_
 _atom_site_type_symbol
 _atom_site_label
 _atom_site_symmetry_multiplicity
 _atom_site_fract_x
 _atom_site_fract_y
 _atom_site_fract_z
 _atom_site_occupancy
  Ag  Ag0  1  0.20905000  0.66808000  0.33511000  1.0
  Ag  Ag1  1  0.92262000  0.33483000  0.16224000  1.0
  Ag  Ag2  1  0.79095000  0.33191000  0.66489000  1.0
  Ag  Ag3  1  0.07739000  0.66517000  0.83776000  1.0
  H  H4  1  0.67949000  0.92704000  0.33302000  1.0
  H  H5  1  0.61114000  0.07776000  0.17560000  1.0
  H  H6  1  0.32052000  0.07296000  0.66698000  1.0
  H  H7  1  0.38886000  0.92225000  0.82440000  1.0
  H  H8  1  0.05237000  0.97675000  0.37261000  1.0
  H  H9  1  0.02826000  0.02075000  0.13250000  1.0
  H  H10  1  0.94764000  0.02325000  0.62739000  1.0
  H  H11  1  0.97174000  0.97925000  0.86750000  1.0
  H  H12  1  0.79343000  0.88284000  0.44055000  1.0
  H  H13  1  0.69112000  0.11448000  0.06600000  1.0
  H  H14  1  0.20658000  0.11715000  0.55945000  1.0
  H  H15  1  0.30888000  0.88552000  0.93400000  1.0
  C  C16  1  0.38959000  0.35566000  0.43576000  1.0
  C  C17  1  0.73238000  0.64438000  0.06046000  1.0
  C  C18  1  0.61041000  0.64434000  0.56423000  1.0
  C  C19  1  0.26763000  0.35562000  0.93954000  1.0
  N  N20  1  0.24705000  0.42073000  0.35552000  1.0
  N  N21  1  0.66793000  0.58248000  0.14437000  1.0
  N  N22  1  0.75295000  0.57927000  0.64448000  1.0
  N  N23  1  0.33206000  0.41752000  0.85564000  1.0
  N  N24  1  0.18760000  0.30657000  0.30559000  1.0
  N  N25  1  0.48092000  0.69624000  0.19182000  1.0
  N  N26  1  0.81239000  0.69343000  0.69441000  1.0
  N  N27  1  0.51908000  0.30377000  0.80818000  1.0
  N  N28  1  0.28807000  0.17667000  0.35387000  1.0
  N  N29  1  0.43087000  0.82245000  0.13844000  1.0
  N  N30  1  0.71193000  0.82333000  0.64612000  1.0
  N  N31  1  0.56913000  0.17755000  0.86156000  1.0
  N  N32  1  0.41105000  0.20491000  0.43626000  1.0
  N  N33  1  0.58218000  0.79227000  0.05521000  1.0
  N  N34  1  0.58895000  0.79509000  0.56373000  1.0
  N  N35  1  0.41782000  0.20774000  0.94479000  1.0
  N  N36  1  0.48458000  0.43128000  0.51017000  1.0
  N  N37  1  0.90803000  0.56549000  0.98755000  1.0
  N  N38  1  0.51542000  0.56871000  0.48983000  1.0
  N  N39  1  0.09198000  0.43451000  0.01245000  1.0
  N  N40  1  0.90223000  0.89047000  0.37477000  1.0
  N  N41  1  0.80564000  0.10874000  0.13070000  1.0
  N  N42  1  0.09777000  0.10953000  0.62523000  1.0
  N  N43  1  0.19435000  0.89126000  0.86930000  1.0
