# generated using pymatgen
data_AlH4C8S2NO5
_symmetry_space_group_name_H-M   'P 1'
_cell_length_a   6.72847000
_cell_length_b   16.83320000
_cell_length_c   18.01160000
_cell_angle_alpha   90.02260000
_cell_angle_beta   91.50740000
_cell_angle_gamma   91.28010000
_symmetry_Int_Tables_number   1
_chemical_formula_structural   AlH4C8S2NO5
_chemical_formula_sum   'Al4 H16 C32 S8 N4 O20'
_cell_volume   2038.80817828
_cell_formula_units_Z   4
loop_
 _symmetry_equiv_pos_site_id
 _symmetry_equiv_pos_as_xyz
  1  'x, y, z'
loop_
 _atom_site_type_symbol
 _atom_site_label
 _atom_site_symmetry_multiplicity
 _atom_site_fract_x
 _atom_site_fract_y
 _atom_site_fract_z
 _atom_site_occupancy
  Al  Al0  1  0.99308000  0.00160000  0.49966000  1.0
  Al  Al1  1  0.49247000  0.99891000  0.49565000  1.0
  Al  Al2  1  0.01210000  0.50076000  0.00117000  1.0
  Al  Al3  1  0.51207000  0.50027000  0.99818000  1.0
  H  H4  1  0.24037000  0.89892000  0.51977000  1.0
  H  H5  1  0.74259000  0.10485000  0.51047000  1.0
  H  H6  1  0.26701000  0.60485000  0.99218000  1.0
  H  H7  1  0.75744000  0.39625000  0.99026000  1.0
  H  H8  1  0.45418000  0.64605000  0.79843000  1.0
  H  H9  1  0.96417000  0.35547000  0.19884000  1.0
  H  H10  1  0.54770000  0.35627000  0.80017000  1.0
  H  H11  1  0.46319000  0.69339000  0.14984000  1.0
  H  H12  1  0.20762000  0.83581000  0.72393000  1.0
  H  H13  1  0.10963000  0.89741000  0.65587000  1.0
  H  H14  1  0.70419000  0.16622000  0.27689000  1.0
  H  H15  1  0.60801000  0.10487000  0.34513000  1.0
  H  H16  1  0.79646000  0.16072000  0.72348000  1.0
  H  H17  1  0.89023000  0.09717000  0.65784000  1.0
  H  H18  1  0.21292000  0.78763000  0.32948000  1.0
  H  H19  1  0.11825000  0.86097000  0.38513000  1.0
  C  C20  1  0.73640000  0.90844000  0.39412000  1.0
  C  C21  1  0.74016000  0.89857000  0.59457000  1.0
  C  C22  1  0.25659000  0.09515000  0.60061000  1.0
  C  C23  1  0.24178000  0.10124000  0.40227000  1.0
  C  C24  1  0.77275000  0.59720000  0.09859000  1.0
  C  C25  1  0.76067000  0.59724000  0.90006000  1.0
  C  C26  1  0.24868000  0.40504000  0.89874000  1.0
  C  C27  1  0.26506000  0.40452000  0.09892000  1.0
  C  C28  1  0.90740000  0.82135000  0.69944000  1.0
  C  C29  1  0.60035000  0.67405000  0.79312000  1.0
  C  C30  1  0.74294000  0.84007000  0.65329000  1.0
  C  C31  1  0.76076000  0.65475000  0.83866000  1.0
  C  C32  1  0.65409000  0.73328000  0.74151000  1.0
  C  C33  1  0.85352000  0.75912000  0.74938000  1.0
  C  C34  1  0.40815000  0.17989000  0.29978000  1.0
  C  C35  1  0.10790000  0.32759000  0.20497000  1.0
  C  C36  1  0.24548000  0.16075000  0.34468000  1.0
  C  C37  1  0.26581000  0.34706000  0.16032000  1.0
  C  C38  1  0.16046000  0.26829000  0.25676000  1.0
  C  C39  1  0.35618000  0.24247000  0.24985000  1.0
  C  C40  1  0.09473000  0.17464000  0.70186000  1.0
  C  C41  1  0.40204000  0.32733000  0.79410000  1.0
  C  C42  1  0.25745000  0.15498000  0.65823000  1.0
  C  C43  1  0.24397000  0.34700000  0.83761000  1.0
  C  C44  1  0.34723000  0.26607000  0.74363000  1.0
  C  C45  1  0.14946000  0.23916000  0.75027000  1.0
  C  C46  1  0.91294000  0.80729000  0.31625000  1.0
  C  C47  1  0.60926000  0.70204000  0.17622000  1.0
  C  C48  1  0.74529000  0.85124000  0.33465000  1.0
  C  C49  1  0.77131000  0.65806000  0.15698000  1.0
  C  C50  1  0.66110000  0.75681000  0.23306000  1.0
  C  C51  1  0.86086000  0.75315000  0.25724000  1.0
  S  S52  1  0.52913000  0.78332000  0.67170000  1.0
  S  S53  1  0.97699000  0.70852000  0.81909000  1.0
  S  S54  1  0.03688000  0.21819000  0.32580000  1.0
  S  S55  1  0.47834000  0.29337000  0.18099000  1.0
  S  S56  1  0.46969000  0.21437000  0.67667000  1.0
  S  S57  1  0.02848000  0.29126000  0.81727000  1.0
  S  S58  1  0.53356000  0.82767000  0.28019000  1.0
  S  S59  1  0.98678000  0.68292000  0.20826000  1.0
  N  N60  1  0.08627000  0.86006000  0.69925000  1.0
  N  N61  1  0.58331000  0.14180000  0.30129000  1.0
  N  N62  1  0.91633000  0.13559000  0.70080000  1.0
  N  N63  1  0.09253000  0.81267000  0.35186000  1.0
  O  O64  1  0.90502000  0.93181000  0.42294000  1.0
  O  O65  1  0.57091000  0.91906000  0.56687000  1.0
  O  O66  1  0.42147000  0.07601000  0.57202000  1.0
  O  O67  1  0.07535000  0.08245000  0.43158000  1.0
  O  O68  1  0.08402000  0.06545000  0.58177000  1.0
  O  O69  1  0.40991000  0.07100000  0.42074000  1.0
  O  O70  1  0.56631000  0.93102000  0.41514000  1.0
  O  O71  1  0.91040000  0.92577000  0.57396000  1.0
  O  O72  1  0.23955000  0.95086000  0.49654000  1.0
  O  O73  1  0.74404000  0.04827000  0.50091000  1.0
  O  O74  1  0.94155000  0.57249000  0.07903000  1.0
  O  O75  1  0.59064000  0.57275000  0.92091000  1.0
  O  O76  1  0.42132000  0.42861000  0.92117000  1.0
  O  O77  1  0.09513000  0.42816000  0.07668000  1.0
  O  O78  1  0.08227000  0.42534000  0.92470000  1.0
  O  O79  1  0.43318000  0.42464000  0.07250000  1.0
  O  O80  1  0.60317000  0.57540000  0.07151000  1.0
  O  O81  1  0.93000000  0.57804000  0.92761000  1.0
  O  O82  1  0.26452000  0.54788000  0.99943000  1.0
  O  O83  1  0.75994000  0.45308000  0.99861000  1.0
