# generated using pymatgen
data_CaH12(CO)6
_symmetry_space_group_name_H-M   'P 1'
_cell_length_a   7.63321000
_cell_length_b   14.56230000
_cell_length_c   15.35420000
_cell_angle_alpha   90.00000000
_cell_angle_beta   89.99980000
_cell_angle_gamma   95.87650000
_symmetry_Int_Tables_number   1
_chemical_formula_structural   CaH12(CO)6
_chemical_formula_sum   'Ca4 H48 C24 O24'
_cell_volume   1697.75921463
_cell_formula_units_Z   4
loop_
 _symmetry_equiv_pos_site_id
 _symmetry_equiv_pos_as_xyz
  1  'x, y, z'
loop_
 _atom_site_type_symbol
 _atom_site_label
 _atom_site_symmetry_multiplicity
 _atom_site_fract_x
 _atom_site_fract_y
 _atom_site_fract_z
 _atom_site_occupancy
  Ca  Ca0  1  0.55104000  0.22061000  0.71663000  1.0
  Ca  Ca1  1  0.94895000  0.77939000  0.21663000  1.0
  Ca  Ca2  1  0.44895000  0.77939000  0.28337000  1.0
  Ca  Ca3  1  0.05105000  0.22061000  0.78337000  1.0
  H  H4  1  0.79267000  0.03676000  0.95254000  1.0
  H  H5  1  0.76692000  0.14815000  0.99004000  1.0
  H  H6  1  0.56203000  0.90439000  0.98440000  1.0
  H  H7  1  0.41478000  0.95776000  0.91692000  1.0
  H  H8  1  0.28441000  0.37735000  0.96164000  1.0
  H  H9  1  0.47854000  0.33556000  0.00177000  1.0
  H  H10  1  0.47448000  0.51879000  0.90266000  1.0
  H  H11  1  0.66110000  0.47521000  0.94811000  1.0
  H  H12  1  0.49173000  0.60364000  0.37563000  1.0
  H  H13  1  0.68176000  0.65810000  0.36974000  1.0
  H  H14  1  0.21827000  0.89274000  0.37763000  1.0
  H  H15  1  0.40398000  0.95135000  0.38497000  1.0
  H  H16  1  0.70733000  0.96324000  0.45254000  1.0
  H  H17  1  0.73308000  0.85185000  0.49003000  1.0
  H  H18  1  0.93797000  0.09561000  0.48440000  1.0
  H  H19  1  0.08521000  0.04223000  0.41692000  1.0
  H  H20  1  0.21559000  0.62265000  0.46164000  1.0
  H  H21  1  0.02146000  0.66444000  0.50177000  1.0
  H  H22  1  0.02552000  0.48121000  0.40266000  1.0
  H  H23  1  0.83890000  0.52478000  0.44811000  1.0
  H  H24  1  0.00827000  0.39637000  0.87562000  1.0
  H  H25  1  0.81824000  0.34191000  0.86974000  1.0
  H  H26  1  0.28172000  0.10726000  0.87762000  1.0
  H  H27  1  0.09601000  0.04865000  0.88496000  1.0
  H  H28  1  0.20733000  0.96324000  0.04746000  1.0
  H  H29  1  0.23308000  0.85185000  0.00996000  1.0
  H  H30  1  0.43796000  0.09561000  0.01560000  1.0
  H  H31  1  0.58521000  0.04223000  0.08308000  1.0
  H  H32  1  0.71560000  0.62264000  0.03836000  1.0
  H  H33  1  0.52147000  0.66443000  0.99823000  1.0
  H  H34  1  0.52551000  0.48120000  0.09735000  1.0
  H  H35  1  0.33889000  0.52478000  0.05190000  1.0
  H  H36  1  0.50827000  0.39637000  0.62437000  1.0
  H  H37  1  0.31824000  0.34191000  0.63027000  1.0
  H  H38  1  0.78172000  0.10726000  0.62237000  1.0
  H  H39  1  0.59601000  0.04865000  0.61504000  1.0
  H  H40  1  0.29267000  0.03676000  0.54746000  1.0
  H  H41  1  0.26692000  0.14815000  0.50996000  1.0
  H  H42  1  0.06203000  0.90439000  0.51560000  1.0
  H  H43  1  0.91478000  0.95777000  0.58308000  1.0
  H  H44  1  0.78442000  0.37736000  0.53836000  1.0
  H  H45  1  0.97855000  0.33557000  0.49823000  1.0
  H  H46  1  0.97449000  0.51880000  0.59735000  1.0
  H  H47  1  0.16111000  0.47522000  0.55190000  1.0
  H  H48  1  0.99173000  0.60363000  0.12438000  1.0
  H  H49  1  0.18177000  0.65809000  0.13027000  1.0
  H  H50  1  0.71828000  0.89274000  0.12237000  1.0
  H  H51  1  0.90399000  0.95135000  0.11504000  1.0
  C  C52  1  0.64879000  0.11750000  0.86816000  1.0
  C  C53  1  0.69499000  0.08709000  0.95926000  1.0
  C  C54  1  0.54042000  0.04752000  0.01531000  1.0
  C  C55  1  0.45716000  0.33317000  0.86388000  1.0
  C  C56  1  0.42683000  0.37866000  0.95061000  1.0
  C  C57  1  0.51828000  0.47693000  0.95684000  1.0
  C  C58  1  0.85121000  0.88250000  0.36816000  1.0
  C  C59  1  0.80500000  0.91291000  0.45926000  1.0
  C  C60  1  0.95957000  0.95248000  0.51530000  1.0
  C  C61  1  0.04283000  0.66682000  0.36389000  1.0
  C  C62  1  0.07316000  0.62133000  0.45061000  1.0
  C  C63  1  0.98172000  0.52307000  0.45683000  1.0
  C  C64  1  0.35121000  0.88250000  0.13183000  1.0
  C  C65  1  0.30501000  0.91291000  0.04074000  1.0
  C  C66  1  0.45957000  0.95247000  0.98469000  1.0
  C  C67  1  0.54284000  0.66682000  0.13612000  1.0
  C  C68  1  0.57317000  0.62133000  0.04939000  1.0
  C  C69  1  0.48172000  0.52307000  0.04317000  1.0
  C  C70  1  0.14879000  0.11750000  0.63183000  1.0
  C  C71  1  0.19499000  0.08709000  0.54073000  1.0
  C  C72  1  0.04043000  0.04752000  0.48469000  1.0
  C  C73  1  0.95718000  0.33317000  0.63612000  1.0
  C  C74  1  0.92684000  0.37867000  0.54939000  1.0
  C  C75  1  0.01829000  0.47693000  0.54317000  1.0
  O  O76  1  0.77398000  0.14614000  0.81692000  1.0
  O  O77  1  0.48911000  0.11672000  0.84391000  1.0
  O  O78  1  0.61414000  0.33387000  0.83478000  1.0
  O  O79  1  0.32716000  0.29496000  0.82117000  1.0
  O  O80  1  0.55426000  0.66471000  0.38220000  1.0
  O  O81  1  0.34713000  0.88868000  0.38778000  1.0
  O  O82  1  0.72602000  0.85387000  0.31692000  1.0
  O  O83  1  0.01088000  0.88327000  0.34391000  1.0
  O  O84  1  0.88586000  0.66613000  0.33477000  1.0
  O  O85  1  0.17284000  0.70504000  0.32117000  1.0
  O  O86  1  0.94574000  0.33530000  0.88220000  1.0
  O  O87  1  0.15287000  0.11132000  0.88777000  1.0
  O  O88  1  0.22603000  0.85386000  0.18307000  1.0
  O  O89  1  0.51088000  0.88327000  0.15609000  1.0
  O  O90  1  0.38586000  0.66613000  0.16523000  1.0
  O  O91  1  0.67286000  0.70504000  0.17883000  1.0
  O  O92  1  0.44574000  0.33529000  0.61780000  1.0
  O  O93  1  0.65286000  0.11132000  0.61223000  1.0
  O  O94  1  0.27398000  0.14614000  0.68307000  1.0
  O  O95  1  0.98912000  0.11673000  0.65609000  1.0
  O  O96  1  0.11415000  0.33387000  0.66523000  1.0
  O  O97  1  0.82715000  0.29496000  0.67883000  1.0
  O  O98  1  0.05427000  0.66470000  0.11780000  1.0
  O  O99  1  0.84714000  0.88868000  0.11223000  1.0
