# generated using pymatgen
data_H15PbC27N4O4F
_symmetry_space_group_name_H-M   'P 1'
_cell_length_a   9.06936000
_cell_length_b   9.57740000
_cell_length_c   15.44860000
_cell_angle_alpha   91.69440000
_cell_angle_beta   100.90000000
_cell_angle_gamma   112.78500000
_symmetry_Int_Tables_number   1
_chemical_formula_structural   H15PbC27N4O4F
_chemical_formula_sum   'H30 Pb2 C54 N8 O8 F2'
_cell_volume   1206.98768803
_cell_formula_units_Z   2
loop_
 _symmetry_equiv_pos_site_id
 _symmetry_equiv_pos_as_xyz
  1  'x, y, z'
loop_
 _atom_site_type_symbol
 _atom_site_label
 _atom_site_symmetry_multiplicity
 _atom_site_fract_x
 _atom_site_fract_y
 _atom_site_fract_z
 _atom_site_occupancy
  H  H0  1  0.78796000  0.54662000  0.59781000  1.0
  H  H1  1  0.21210000  0.45342000  0.40218000  1.0
  H  H2  1  0.48714000  0.96056000  0.36791000  1.0
  H  H3  1  0.51269000  0.03934000  0.63209000  1.0
  H  H4  1  0.59804000  0.96002000  0.53024000  1.0
  H  H5  1  0.40190000  0.03994000  0.46976000  1.0
  H  H6  1  0.69075000  0.75621000  0.57734000  1.0
  H  H7  1  0.30929000  0.24381000  0.42265000  1.0
  H  H8  1  0.49599000  0.52234000  0.06316000  1.0
  H  H9  1  0.50399000  0.47766000  0.93684000  1.0
  H  H10  1  0.59790000  0.31411000  0.08449000  1.0
  H  H11  1  0.40211000  0.68590000  0.91551000  1.0
  H  H12  1  0.68184000  0.25836000  0.23972000  1.0
  H  H13  1  0.31819000  0.74166000  0.76027000  1.0
  H  H14  1  0.89357000  0.44834000  0.69632000  1.0
  H  H15  1  0.10635000  0.55161000  0.30367000  1.0
  H  H16  1  0.02928000  0.33050000  0.80275000  1.0
  H  H17  1  0.97063000  0.66945000  0.19725000  1.0
  H  H18  1  0.03402000  0.02742000  0.59272000  1.0
  H  H19  1  0.96604000  0.97262000  0.40728000  1.0
  H  H20  1  0.89539000  0.15012000  0.48062000  1.0
  H  H21  1  0.10469000  0.84992000  0.51937000  1.0
  H  H22  1  0.87864000  0.23216000  0.15422000  1.0
  H  H23  1  0.12140000  0.76781000  0.84580000  1.0
  H  H24  1  0.12215000  0.29373000  0.93707000  1.0
  H  H25  1  0.87783000  0.70632000  0.06293000  1.0
  H  H26  1  0.91613000  0.03922000  0.86066000  1.0
  H  H27  1  0.08386000  0.96082000  0.13934000  1.0
  H  H28  1  0.68824000  0.88534000  0.93174000  1.0
  H  H29  1  0.31178000  0.11467000  0.06826000  1.0
  Pb  Pb30  1  0.36366000  0.74741000  0.15798000  1.0
  Pb  Pb31  1  0.63634000  0.25259000  0.84203000  1.0
  C  C32  1  0.52905000  0.87277000  0.39110000  1.0
  C  C33  1  0.47084000  0.12716000  0.60890000  1.0
  C  C34  1  0.59028000  0.87195000  0.48159000  1.0
  C  C35  1  0.40966000  0.12802000  0.51841000  1.0
  C  C36  1  0.64319000  0.75919000  0.50737000  1.0
  C  C37  1  0.35682000  0.24082000  0.49263000  1.0
  C  C38  1  0.63740000  0.65001000  0.44222000  1.0
  C  C39  1  0.36262000  0.35000000  0.55778000  1.0
  C  C40  1  0.57521000  0.66053000  0.35154000  1.0
  C  C41  1  0.42477000  0.33945000  0.64846000  1.0
  C  C42  1  0.57625000  0.55795000  0.28040000  1.0
  C  C43  1  0.42374000  0.44204000  0.71960000  1.0
  C  C44  1  0.53719000  0.49681000  0.12922000  1.0
  C  C45  1  0.46280000  0.50318000  0.87078000  1.0
  C  C46  1  0.59383000  0.37998000  0.14207000  1.0
  C  C47  1  0.40618000  0.62004000  0.85792000  1.0
  C  C48  1  0.64054000  0.35038000  0.22775000  1.0
  C  C49  1  0.35948000  0.64963000  0.77225000  1.0
  C  C50  1  0.63512000  0.44179000  0.29935000  1.0
  C  C51  1  0.36489000  0.55822000  0.70065000  1.0
  C  C52  1  0.69310000  0.43040000  0.39084000  1.0
  C  C53  1  0.30693000  0.56962000  0.60915000  1.0
  C  C54  1  0.69386000  0.53222000  0.45820000  1.0
  C  C55  1  0.30617000  0.46780000  0.54180000  1.0
  C  C56  1  0.80477000  0.37496000  0.51372000  1.0
  C  C57  1  0.19526000  0.62505000  0.48627000  1.0
  C  C58  1  0.88401000  0.30615000  0.57949000  1.0
  C  C59  1  0.11600000  0.69385000  0.42051000  1.0
  C  C60  1  0.92172000  0.35643000  0.67052000  1.0
  C  C61  1  0.07825000  0.64354000  0.32948000  1.0
  C  C62  1  0.99821000  0.28971000  0.73249000  1.0
  C  C63  1  0.00174000  0.71026000  0.26751000  1.0
  C  C64  1  0.03596000  0.17188000  0.70244000  1.0
  C  C65  1  0.96403000  0.82812000  0.29756000  1.0
  C  C66  1  0.00063000  0.11921000  0.61281000  1.0
  C  C67  1  0.99940000  0.88081000  0.38719000  1.0
  C  C68  1  0.92487000  0.18737000  0.55142000  1.0
  C  C69  1  0.07516000  0.81265000  0.44858000  1.0
  C  C70  1  0.63630000  0.95661000  0.09216000  1.0
  C  C71  1  0.36374000  0.04336000  0.90785000  1.0
  C  C72  1  0.76822000  0.04989000  0.04687000  1.0
  C  C73  1  0.23182000  0.95010000  0.95314000  1.0
  C  C74  1  0.88519000  0.19087000  0.08926000  1.0
  C  C75  1  0.11484000  0.80912000  0.91075000  1.0
  C  C76  1  0.01073000  0.27940000  0.04916000  1.0
  C  C77  1  0.98928000  0.72061000  0.95085000  1.0
  C  C78  1  0.02079000  0.22479000  0.96623000  1.0
  C  C79  1  0.97921000  0.77524000  0.03378000  1.0
  C  C80  1  0.90510000  0.08344000  0.92383000  1.0
  C  C81  1  0.09491000  0.91659000  0.07617000  1.0
  C  C82  1  0.77866000  0.99620000  0.96375000  1.0
  C  C83  1  0.22136000  0.00381000  0.03626000  1.0
  C  C84  1  0.13318000  0.43171000  0.09482000  1.0
  C  C85  1  0.86682000  0.56830000  0.90519000  1.0
  N  N86  1  0.52080000  0.76989000  0.32875000  1.0
  N  N87  1  0.47913000  0.23006000  0.67125000  1.0
  N  N88  1  0.52628000  0.58133000  0.19577000  1.0
  N  N89  1  0.47370000  0.41866000  0.80423000  1.0
  N  N90  1  0.76167000  0.33370000  0.42620000  1.0
  N  N91  1  0.23836000  0.66632000  0.57380000  1.0
  N  N92  1  0.76565000  0.49510000  0.53563000  1.0
  N  N93  1  0.23439000  0.50492000  0.46436000  1.0
  O  O94  1  0.54141000  0.82028000  0.05502000  1.0
  O  O95  1  0.45861000  0.17970000  0.94499000  1.0
  O  O96  1  0.62298000  0.01223000  0.16416000  1.0
  O  O97  1  0.37708000  0.98772000  0.83586000  1.0
  O  O98  1  0.22166000  0.52257000  0.04751000  1.0
  O  O99  1  0.77833000  0.47745000  0.95249000  1.0
  O  O100  1  0.14479000  0.46494000  0.17688000  1.0
  O  O101  1  0.85522000  0.53508000  0.82313000  1.0
  F  F102  1  0.11100000  0.10580000  0.76227000  1.0
  F  F103  1  0.88899000  0.89420000  0.23773000  1.0
