# generated using pymatgen
data_ZnH4C8O5
_symmetry_space_group_name_H-M   'P 1'
_cell_length_a   11.82770000
_cell_length_b   15.54260000
_cell_length_c   15.98320000
_cell_angle_alpha   78.69100000
_cell_angle_beta   89.99970000
_cell_angle_gamma   89.99910000
_symmetry_Int_Tables_number   1
_chemical_formula_structural   ZnH4C8O5
_chemical_formula_sum   'Zn8 H32 C64 O40'
_cell_volume   2881.19364677
_cell_formula_units_Z   8
loop_
 _symmetry_equiv_pos_site_id
 _symmetry_equiv_pos_as_xyz
  1  'x, y, z'
loop_
 _atom_site_type_symbol
 _atom_site_label
 _atom_site_symmetry_multiplicity
 _atom_site_fract_x
 _atom_site_fract_y
 _atom_site_fract_z
 _atom_site_occupancy
  Zn  Zn0  1  0.48516000  0.15255000  0.28300000  1.0
  Zn  Zn1  1  0.53923000  0.66519000  0.59666000  1.0
  Zn  Zn2  1  0.98516000  0.84746000  0.21700000  1.0
  Zn  Zn3  1  0.03923000  0.33481000  0.90334000  1.0
  Zn  Zn4  1  0.51485000  0.84744000  0.71700000  1.0
  Zn  Zn5  1  0.46076000  0.33480000  0.40334000  1.0
  Zn  Zn6  1  0.01484000  0.15254000  0.78301000  1.0
  Zn  Zn7  1  0.96076000  0.66519000  0.09666000  1.0
  H  H8  1  0.68238000  0.48015000  0.26137000  1.0
  H  H9  1  0.95671000  0.49168000  0.08065000  1.0
  H  H10  1  0.74348000  0.26414000  0.13310000  1.0
  H  H11  1  0.68233000  0.91966000  0.24225000  1.0
  H  H12  1  0.74821000  0.69361000  0.44109000  1.0
  H  H13  1  0.57536000  0.91910000  0.50025000  1.0
  H  H14  1  0.80822000  0.61060000  0.21947000  1.0
  H  H15  1  0.32649000  0.20968000  0.38777000  1.0
  H  H16  1  0.18237000  0.51985000  0.23862000  1.0
  H  H17  1  0.45671000  0.50831000  0.41935000  1.0
  H  H18  1  0.24349000  0.73587000  0.36689000  1.0
  H  H19  1  0.18231000  0.08037000  0.25775000  1.0
  H  H20  1  0.24821000  0.30639000  0.05889000  1.0
  H  H21  1  0.07533000  0.08089000  0.99976000  1.0
  H  H22  1  0.30823000  0.38940000  0.28053000  1.0
  H  H23  1  0.82649000  0.79032000  0.11223000  1.0
  H  H24  1  0.31762000  0.51985000  0.73863000  1.0
  H  H25  1  0.04329000  0.50832000  0.91935000  1.0
  H  H26  1  0.25652000  0.73587000  0.86689000  1.0
  H  H27  1  0.31768000  0.08034000  0.75775000  1.0
  H  H28  1  0.25180000  0.30637000  0.55890000  1.0
  H  H29  1  0.42465000  0.08087000  0.49976000  1.0
  H  H30  1  0.19177000  0.38940000  0.78053000  1.0
  H  H31  1  0.67352000  0.79031000  0.61222000  1.0
  H  H32  1  0.81764000  0.48016000  0.76136000  1.0
  H  H33  1  0.54329000  0.49169000  0.58064000  1.0
  H  H34  1  0.75651000  0.26413000  0.63311000  1.0
  H  H35  1  0.81768000  0.91965000  0.74225000  1.0
  H  H36  1  0.75180000  0.69361000  0.94110000  1.0
  H  H37  1  0.92462000  0.91911000  0.00026000  1.0
  H  H38  1  0.69179000  0.61060000  0.71947000  1.0
  H  H39  1  0.17351000  0.20968000  0.88777000  1.0
  C  C40  1  0.61169000  0.31703000  0.25204000  1.0
  C  C41  1  0.70533000  0.36701000  0.20275000  1.0
  C  C42  1  0.73210000  0.45135000  0.21645000  1.0
  C  C43  1  0.82188000  0.49646000  0.17130000  1.0
  C  C44  1  0.88627000  0.45710000  0.11602000  1.0
  C  C45  1  0.85794000  0.37387000  0.10207000  1.0
  C  C46  1  0.92285000  0.33711000  0.03696000  1.0
  C  C47  1  0.76637000  0.32855000  0.14477000  1.0
  C  C48  1  0.56700000  0.01292000  0.33735000  1.0
  C  C49  1  0.62418000  0.92759000  0.36822000  1.0
  C  C50  1  0.67867000  0.88665000  0.30886000  1.0
  C  C51  1  0.72395000  0.80259000  0.33491000  1.0
  C  C52  1  0.77517000  0.75689000  0.27018000  1.0
  C  C53  1  0.71629000  0.76015000  0.42059000  1.0
  C  C54  1  0.66708000  0.80402000  0.47952000  1.0
  C  C55  1  0.61948000  0.88719000  0.45468000  1.0
  C  C56  1  0.11169000  0.68298000  0.24795000  1.0
  C  C57  1  0.20533000  0.63299000  0.29725000  1.0
  C  C58  1  0.23209000  0.54866000  0.28356000  1.0
  C  C59  1  0.32187000  0.50354000  0.32871000  1.0
  C  C60  1  0.38626000  0.54289000  0.38397000  1.0
  C  C61  1  0.35794000  0.62614000  0.39794000  1.0
  C  C62  1  0.42286000  0.66287000  0.46304000  1.0
  C  C63  1  0.26639000  0.67145000  0.35523000  1.0
  C  C64  1  0.06697000  0.98710000  0.16265000  1.0
  C  C65  1  0.12416000  0.07243000  0.13178000  1.0
  C  C66  1  0.17865000  0.11337000  0.19114000  1.0
  C  C67  1  0.22394000  0.19742000  0.16508000  1.0
  C  C68  1  0.27517000  0.24311000  0.22981000  1.0
  C  C69  1  0.21629000  0.23985000  0.07940000  1.0
  C  C70  1  0.16707000  0.19599000  0.02047000  1.0
  C  C71  1  0.11945000  0.11282000  0.04532000  1.0
  C  C72  1  0.38831000  0.68298000  0.74796000  1.0
  C  C73  1  0.29467000  0.63299000  0.79725000  1.0
  C  C74  1  0.26791000  0.54866000  0.78356000  1.0
  C  C75  1  0.17813000  0.50354000  0.82871000  1.0
  C  C76  1  0.11373000  0.54290000  0.88398000  1.0
  C  C77  1  0.14206000  0.62613000  0.89794000  1.0
  C  C78  1  0.07715000  0.66289000  0.96304000  1.0
  C  C79  1  0.23362000  0.67145000  0.85523000  1.0
  C  C80  1  0.43302000  0.98707000  0.66265000  1.0
  C  C81  1  0.37583000  0.07240000  0.63178000  1.0
  C  C82  1  0.32134000  0.11335000  0.69114000  1.0
  C  C83  1  0.27605000  0.19740000  0.66509000  1.0
  C  C84  1  0.22483000  0.24310000  0.72981000  1.0
  C  C85  1  0.28371000  0.23983000  0.57941000  1.0
  C  C86  1  0.33293000  0.19596000  0.52048000  1.0
  C  C87  1  0.38053000  0.11280000  0.54532000  1.0
  C  C88  1  0.88831000  0.31702000  0.75204000  1.0
  C  C89  1  0.79467000  0.36701000  0.70274000  1.0
  C  C90  1  0.76792000  0.45135000  0.71644000  1.0
  C  C91  1  0.67814000  0.49646000  0.67129000  1.0
  C  C92  1  0.61374000  0.45712000  0.61602000  1.0
  C  C93  1  0.64207000  0.37387000  0.60206000  1.0
  C  C94  1  0.57714000  0.33712000  0.53696000  1.0
  C  C95  1  0.73362000  0.32855000  0.64477000  1.0
  C  C96  1  0.93300000  0.01292000  0.83736000  1.0
  C  C97  1  0.87581000  0.92759000  0.86823000  1.0
  C  C98  1  0.82134000  0.88665000  0.80886000  1.0
  C  C99  1  0.77605000  0.80259000  0.83491000  1.0
  C  C100  1  0.72484000  0.75689000  0.77018000  1.0
  C  C101  1  0.78371000  0.76015000  0.92059000  1.0
  C  C102  1  0.83291000  0.80402000  0.97953000  1.0
  C  C103  1  0.88051000  0.88720000  0.95468000  1.0
  O  O104  1  0.57558000  0.34505000  0.31652000  1.0
  O  O105  1  0.57588000  0.24899000  0.22609000  1.0
  O  O106  1  0.85129000  0.58084000  0.17782000  1.0
  O  O107  1  0.00729000  0.38589000  0.00176000  1.0
  O  O108  1  0.89647000  0.26700000  0.01479000  1.0
  O  O109  1  0.53606000  0.06185000  0.38942000  1.0
  O  O110  1  0.54811000  0.03835000  0.25707000  1.0
  O  O111  1  0.82819000  0.80837000  0.20595000  1.0
  O  O112  1  0.76461000  0.67609000  0.27715000  1.0
  O  O113  1  0.66077000  0.75775000  0.56358000  1.0
  O  O114  1  0.07559000  0.65496000  0.18347000  1.0
  O  O115  1  0.07590000  0.75102000  0.27390000  1.0
  O  O116  1  0.35128000  0.41915000  0.32219000  1.0
  O  O117  1  0.50729000  0.61411000  0.49823000  1.0
  O  O118  1  0.39646000  0.73300000  0.48522000  1.0
  O  O119  1  0.03602000  0.93818000  0.11060000  1.0
  O  O120  1  0.04810000  0.96166000  0.24294000  1.0
  O  O121  1  0.32819000  0.19164000  0.29404000  1.0
  O  O122  1  0.26462000  0.32392000  0.22284000  1.0
  O  O123  1  0.16076000  0.24224000  0.93641000  1.0
  O  O124  1  0.42442000  0.65494000  0.68348000  1.0
  O  O125  1  0.42411000  0.75101000  0.77391000  1.0
  O  O126  1  0.14872000  0.41915000  0.82219000  1.0
  O  O127  1  0.99271000  0.61410000  0.99823000  1.0
  O  O128  1  0.10354000  0.73300000  0.98521000  1.0
  O  O129  1  0.46396000  0.93815000  0.61060000  1.0
  O  O130  1  0.45190000  0.96164000  0.74293000  1.0
  O  O131  1  0.17181000  0.19163000  0.79405000  1.0
  O  O132  1  0.23537000  0.32390000  0.72284000  1.0
  O  O133  1  0.33924000  0.24223000  0.43642000  1.0
  O  O134  1  0.92441000  0.34505000  0.81652000  1.0
  O  O135  1  0.92411000  0.24898000  0.72609000  1.0
  O  O136  1  0.64873000  0.58085000  0.67781000  1.0
  O  O137  1  0.49271000  0.38589000  0.50177000  1.0
  O  O138  1  0.60353000  0.26699000  0.51478000  1.0
  O  O139  1  0.96393000  0.06184000  0.88943000  1.0
  O  O140  1  0.95189000  0.03834000  0.75707000  1.0
  O  O141  1  0.67182000  0.80837000  0.70595000  1.0
  O  O142  1  0.73540000  0.67608000  0.77716000  1.0
  O  O143  1  0.83923000  0.75775000  0.06360000  1.0
