# generated using pymatgen
data_ZnH17C12Br(NO)2
_symmetry_space_group_name_H-M   'P 1'
_cell_length_a   7.30873000
_cell_length_b   13.46970000
_cell_length_c   16.09640000
_cell_angle_alpha   90.00010000
_cell_angle_beta   90.00010000
_cell_angle_gamma   89.99980000
_symmetry_Int_Tables_number   1
_chemical_formula_structural   ZnH17C12Br(NO)2
_chemical_formula_sum   'Zn4 H68 C48 Br4 N8 O8'
_cell_volume   1584.63264069
_cell_formula_units_Z   4
loop_
 _symmetry_equiv_pos_site_id
 _symmetry_equiv_pos_as_xyz
  1  'x, y, z'
loop_
 _atom_site_type_symbol
 _atom_site_label
 _atom_site_symmetry_multiplicity
 _atom_site_fract_x
 _atom_site_fract_y
 _atom_site_fract_z
 _atom_site_occupancy
  Zn  Zn0  1  0.72316000  0.69809000  0.39377000  1.0
  Zn  Zn1  1  0.77684000  0.30191000  0.89377000  1.0
  Zn  Zn2  1  0.22316000  0.80191000  0.60623000  1.0
  Zn  Zn3  1  0.27684000  0.19809000  0.10623000  1.0
  H  H4  1  0.11859000  0.62557000  0.36643000  1.0
  H  H5  1  0.38141000  0.37443000  0.86643000  1.0
  H  H6  1  0.61859000  0.87443000  0.63357000  1.0
  H  H7  1  0.88140000  0.12557000  0.13357000  1.0
  H  H8  1  0.26924000  0.47849000  0.30476000  1.0
  H  H9  1  0.23076000  0.52151000  0.80476000  1.0
  H  H10  1  0.76924000  0.02150000  0.69524000  1.0
  H  H11  1  0.73076000  0.97849000  0.19524000  1.0
  H  H12  1  0.73074000  0.36097000  0.25120000  1.0
  H  H13  1  0.76926000  0.63903000  0.75120000  1.0
  H  H14  1  0.23074000  0.13903000  0.74880000  1.0
  H  H15  1  0.26926000  0.86097000  0.24880000  1.0
  H  H16  1  0.60157000  0.51808000  0.31219000  1.0
  H  H17  1  0.89843000  0.48192000  0.81220000  1.0
  H  H18  1  0.10157000  0.98192000  0.68781000  1.0
  H  H19  1  0.39843000  0.01808000  0.18781000  1.0
  H  H20  1  0.18198000  0.27509000  0.27429000  1.0
  H  H21  1  0.31803000  0.72492000  0.77429000  1.0
  H  H22  1  0.68197000  0.22492000  0.72571000  1.0
  H  H23  1  0.81803000  0.77508000  0.22571000  1.0
  H  H24  1  0.97994000  0.26621000  0.21317000  1.0
  H  H25  1  0.52007000  0.73379000  0.71317000  1.0
  H  H26  1  0.47994000  0.23379000  0.78683000  1.0
  H  H27  1  0.02006000  0.76621000  0.28683000  1.0
  H  H28  1  0.01111000  0.45059000  0.12085000  1.0
  H  H29  1  0.48888000  0.54941000  0.62085000  1.0
  H  H30  1  0.51112000  0.04941000  0.87915000  1.0
  H  H31  1  0.98889000  0.95059000  0.37915000  1.0
  H  H32  1  0.18704000  0.48487000  0.98587000  1.0
  H  H33  1  0.31296000  0.51513000  0.48587000  1.0
  H  H34  1  0.68704000  0.01513000  0.01414000  1.0
  H  H35  1  0.81296000  0.98487000  0.51413000  1.0
  H  H36  1  0.36381000  0.40809000  0.02470000  1.0
  H  H37  1  0.13619000  0.59191000  0.52470000  1.0
  H  H38  1  0.86382000  0.09191000  0.97530000  1.0
  H  H39  1  0.63619000  0.90809000  0.47530000  1.0
  H  H40  1  0.37779000  0.52656000  0.15213000  1.0
  H  H41  1  0.12221000  0.47344000  0.65213000  1.0
  H  H42  1  0.87779000  0.97344000  0.84787000  1.0
  H  H43  1  0.62221000  0.02656000  0.34787000  1.0
  H  H44  1  0.60611000  0.52990000  0.03617000  1.0
  H  H45  1  0.89388000  0.47010000  0.53617000  1.0
  H  H46  1  0.10612000  0.97011000  0.96383000  1.0
  H  H47  1  0.39388000  0.02990000  0.46383000  1.0
  H  H48  1  0.56388000  0.65055000  0.07781000  1.0
  H  H49  1  0.93612000  0.34946000  0.57781000  1.0
  H  H50  1  0.06389000  0.84946000  0.92219000  1.0
  H  H51  1  0.43612000  0.15054000  0.42219000  1.0
  H  H52  1  0.46532000  0.61522000  0.98117000  1.0
  H  H53  1  0.03467000  0.38478000  0.48117000  1.0
  H  H54  1  0.96533000  0.88478000  0.01883000  1.0
  H  H55  1  0.53467000  0.11522000  0.51883000  1.0
  H  H56  1  0.14229000  0.65842000  0.03911000  1.0
  H  H57  1  0.35770000  0.34158000  0.53911000  1.0
  H  H58  1  0.64231000  0.84158000  0.96089000  1.0
  H  H59  1  0.85770000  0.15842000  0.46089000  1.0
  H  H60  1  0.24888000  0.69496000  0.13412000  1.0
  H  H61  1  0.25111000  0.30504000  0.63412000  1.0
  H  H62  1  0.74889000  0.80504000  0.86588000  1.0
  H  H63  1  0.75112000  0.19496000  0.36588000  1.0
  H  H64  1  0.06964000  0.60652000  0.13523000  1.0
  H  H65  1  0.43035000  0.39348000  0.63523000  1.0
  H  H66  1  0.56965000  0.89348000  0.86477000  1.0
  H  H67  1  0.93035000  0.10652000  0.36477000  1.0
  H  H68  1  0.32397000  0.37048000  0.17449000  1.0
  H  H69  1  0.17603000  0.62952000  0.67449000  1.0
  H  H70  1  0.82398000  0.12952000  0.82551000  1.0
  H  H71  1  0.67603000  0.87048000  0.32551000  1.0
  C  C72  1  0.03716000  0.56556000  0.34016000  1.0
  C  C73  1  0.46283000  0.43444000  0.84016000  1.0
  C  C74  1  0.53717000  0.93443000  0.65984000  1.0
  C  C75  1  0.96283000  0.06557000  0.15984000  1.0
  C  C76  1  0.12017000  0.48213000  0.30606000  1.0
  C  C77  1  0.37983000  0.51787000  0.80606000  1.0
  C  C78  1  0.62017000  0.01787000  0.69394000  1.0
  C  C79  1  0.87983000  0.98213000  0.19394000  1.0
  C  C80  1  0.01129000  0.40642000  0.27302000  1.0
  C  C81  1  0.48871000  0.59358000  0.77301000  1.0
  C  C82  1  0.51129000  0.09358000  0.72699000  1.0
  C  C83  1  0.98871000  0.90642000  0.22698000  1.0
  C  C84  1  0.82129000  0.41808000  0.27642000  1.0
  C  C85  1  0.67871000  0.58192000  0.77642000  1.0
  C  C86  1  0.32129000  0.08191000  0.72358000  1.0
  C  C87  1  0.17871000  0.91809000  0.22357000  1.0
  C  C88  1  0.74846000  0.50398000  0.31053000  1.0
  C  C89  1  0.75154000  0.49602000  0.81053000  1.0
  C  C90  1  0.24847000  0.99602000  0.68947000  1.0
  C  C91  1  0.25154000  0.00398000  0.18947000  1.0
  C  C92  1  0.09172000  0.31606000  0.23160000  1.0
  C  C93  1  0.40828000  0.68394000  0.73159000  1.0
  C  C94  1  0.59172000  0.18393000  0.76841000  1.0
  C  C95  1  0.90829000  0.81606000  0.26840000  1.0
  C  C96  1  0.11130000  0.39944000  0.09294000  1.0
  C  C97  1  0.38869000  0.60056000  0.59294000  1.0
  C  C98  1  0.61131000  0.10056000  0.90705000  1.0
  C  C99  1  0.88870000  0.89944000  0.40705000  1.0
  C  C100  1  0.25340000  0.45924000  0.04339000  1.0
  C  C101  1  0.24660000  0.54076000  0.54339000  1.0
  C  C102  1  0.75340000  0.04076000  0.95661000  1.0
  C  C103  1  0.74660000  0.95924000  0.45661000  1.0
  C  C104  1  0.33273000  0.54959000  0.08939000  1.0
  C  C105  1  0.16727000  0.45042000  0.58939000  1.0
  C  C106  1  0.83273000  0.95042000  0.91061000  1.0
  C  C107  1  0.66727000  0.04958000  0.41061000  1.0
  C  C108  1  0.50216000  0.58831000  0.04362000  1.0
  C  C109  1  0.99783000  0.41169000  0.54362000  1.0
  C  C110  1  0.00217000  0.91169000  0.95638000  1.0
  C  C111  1  0.49783000  0.08831000  0.45638000  1.0
  C  C112  1  0.19003000  0.63189000  0.10013000  1.0
  C  C113  1  0.30996000  0.36811000  0.60012000  1.0
  C  C114  1  0.69004000  0.86811000  0.89988000  1.0
  C  C115  1  0.80997000  0.13189000  0.39987000  1.0
  C  C116  1  0.00553000  0.33125000  0.03396000  1.0
  C  C117  1  0.49446000  0.66875000  0.53396000  1.0
  C  C118  1  0.50553000  0.16875000  0.96604000  1.0
  C  C119  1  0.99446000  0.83125000  0.46604000  1.0
  Br  Br120  1  0.44695000  0.70391000  0.29665000  1.0
  Br  Br121  1  0.05304000  0.29609000  0.79665000  1.0
  Br  Br122  1  0.94695000  0.79608000  0.70335000  1.0
  Br  Br123  1  0.55304000  0.20391000  0.20335000  1.0
  N  N124  1  0.85420000  0.57694000  0.34149000  1.0
  N  N125  1  0.64580000  0.42306000  0.84149000  1.0
  N  N126  1  0.35420000  0.92306000  0.65851000  1.0
  N  N127  1  0.14580000  0.07694000  0.15851000  1.0
  N  N128  1  0.20277000  0.33886000  0.15691000  1.0
  N  N129  1  0.29722000  0.66114000  0.65691000  1.0
  N  N130  1  0.70278000  0.16114000  0.84309000  1.0
  N  N131  1  0.79723000  0.83886000  0.34309000  1.0
  O  O132  1  0.88906000  0.37527000  0.98810000  1.0
  O  O133  1  0.61094000  0.62472000  0.48810000  1.0
  O  O134  1  0.38907000  0.12472000  0.01190000  1.0
  O  O135  1  0.11093000  0.87528000  0.51190000  1.0
  O  O136  1  0.04152000  0.23944000  0.03202000  1.0
  O  O137  1  0.45849000  0.76056000  0.53203000  1.0
  O  O138  1  0.54151000  0.26056000  0.96798000  1.0
  O  O139  1  0.95849000  0.73944000  0.46798000  1.0
