# generated using pymatgen
data_ZnH26C23N3O4
_symmetry_space_group_name_H-M   'P 1'
_cell_length_a   8.34133000
_cell_length_b   17.80735349
_cell_length_c   17.84901411
_cell_angle_alpha   60.29021011
_cell_angle_beta   89.99799031
_cell_angle_gamma   76.46090578
_symmetry_Int_Tables_number   1
_chemical_formula_structural   ZnH26C23N3O4
_chemical_formula_sum   'Zn4 H104 C92 N12 O16'
_cell_volume   2217.51214147
_cell_formula_units_Z   4
loop_
 _symmetry_equiv_pos_site_id
 _symmetry_equiv_pos_as_xyz
  1  'x, y, z'
loop_
 _atom_site_type_symbol
 _atom_site_label
 _atom_site_symmetry_multiplicity
 _atom_site_fract_x
 _atom_site_fract_y
 _atom_site_fract_z
 _atom_site_occupancy
  Zn  Zn0  1  0.52945000  0.54753000  0.24341000  1.0
  Zn  Zn1  1  0.07710000  0.45270000  0.25663000  1.0
  Zn  Zn2  1  0.47055000  0.45247000  0.75659000  1.0
  Zn  Zn3  1  0.92290000  0.54730000  0.74337000  1.0
  H  H4  1  0.26883000  0.48448000  0.39023000  1.0
  H  H5  1  0.75287000  0.51576000  0.10998000  1.0
  H  H6  1  0.73118000  0.51552000  0.60977000  1.0
  H  H7  1  0.24714000  0.48424000  0.89002000  1.0
  H  H8  1  0.79366000  0.41483000  0.42729000  1.0
  H  H9  1  0.20853000  0.58496000  0.07275000  1.0
  H  H10  1  0.20635000  0.58516000  0.57272000  1.0
  H  H11  1  0.79148000  0.41504000  0.92725000  1.0
  H  H12  1  0.64075000  0.35830000  0.64438000  1.0
  H  H13  1  0.99888000  0.64153000  0.85572000  1.0
  H  H14  1  0.35923000  0.64171000  0.35562000  1.0
  H  H15  1  0.00112000  0.35848000  0.14427000  1.0
  H  H16  1  0.82483000  0.36042000  0.59424000  1.0
  H  H17  1  0.18524000  0.63925000  0.90588000  1.0
  H  H18  1  0.17516000  0.63958000  0.40576000  1.0
  H  H19  1  0.81477000  0.36075000  0.09412000  1.0
  H  H20  1  0.50891000  0.22938000  0.68147000  1.0
  H  H21  1  0.73853000  0.77033000  0.81864000  1.0
  H  H22  1  0.49108000  0.77062000  0.31853000  1.0
  H  H23  1  0.26149000  0.22966000  0.18135000  1.0
  H  H24  1  0.58246000  0.06334000  0.75724000  1.0
  H  H25  1  0.64590000  0.93638000  0.74289000  1.0
  H  H26  1  0.41755000  0.93665000  0.24277000  1.0
  H  H27  1  0.35410000  0.06362000  0.25710000  1.0
  H  H28  1  0.07401000  0.06008000  0.68196000  1.0
  H  H29  1  0.13410000  0.93976000  0.81820000  1.0
  H  H30  1  0.92599000  0.93992000  0.31804000  1.0
  H  H31  1  0.86590000  0.06024000  0.18180000  1.0
  H  H32  1  0.00030000  0.22575000  0.60737000  1.0
  H  H33  1  0.22609000  0.77406000  0.89286000  1.0
  H  H34  1  0.99970000  0.77425000  0.39263000  1.0
  H  H35  1  0.77391000  0.22594000  0.10714000  1.0
  H  H36  1  0.25225000  0.86160000  0.05003000  1.0
  H  H37  1  0.11440000  0.13860000  0.44999000  1.0
  H  H38  1  0.74776000  0.13839000  0.94998000  1.0
  H  H39  1  0.88559000  0.86140000  0.55001000  1.0
  H  H40  1  0.27108000  0.82496000  0.16332000  1.0
  H  H41  1  0.09688000  0.17526000  0.33669000  1.0
  H  H42  1  0.72892000  0.17504000  0.83669000  1.0
  H  H43  1  0.90312000  0.82474000  0.66331000  1.0
  H  H44  1  0.99294000  0.88259000  0.97245000  1.0
  H  H45  1  0.87626000  0.11763000  0.52748000  1.0
  H  H46  1  0.00706000  0.11741000  0.02755000  1.0
  H  H47  1  0.12374000  0.88237000  0.47252000  1.0
  H  H48  1  0.03957000  0.76448000  0.02749000  1.0
  H  H49  1  0.80469000  0.23573000  0.47238000  1.0
  H  H50  1  0.96044000  0.23552000  0.97251000  1.0
  H  H51  1  0.19532000  0.76426000  0.52762000  1.0
  H  H52  1  0.73791000  0.83299000  0.96886000  1.0
  H  H53  1  0.57163000  0.16716000  0.53111000  1.0
  H  H54  1  0.26210000  0.16701000  0.03114000  1.0
  H  H55  1  0.42838000  0.83283000  0.46889000  1.0
  H  H56  1  0.81861000  0.68712000  0.10782000  1.0
  H  H57  1  0.50666000  0.31301000  0.39209000  1.0
  H  H58  1  0.18140000  0.31288000  0.89218000  1.0
  H  H59  1  0.49335000  0.68698000  0.60792000  1.0
  H  H60  1  0.62170000  0.75151000  0.10708000  1.0
  H  H61  1  0.37402000  0.24863000  0.39289000  1.0
  H  H62  1  0.37829000  0.24850000  0.89291000  1.0
  H  H63  1  0.62598000  0.75137000  0.60711000  1.0
  H  H64  1  0.05638000  0.73366000  0.25225000  1.0
  H  H65  1  0.79077000  0.26639000  0.24767000  1.0
  H  H66  1  0.94361000  0.26634000  0.74775000  1.0
  H  H67  1  0.20923000  0.73361000  0.75233000  1.0
  H  H68  1  0.07582000  0.67502000  0.19546000  1.0
  H  H69  1  0.75155000  0.32519000  0.30431000  1.0
  H  H70  1  0.92419000  0.32497000  0.80455000  1.0
  H  H71  1  0.24845000  0.67481000  0.69569000  1.0
  H  H72  1  0.99562000  0.90136000  0.17182000  1.0
  H  H73  1  0.89777000  0.09881000  0.32810000  1.0
  H  H74  1  0.00438000  0.09864000  0.82818000  1.0
  H  H75  1  0.10224000  0.90118000  0.67190000  1.0
  H  H76  1  0.97077000  0.96370000  0.05673000  1.0
  H  H77  1  0.93534000  0.03651000  0.44317000  1.0
  H  H78  1  0.02922000  0.03631000  0.94327000  1.0
  H  H79  1  0.06466000  0.96349000  0.55683000  1.0
  H  H80  1  0.55810000  0.92290000  0.02489000  1.0
  H  H81  1  0.48188000  0.07708000  0.47519000  1.0
  H  H82  1  0.44192000  0.07709000  0.97511000  1.0
  H  H83  1  0.51811000  0.92293000  0.52480000  1.0
  H  H84  1  0.71109000  0.97580000  0.96874000  1.0
  H  H85  1  0.68782000  0.02436000  0.53127000  1.0
  H  H86  1  0.28891000  0.02420000  0.03126000  1.0
  H  H87  1  0.31218000  0.97564000  0.46873000  1.0
  H  H88  1  0.69409000  0.97343000  0.11031000  1.0
  H  H89  1  0.66844000  0.02665000  0.38976000  1.0
  H  H90  1  0.30591000  0.02657000  0.88969000  1.0
  H  H91  1  0.33156000  0.97335000  0.61023000  1.0
  H  H92  1  0.77135000  0.82695000  0.25050000  1.0
  H  H93  1  0.59901000  0.17308000  0.24950000  1.0
  H  H94  1  0.22865000  0.17305000  0.74950000  1.0
  H  H95  1  0.40098000  0.82693000  0.75049000  1.0
  H  H96  1  0.59444000  0.83511000  0.18843000  1.0
  H  H97  1  0.43036000  0.16486000  0.31166000  1.0
  H  H98  1  0.40556000  0.16489000  0.81157000  1.0
  H  H99  1  0.56964000  0.83514000  0.68834000  1.0
  H  H100  1  0.84559333  0.65845667  0.33333333  1.0
  H  H101  1  0.50441000  0.34177000  0.16661000  1.0
  H  H102  1  0.15440667  0.34154333  0.66666667  1.0
  H  H103  1  0.49559000  0.65823000  0.83339000  1.0
  H  H104  1  0.65479000  0.67138000  0.27685000  1.0
  H  H105  1  0.32685000  0.32851000  0.22335000  1.0
  H  H106  1  0.34520000  0.32863000  0.72314000  1.0
  H  H107  1  0.67315000  0.67149000  0.77665000  1.0
  C  C108  1  0.39724000  0.45700000  0.42135000  1.0
  C  C109  1  0.85390000  0.54314000  0.07882000  1.0
  C  C110  1  0.60275000  0.54301000  0.57864000  1.0
  C  C111  1  0.14611000  0.45686000  0.92118000  1.0
  C  C112  1  0.66367000  0.42427000  0.43760000  1.0
  C  C113  1  0.08791000  0.57559000  0.06249000  1.0
  C  C114  1  0.33632000  0.57573000  0.56240000  1.0
  C  C115  1  0.91210000  0.42441000  0.93751000  1.0
  C  C116  1  0.71035000  0.33856000  0.60190000  1.0
  C  C117  1  0.04892000  0.66123000  0.89819000  1.0
  C  C118  1  0.28964000  0.66144000  0.39810000  1.0
  C  C119  1  0.95109000  0.33878000  0.10180000  1.0
  C  C120  1  0.75096000  0.23834000  0.64147000  1.0
  C  C121  1  0.98941000  0.76147000  0.85861000  1.0
  C  C122  1  0.24903000  0.76166000  0.35853000  1.0
  C  C123  1  0.01058000  0.23854000  0.14138000  1.0
  C  C124  1  0.63285000  0.19193000  0.68162000  1.0
  C  C125  1  0.82490000  0.80783000  0.81846000  1.0
  C  C126  1  0.36714000  0.80808000  0.31838000  1.0
  C  C127  1  0.17511000  0.19217000  0.18153000  1.0
  C  C128  1  0.67403000  0.09865000  0.72345000  1.0
  C  C129  1  0.77277000  0.90111000  0.77660000  1.0
  C  C130  1  0.32597000  0.90135000  0.27655000  1.0
  C  C131  1  0.22722000  0.09890000  0.22339000  1.0
  C  C132  1  0.83488000  0.04935000  0.72631000  1.0
  C  C133  1  0.88438000  0.95038000  0.77379000  1.0
  C  C134  1  0.16512000  0.95065000  0.27369000  1.0
  C  C135  1  0.11562000  0.04962000  0.22621000  1.0
  C  C136  1  0.95070000  0.09682000  0.68346000  1.0
  C  C137  1  0.04765000  0.90295000  0.81666000  1.0
  C  C138  1  0.04930000  0.90318000  0.31654000  1.0
  C  C139  1  0.95235000  0.09704000  0.18335000  1.0
  C  C140  1  0.90944000  0.19004000  0.64157000  1.0
  C  C141  1  0.09958000  0.80975000  0.85858000  1.0
  C  C142  1  0.09056000  0.80996000  0.35843000  1.0
  C  C143  1  0.90042000  0.19026000  0.14142000  1.0
  C  C144  1  0.33094000  0.71822000  0.13545000  1.0
  C  C145  1  0.04979000  0.28200000  0.36452000  1.0
  C  C146  1  0.66904000  0.28178000  0.86456000  1.0
  C  C147  1  0.95021000  0.71800000  0.63548000  1.0
  C  C148  1  0.22957000  0.81112000  0.11412000  1.0
  C  C149  1  0.04137000  0.18907000  0.38588000  1.0
  C  C150  1  0.77042000  0.18888000  0.88589000  1.0
  C  C151  1  0.95863000  0.81093000  0.61412000  1.0
  C  C152  1  0.04065000  0.81877000  0.11240000  1.0
  C  C153  1  0.86012000  0.18143000  0.38750000  1.0
  C  C154  1  0.95934000  0.18123000  0.88760000  1.0
  C  C155  1  0.13989000  0.81857000  0.61250000  1.0
  C  C156  1  0.97093000  0.82369000  0.03007000  1.0
  C  C157  1  0.79526000  0.17648000  0.46987000  1.0
  C  C158  1  0.02908000  0.17630000  0.96994000  1.0
  C  C159  1  0.20474000  0.82352000  0.53013000  1.0
  C  C160  1  0.78434000  0.83068000  0.02791000  1.0
  C  C161  1  0.61570000  0.16946000  0.47206000  1.0
  C  C162  1  0.21566000  0.16933000  0.97209000  1.0
  C  C163  1  0.38430000  0.83054000  0.52794000  1.0
  C  C164  1  0.75503000  0.74822000  0.10858000  1.0
  C  C165  1  0.50408000  0.25189000  0.39138000  1.0
  C  C166  1  0.24497000  0.25178000  0.89142000  1.0
  C  C167  1  0.49592000  0.74811000  0.60862000  1.0
  C  C168  1  0.82095000  0.74287000  0.19228000  1.0
  C  C169  1  0.56457000  0.25722000  0.30768000  1.0
  C  C170  1  0.17906000  0.25712000  0.80772000  1.0
  C  C171  1  0.43543000  0.74278000  0.69232000  1.0
  C  C172  1  0.00773000  0.73726000  0.19288000  1.0
  C  C173  1  0.74568000  0.26291000  0.30699000  1.0
  C  C174  1  0.99227000  0.26274000  0.80712000  1.0
  C  C175  1  0.25432000  0.73709000  0.69301000  1.0
  C  C176  1  0.94742000  0.90407000  0.11290000  1.0
  C  C177  1  0.85231000  0.09610000  0.38703000  1.0
  C  C178  1  0.05258000  0.09593000  0.88710000  1.0
  C  C179  1  0.14770000  0.90390000  0.61297000  1.0
  C  C180  1  0.69280000  0.91635000  0.02735000  1.0
  C  C181  1  0.60996000  0.08375000  0.47267000  1.0
  C  C182  1  0.30720000  0.08365000  0.97265000  1.0
  C  C183  1  0.39003000  0.91626000  0.52732000  1.0
  C  C184  1  0.75971000  0.91211000  0.10999000  1.0
  C  C185  1  0.67267000  0.08799000  0.39004000  1.0
  C  C186  1  0.24030000  0.08788000  0.89002000  1.0
  C  C187  1  0.32733000  0.91201000  0.60996000  1.0
  C  C188  1  0.72878000  0.82983000  0.19034000  1.0
  C  C189  1  0.55939000  0.17021000  0.30968000  1.0
  C  C190  1  0.27122000  0.17017000  0.80966000  1.0
  C  C191  1  0.44061000  0.82979000  0.69032000  1.0
  C  C192  1  0.78951000  0.66155000  0.27573000  1.0
  C  C193  1  0.45159000  0.33853000  0.22433000  1.0
  C  C194  1  0.21048000  0.33846000  0.72426000  1.0
  C  C195  1  0.54841000  0.66147000  0.77567000  1.0
  C  C196  1  0.86344000  0.57416000  0.27891000  1.0
  C  C197  1  0.43787000  0.42593000  0.22117000  1.0
  C  C198  1  0.13656000  0.42584000  0.72109000  1.0
  C  C199  1  0.56213000  0.57407000  0.77883000  1.0
  N  N200  1  0.53061000  0.46836000  0.37603000  1.0
  N  N201  1  0.99877000  0.53170000  0.12410000  1.0
  N  N202  1  0.46938000  0.53164000  0.62397000  1.0
  N  N203  1  0.00124000  0.46830000  0.87590000  1.0
  N  N204  1  0.61061000  0.38949000  0.51583000  1.0
  N  N205  1  0.00001000  0.61035000  0.98427000  1.0
  N  N206  1  0.38939000  0.61051000  0.48417000  1.0
  N  N207  1  1.00000000  0.38965000  0.01572000  1.0
  N  N208  1  0.44114000  0.40943000  0.50701000  1.0
  N  N209  1  0.85031000  0.59057000  0.99315000  1.0
  N  N210  1  0.55886000  0.59057000  0.49299000  1.0
  N  N211  1  0.14970000  0.40943000  0.00685000  1.0
  O  O212  1  0.40330000  0.66623000  0.21643000  1.0
  O  O213  1  0.06987000  0.33402000  0.28349000  1.0
  O  O214  1  0.59670000  0.33377000  0.78358000  1.0
  O  O215  1  0.93013000  0.66598000  0.71651000  1.0
  O  O216  1  0.34026000  0.69318000  0.08113000  1.0
  O  O217  1  0.03425000  0.30706000  0.41884000  1.0
  O  O218  1  0.65973000  0.30682000  0.91888000  1.0
  O  O219  1  0.96575000  0.69294000  0.58116000  1.0
  O  O220  1  0.77562000  0.53904000  0.25321000  1.0
  O  O221  1  0.31485000  0.46104000  0.24683000  1.0
  O  O222  1  0.22438000  0.46096000  0.74678000  1.0
  O  O223  1  0.68515000  0.53896000  0.75317000  1.0
  O  O224  1  0.02019000  0.53704000  0.30266000  1.0
  O  O225  1  0.55741000  0.46312000  0.19739000  1.0
  O  O226  1  0.97981000  0.46296000  0.69734000  1.0
  O  O227  1  0.44257000  0.53689000  0.80260000  1.0
