# generated using pymatgen
data_ZnH22C22SN4O5
_symmetry_space_group_name_H-M   'P 1'
_cell_length_a   8.17153000
_cell_length_b   16.29100000
_cell_length_c   17.88160000
_cell_angle_alpha   90.00020000
_cell_angle_beta   89.99960000
_cell_angle_gamma   90.00000000
_symmetry_Int_Tables_number   1
_chemical_formula_structural   ZnH22C22SN4O5
_chemical_formula_sum   'Zn4 H88 C88 S4 N16 O20'
_cell_volume   2380.44142247
_cell_formula_units_Z   4
loop_
 _symmetry_equiv_pos_site_id
 _symmetry_equiv_pos_as_xyz
  1  'x, y, z'
loop_
 _atom_site_type_symbol
 _atom_site_label
 _atom_site_symmetry_multiplicity
 _atom_site_fract_x
 _atom_site_fract_y
 _atom_site_fract_z
 _atom_site_occupancy
  Zn  Zn0  1  0.95424000  0.18271000  0.89550000  1.0
  Zn  Zn1  1  0.54576000  0.81729000  0.39550000  1.0
  Zn  Zn2  1  0.04576000  0.68271000  0.60450000  1.0
  Zn  Zn3  1  0.45424000  0.31729000  0.10450000  1.0
  H  H4  1  0.83992000  0.59654000  0.90817000  1.0
  H  H5  1  0.66008000  0.40345000  0.40817000  1.0
  H  H6  1  0.16008000  0.09655000  0.59183000  1.0
  H  H7  1  0.33993000  0.90345000  0.09182000  1.0
  H  H8  1  0.77912000  0.49881000  0.88128000  1.0
  H  H9  1  0.72088000  0.50118000  0.38128000  1.0
  H  H10  1  0.22087000  0.99882000  0.61871000  1.0
  H  H11  1  0.27913000  0.00118000  0.11872000  1.0
  H  H12  1  0.35397000  0.28797000  0.92621000  1.0
  H  H13  1  0.14603000  0.71203000  0.42621000  1.0
  H  H14  1  0.64603000  0.78797000  0.57379000  1.0
  H  H15  1  0.85397000  0.21203000  0.07379000  1.0
  H  H16  1  0.24494000  0.40584000  0.99894000  1.0
  H  H17  1  0.25507000  0.59417000  0.49895000  1.0
  H  H18  1  0.75506000  0.90584000  0.50106000  1.0
  H  H19  1  0.74494000  0.09417000  0.00106000  1.0
  H  H20  1  0.26179000  0.41913000  0.90185000  1.0
  H  H21  1  0.23822000  0.58086000  0.40185000  1.0
  H  H22  1  0.73821000  0.91913000  0.59815000  1.0
  H  H23  1  0.76179000  0.08087000  0.09815000  1.0
  H  H24  1  0.94160000  0.38645000  0.98754000  1.0
  H  H25  1  0.55841000  0.61355000  0.48754000  1.0
  H  H26  1  0.05840000  0.88645000  0.51246000  1.0
  H  H27  1  0.44160000  0.11355000  0.01246000  1.0
  H  H28  1  0.95682000  0.38785000  0.88963000  1.0
  H  H29  1  0.54319000  0.61215000  0.38963000  1.0
  H  H30  1  0.04319000  0.88786000  0.61037000  1.0
  H  H31  1  0.45682000  0.11214000  0.11037000  1.0
  H  H32  1  0.13891000  0.09879000  0.72409000  1.0
  H  H33  1  0.36109000  0.90121000  0.22409000  1.0
  H  H34  1  0.86109000  0.59879000  0.77591000  1.0
  H  H35  1  0.63891000  0.40121000  0.27591000  1.0
  H  H36  1  0.21731000  0.95310000  0.74901000  1.0
  H  H37  1  0.28270000  0.04689000  0.24901000  1.0
  H  H38  1  0.78270000  0.45310000  0.75099000  1.0
  H  H39  1  0.71730000  0.54690000  0.25099000  1.0
  H  H40  1  0.57627000  0.03561000  0.90733000  1.0
  H  H41  1  0.92372000  0.96439000  0.40732000  1.0
  H  H42  1  0.42373000  0.53561000  0.59267000  1.0
  H  H43  1  0.07628000  0.46439000  0.09267000  1.0
  H  H44  1  0.50719000  0.18086000  0.87875000  1.0
  H  H45  1  0.99280000  0.81914000  0.37875000  1.0
  H  H46  1  0.49280000  0.68086000  0.62125000  1.0
  H  H47  1  0.00720000  0.31914000  0.12125000  1.0
  H  H48  1  0.50470000  0.86608000  0.80381000  1.0
  H  H49  1  0.99530000  0.13392000  0.30380000  1.0
  H  H50  1  0.49530000  0.36609000  0.69619000  1.0
  H  H51  1  0.00471000  0.63391000  0.19620000  1.0
  H  H52  1  0.32763000  0.86258000  0.86098000  1.0
  H  H53  1  0.17238000  0.13742000  0.36097000  1.0
  H  H54  1  0.67238000  0.36258000  0.63902000  1.0
  H  H55  1  0.82764000  0.63742000  0.13902000  1.0
  H  H56  1  0.51806000  0.89357000  0.90048000  1.0
  H  H57  1  0.98194000  0.10643000  0.40047000  1.0
  H  H58  1  0.48194000  0.39357000  0.59952000  1.0
  H  H59  1  0.01808000  0.60642000  0.09952000  1.0
  H  H60  1  0.77145000  0.27001000  0.76395000  1.0
  H  H61  1  0.72855000  0.72999000  0.26395000  1.0
  H  H62  1  0.22854000  0.77001000  0.73605000  1.0
  H  H63  1  0.27145000  0.22999000  0.23606000  1.0
  H  H64  1  0.62030000  0.22662000  0.64845000  1.0
  H  H65  1  0.87970000  0.77338000  0.14845000  1.0
  H  H66  1  0.37970000  0.72662000  0.85156000  1.0
  H  H67  1  0.12029000  0.27338000  0.35156000  1.0
  H  H68  1  0.60650000  0.07575000  0.61789000  1.0
  H  H69  1  0.89350000  0.92425000  0.11789000  1.0
  H  H70  1  0.39350000  0.57574000  0.88211000  1.0
  H  H71  1  0.10649000  0.42425000  0.38211000  1.0
  H  H72  1  0.72487000  0.97536000  0.70787000  1.0
  H  H73  1  0.77513000  0.02464000  0.20787000  1.0
  H  H74  1  0.27513000  0.47535000  0.79213000  1.0
  H  H75  1  0.22486000  0.52464000  0.29213000  1.0
  H  H76  1  0.82605000  0.89920000  0.78740000  1.0
  H  H77  1  0.67396000  0.10080000  0.28740000  1.0
  H  H78  1  0.17396000  0.39920000  0.71259000  1.0
  H  H79  1  0.32604000  0.60080000  0.21260000  1.0
  H  H80  1  0.96274000  0.81704000  0.88349000  1.0
  H  H81  1  0.53727000  0.18296000  0.38350000  1.0
  H  H82  1  0.03725000  0.31704000  0.61650000  1.0
  H  H83  1  0.46274000  0.68296000  0.11651000  1.0
  H  H84  1  0.10783000  0.88984000  0.99056000  1.0
  H  H85  1  0.39217000  0.11017000  0.49056000  1.0
  H  H86  1  0.89216000  0.38983000  0.50944000  1.0
  H  H87  1  0.60783000  0.61016000  0.00944000  1.0
  H  H88  1  0.09932000  0.04427000  0.99362000  1.0
  H  H89  1  0.40068000  0.95574000  0.49362000  1.0
  H  H90  1  0.90068000  0.54426000  0.50638000  1.0
  H  H91  1  0.59931000  0.45573000  0.00637000  1.0
  C  C92  1  0.18071000  0.24378000  0.00392000  1.0
  C  C93  1  0.31928000  0.75623000  0.50393000  1.0
  C  C94  1  0.81929000  0.74378000  0.49608000  1.0
  C  C95  1  0.68072000  0.25622000  0.99608000  1.0
  C  C96  1  0.22071000  0.29436000  0.93356000  1.0
  C  C97  1  0.27930000  0.70564000  0.43356000  1.0
  C  C98  1  0.77929000  0.79436000  0.56644000  1.0
  C  C99  1  0.72071000  0.20564000  0.06644000  1.0
  C  C100  1  0.19187000  0.38693000  0.94532000  1.0
  C  C101  1  0.30813000  0.61307000  0.44533000  1.0
  C  C102  1  0.80813000  0.88693000  0.55468000  1.0
  C  C103  1  0.69188000  0.11307000  0.05468000  1.0
  C  C104  1  0.01280000  0.41256000  0.94085000  1.0
  C  C105  1  0.48720000  0.58744000  0.44085000  1.0
  C  C106  1  0.98720000  0.91256000  0.55915000  1.0
  C  C107  1  0.51280000  0.08744000  0.05915000  1.0
  C  C108  1  0.99298000  0.50516000  0.94409000  1.0
  C  C109  1  0.50703000  0.49485000  0.44409000  1.0
  C  C110  1  0.00703000  0.00515000  0.55591000  1.0
  C  C111  1  0.49298000  0.99485000  0.05591000  1.0
  C  C112  1  0.31503000  0.14811000  0.80087000  1.0
  C  C113  1  0.18497000  0.85188000  0.30088000  1.0
  C  C114  1  0.68496000  0.64812000  0.69913000  1.0
  C  C115  1  0.81503000  0.35189000  0.19912000  1.0
  C  C116  1  0.23726000  0.08414000  0.76288000  1.0
  C  C117  1  0.26274000  0.91586000  0.26288000  1.0
  C  C118  1  0.76274000  0.58414000  0.73712000  1.0
  C  C119  1  0.73726000  0.41586000  0.23712000  1.0
  C  C120  1  0.28118000  0.00305000  0.77753000  1.0
  C  C121  1  0.21883000  0.99694000  0.27753000  1.0
  C  C122  1  0.71882000  0.50306000  0.72247000  1.0
  C  C123  1  0.78118000  0.49695000  0.22247000  1.0
  C  C124  1  0.40064000  0.98423000  0.83117000  1.0
  C  C125  1  0.09936000  0.01577000  0.33116000  1.0
  C  C126  1  0.59936000  0.48423000  0.66883000  1.0
  C  C127  1  0.90064000  0.51577000  0.16883000  1.0
  C  C128  1  0.48072000  0.04966000  0.86675000  1.0
  C  C129  1  0.01928000  0.95034000  0.36675000  1.0
  C  C130  1  0.51928000  0.54966000  0.63325000  1.0
  C  C131  1  0.98072000  0.45034000  0.13325000  1.0
  C  C132  1  0.44056000  0.13109000  0.85169000  1.0
  C  C133  1  0.05943000  0.86891000  0.35169000  1.0
  C  C134  1  0.55943000  0.63109000  0.64831000  1.0
  C  C135  1  0.94057000  0.36891000  0.14831000  1.0
  C  C136  1  0.44112000  0.89691000  0.85025000  1.0
  C  C137  1  0.05888000  0.10309000  0.35025000  1.0
  C  C138  1  0.55888000  0.39692000  0.64975000  1.0
  C  C139  1  0.94112000  0.60309000  0.14975000  1.0
  C  C140  1  0.75926000  0.20553000  0.74881000  1.0
  C  C141  1  0.74074000  0.79447000  0.24881000  1.0
  C  C142  1  0.24073000  0.70552000  0.75119000  1.0
  C  C143  1  0.25926000  0.29447000  0.25119000  1.0
  C  C144  1  0.67635000  0.18087000  0.68460000  1.0
  C  C145  1  0.82365000  0.81913000  0.18460000  1.0
  C  C146  1  0.32365000  0.68087000  0.81539000  1.0
  C  C147  1  0.17634000  0.31913000  0.31540000  1.0
  C  C148  1  0.66653000  0.09725000  0.66866000  1.0
  C  C149  1  0.83347000  0.90275000  0.16866000  1.0
  C  C150  1  0.33346000  0.59724000  0.83134000  1.0
  C  C151  1  0.16653000  0.40275000  0.33134000  1.0
  C  C152  1  0.73551000  0.04103000  0.71810000  1.0
  C  C153  1  0.76450000  0.95897000  0.21810000  1.0
  C  C154  1  0.26449000  0.54102000  0.78190000  1.0
  C  C155  1  0.23550000  0.45897000  0.28190000  1.0
  C  C156  1  0.81587000  0.07037000  0.78177000  1.0
  C  C157  1  0.68413000  0.92963000  0.28177000  1.0
  C  C158  1  0.18413000  0.57036000  0.71823000  1.0
  C  C159  1  0.31586000  0.42963000  0.21823000  1.0
  C  C160  1  0.89086000  0.01574000  0.83848000  1.0
  C  C161  1  0.60914000  0.98426000  0.33849000  1.0
  C  C162  1  0.10914000  0.51573000  0.66151000  1.0
  C  C163  1  0.39085000  0.48426000  0.16151000  1.0
  C  C164  1  0.88734000  0.93023000  0.83337000  1.0
  C  C165  1  0.61266000  0.06977000  0.33337000  1.0
  C  C166  1  0.11266000  0.43022000  0.66666667  1.0
  C  C167  1  0.38734000  0.56977000  0.16663000  1.0
  C  C168  1  0.96460000  0.88371000  0.88834000  1.0
  C  C169  1  0.53541000  0.11630000  0.38834000  1.0
  C  C170  1  0.03540000  0.38370000  0.61165000  1.0
  C  C171  1  0.46460000  0.61629000  0.11166000  1.0
  C  C172  1  0.04349000  0.92367000  0.94706000  1.0
  C  C173  1  0.45652000  0.07634000  0.44707000  1.0
  C  C174  1  0.95651000  0.42366000  0.55293000  1.0
  C  C175  1  0.54349000  0.57633000  0.05294000  1.0
  C  C176  1  0.04061000  0.00912000  0.94923000  1.0
  C  C177  1  0.45939000  0.99089000  0.44923000  1.0
  C  C178  1  0.95939000  0.50911000  0.55077000  1.0
  C  C179  1  0.54060000  0.49088000  0.05077000  1.0
  S  S180  1  0.23514000  0.24957000  0.79365000  1.0
  S  S181  1  0.26486000  0.75042000  0.29366000  1.0
  S  S182  1  0.76486000  0.74957000  0.70635000  1.0
  S  S183  1  0.73514000  0.25043000  0.20635000  1.0
  N  N184  1  0.13064000  0.26371000  0.86799000  1.0
  N  N185  1  0.36937000  0.73629000  0.36800000  1.0
  N  N186  1  0.86936000  0.76371000  0.63201000  1.0
  N  N187  1  0.63064000  0.23629000  0.13201000  1.0
  N  N188  1  0.85167000  0.53483000  0.91345000  1.0
  N  N189  1  0.64833000  0.46517000  0.41345000  1.0
  N  N190  1  0.14832000  0.03483000  0.58655000  1.0
  N  N191  1  0.35168000  0.96517000  0.08655000  1.0
  N  N192  1  0.82819000  0.15152000  0.79555000  1.0
  N  N193  1  0.67181000  0.84848000  0.29555000  1.0
  N  N194  1  0.17180000  0.65152000  0.70445000  1.0
  N  N195  1  0.32819000  0.34848000  0.20445000  1.0
  N  N196  1  0.96521000  0.05373000  0.89649000  1.0
  N  N197  1  0.53478000  0.94628000  0.39649000  1.0
  N  N198  1  0.03478000  0.55372000  0.60351000  1.0
  N  N199  1  0.46521000  0.44628000  0.10351000  1.0
  O  O200  1  0.07884000  0.18518000  0.99941000  1.0
  O  O201  1  0.42115000  0.81482000  0.49941000  1.0
  O  O202  1  0.92116000  0.68518000  0.50060000  1.0
  O  O203  1  0.57885000  0.31482000  0.00059000  1.0
  O  O204  1  0.25027000  0.26195000  0.06551000  1.0
  O  O205  1  0.24972000  0.73805000  0.56552000  1.0
  O  O206  1  0.74973000  0.76195000  0.43449000  1.0
  O  O207  1  0.75027000  0.23804000  0.93448000  1.0
  O  O208  1  0.09453000  0.55132000  0.97364000  1.0
  O  O209  1  0.40547000  0.44868000  0.47365000  1.0
  O  O210  1  0.90546000  0.05132000  0.52635000  1.0
  O  O211  1  0.59454000  0.94868000  0.02636000  1.0
  O  O212  1  0.12433000  0.24813000  0.72980000  1.0
  O  O213  1  0.37567000  0.75187000  0.22980000  1.0
  O  O214  1  0.87567000  0.74813000  0.77020000  1.0
  O  O215  1  0.62433000  0.25187000  0.27020000  1.0
  O  O216  1  0.37353000  0.30639000  0.79088000  1.0
  O  O217  1  0.12647000  0.69360000  0.29088000  1.0
  O  O218  1  0.62647000  0.80640000  0.70912000  1.0
  O  O219  1  0.87352000  0.19361000  0.20912000  1.0
