# generated using pymatgen
data_CoH7C7NO5
_symmetry_space_group_name_H-M   'P 1'
_cell_length_a   9.05666000
_cell_length_b   9.46004000
_cell_length_c   12.30250000
_cell_angle_alpha   95.21930000
_cell_angle_beta   104.43100000
_cell_angle_gamma   113.78600000
_symmetry_Int_Tables_number   1
_chemical_formula_structural   CoH7C7NO5
_chemical_formula_sum   'Co4 H28 C28 N4 O20'
_cell_volume   912.00507642
_cell_formula_units_Z   4
loop_
 _symmetry_equiv_pos_site_id
 _symmetry_equiv_pos_as_xyz
  1  'x, y, z'
loop_
 _atom_site_type_symbol
 _atom_site_label
 _atom_site_symmetry_multiplicity
 _atom_site_fract_x
 _atom_site_fract_y
 _atom_site_fract_z
 _atom_site_occupancy
  Co  Co0  1  0.87857000  0.00209000  0.21610000  1.0
  Co  Co1  1  0.12143000  0.99791000  0.78391000  1.0
  Co  Co2  1  0.49999000  0.00000000  0.00000000  1.0
  Co  Co3  1  0.00000000  0.50000000  0.99999000  1.0
  H  H4  1  0.74559000  0.38643000  0.33511000  1.0
  H  H5  1  0.25442000  0.61358000  0.66488000  1.0
  H  H6  1  0.64667000  0.48716000  0.19574000  1.0
  H  H7  1  0.35333000  0.51284000  0.80425000  1.0
  H  H8  1  0.36289000  0.38666000  0.09567000  1.0
  H  H9  1  0.63711000  0.61334000  0.90432000  1.0
  H  H10  1  0.39690000  0.37601000  0.29291000  1.0
  H  H11  1  0.60312000  0.62400000  0.70709000  1.0
  H  H12  1  0.43319000  0.07008000  0.25987000  1.0
  H  H13  1  0.56682000  0.92992000  0.74013000  1.0
  H  H14  1  0.51322000  0.21459000  0.38916000  1.0
  H  H15  1  0.48680000  0.78542000  0.61084000  1.0
  H  H16  1  0.01052000  0.87195000  0.39953000  1.0
  H  H17  1  0.98950000  0.12808000  0.60051000  1.0
  H  H18  1  0.90005000  0.68957000  0.52675000  1.0
  H  H19  1  0.09996000  0.31045000  0.47328000  1.0
  H  H20  1  0.39603000  0.63062000  0.34635000  1.0
  H  H21  1  0.60398000  0.36935000  0.65365000  1.0
  H  H22  1  0.52705000  0.81256000  0.22444000  1.0
  H  H23  1  0.47296000  0.18741000  0.77556000  1.0
  H  H24  1  0.84339000  0.17048000  0.94901000  1.0
  H  H25  1  0.15660000  0.82953000  0.05098000  1.0
  H  H26  1  0.12084000  0.37376000  0.15624000  1.0
  H  H27  1  0.87914000  0.62623000  0.84375000  1.0
  H  H28  1  0.02505000  0.24037000  0.93230000  1.0
  H  H29  1  0.97495000  0.75963000  0.06769000  1.0
  H  H30  1  0.26531000  0.54142000  0.15498000  1.0
  H  H31  1  0.73468000  0.45856000  0.84501000  1.0
  C  C32  1  0.67287000  0.35182000  0.06382000  1.0
  C  C33  1  0.32712000  0.64817000  0.93616000  1.0
  C  C34  1  0.29662000  0.14767000  0.02827000  1.0
  C  C35  1  0.70338000  0.85233000  0.97173000  1.0
  C  C36  1  0.18003000  0.16156000  0.22612000  1.0
  C  C37  1  0.81998000  0.83845000  0.77389000  1.0
  C  C38  1  0.73356000  0.18098000  0.24542000  1.0
  C  C39  1  0.26645000  0.81902000  0.75458000  1.0
  C  C40  1  0.65113000  0.28766000  0.26409000  1.0
  C  C41  1  0.34887000  0.71234000  0.73590000  1.0
  C  C42  1  0.59496000  0.36017000  0.15964000  1.0
  C  C43  1  0.40504000  0.63983000  0.84035000  1.0
  C  C44  1  0.39848000  0.29513000  0.12444000  1.0
  C  C45  1  0.60152000  0.70487000  0.87556000  1.0
  C  C46  1  0.36430000  0.26130000  0.23915000  1.0
  C  C47  1  0.63571000  0.73871000  0.76086000  1.0
  C  C48  1  0.48775000  0.19729000  0.29578000  1.0
  C  C49  1  0.51226000  0.80272000  0.70422000  1.0
  C  C50  1  0.87537000  0.81418000  0.39022000  1.0
  C  C51  1  0.12463000  0.18584000  0.60981000  1.0
  C  C52  1  0.81368000  0.71261000  0.45971000  1.0
  C  C53  1  0.18632000  0.28741000  0.54031000  1.0
  C  C54  1  0.63813000  0.64141000  0.44366000  1.0
  C  C55  1  0.36187000  0.35860000  0.55636000  1.0
  C  C56  1  0.53201000  0.67998000  0.35871000  1.0
  C  C57  1  0.46799000  0.32000000  0.64130000  1.0
  C  C58  1  0.60387000  0.78162000  0.29256000  1.0
  C  C59  1  0.39613000  0.21837000  0.70744000  1.0
  N  N60  1  0.58161000  0.53653000  0.51331000  1.0
  N  N61  1  0.41839000  0.46347000  0.48670000  1.0
  N  N62  1  0.77328000  0.84839000  0.30707000  1.0
  N  N63  1  0.22674000  0.15162000  0.69295000  1.0
  O  O64  1  0.60200000  0.23079000  0.98115000  1.0
  O  O65  1  0.39798000  0.76919000  0.01884000  1.0
  O  O66  1  0.80997000  0.47164000  0.07303000  1.0
  O  O67  1  0.19002000  0.52836000  0.92695000  1.0
  O  O68  1  0.30894000  0.02113000  0.04727000  1.0
  O  O69  1  0.69106000  0.97887000  0.95274000  1.0
  O  O70  1  0.20350000  0.15536000  0.93481000  1.0
  O  O71  1  0.79650000  0.84464000  0.06519000  1.0
  O  O72  1  0.06704000  0.18951000  0.15827000  1.0
  O  O73  1  0.93296000  0.81049000  0.84173000  1.0
  O  O74  1  0.13380000  0.05296000  0.28187000  1.0
  O  O75  1  0.86622000  0.94706000  0.71815000  1.0
  O  O76  1  0.65543000  0.05458000  0.16439000  1.0
  O  O77  1  0.34455000  0.94539000  0.83561000  1.0
  O  O78  1  0.87787000  0.20760000  0.31160000  1.0
  O  O79  1  0.12213000  0.79239000  0.68839000  1.0
  O  O80  1  0.92812000  0.26292000  0.93137000  1.0
  O  O81  1  0.07187000  0.73708000  0.06862000  1.0
  O  O82  1  0.14824000  0.48842000  0.15502000  1.0
  O  O83  1  0.85174000  0.51156000  0.84496000  1.0
