# generated using pymatgen
data_CdH10C11S2N4O3
_symmetry_space_group_name_H-M   'P 1'
_cell_length_a   7.22558000
_cell_length_b   8.75701000
_cell_length_c   33.11210000
_cell_angle_alpha   86.24010000
_cell_angle_beta   89.99950000
_cell_angle_gamma   89.99910000
_symmetry_Int_Tables_number   1
_chemical_formula_structural   CdH10C11S2N4O3
_chemical_formula_sum   'Cd4 H40 C44 S8 N16 O12'
_cell_volume   2090.64120004
_cell_formula_units_Z   4
loop_
 _symmetry_equiv_pos_site_id
 _symmetry_equiv_pos_as_xyz
  1  'x, y, z'
loop_
 _atom_site_type_symbol
 _atom_site_label
 _atom_site_symmetry_multiplicity
 _atom_site_fract_x
 _atom_site_fract_y
 _atom_site_fract_z
 _atom_site_occupancy
  Cd  Cd0  1  0.43544000  0.19004000  0.21498000  1.0
  Cd  Cd1  1  0.93543000  0.30996000  0.28502000  1.0
  Cd  Cd2  1  0.56456000  0.80995000  0.78502000  1.0
  Cd  Cd3  1  0.06456000  0.69004000  0.71498000  1.0
  H  H4  1  0.72028000  0.62398000  0.11494000  1.0
  H  H5  1  0.22028000  0.87602000  0.38506000  1.0
  H  H6  1  0.27970000  0.37601000  0.88506000  1.0
  H  H7  1  0.77974000  0.12398000  0.61494000  1.0
  H  H8  1  0.70673000  0.87576000  0.20816000  1.0
  H  H9  1  0.20671000  0.62424000  0.29183000  1.0
  H  H10  1  0.29325000  0.12425000  0.79183000  1.0
  H  H11  1  0.79331000  0.37576000  0.70817000  1.0
  H  H12  1  0.12465000  0.89567000  0.20442000  1.0
  H  H13  1  0.62463000  0.60435000  0.29558000  1.0
  H  H14  1  0.87533000  0.10433000  0.79558000  1.0
  H  H15  1  0.37539000  0.39566000  0.70441000  1.0
  H  H16  1  0.23439000  0.59276000  0.19573000  1.0
  H  H17  1  0.73439000  0.90725000  0.30428000  1.0
  H  H18  1  0.76559000  0.40723000  0.80427000  1.0
  H  H19  1  0.26564000  0.09276000  0.69572000  1.0
  H  H20  1  0.60860000  0.48420000  0.22355000  1.0
  H  H21  1  0.10860000  0.01580000  0.27645000  1.0
  H  H22  1  0.39137000  0.51580000  0.77645000  1.0
  H  H23  1  0.89143000  0.98420000  0.72355000  1.0
  H  H24  1  0.77082000  0.60313000  0.19658000  1.0
  H  H25  1  0.27081000  0.89687000  0.30342000  1.0
  H  H26  1  0.22917000  0.39686000  0.80342000  1.0
  H  H27  1  0.72921000  0.10314000  0.69658000  1.0
  H  H28  1  0.30940000  0.11169000  0.12115000  1.0
  H  H29  1  0.80938000  0.38832000  0.37886000  1.0
  H  H30  1  0.69060000  0.88829000  0.87885000  1.0
  H  H31  1  0.19060000  0.61168000  0.62114000  1.0
  H  H32  1  0.33975000  0.09241000  0.04622000  1.0
  H  H33  1  0.83974000  0.40759000  0.45379000  1.0
  H  H34  1  0.66026000  0.90757000  0.95378000  1.0
  H  H35  1  0.16024000  0.59242000  0.54621000  1.0
  H  H36  1  0.51388000  0.28712000  0.00416000  1.0
  H  H37  1  0.01388000  0.21288000  0.49584000  1.0
  H  H38  1  0.48613000  0.71286000  0.99584000  1.0
  H  H39  1  0.98612000  0.78715000  0.50416000  1.0
  H  H40  1  0.66290000  0.50870000  0.03449000  1.0
  H  H41  1  0.16290000  0.99130000  0.46552000  1.0
  H  H42  1  0.33710000  0.49128000  0.96552000  1.0
  H  H43  1  0.83712000  0.00873000  0.53449000  1.0
  C  C44  1  0.56296000  0.84155000  0.20586000  1.0
  C  C45  1  0.06294000  0.65846000  0.29414000  1.0
  C  C46  1  0.43703000  0.15844000  0.79414000  1.0
  C  C47  1  0.93708000  0.34154000  0.70586000  1.0
  C  C48  1  0.26134000  0.84486000  0.20444000  1.0
  C  C49  1  0.76133000  0.65515000  0.29557000  1.0
  C  C50  1  0.73865000  0.15516000  0.79556000  1.0
  C  C51  1  0.23869000  0.34486000  0.70443000  1.0
  C  C52  1  0.31368000  0.69625000  0.19975000  1.0
  C  C53  1  0.81369000  0.80376000  0.30025000  1.0
  C  C54  1  0.68628000  0.30375000  0.80026000  1.0
  C  C55  1  0.18634000  0.19625000  0.69974000  1.0
  C  C56  1  0.62642000  0.56467000  0.19695000  1.0
  C  C57  1  0.12642000  0.93533000  0.30305000  1.0
  C  C58  1  0.37356000  0.43533000  0.80305000  1.0
  C  C59  1  0.87361000  0.06467000  0.69695000  1.0
  C  C60  1  0.58297000  0.48344000  0.15992000  1.0
  C  C61  1  0.08297000  0.01656000  0.34008000  1.0
  C  C62  1  0.41701000  0.51656000  0.84008000  1.0
  C  C63  1  0.91704000  0.98344000  0.65992000  1.0
  C  C64  1  0.47172000  0.31975000  0.11944000  1.0
  C  C65  1  0.97170000  0.18025000  0.38056000  1.0
  C  C66  1  0.52828000  0.68023000  0.88056000  1.0
  C  C67  1  0.02828000  0.81974000  0.61944000  1.0
  C  C68  1  0.38707000  0.19580000  0.10231000  1.0
  C  C69  1  0.88706000  0.30421000  0.39769000  1.0
  C  C70  1  0.61293000  0.80419000  0.89769000  1.0
  C  C71  1  0.11293000  0.69580000  0.60231000  1.0
  C  C72  1  0.40411000  0.18736000  0.06067000  1.0
  C  C73  1  0.90411000  0.31264000  0.43934000  1.0
  C  C74  1  0.59588000  0.81262000  0.93933000  1.0
  C  C75  1  0.09590000  0.68737000  0.56066000  1.0
  C  C76  1  0.50233000  0.29891000  0.03664000  1.0
  C  C77  1  0.00233000  0.20109000  0.46337000  1.0
  C  C78  1  0.49767000  0.70107000  0.96337000  1.0
  C  C79  1  0.99766000  0.79892000  0.53663000  1.0
  C  C80  1  0.58606000  0.42377000  0.05325000  1.0
  C  C81  1  0.08605000  0.07622000  0.44675000  1.0
  C  C82  1  0.41395000  0.57621000  0.94675000  1.0
  C  C83  1  0.91395000  0.92379000  0.55325000  1.0
  C  C84  1  0.56838000  0.43208000  0.09500000  1.0
  C  C85  1  0.06838000  0.06792000  0.40500000  1.0
  C  C86  1  0.43161000  0.56791000  0.90500000  1.0
  C  C87  1  0.93163000  0.93209000  0.59500000  1.0
  S  S88  1  0.80282000  0.16014000  0.22929000  1.0
  S  S89  1  0.30281000  0.33987000  0.27071000  1.0
  S  S90  1  0.19718000  0.83986000  0.77071000  1.0
  S  S91  1  0.69718000  0.66013000  0.72929000  1.0
  S  S92  1  0.96916000  0.25639000  0.18041000  1.0
  S  S93  1  0.46916000  0.24362000  0.31959000  1.0
  S  S94  1  0.03083000  0.74361000  0.81959000  1.0
  S  S95  1  0.53085000  0.75639000  0.68041000  1.0
  N  N96  1  0.41786000  0.93400000  0.20825000  1.0
  N  N97  1  0.91786000  0.56602000  0.29175000  1.0
  N  N98  1  0.58213000  0.06600000  0.79175000  1.0
  N  N99  1  0.08217000  0.43399000  0.70824000  1.0
  N  N100  1  0.50542000  0.69684000  0.20063000  1.0
  N  N101  1  0.00542000  0.80317000  0.29937000  1.0
  N  N102  1  0.49454000  0.30316000  0.79937000  1.0
  N  N103  1  0.99461000  0.19683000  0.70063000  1.0
  N  N104  1  0.63414000  0.53466000  0.12172000  1.0
  N  N105  1  0.13414000  0.96534000  0.37829000  1.0
  N  N106  1  0.36585000  0.46533000  0.87829000  1.0
  N  N107  1  0.86587000  0.03466000  0.62172000  1.0
  N  N108  1  0.48354000  0.35630000  0.15955000  1.0
  N  N109  1  0.98353000  0.14370000  0.34045000  1.0
  N  N110  1  0.51645000  0.64369000  0.84046000  1.0
  N  N111  1  0.01646000  0.85629000  0.65954000  1.0
  O  O112  1  0.86575000  0.23661000  0.14351000  1.0
  O  O113  1  0.36575000  0.26342000  0.35649000  1.0
  O  O114  1  0.13423000  0.76339000  0.85649000  1.0
  O  O115  1  0.63426000  0.73658000  0.64351000  1.0
  O  O116  1  0.13717000  0.15958000  0.18364000  1.0
  O  O117  1  0.63716000  0.34043000  0.31636000  1.0
  O  O118  1  0.86282000  0.84042000  0.81636000  1.0
  O  O119  1  0.36283000  0.65959000  0.68364000  1.0
  O  O120  1  0.00559000  0.41595000  0.18948000  1.0
  O  O121  1  0.50559000  0.08406000  0.31052000  1.0
  O  O122  1  0.99440000  0.58405000  0.81051000  1.0
  O  O123  1  0.49443000  0.91595000  0.68948000  1.0
