# generated using pymatgen
data_MgH8C14O3
_symmetry_space_group_name_H-M   'P 1'
_cell_length_a   6.76741000
_cell_length_b   32.04470000
_cell_length_c   32.04110000
_cell_angle_alpha   119.50800000
_cell_angle_beta   94.03170000
_cell_angle_gamma   94.03270000
_symmetry_Int_Tables_number   1
_chemical_formula_structural   MgH8C14O3
_chemical_formula_sum   'Mg6 H48 C84 O18'
_cell_volume   5987.90862049
_cell_formula_units_Z   6
loop_
 _symmetry_equiv_pos_site_id
 _symmetry_equiv_pos_as_xyz
  1  'x, y, z'
loop_
 _atom_site_type_symbol
 _atom_site_label
 _atom_site_symmetry_multiplicity
 _atom_site_fract_x
 _atom_site_fract_y
 _atom_site_fract_z
 _atom_site_occupancy
  Mg  Mg0  1  0.00496000  0.67744000  0.30691000  1.0
  Mg  Mg1  1  0.69805000  0.69305000  0.37049000  1.0
  Mg  Mg2  1  0.32754000  0.62948000  0.32255000  1.0
  Mg  Mg3  1  0.66628000  0.32286000  0.69332000  1.0
  Mg  Mg4  1  0.97296000  0.30662000  0.62949000  1.0
  Mg  Mg5  1  0.34349000  0.37045000  0.67709000  1.0
  H  H6  1  0.18910000  0.17459000  0.54133000  1.0
  H  H7  1  0.64804000  0.45870000  0.63325000  1.0
  H  H8  1  0.01426000  0.36673000  0.82538000  1.0
  H  H9  1  0.21459000  0.11871000  0.45183000  1.0
  H  H10  1  0.76261000  0.54818000  0.66688000  1.0
  H  H11  1  0.09555000  0.33313000  0.88138000  1.0
  H  H12  1  0.12756000  0.05333000  0.42698000  1.0
  H  H13  1  0.70052000  0.57299000  0.62629000  1.0
  H  H14  1  0.07430000  0.37370000  0.94679000  1.0
  H  H15  1  0.55236000  0.93984000  0.45235000  1.0
  H  H16  1  0.10061000  0.54762000  0.48747000  1.0
  H  H17  1  0.61251000  0.51251000  0.06017000  1.0
  H  H18  1  0.54249000  0.01425000  0.44653000  1.0
  H  H19  1  0.09645000  0.55346000  0.56772000  1.0
  H  H20  1  0.52809000  0.43225000  0.98576000  1.0
  H  H21  1  0.56933000  0.94760000  0.56801000  1.0
  H  H22  1  0.00153000  0.43195000  0.37953000  1.0
  H  H23  1  0.62161000  0.62048000  0.05241000  1.0
  H  H24  1  0.49320000  0.88188000  0.54380000  1.0
  H  H25  1  0.94908000  0.45611000  0.33799000  1.0
  H  H26  1  0.61067000  0.66198000  0.11813000  1.0
  H  H27  1  0.48580000  0.82612000  0.45720000  1.0
  H  H28  1  0.02861000  0.54276000  0.36884000  1.0
  H  H29  1  0.65950000  0.63112000  0.17384000  1.0
  H  H30  1  0.77077000  0.81851000  0.40544000  1.0
  H  H31  1  0.36540000  0.59456000  0.41310000  1.0
  H  H32  1  0.95225000  0.58690000  0.18153000  1.0
  H  H33  1  0.96014000  0.89703000  0.46653000  1.0
  H  H34  1  0.49376000  0.53345000  0.43049000  1.0
  H  H35  1  0.06289000  0.56951000  0.10300000  1.0
  H  H36  1  0.08680000  0.95204000  0.56255000  1.0
  H  H37  1  0.52461000  0.43760000  0.38954000  1.0
  H  H38  1  0.13466000  0.61051000  0.04798000  1.0
  H  H39  1  0.85977000  0.01169000  0.60841000  1.0
  H  H40  1  0.25150000  0.39183000  0.40336000  1.0
  H  H41  1  0.84781000  0.59667000  0.98839000  1.0
  H  H42  1  0.85087000  0.08662000  0.60290000  1.0
  H  H43  1  0.24818000  0.39727000  0.48377000  1.0
  H  H44  1  0.76412000  0.51626000  0.91345000  1.0
  H  H45  1  0.06880000  0.10150000  0.55157000  1.0
  H  H46  1  0.51755000  0.44848000  0.54996000  1.0
  H  H47  1  0.96733000  0.45007000  0.89850000  1.0
  H  H48  1  0.70957000  0.10284000  0.53463000  1.0
  H  H49  1  0.17566000  0.46545000  0.56834000  1.0
  H  H50  1  0.60646000  0.43170000  0.89716000  1.0
  H  H51  1  0.89902000  0.18133000  0.59657000  1.0
  H  H52  1  0.30281000  0.40343000  0.58483000  1.0
  H  H53  1  0.71753000  0.41519000  0.81867000  1.0
  C  C54  1  0.65339000  0.22261000  0.60501000  1.0
  C  C55  1  0.04849000  0.39496000  0.61759000  1.0
  C  C56  1  0.43067000  0.38237000  0.77737000  1.0
  C  C57  1  0.44730000  0.21966000  0.58907000  1.0
  C  C58  1  0.85839000  0.41091000  0.63057000  1.0
  C  C59  1  0.22755000  0.36938000  0.78030000  1.0
  C  C60  1  0.34543000  0.17522000  0.55270000  1.0
  C  C61  1  0.79304000  0.44732000  0.62253000  1.0
  C  C62  1  0.16999000  0.37745000  0.82475000  1.0
  C  C63  1  0.43550000  0.13297000  0.53207000  1.0
  C  C64  1  0.90381000  0.46798000  0.60096000  1.0
  C  C65  1  0.30220000  0.39907000  0.86702000  1.0
  C  C66  1  0.32261000  0.08743000  0.49264000  1.0
  C  C67  1  0.83035000  0.50739000  0.59482000  1.0
  C  C68  1  0.23494000  0.40520000  0.91258000  1.0
  C  C69  1  0.21569000  0.08643000  0.45513000  1.0
  C  C70  1  0.76062000  0.54487000  0.63130000  1.0
  C  C71  1  0.12907000  0.36872000  0.91364000  1.0
  C  C72  1  0.32753000  0.04295000  0.49638000  1.0
  C  C73  1  0.83162000  0.50366000  0.54660000  1.0
  C  C74  1  0.28450000  0.45342000  0.95706000  1.0
  C  C75  1  0.20436000  0.03538000  0.52715000  1.0
  C  C76  1  0.67762000  0.47293000  0.50827000  1.0
  C  C77  1  0.16905000  0.49176000  0.96463000  1.0
  C  C78  1  0.20910000  0.99219000  0.53028000  1.0
  C  C79  1  0.67927000  0.46980000  0.46194000  1.0
  C  C80  1  0.21697000  0.53809000  0.00782000  1.0
  C  C81  1  0.33838000  0.95777000  0.50290000  1.0
  C  C82  1  0.83603000  0.49712000  0.45488000  1.0
  C  C83  1  0.38069000  0.54512000  0.04221000  1.0
  C  C84  1  0.45397000  0.96621000  0.47326000  1.0
  C  C85  1  0.98130000  0.52673000  0.49295000  1.0
  C  C86  1  0.48779000  0.50703000  0.03378000  1.0
  C  C87  1  0.44872000  0.00845000  0.46999000  1.0
  C  C88  1  0.97924000  0.53001000  0.53846000  1.0
  C  C89  1  0.44022000  0.46153000  0.99156000  1.0
  C  C90  1  0.35436000  0.91304000  0.50591000  1.0
  C  C91  1  0.84876000  0.49408000  0.40711000  1.0
  C  C92  1  0.44122000  0.59286000  0.08693000  1.0
  C  C93  1  0.47910000  0.91420000  0.54111000  1.0
  C  C94  1  0.93806000  0.45884000  0.37302000  1.0
  C  C95  1  0.56457000  0.62696000  0.08580000  1.0
  C  C96  1  0.23789000  0.86744000  0.46773000  1.0
  C  C97  1  0.77024000  0.53224000  0.39968000  1.0
  C  C98  1  0.37027000  0.60028000  0.13254000  1.0
  C  C99  1  0.32819000  0.82518000  0.44667000  1.0
  C  C100  1  0.88152000  0.55329000  0.37845000  1.0
  C  C101  1  0.50286000  0.62150000  0.17479000  1.0
  C  C102  1  0.22526000  0.78055000  0.41097000  1.0
  C  C103  1  0.81426000  0.58899000  0.36953000  1.0
  C  C104  1  0.44463000  0.63043000  0.21943000  1.0
  C  C105  1  0.01826000  0.77745000  0.39572000  1.0
  C  C106  1  0.62246000  0.60425000  0.38171000  1.0
  C  C107  1  0.24076000  0.61826000  0.22255000  1.0
  C  C108  1  0.92845000  0.82069000  0.41699000  1.0
  C  C109  1  0.51149000  0.58300000  0.40369000  1.0
  C  C110  1  0.10770000  0.59629000  0.17933000  1.0
  C  C111  1  0.03530000  0.86449000  0.45132000  1.0
  C  C112  1  0.58408000  0.54865000  0.41314000  1.0
  C  C113  1  0.17069000  0.58682000  0.13552000  1.0
  C  C114  1  0.34068000  0.73902000  0.39096000  1.0
  C  C115  1  0.94969000  0.60901000  0.34804000  1.0
  C  C116  1  0.60167000  0.65191000  0.26094000  1.0
  C  C117  1  0.08247000  0.98478000  0.56020000  1.0
  C  C118  1  0.52257000  0.43994000  0.42463000  1.0
  C  C119  1  0.09758000  0.57540000  0.01526000  1.0
  C  C120  1  0.95635000  0.01807000  0.58575000  1.0
  C  C121  1  0.37079000  0.41444000  0.43238000  1.0
  C  C122  1  0.93808000  0.56765000  0.98199000  1.0
  C  C123  1  0.95158000  0.06053000  0.58272000  1.0
  C  C124  1  0.36907000  0.41743000  0.47786000  1.0
  C  C125  1  0.89094000  0.52217000  0.93951000  1.0
  C  C126  1  0.07298000  0.06888000  0.55411000  1.0
  C  C127  1  0.51916000  0.44598000  0.51480000  1.0
  C  C128  1  0.00410000  0.48523000  0.93113000  1.0
  C  C129  1  0.63598000  0.13559000  0.54950000  1.0
  C  C130  1  0.08696000  0.45055000  0.58618000  1.0
  C  C131  1  0.50012000  0.41384000  0.86439000  1.0
  C  C132  1  0.74232000  0.17925000  0.58428000  1.0
  C  C133  1  0.15838000  0.41573000  0.59501000  1.0
  C  C134  1  0.56289000  0.40499000  0.82074000  1.0
  C  C135  1  0.33115000  0.26099000  0.60916000  1.0
  C  C136  1  0.72207000  0.39081000  0.65180000  1.0
  C  C137  1  0.07017000  0.34812000  0.73894000  1.0
  O  O138  1  0.52115000  0.74310000  0.40796000  1.0
  O  O139  1  0.11320000  0.59202000  0.33513000  1.0
  O  O140  1  0.77808000  0.66479000  0.25682000  1.0
  O  O141  1  0.25589000  0.69831000  0.35503000  1.0
  O  O142  1  0.90090000  0.64495000  0.34326000  1.0
  O  O143  1  0.55765000  0.65668000  0.30165000  1.0
  O  O144  1  0.90782000  0.73613000  0.36248000  1.0
  O  O145  1  0.54531000  0.63751000  0.37366000  1.0
  O  O146  1  0.17169000  0.62632000  0.26387000  1.0
  O  O147  1  0.15041000  0.25670000  0.59220000  1.0
  O  O148  1  0.55825000  0.40776000  0.66447000  1.0
  O  O149  1  0.89372000  0.33541000  0.74320000  1.0
  O  O150  1  0.41521000  0.30169000  0.64522000  1.0
  O  O151  1  0.77004000  0.35473000  0.65643000  1.0
  O  O152  1  0.11361000  0.34351000  0.69825000  1.0
  O  O153  1  0.76383000  0.26387000  0.63830000  1.0
  O  O154  1  0.12559000  0.36163000  0.62551000  1.0
  O  O155  1  0.49999000  0.37442000  0.73611000  1.0
