# generated using pymatgen
data_SrH7C11N2ClO5
_symmetry_space_group_name_H-M   'P 1'
_cell_length_a   6.64806000
_cell_length_b   12.72260000
_cell_length_c   14.29900000
_cell_angle_alpha   94.68520000
_cell_angle_beta   90.00000000
_cell_angle_gamma   90.00000000
_symmetry_Int_Tables_number   1
_chemical_formula_structural   SrH7C11N2ClO5
_chemical_formula_sum   'Sr4 H28 C44 N8 Cl4 O20'
_cell_volume   1205.37686837
_cell_formula_units_Z   4
loop_
 _symmetry_equiv_pos_site_id
 _symmetry_equiv_pos_as_xyz
  1  'x, y, z'
loop_
 _atom_site_type_symbol
 _atom_site_label
 _atom_site_symmetry_multiplicity
 _atom_site_fract_x
 _atom_site_fract_y
 _atom_site_fract_z
 _atom_site_occupancy
  Sr  Sr0  1  0.05967000  0.66700000  0.96857000  1.0
  Sr  Sr1  1  0.55966000  0.83300000  0.03143000  1.0
  Sr  Sr2  1  0.94034000  0.33300000  0.03143000  1.0
  Sr  Sr3  1  0.44034000  0.16700000  0.96857000  1.0
  H  H4  1  0.43064000  0.99919000  0.37845000  1.0
  H  H5  1  0.93065000  0.50081000  0.62155000  1.0
  H  H6  1  0.56935000  0.00081000  0.62155000  1.0
  H  H7  1  0.06935000  0.49919000  0.37844000  1.0
  H  H8  1  0.30823000  0.30104000  0.27371000  1.0
  H  H9  1  0.80823000  0.19896000  0.72628000  1.0
  H  H10  1  0.69177000  0.69896000  0.72628000  1.0
  H  H11  1  0.19178000  0.80104000  0.27372000  1.0
  H  H12  1  0.68246000  0.08338000  0.48912000  1.0
  H  H13  1  0.18246000  0.41662000  0.51088000  1.0
  H  H14  1  0.31753000  0.91662000  0.51088000  1.0
  H  H15  1  0.81753000  0.58338000  0.48912000  1.0
  H  H16  1  0.74765000  0.27652000  0.49276000  1.0
  H  H17  1  0.24765000  0.22348000  0.50724000  1.0
  H  H18  1  0.25234000  0.72348000  0.50724000  1.0
  H  H19  1  0.75234000  0.77652000  0.49275000  1.0
  H  H20  1  0.17080000  0.62151000  0.74289000  1.0
  H  H21  1  0.67080000  0.87849000  0.25711000  1.0
  H  H22  1  0.82920000  0.37849000  0.25711000  1.0
  H  H23  1  0.32920000  0.12151000  0.74289000  1.0
  H  H24  1  0.34107000  0.94844000  0.21640000  1.0
  H  H25  1  0.84107000  0.55156000  0.78360000  1.0
  H  H26  1  0.65893000  0.05156000  0.78360000  1.0
  H  H27  1  0.15893000  0.44844000  0.21640000  1.0
  H  H28  1  0.03032000  0.72232000  0.76543000  1.0
  H  H29  1  0.53032000  0.77769000  0.23457000  1.0
  H  H30  1  0.96968000  0.27769000  0.23457000  1.0
  H  H31  1  0.46968000  0.22231000  0.76543000  1.0
  C  C32  1  0.05872000  0.88319000  0.08719000  1.0
  C  C33  1  0.55872000  0.61681000  0.91281000  1.0
  C  C34  1  0.94128000  0.11681000  0.91281000  1.0
  C  C35  1  0.44128000  0.38319000  0.08719000  1.0
  C  C36  1  0.93693000  0.06980000  0.16533000  1.0
  C  C37  1  0.43693000  0.43020000  0.83467000  1.0
  C  C38  1  0.06307000  0.93020000  0.83467000  1.0
  C  C39  1  0.56307000  0.56980000  0.16533000  1.0
  C  C40  1  0.05656000  0.97902000  0.15334000  1.0
  C  C41  1  0.55655000  0.52098000  0.84666000  1.0
  C  C42  1  0.94344000  0.02098000  0.84666000  1.0
  C  C43  1  0.44345000  0.47902000  0.15334000  1.0
  C  C44  1  0.20078000  0.09763000  0.25445000  1.0
  C  C45  1  0.70077000  0.40237000  0.74555000  1.0
  C  C46  1  0.79923000  0.90237000  0.74555000  1.0
  C  C47  1  0.29923000  0.59763000  0.25445000  1.0
  C  C48  1  0.34964000  0.14520000  0.32020000  1.0
  C  C49  1  0.84963000  0.35480000  0.67980000  1.0
  C  C50  1  0.65036000  0.85481000  0.67980000  1.0
  C  C51  1  0.15037000  0.64520000  0.32020000  1.0
  C  C52  1  0.45816000  0.08375000  0.38014000  1.0
  C  C53  1  0.95816000  0.41625000  0.61986000  1.0
  C  C54  1  0.54184000  0.91625000  0.61986000  1.0
  C  C55  1  0.04184000  0.58375000  0.38014000  1.0
  C  C56  1  0.38672000  0.25399000  0.32226000  1.0
  C  C57  1  0.88671000  0.24601000  0.67774000  1.0
  C  C58  1  0.61329000  0.74601000  0.67774000  1.0
  C  C59  1  0.11329000  0.75399000  0.32226000  1.0
  C  C60  1  0.59970000  0.13095000  0.44215000  1.0
  C  C61  1  0.09970000  0.36905000  0.55786000  1.0
  C  C62  1  0.40029000  0.86905000  0.55786000  1.0
  C  C63  1  0.90030000  0.63095000  0.44214000  1.0
  C  C64  1  0.53006000  0.29873000  0.38417000  1.0
  C  C65  1  0.03006000  0.20127000  0.61583000  1.0
  C  C66  1  0.46994000  0.70127000  0.61583000  1.0
  C  C67  1  0.96994000  0.79873000  0.38417000  1.0
  C  C68  1  0.63726000  0.23899000  0.44489000  1.0
  C  C69  1  0.13726000  0.26101000  0.55511000  1.0
  C  C70  1  0.36274000  0.76101000  0.55511000  1.0
  C  C71  1  0.86274000  0.73899000  0.44489000  1.0
  C  C72  1  0.74599000  0.09814000  0.11819000  1.0
  C  C73  1  0.24599000  0.40186000  0.88181000  1.0
  C  C74  1  0.25401000  0.90186000  0.88181000  1.0
  C  C75  1  0.75401000  0.59814000  0.11819000  1.0
  N  N76  1  0.03029000  0.14282000  0.22725000  1.0
  N  N77  1  0.53029000  0.35718000  0.77275000  1.0
  N  N78  1  0.96971000  0.85718000  0.77275000  1.0
  N  N79  1  0.46971000  0.64282000  0.22725000  1.0
  N  N80  1  0.22002000  0.99925000  0.21113000  1.0
  N  N81  1  0.72002000  0.50075000  0.78887000  1.0
  N  N82  1  0.77998000  0.00075000  0.78887000  1.0
  N  N83  1  0.27999000  0.49925000  0.21113000  1.0
  Cl  Cl84  1  0.58127000  0.43291000  0.38505000  1.0
  Cl  Cl85  1  0.08126000  0.06709000  0.61495000  1.0
  Cl  Cl86  1  0.41874000  0.56709000  0.61495000  1.0
  Cl  Cl87  1  0.91873000  0.93291000  0.38505000  1.0
  O  O88  1  0.92633000  0.86956000  0.02370000  1.0
  O  O89  1  0.42633000  0.63043000  0.97631000  1.0
  O  O90  1  0.07367000  0.13044000  0.97630000  1.0
  O  O91  1  0.57367000  0.36957000  0.02369000  1.0
  O  O92  1  0.20414000  0.81848000  0.09616000  1.0
  O  O93  1  0.70414000  0.68151000  0.90384000  1.0
  O  O94  1  0.79586000  0.18152000  0.90384000  1.0
  O  O95  1  0.29586000  0.31848000  0.09616000  1.0
  O  O96  1  0.71518000  0.19568000  0.11017000  1.0
  O  O97  1  0.21518000  0.30432000  0.88983000  1.0
  O  O98  1  0.28482000  0.80432000  0.88983000  1.0
  O  O99  1  0.78482000  0.69568000  0.11017000  1.0
  O  O100  1  0.62321000  0.02707000  0.08654000  1.0
  O  O101  1  0.12321000  0.47293000  0.91347000  1.0
  O  O102  1  0.37679000  0.97293000  0.91346000  1.0
  O  O103  1  0.87680000  0.52707000  0.08654000  1.0
  O  O104  1  0.04436000  0.64406000  0.77266000  1.0
  O  O105  1  0.54436000  0.85593000  0.22734000  1.0
  O  O106  1  0.95565000  0.35594000  0.22734000  1.0
  O  O107  1  0.45565000  0.14407000  0.77266000  1.0
