# generated using pymatgen
data_ZnH14C22NO8
_symmetry_space_group_name_H-M   'P 1'
_cell_length_a   13.98750000
_cell_length_b   15.26350000
_cell_length_c   19.52910000
_cell_angle_alpha   89.61070000
_cell_angle_beta   89.64720000
_cell_angle_gamma   87.82150000
_symmetry_Int_Tables_number   1
_chemical_formula_structural   ZnH14C22NO8
_chemical_formula_sum   'Zn2 H28 C44 N2 O16'
_cell_volume   4166.24559221
_cell_formula_units_Z   2
loop_
 _symmetry_equiv_pos_site_id
 _symmetry_equiv_pos_as_xyz
  1  'x, y, z'
loop_
 _atom_site_type_symbol
 _atom_site_label
 _atom_site_symmetry_multiplicity
 _atom_site_fract_x
 _atom_site_fract_y
 _atom_site_fract_z
 _atom_site_occupancy
  Zn  Zn0  1  0.59989000  0.47865000  0.49908000  1.0
  Zn  Zn1  1  0.39853000  0.48875000  0.50186000  1.0
  H  H2  1  0.35232000  0.61142000  0.83883000  1.0
  H  H3  1  0.35526000  0.21367000  0.47572000  1.0
  H  H4  1  0.65026000  0.20062000  0.53463000  1.0
  H  H5  1  0.35755000  0.76496000  0.54012000  1.0
  H  H6  1  0.06374000  0.53991000  0.39967000  1.0
  H  H7  1  0.93626000  0.35524000  0.55358000  1.0
  H  H8  1  0.07048000  0.42300000  0.60210000  1.0
  H  H9  1  0.92549000  0.60658000  0.44956000  1.0
  H  H10  1  0.24111000  0.54063000  0.40316000  1.0
  H  H11  1  0.75696000  0.35973000  0.55069000  1.0
  H  H12  1  0.24879000  0.42699000  0.59653000  1.0
  H  H13  1  0.65190000  0.50453000  0.15051000  1.0
  H  H14  1  0.74662000  0.60030000  0.45191000  1.0
  H  H15  1  0.34055000  0.54355000  0.66633000  1.0
  H  H16  1  0.65287000  0.45387000  0.32756000  1.0
  H  H17  1  0.36282000  0.57163000  0.34476000  1.0
  H  H18  1  0.64792000  0.47978000  0.66986000  1.0
  H  H19  1  0.64560000  0.64041000  0.88276000  1.0
  H  H20  1  0.30753000  0.48495000  0.04151000  1.0
  H  H21  1  0.69854000  0.66341000  0.03231000  1.0
  H  H22  1  0.35084000  0.50070000  0.89185000  1.0
  H  H23  1  0.36726000  0.62442000  0.16867000  1.0
  H  H24  1  0.64712000  0.51135000  0.84907000  1.0
  H  H25  1  0.64522000  0.91926000  0.46153000  1.0
  H  H26  1  0.35439000  0.05042000  0.47257000  1.0
  H  H27  1  0.64964000  0.03741000  0.53517000  1.0
  H  H28  1  0.35792000  0.92825000  0.54312000  1.0
  H  H29  1  0.64487000  0.75610000  0.46215000  1.0
  C  C30  1  0.49938000  0.65328000  0.50105000  1.0
  C  C31  1  0.50200000  0.03217000  0.50368000  1.0
  C  C32  1  0.10141000  0.51546000  0.44499000  1.0
  C  C33  1  0.89731000  0.41141000  0.53109000  1.0
  C  C34  1  0.10541000  0.44867000  0.55658000  1.0
  C  C35  1  0.89132000  0.55020000  0.47219000  1.0
  C  C36  1  0.20063000  0.51575000  0.44642000  1.0
  C  C37  1  0.79799000  0.41307000  0.52963000  1.0
  C  C38  1  0.20453000  0.45139000  0.55423000  1.0
  C  C39  1  0.79221000  0.54758000  0.47331000  1.0
  C  C40  1  0.05155000  0.48169000  0.50115000  1.0
  C  C41  1  0.50485000  0.31464000  0.50504000  1.0
  C  C42  1  0.94609000  0.48104000  0.50164000  1.0
  C  C43  1  0.50383000  0.49980000  0.36440000  1.0
  C  C44  1  0.49258000  0.49896000  0.63963000  1.0
  C  C45  1  0.41185000  0.55598000  0.74672000  1.0
  C  C46  1  0.58945000  0.50426000  0.25099000  1.0
  C  C47  1  0.42817000  0.57130000  0.26083000  1.0
  C  C48  1  0.58180000  0.51303000  0.75017000  1.0
  C  C49  1  0.41509000  0.57841000  0.81601000  1.0
  C  C50  1  0.58959000  0.52398000  0.18119000  1.0
  C  C51  1  0.42973000  0.59132000  0.19128000  1.0
  C  C52  1  0.58242000  0.79460000  0.47979000  1.0
  C  C53  1  0.58258000  0.52978000  0.82056000  1.0
  C  C54  1  0.49936000  0.56216000  0.85402000  1.0
  C  C55  1  0.50888000  0.56522000  0.15100000  1.0
  C  C56  1  0.49533000  0.52262000  0.71228000  1.0
  C  C57  1  0.50730000  0.52533000  0.29242000  1.0
  C  C58  1  0.57608000  0.60791000  0.96450000  1.0
  C  C59  1  0.42498000  0.54276000  0.04040000  1.0
  C  C60  1  0.57898000  0.60830000  0.03616000  1.0
  C  C61  1  0.42277000  0.54178000  0.96875000  1.0
  C  C62  1  0.50406000  0.57443000  0.07556000  1.0
  C  C63  1  0.41922000  0.17420000  0.48875000  1.0
  C  C64  1  0.49882000  0.57311000  0.92906000  1.0
  C  C65  1  0.58254000  0.88571000  0.48015000  1.0
  C  C66  1  0.41899000  0.08308000  0.48764000  1.0
  C  C67  1  0.58533000  0.07575000  0.52088000  1.0
  C  C68  1  0.42047000  0.89088000  0.52411000  1.0
  C  C69  1  0.58583000  0.16677000  0.52137000  1.0
  C  C70  1  0.42000000  0.79989000  0.52317000  1.0
  C  C71  1  0.50109000  0.75089000  0.50120000  1.0
  C  C72  1  0.50287000  0.21695000  0.50533000  1.0
  C  C73  1  0.50168000  0.93549000  0.50258000  1.0
  N  N74  1  0.25155000  0.48483000  0.50023000  1.0
  N  N75  1  0.74643000  0.48003000  0.50140000  1.0
  O  O76  1  0.57835000  0.61040000  0.48993000  1.0
  O  O77  1  0.66803000  0.46257000  0.27785000  1.0
  O  O78  1  0.34941000  0.59617000  0.29787000  1.0
  O  O79  1  0.66391000  0.48423000  0.71993000  1.0
  O  O80  1  0.65304000  0.64547000  0.93231000  1.0
  O  O81  1  0.35091000  0.50694000  0.07594000  1.0
  O  O82  1  0.65572000  0.64315000  0.06834000  1.0
  O  O83  1  0.34446000  0.50182000  0.94190000  1.0
  O  O84  1  0.42537000  0.35783000  0.49845000  1.0
  O  O85  1  0.58636000  0.34842000  0.51118000  1.0
  O  O86  1  0.41913000  0.61921000  0.51238000  1.0
  O  O87  1  0.57943000  0.46607000  0.39346000  1.0
  O  O88  1  0.41062000  0.49139000  0.61097000  1.0
  O  O89  1  0.57241000  0.48683000  0.60726000  1.0
  O  O90  1  0.42425000  0.51167000  0.39796000  1.0
  O  O91  1  0.32817000  0.56819000  0.71331000  1.0
