# generated using pymatgen
data_CsH10C15NO5
_symmetry_space_group_name_H-M   'P 1'
_cell_length_a   6.60259000
_cell_length_b   9.38908000
_cell_length_c   11.34330000
_cell_angle_alpha   79.48100000
_cell_angle_beta   89.99980000
_cell_angle_gamma   89.99950000
_symmetry_Int_Tables_number   1
_chemical_formula_structural   CsH10C15NO5
_chemical_formula_sum   'Cs2 H20 C30 N2 O10'
_cell_volume   691.37901476
_cell_formula_units_Z   2
loop_
 _symmetry_equiv_pos_site_id
 _symmetry_equiv_pos_as_xyz
  1  'x, y, z'
loop_
 _atom_site_type_symbol
 _atom_site_label
 _atom_site_symmetry_multiplicity
 _atom_site_fract_x
 _atom_site_fract_y
 _atom_site_fract_z
 _atom_site_occupancy
  Cs  Cs0  1  0.33015000  0.40750000  0.12267000  1.0
  Cs  Cs1  1  0.83015000  0.59250000  0.87733000  1.0
  H  H2  1  0.75300000  0.71751000  0.12502000  1.0
  H  H3  1  0.25301000  0.28250000  0.87498000  1.0
  H  H4  1  0.47620000  0.86198000  0.97736000  1.0
  H  H5  1  0.97621000  0.13802000  0.02264000  1.0
  H  H6  1  0.61569000  0.92040000  0.09394000  1.0
  H  H7  1  0.11570000  0.07960000  0.90606000  1.0
  H  H8  1  0.26604000  0.96426000  0.10399000  1.0
  H  H9  1  0.76605000  0.03575000  0.89601000  1.0
  H  H10  1  0.33262000  0.47860000  0.52132000  1.0
  H  H11  1  0.83264000  0.52140000  0.47867000  1.0
  H  H12  1  0.33720000  0.47244000  0.74191000  1.0
  H  H13  1  0.83720000  0.52756000  0.25809000  1.0
  H  H14  1  0.33651000  0.20702000  0.41768000  1.0
  H  H15  1  0.83651000  0.79298000  0.58232000  1.0
  H  H16  1  0.33935000  0.97499000  0.78230000  1.0
  H  H17  1  0.83933000  0.02500000  0.21770000  1.0
  H  H18  1  0.32828000  0.70450000  0.82146000  1.0
  H  H19  1  0.82826000  0.29550000  0.17854000  1.0
  H  H20  1  0.34315000  0.20509000  0.64013000  1.0
  H  H21  1  0.84314000  0.79490000  0.35987000  1.0
  C  C22  1  0.13168000  0.76037000  0.10512000  1.0
  C  C23  1  0.63169000  0.23963000  0.89488000  1.0
  C  C24  1  0.32409000  0.71006000  0.34589000  1.0
  C  C25  1  0.82410000  0.28994000  0.65411000  1.0
  C  C26  1  0.51210000  0.83564000  0.07414000  1.0
  C  C27  1  0.01211000  0.16435000  0.92586000  1.0
  C  C28  1  0.31121000  0.85122000  0.13811000  1.0
  C  C29  1  0.81122000  0.14878000  0.86189000  1.0
  C  C30  1  0.33129000  0.70982000  0.47608000  1.0
  C  C31  1  0.83129000  0.29018000  0.52392000  1.0
  C  C32  1  0.33202000  0.97845000  0.30811000  1.0
  C  C33  1  0.83202000  0.02156000  0.69189000  1.0
  C  C34  1  0.33347000  0.84210000  0.51930000  1.0
  C  C35  1  0.83347000  0.15790000  0.48070000  1.0
  C  C36  1  0.33305000  0.57908000  0.55651000  1.0
  C  C37  1  0.83306000  0.42092000  0.44349000  1.0
  C  C38  1  0.33422000  0.97597000  0.43816000  1.0
  C  C39  1  0.83422000  0.02403000  0.56184000  1.0
  C  C40  1  0.33375000  0.84050000  0.64554000  1.0
  C  C41  1  0.83374000  0.15949000  0.35446000  1.0
  C  C42  1  0.33439000  0.57661000  0.68106000  1.0
  C  C43  1  0.83439000  0.42339000  0.31894000  1.0
  C  C44  1  0.33560000  0.10507000  0.48147000  1.0
  C  C45  1  0.83559000  0.89493000  0.51853000  1.0
  C  C46  1  0.33600000  0.97455000  0.68624000  1.0
  C  C47  1  0.83598000  0.02545000  0.31376000  1.0
  C  C48  1  0.33286000  0.70493000  0.72495000  1.0
  C  C49  1  0.83285000  0.29507000  0.27505000  1.0
  C  C50  1  0.33717000  0.10421000  0.60572000  1.0
  C  C51  1  0.83716000  0.89578000  0.39428000  1.0
  N  N52  1  0.32826000  0.84513000  0.26866000  1.0
  N  N53  1  0.82827000  0.15487000  0.73134000  1.0
  O  O54  1  0.31260000  0.59681000  0.30546000  1.0
  O  O55  1  0.81261000  0.40319000  0.69454000  1.0
  O  O56  1  0.60845000  0.69832000  0.10196000  1.0
  O  O57  1  0.10845000  0.30168000  0.89804000  1.0
  O  O58  1  0.15436000  0.69792000  0.01637000  1.0
  O  O59  1  0.65436000  0.30208000  0.98363000  1.0
  O  O60  1  0.33178000  0.09340000  0.23417000  1.0
  O  O61  1  0.83177000  0.90659000  0.76583000  1.0
  O  O62  1  0.97075000  0.76473000  0.16623000  1.0
  O  O63  1  0.47076000  0.23527000  0.83377000  1.0
