# generated using pymatgen
data_Zn2H7C11NO7
_symmetry_space_group_name_H-M   'P 1'
_cell_length_a   10.36310000
_cell_length_b   13.18340000
_cell_length_c   19.76000000
_cell_angle_alpha   89.99400000
_cell_angle_beta   89.72040000
_cell_angle_gamma   89.99820000
_symmetry_Int_Tables_number   1
_chemical_formula_structural   Zn2H7C11NO7
_chemical_formula_sum   'Zn8 H28 C44 N4 O28'
_cell_volume   2699.59667632
_cell_formula_units_Z   4
loop_
 _symmetry_equiv_pos_site_id
 _symmetry_equiv_pos_as_xyz
  1  'x, y, z'
loop_
 _atom_site_type_symbol
 _atom_site_label
 _atom_site_symmetry_multiplicity
 _atom_site_fract_x
 _atom_site_fract_y
 _atom_site_fract_z
 _atom_site_occupancy
  Zn  Zn0  1  0.83470000  0.40820000  0.27216000  1.0
  Zn  Zn1  1  0.16526000  0.90827000  0.72786000  1.0
  Zn  Zn2  1  0.52591000  0.49633000  0.26942000  1.0
  Zn  Zn3  1  0.47410000  0.99634000  0.73059000  1.0
  Zn  Zn4  1  0.33529000  0.29209000  0.22739000  1.0
  Zn  Zn5  1  0.66469000  0.79201000  0.77257000  1.0
  Zn  Zn6  1  0.02623000  0.20419000  0.23163000  1.0
  Zn  Zn7  1  0.97378000  0.70415000  0.76834000  1.0
  H  H8  1  0.74093000  0.14346000  0.20371000  1.0
  H  H9  1  0.25902000  0.64348000  0.79627000  1.0
  H  H10  1  0.87057000  0.93476000  0.32914000  1.0
  H  H11  1  0.12965000  0.43462000  0.67096000  1.0
  H  H12  1  0.86296000  0.07736000  0.34149000  1.0
  H  H13  1  0.13712000  0.57723000  0.65849000  1.0
  H  H14  1  0.23961000  0.55600000  0.29701000  1.0
  H  H15  1  0.76034000  0.05599000  0.70300000  1.0
  H  H16  1  0.37404000  0.77585000  0.18760000  1.0
  H  H17  1  0.62594000  0.27568000  0.81257000  1.0
  H  H18  1  0.37130000  0.63599000  0.16464000  1.0
  H  H19  1  0.62872000  0.13577000  0.83538000  1.0
  H  H20  1  0.52812000  0.62273000  0.46618000  1.0
  H  H21  1  0.47186000  0.12276000  0.53381000  1.0
  H  H22  1  0.56608000  0.68507000  0.58481000  1.0
  H  H23  1  0.43390000  0.18508000  0.41517000  1.0
  H  H24  1  0.95153000  0.56619000  0.57764000  1.0
  H  H25  1  0.04850000  0.06612000  0.42234000  1.0
  H  H26  1  0.91256000  0.50180000  0.45991000  1.0
  H  H27  1  0.08749000  0.00176000  0.54008000  1.0
  H  H28  1  0.41358000  0.19423000  0.04069000  1.0
  H  H29  1  0.58646000  0.69425000  0.95929000  1.0
  H  H30  1  0.02773000  0.07595000  0.03515000  1.0
  H  H31  1  0.97226000  0.57590000  0.96484000  1.0
  H  H32  1  0.06527000  0.01565000  0.91588000  1.0
  H  H33  1  0.93469000  0.51552000  0.08411000  1.0
  H  H34  1  0.45191000  0.13213000  0.92215000  1.0
  H  H35  1  0.54807000  0.63208000  0.07781000  1.0
  C  C36  1  0.61999000  0.27477000  0.23572000  1.0
  C  C37  1  0.37995000  0.77482000  0.76431000  1.0
  C  C38  1  0.74764000  0.21982000  0.22590000  1.0
  C  C39  1  0.25232000  0.71987000  0.77413000  1.0
  C  C40  1  0.88339000  0.01201000  0.30744000  1.0
  C  C41  1  0.11673000  0.51189000  0.69259000  1.0
  C  C42  1  0.11967000  0.42549000  0.26368000  1.0
  C  C43  1  0.88031000  0.92549000  0.73629000  1.0
  C  C44  1  0.24713000  0.48007000  0.27414000  1.0
  C  C45  1  0.75283000  0.98004000  0.72585000  1.0
  C  C46  1  0.39014000  0.69575000  0.20309000  1.0
  C  C47  1  0.60989000  0.19563000  0.79698000  1.0
  C  C48  1  0.69806000  0.51990000  0.38594000  1.0
  C  C49  1  0.30194000  0.01994000  0.61407000  1.0
  C  C50  1  0.71799000  0.55807000  0.45656000  1.0
  C  C51  1  0.28201000  0.05810000  0.54344000  1.0
  C  C52  1  0.62008000  0.61004000  0.49134000  1.0
  C  C53  1  0.37991000  0.11007000  0.50865000  1.0
  C  C54  1  0.64116000  0.64470000  0.55694000  1.0
  C  C55  1  0.35883000  0.14472000  0.44304000  1.0
  C  C56  1  0.76065000  0.62855000  0.58830000  1.0
  C  C57  1  0.23934000  0.12856000  0.41170000  1.0
  C  C58  1  0.85866000  0.57726000  0.55313000  1.0
  C  C59  1  0.14133000  0.07727000  0.44686000  1.0
  C  C60  1  0.83744000  0.54180000  0.48792000  1.0
  C  C61  1  0.16256000  0.04181000  0.51208000  1.0
  C  C62  1  0.21663000  0.16689000  0.34137000  1.0
  C  C63  1  0.78335000  0.66686000  0.65861000  1.0
  C  C64  1  0.71721000  0.53409000  0.15897000  1.0
  C  C65  1  0.28276000  0.03415000  0.84102000  1.0
  C  C66  1  0.33810000  0.15521000  0.01269000  1.0
  C  C67  1  0.66193000  0.65520000  0.98730000  1.0
  C  C68  1  0.21835000  0.13922000  0.04443000  1.0
  C  C69  1  0.78167000  0.63920000  0.95556000  1.0
  C  C70  1  0.11993000  0.08847000  0.00970000  1.0
  C  C71  1  0.88007000  0.58842000  0.99029000  1.0
  C  C72  1  0.14077000  0.05496000  0.94372000  1.0
  C  C73  1  0.85921000  0.55488000  0.05627000  1.0
  C  C74  1  0.19847000  0.17722000  0.11522000  1.0
  C  C75  1  0.80156000  0.67719000  0.88477000  1.0
  C  C76  1  0.35896000  0.12103000  0.94703000  1.0
  C  C77  1  0.64103000  0.62098000  0.05295000  1.0
  C  C78  1  0.73962000  0.57110000  0.08814000  1.0
  C  C79  1  0.26035000  0.07118000  0.91185000  1.0
  N  N80  1  0.85322000  0.26183000  0.24270000  1.0
  N  N81  1  0.14674000  0.76187000  0.75730000  1.0
  N  N82  1  0.35319000  0.43835000  0.25732000  1.0
  N  N83  1  0.64679000  0.93828000  0.74265000  1.0
  O  O84  1  0.62719000  0.35903000  0.26746000  1.0
  O  O85  1  0.37275000  0.85912000  0.73262000  1.0
  O  O86  1  0.51982000  0.23380000  0.21243000  1.0
  O  O87  1  0.48013000  0.73378000  0.78755000  1.0
  O  O88  1  0.12738000  0.34144000  0.23167000  1.0
  O  O89  1  0.87263000  0.84141000  0.76827000  1.0
  O  O90  1  0.01911000  0.46660000  0.28688000  1.0
  O  O91  1  0.98085000  0.96666000  0.71310000  1.0
  O  O92  1  0.59218000  0.54376000  0.35681000  1.0
  O  O93  1  0.40783000  0.04378000  0.64319000  1.0
  O  O94  1  0.78936000  0.46741000  0.36119000  1.0
  O  O95  1  0.21062000  0.96748000  0.63884000  1.0
  O  O96  1  0.31148000  0.20834000  0.31142000  1.0
  O  O97  1  0.68849000  0.70832000  0.68855000  1.0
  O  O98  1  0.10313000  0.15432000  0.31732000  1.0
  O  O99  1  0.89684000  0.65431000  0.68266000  1.0
  O  O100  1  0.60406000  0.54744000  0.18381000  1.0
  O  O101  1  0.39590000  0.04749000  0.81617000  1.0
  O  O102  1  0.81212000  0.49281000  0.18857000  1.0
  O  O103  1  0.18786000  0.99285000  0.81145000  1.0
  O  O104  1  0.28982000  0.22950000  0.13961000  1.0
  O  O105  1  0.71021000  0.72949000  0.86036000  1.0
  O  O106  1  0.09237000  0.15351000  0.14481000  1.0
  O  O107  1  0.90765000  0.65345000  0.85517000  1.0
  O  O108  1  0.91799000  0.02405000  0.24891000  1.0
  O  O109  1  0.08211000  0.52396000  0.75110000  1.0
  O  O110  1  0.42671000  0.67470000  0.25998000  1.0
  O  O111  1  0.57336000  0.17471000  0.74008000  1.0
