# generated using pymatgen
data_CuH12C20(NO2)2
_symmetry_space_group_name_H-M   'P 1'
_cell_length_a   12.88960000
_cell_length_b   13.22440000
_cell_length_c   17.08520000
_cell_angle_alpha   89.99990000
_cell_angle_beta   89.99740000
_cell_angle_gamma   116.52600000
_symmetry_Int_Tables_number   1
_chemical_formula_structural   CuH12C20(NO2)2
_chemical_formula_sum   'Cu4 H48 C80 N8 O16'
_cell_volume   2605.72363609
_cell_formula_units_Z   4
loop_
 _symmetry_equiv_pos_site_id
 _symmetry_equiv_pos_as_xyz
  1  'x, y, z'
loop_
 _atom_site_type_symbol
 _atom_site_label
 _atom_site_symmetry_multiplicity
 _atom_site_fract_x
 _atom_site_fract_y
 _atom_site_fract_z
 _atom_site_occupancy
  Cu  Cu0  1  0.02419000  0.10195000  0.02817000  1.0
  Cu  Cu1  1  0.97579000  0.39799000  0.52818000  1.0
  Cu  Cu2  1  0.97580000  0.89800000  0.97183000  1.0
  Cu  Cu3  1  0.02418000  0.60194000  0.47184000  1.0
  H  H4  1  0.11516000  0.56634000  0.23258000  1.0
  H  H5  1  0.88487000  0.93369000  0.73260000  1.0
  H  H6  1  0.88485000  0.43368000  0.76741000  1.0
  H  H7  1  0.11516000  0.06632000  0.26742000  1.0
  H  H8  1  0.17561000  0.60620000  0.08994000  1.0
  H  H9  1  0.82442000  0.89382000  0.58996000  1.0
  H  H10  1  0.82440000  0.39380000  0.91007000  1.0
  H  H11  1  0.17560000  0.10618000  0.41006000  1.0
  H  H12  1  0.18862000  0.52826000  0.96010000  1.0
  H  H13  1  0.81142000  0.97176000  0.46012000  1.0
  H  H14  1  0.81139000  0.47175000  0.03990000  1.0
  H  H15  1  0.18859000  0.02822000  0.53989000  1.0
  H  H16  1  0.12390000  0.31976000  0.94624000  1.0
  H  H17  1  0.87613000  0.18025000  0.44624000  1.0
  H  H18  1  0.87612000  0.68025000  0.05377000  1.0
  H  H19  1  0.12387000  0.81973000  0.55376000  1.0
  H  H20  1  0.98587000  0.15485000  0.18431000  1.0
  H  H21  1  0.01413000  0.34517000  0.68430000  1.0
  H  H22  1  0.01413000  0.84517000  0.81570000  1.0
  H  H23  1  0.98585000  0.65482000  0.31570000  1.0
  H  H24  1  0.97086000  0.22442000  0.31732000  1.0
  H  H25  1  0.02915000  0.27560000  0.81732000  1.0
  H  H26  1  0.02915000  0.77560000  0.68268000  1.0
  H  H27  1  0.97085000  0.72442000  0.18269000  1.0
  H  H28  1  0.68361000  0.05198000  0.09966000  1.0
  H  H29  1  0.31638000  0.44803000  0.59965000  1.0
  H  H30  1  0.31638000  0.94803000  0.90034000  1.0
  H  H31  1  0.68361000  0.55198000  0.40034000  1.0
  H  H32  1  0.51533000  0.08861000  0.14318000  1.0
  H  H33  1  0.48467000  0.41140000  0.64319000  1.0
  H  H34  1  0.48467000  0.91138000  0.85680000  1.0
  H  H35  1  0.51533000  0.58861000  0.35681000  1.0
  H  H36  1  0.29929000  0.01917000  0.14874000  1.0
  H  H37  1  0.70070000  0.48086000  0.64874000  1.0
  H  H38  1  0.70071000  0.98083000  0.85125000  1.0
  H  H39  1  0.29930000  0.51916000  0.35125000  1.0
  H  H40  1  0.17041000  0.82803000  0.09536000  1.0
  H  H41  1  0.82958000  0.67198000  0.59533000  1.0
  H  H42  1  0.82958000  0.17196000  0.90464000  1.0
  H  H43  1  0.17042000  0.32803000  0.40464000  1.0
  H  H44  1  0.39913000  0.66855000  0.00890000  1.0
  H  H45  1  0.60087000  0.83146000  0.50887000  1.0
  H  H46  1  0.60088000  0.33144000  0.99111000  1.0
  H  H47  1  0.39913000  0.16854000  0.49111000  1.0
  H  H48  1  0.61306000  0.73213000  0.99581000  1.0
  H  H49  1  0.38694000  0.76790000  0.49579000  1.0
  H  H50  1  0.38696000  0.26789000  0.00419000  1.0
  H  H51  1  0.61306000  0.23211000  0.50419000  1.0
  C  C52  1  0.04236000  0.40001000  0.28269000  1.0
  C  C53  1  0.95765000  0.10001000  0.78271000  1.0
  C  C54  1  0.95765000  0.59999000  0.71730000  1.0
  C  C55  1  0.04236000  0.90001000  0.21731000  1.0
  C  C56  1  0.08726000  0.47660000  0.22194000  1.0
  C  C57  1  0.91275000  0.02342000  0.72195000  1.0
  C  C58  1  0.91274000  0.52341000  0.77806000  1.0
  C  C59  1  0.08727000  0.97659000  0.27806000  1.0
  C  C60  1  0.14465000  0.51516000  0.08237000  1.0
  C  C61  1  0.85536000  0.98485000  0.58239000  1.0
  C  C62  1  0.85535000  0.48484000  0.91763000  1.0
  C  C63  1  0.14466000  0.01514000  0.41762000  1.0
  C  C64  1  0.15348000  0.47266000  0.01045000  1.0
  C  C65  1  0.84654000  0.02735000  0.51047000  1.0
  C  C66  1  0.84653000  0.52735000  0.98955000  1.0
  C  C67  1  0.15347000  0.97264000  0.48955000  1.0
  C  C68  1  0.11672000  0.35545000  0.00237000  1.0
  C  C69  1  0.88329000  0.14455000  0.50238000  1.0
  C  C70  1  0.88329000  0.64455000  0.99763000  1.0
  C  C71  1  0.11670000  0.85543000  0.49763000  1.0
  C  C72  1  0.01375000  0.24430000  0.19530000  1.0
  C  C73  1  0.98625000  0.25572000  0.69530000  1.0
  C  C74  1  0.98626000  0.75571000  0.80470000  1.0
  C  C75  1  0.01374000  0.74428000  0.30470000  1.0
  C  C76  1  0.00578000  0.28315000  0.26865000  1.0
  C  C77  1  0.99422000  0.21687000  0.76865000  1.0
  C  C78  1  0.99422000  0.71686000  0.73135000  1.0
  C  C79  1  0.00578000  0.78315000  0.23136000  1.0
  C  C80  1  0.09815000  0.43951000  0.14601000  1.0
  C  C81  1  0.90185000  0.06050000  0.64603000  1.0
  C  C82  1  0.90185000  0.56049000  0.85399000  1.0
  C  C83  1  0.09815000  0.93949000  0.35398000  1.0
  C  C84  1  0.06114000  0.32127000  0.13236000  1.0
  C  C85  1  0.93886000  0.17874000  0.63237000  1.0
  C  C86  1  0.93888000  0.67874000  0.86764000  1.0
  C  C87  1  0.06113000  0.82125000  0.36764000  1.0
  C  C88  1  0.03097000  0.43931000  0.36304000  1.0
  C  C89  1  0.96903000  0.06067000  0.86304000  1.0
  C  C90  1  0.96903000  0.56066000  0.63696000  1.0
  C  C91  1  0.03097000  0.93934000  0.13697000  1.0
  C  C92  1  0.65998000  0.89597000  0.04723000  1.0
  C  C93  1  0.34002000  0.60404000  0.54722000  1.0
  C  C94  1  0.34003000  0.10405000  0.95277000  1.0
  C  C95  1  0.65997000  0.39595000  0.45277000  1.0
  C  C96  1  0.62102000  0.96779000  0.08108000  1.0
  C  C97  1  0.37898000  0.53222000  0.58107000  1.0
  C  C98  1  0.37897000  0.03222000  0.91892000  1.0
  C  C99  1  0.62102000  0.46779000  0.41892000  1.0
  C  C100  1  0.45567000  0.00478000  0.12191000  1.0
  C  C101  1  0.54432000  0.49523000  0.62191000  1.0
  C  C102  1  0.54432000  0.99521000  0.87808000  1.0
  C  C103  1  0.45567000  0.50477000  0.37808000  1.0
  C  C104  1  0.33745000  0.96697000  0.12488000  1.0
  C  C105  1  0.66255000  0.53306000  0.62488000  1.0
  C  C106  1  0.66255000  0.03303000  0.87511000  1.0
  C  C107  1  0.33745000  0.46696000  0.37511000  1.0
  C  C108  1  0.26433000  0.85821000  0.09500000  1.0
  C  C109  1  0.73566000  0.64182000  0.59498000  1.0
  C  C110  1  0.73567000  0.14179000  0.90500000  1.0
  C  C111  1  0.26433000  0.35819000  0.40501000  1.0
  C  C112  1  0.46200000  0.75189000  0.02875000  1.0
  C  C113  1  0.53799000  0.74812000  0.52873000  1.0
  C  C114  1  0.53801000  0.24811000  0.97125000  1.0
  C  C115  1  0.46200000  0.25188000  0.47125000  1.0
  C  C116  1  0.57935000  0.78661000  0.02183000  1.0
  C  C117  1  0.42064000  0.71341000  0.52181000  1.0
  C  C118  1  0.42066000  0.21340000  0.97817000  1.0
  C  C119  1  0.57934000  0.28660000  0.47818000  1.0
  C  C120  1  0.50082000  0.93404000  0.08924000  1.0
  C  C121  1  0.49917000  0.56597000  0.58924000  1.0
  C  C122  1  0.49917000  0.06595000  0.91075000  1.0
  C  C123  1  0.50082000  0.43404000  0.41076000  1.0
  C  C124  1  0.41945000  0.82467000  0.06159000  1.0
  C  C125  1  0.58055000  0.67534000  0.56158000  1.0
  C  C126  1  0.58055000  0.17532000  0.93840000  1.0
  C  C127  1  0.41944000  0.32466000  0.43841000  1.0
  C  C128  1  0.78681000  0.93471000  0.03310000  1.0
  C  C129  1  0.21319000  0.56531000  0.53308000  1.0
  C  C130  1  0.21320000  0.06532000  0.96691000  1.0
  C  C131  1  0.78680000  0.43468000  0.46691000  1.0
  N  N132  1  0.07158000  0.28150000  0.06023000  1.0
  N  N133  1  0.92843000  0.21851000  0.56024000  1.0
  N  N134  1  0.92843000  0.71851000  0.93977000  1.0
  N  N135  1  0.07157000  0.78148000  0.43977000  1.0
  N  N136  1  0.30236000  0.78871000  0.06483000  1.0
  N  N137  1  0.69763000  0.71131000  0.56480000  1.0
  N  N138  1  0.69763000  0.21128000  0.93517000  1.0
  N  N139  1  0.30236000  0.28869000  0.43517000  1.0
  O  O140  1  0.04847000  0.54153000  0.36980000  1.0
  O  O141  1  0.95157000  0.95846000  0.86978000  1.0
  O  O142  1  0.95152000  0.45842000  0.63020000  1.0
  O  O143  1  0.04850000  0.04158000  0.13019000  1.0
  O  O144  1  0.00460000  0.36632000  0.41762000  1.0
  O  O145  1  0.99535000  0.13363000  0.91764000  1.0
  O  O146  1  0.99539000  0.63363000  0.58239000  1.0
  O  O147  1  0.00457000  0.86633000  0.08241000  1.0
  O  O148  1  0.85492000  0.03647000  0.05146000  1.0
  O  O149  1  0.14508000  0.46353000  0.55142000  1.0
  O  O150  1  0.14512000  0.96354000  0.94860000  1.0
  O  O151  1  0.85489000  0.53644000  0.44857000  1.0
  O  O152  1  0.81400000  0.86208000  0.00211000  1.0
  O  O153  1  0.18599000  0.63793000  0.50211000  1.0
  O  O154  1  0.18597000  0.13795000  0.99786000  1.0
  O  O155  1  0.81402000  0.36205000  0.49789000  1.0
