# generated using pymatgen
data_CdH6C5BrO7
_symmetry_space_group_name_H-M   'P 1'
_cell_length_a   6.34124000
_cell_length_b   9.07662000
_cell_length_c   16.26750000
_cell_angle_alpha   79.34900000
_cell_angle_beta   89.99930000
_cell_angle_gamma   89.99810000
_symmetry_Int_Tables_number   1
_chemical_formula_structural   CdH6C5BrO7
_chemical_formula_sum   'Cd4 H24 C20 Br4 O28'
_cell_volume   920.17745777
_cell_formula_units_Z   4
loop_
 _symmetry_equiv_pos_site_id
 _symmetry_equiv_pos_as_xyz
  1  'x, y, z'
loop_
 _atom_site_type_symbol
 _atom_site_label
 _atom_site_symmetry_multiplicity
 _atom_site_fract_x
 _atom_site_fract_y
 _atom_site_fract_z
 _atom_site_occupancy
  Cd  Cd0  1  0.69474000  0.46192000  0.67745000  1.0
  Cd  Cd1  1  0.19473000  0.03807000  0.82255000  1.0
  Cd  Cd2  1  0.30527000  0.53807000  0.32254000  1.0
  Cd  Cd3  1  0.80523000  0.96194000  0.17745000  1.0
  H  H4  1  0.59054000  0.74770000  0.58763000  1.0
  H  H5  1  0.09053000  0.75230000  0.91238000  1.0
  H  H6  1  0.40945000  0.25228000  0.41237000  1.0
  H  H7  1  0.90952000  0.24772000  0.08763000  1.0
  H  H8  1  0.59288000  0.64767000  0.51868000  1.0
  H  H9  1  0.09286000  0.85233000  0.98133000  1.0
  H  H10  1  0.40712000  0.35232000  0.48132000  1.0
  H  H11  1  0.90717000  0.14770000  0.01868000  1.0
  H  H12  1  0.30284000  0.48678000  0.76624000  1.0
  H  H13  1  0.80281000  0.01321000  0.73376000  1.0
  H  H14  1  0.69716000  0.51320000  0.23375000  1.0
  H  H15  1  0.19718000  0.98678000  0.26624000  1.0
  H  H16  1  0.33639000  0.65876000  0.71802000  1.0
  H  H17  1  0.83640000  0.84123000  0.78198000  1.0
  H  H18  1  0.66361000  0.34122000  0.28198000  1.0
  H  H19  1  0.16360000  0.15876000  0.21801000  1.0
  H  H20  1  0.15017000  0.47645000  0.65530000  1.0
  H  H21  1  0.65018000  0.02353000  0.84471000  1.0
  H  H22  1  0.84982000  0.52354000  0.34470000  1.0
  H  H23  1  0.34980000  0.97645000  0.15529000  1.0
  H  H24  1  0.08115000  0.31443000  0.64397000  1.0
  H  H25  1  0.58111000  0.18554000  0.85604000  1.0
  H  H26  1  0.91885000  0.68556000  0.35603000  1.0
  H  H27  1  0.41887000  0.81444000  0.14396000  1.0
  C  C28  1  0.30294000  0.98892000  0.66338000  1.0
  C  C29  1  0.80293000  0.51108000  0.83662000  1.0
  C  C30  1  0.69707000  0.01107000  0.33662000  1.0
  C  C31  1  0.19708000  0.48894000  0.16337000  1.0
  C  C32  1  0.39509000  0.99620000  0.57722000  1.0
  C  C33  1  0.89511000  0.50380000  0.92277000  1.0
  C  C34  1  0.60490000  0.00377000  0.42277000  1.0
  C  C35  1  0.10491000  0.49623000  0.07722000  1.0
  C  C36  1  0.32590000  0.90641000  0.52138000  1.0
  C  C37  1  0.82590000  0.59362000  0.97861000  1.0
  C  C38  1  0.67412000  0.09362000  0.47862000  1.0
  C  C39  1  0.17410000  0.40641000  0.02137000  1.0
  C  C40  1  0.56721000  0.09248000  0.55413000  1.0
  C  C41  1  0.06723000  0.40754000  0.94588000  1.0
  C  C42  1  0.43275000  0.90750000  0.44589000  1.0
  C  C43  1  0.93278000  0.59251000  0.05412000  1.0
  C  C44  1  0.61705000  0.20875000  0.60579000  1.0
  C  C45  1  0.11710000  0.29127000  0.89421000  1.0
  C  C46  1  0.38293000  0.79125000  0.39422000  1.0
  C  C47  1  0.88291000  0.70875000  0.10579000  1.0
  Br  Br48  1  0.07707000  0.79026000  0.54388000  1.0
  Br  Br49  1  0.57708000  0.70974000  0.95611000  1.0
  Br  Br50  1  0.92292000  0.20972000  0.45611000  1.0
  Br  Br51  1  0.42293000  0.29031000  0.04388000  1.0
  O  O52  1  0.32228000  0.86825000  0.71616000  1.0
  O  O53  1  0.82226000  0.63175000  0.78384000  1.0
  O  O54  1  0.67773000  0.13172000  0.28386000  1.0
  O  O55  1  0.17777000  0.36827000  0.21614000  1.0
  O  O56  1  0.22520000  0.10960000  0.68062000  1.0
  O  O57  1  0.72524000  0.39043000  0.81939000  1.0
  O  O58  1  0.77477000  0.89042000  0.31940000  1.0
  O  O59  1  0.27480000  0.60960000  0.18060000  1.0
  O  O60  1  0.66707000  0.66523000  0.57045000  1.0
  O  O61  1  0.16705000  0.83477000  0.92955000  1.0
  O  O62  1  0.33293000  0.33477000  0.42955000  1.0
  O  O63  1  0.83298000  0.16526000  0.07045000  1.0
  O  O64  1  0.71437000  0.17632000  0.67431000  1.0
  O  O65  1  0.21439000  0.32369000  0.82570000  1.0
  O  O66  1  0.28563000  0.82367000  0.32570000  1.0
  O  O67  1  0.78560000  0.67631000  0.17430000  1.0
  O  O68  1  0.34856000  0.55211000  0.71289000  1.0
  O  O69  1  0.84857000  0.94788000  0.78711000  1.0
  O  O70  1  0.65143000  0.44787000  0.28711000  1.0
  O  O71  1  0.15142000  0.05210000  0.21289000  1.0
  O  O72  1  0.55088000  0.34082000  0.57529000  1.0
  O  O73  1  0.05092000  0.15917000  0.92471000  1.0
  O  O74  1  0.44910000  0.65915000  0.42472000  1.0
  O  O75  1  0.94906000  0.84083000  0.07530000  1.0
  O  O76  1  0.03547000  0.41961000  0.63362000  1.0
  O  O77  1  0.53547000  0.08034000  0.86639000  1.0
  O  O78  1  0.96452000  0.58036000  0.36638000  1.0
  O  O79  1  0.46451000  0.91964000  0.13361000  1.0
