# generated using pymatgen
data_Li3H12C9N13O6
_symmetry_space_group_name_H-M   'P 1'
_cell_length_a   6.81486000
_cell_length_b   12.20460000
_cell_length_c   12.20465000
_cell_angle_alpha   60.00040656
_cell_angle_beta   89.99990000
_cell_angle_gamma   89.99990000
_symmetry_Int_Tables_number   1
_chemical_formula_structural   Li3H12C9N13O6
_chemical_formula_sum   'Li6 H24 C18 N26 O12'
_cell_volume   879.09989648
_cell_formula_units_Z   2
loop_
 _symmetry_equiv_pos_site_id
 _symmetry_equiv_pos_as_xyz
  1  'x, y, z'
loop_
 _atom_site_type_symbol
 _atom_site_label
 _atom_site_symmetry_multiplicity
 _atom_site_fract_x
 _atom_site_fract_y
 _atom_site_fract_z
 _atom_site_occupancy
  Li  Li0  1  0.25000000  0.64743000  0.26394000  1.0
  Li  Li1  1  0.25000000  0.08864000  0.64743000  1.0
  Li  Li2  1  0.25000000  0.26394000  0.08863000  1.0
  Li  Li3  1  0.75000000  0.35256000  0.73606000  1.0
  Li  Li4  1  0.75000000  0.91137000  0.35257000  1.0
  Li  Li5  1  0.75000000  0.73606000  0.91137000  1.0
  H  H6  1  0.90677000  0.68654000  0.24455000  1.0
  H  H7  1  0.90678000  0.06891000  0.68654000  1.0
  H  H8  1  0.90677000  0.24455000  0.06892000  1.0
  H  H9  1  0.40677000  0.31346000  0.75545000  1.0
  H  H10  1  0.40677000  0.93109000  0.31346000  1.0
  H  H11  1  0.40677000  0.75545000  0.93109000  1.0
  H  H12  1  0.09323000  0.31346000  0.75545000  1.0
  H  H13  1  0.09322000  0.93108000  0.31347000  1.0
  H  H14  1  0.09323000  0.75545000  0.93109000  1.0
  H  H15  1  0.59323000  0.68654000  0.24455000  1.0
  H  H16  1  0.59323000  0.06891000  0.68654000  1.0
  H  H17  1  0.59323000  0.24455000  0.06892000  1.0
  H  H18  1  0.99667000  0.81982000  0.21524000  1.0
  H  H19  1  0.99667000  0.96495000  0.81981000  1.0
  H  H20  1  0.99668000  0.21524000  0.96495000  1.0
  H  H21  1  0.49667000  0.18018000  0.78476000  1.0
  H  H22  1  0.49667000  0.03505000  0.18019000  1.0
  H  H23  1  0.49668000  0.78475000  0.03506000  1.0
  H  H24  1  0.00333000  0.18018000  0.78476000  1.0
  H  H25  1  0.00333000  0.03505000  0.18019000  1.0
  H  H26  1  0.00332000  0.78475000  0.03506000  1.0
  H  H27  1  0.50333000  0.81982000  0.21524000  1.0
  H  H28  1  0.50333000  0.96494000  0.81982000  1.0
  H  H29  1  0.50332000  0.21524000  0.96495000  1.0
  C  C30  1  0.25000000  0.73897000  0.53391000  1.0
  C  C31  1  0.25000000  0.72711000  0.73898000  1.0
  C  C32  1  0.25000000  0.53392000  0.72711000  1.0
  C  C33  1  0.75000000  0.26103000  0.46608000  1.0
  C  C34  1  0.75000000  0.27289000  0.26103000  1.0
  C  C35  1  0.75000000  0.46607000  0.27289000  1.0
  C  C36  1  0.25000000  0.55367000  0.52902000  1.0
  C  C37  1  0.25000000  0.91732000  0.55367000  1.0
  C  C38  1  0.25000000  0.52902000  0.91732000  1.0
  C  C39  1  0.75000000  0.44633000  0.47098000  1.0
  C  C40  1  0.75000000  0.08269000  0.44632000  1.0
  C  C41  1  0.75000000  0.47098000  0.08269000  1.0
  C  C42  1  0.25000000  0.38175000  0.50160000  1.0
  C  C43  1  0.25000000  0.11665000  0.38174000  1.0
  C  C44  1  0.25000000  0.50161000  0.11666000  1.0
  C  C45  1  0.75000000  0.61826000  0.49839000  1.0
  C  C46  1  0.75000000  0.88334000  0.61826000  1.0
  C  C47  1  0.75000000  0.49838000  0.88335000  1.0
  N  N48  1  0.25000000  0.66666667  0.66666667  1.0
  N  N49  1  0.75000000  0.33333333  0.33333333  1.0
  N  N50  1  0.25000000  0.68190000  0.46634000  1.0
  N  N51  1  0.25000000  0.85178000  0.68189000  1.0
  N  N52  1  0.25000000  0.46635000  0.85176000  1.0
  N  N53  1  0.75000000  0.31810000  0.53366000  1.0
  N  N54  1  0.75000000  0.14822000  0.31811000  1.0
  N  N55  1  0.75000000  0.53366000  0.14823000  1.0
  N  N56  1  0.25000000  0.86545000  0.47714000  1.0
  N  N57  1  0.25000000  0.65742000  0.86544000  1.0
  N  N58  1  0.25000000  0.47715000  0.65742000  1.0
  N  N59  1  0.75000000  0.13456000  0.52285000  1.0
  N  N60  1  0.75000000  0.34258000  0.13456000  1.0
  N  N61  1  0.75000000  0.52285000  0.34259000  1.0
  N  N62  1  0.25000000  0.50416000  0.45221000  1.0
  N  N63  1  0.25000000  0.04364000  0.50414000  1.0
  N  N64  1  0.25000000  0.45222000  0.04364000  1.0
  N  N65  1  0.75000000  0.49585000  0.54778000  1.0
  N  N66  1  0.75000000  0.95636000  0.49585000  1.0
  N  N67  1  0.75000000  0.54777000  0.95636000  1.0
  N  N68  1  0.25000000  0.27232000  0.53909000  1.0
  N  N69  1  0.25000000  0.18861000  0.27231000  1.0
  N  N70  1  0.25000000  0.53908000  0.18861000  1.0
  N  N71  1  0.75000000  0.72769000  0.46091000  1.0
  N  N72  1  0.75000000  0.81139000  0.72768000  1.0
  N  N73  1  0.75000000  0.46091000  0.81139000  1.0
  O  O74  1  0.00832000  0.75017000  0.19531000  1.0
  O  O75  1  0.00833000  0.05452000  0.75017000  1.0
  O  O76  1  0.00832000  0.19531000  0.05452000  1.0
  O  O77  1  0.50832000  0.24983000  0.80469000  1.0
  O  O78  1  0.50832000  0.94548000  0.24983000  1.0
  O  O79  1  0.50833000  0.80469000  0.94548000  1.0
  O  O80  1  0.99167000  0.24983000  0.80469000  1.0
  O  O81  1  0.99168000  0.94548000  0.24983000  1.0
  O  O82  1  0.99167000  0.80469000  0.94548000  1.0
  O  O83  1  0.49167000  0.75017000  0.19531000  1.0
  O  O84  1  0.49167000  0.05452000  0.75017000  1.0
  O  O85  1  0.49168000  0.19531000  0.05452000  1.0
