# generated using pymatgen
data_CoH17C20N3O4
_symmetry_space_group_name_H-M   'P 1'
_cell_length_a   9.68070000
_cell_length_b   10.10870000
_cell_length_c   10.43020000
_cell_angle_alpha   78.32690000
_cell_angle_beta   84.50660000
_cell_angle_gamma   67.71700000
_symmetry_Int_Tables_number   1
_chemical_formula_structural   CoH17C20N3O4
_chemical_formula_sum   'Co2 H34 C40 N6 O8'
_cell_volume   924.73183673
_cell_formula_units_Z   2
loop_
 _symmetry_equiv_pos_site_id
 _symmetry_equiv_pos_as_xyz
  1  'x, y, z'
loop_
 _atom_site_type_symbol
 _atom_site_label
 _atom_site_symmetry_multiplicity
 _atom_site_fract_x
 _atom_site_fract_y
 _atom_site_fract_z
 _atom_site_occupancy
  Co  Co0  1  0.96569000  0.36036000  0.37620000  1.0
  Co  Co1  1  0.03431000  0.63964000  0.62380000  1.0
  H  H2  1  0.29027000  0.16496000  0.34479000  1.0
  H  H3  1  0.70974000  0.83504000  0.65520000  1.0
  H  H4  1  0.50051000  0.14014000  0.17898000  1.0
  H  H5  1  0.49949000  0.85986000  0.82101000  1.0
  H  H6  1  0.78495000  0.90240000  0.88675000  1.0
  H  H7  1  0.21504000  0.09760000  0.11326000  1.0
  H  H8  1  0.81444000  0.05973000  0.85301000  1.0
  H  H9  1  0.18556000  0.94028000  0.14699000  1.0
  H  H10  1  0.21141000  0.53863000  0.94700000  1.0
  H  H11  1  0.78859000  0.46137000  0.05300000  1.0
  H  H12  1  0.01663000  0.54472000  0.12162000  1.0
  H  H13  1  0.98337000  0.45528000  0.87838000  1.0
  H  H14  1  0.54335000  0.40869000  0.94691000  1.0
  H  H15  1  0.45666000  0.59130000  0.05308000  1.0
  H  H16  1  0.58563000  0.21988000  0.96534000  1.0
  H  H17  1  0.41437000  0.78012000  0.03466000  1.0
  H  H18  1  0.34311000  0.45195000  0.78408000  1.0
  H  H19  1  0.65690000  0.54804000  0.21592000  1.0
  H  H20  1  0.40157000  0.26144000  0.79781000  1.0
  H  H21  1  0.59843000  0.73855000  0.20219000  1.0
  H  H22  1  0.53108000  0.57632000  0.69882000  1.0
  H  H23  1  0.46892000  0.42368000  0.30119000  1.0
  H  H24  1  0.73610000  0.57115000  0.53421000  1.0
  H  H25  1  0.26390000  0.42885000  0.46579000  1.0
  H  H26  1  0.82144000  0.14261000  0.51065000  1.0
  H  H27  1  0.17856000  0.85739000  0.48934000  1.0
  H  H28  1  0.62019000  0.13094000  0.67276000  1.0
  H  H29  1  0.37981000  0.86906000  0.32723000  1.0
  H  H30  1  0.92946000  0.91616000  0.41187000  1.0
  H  H31  1  0.07054000  0.08384000  0.58813000  1.0
  H  H32  1  0.83584000  0.18303000  0.02849000  1.0
  H  H33  1  0.16415000  0.81697000  0.97152000  1.0
  H  H34  1  0.81484000  0.75460000  0.10178000  1.0
  H  H35  1  0.18514000  0.24541000  0.89823000  1.0
  C  C36  1  0.27857000  0.24478000  0.25469000  1.0
  C  C37  1  0.72143000  0.75522000  0.74530000  1.0
  C  C38  1  0.39460000  0.23207000  0.16205000  1.0
  C  C39  1  0.60540000  0.76793000  0.83795000  1.0
  C  C40  1  0.37423000  0.33691000  0.04721000  1.0
  C  C41  1  0.62577000  0.66309000  0.95279000  1.0
  C  C42  1  0.23558000  0.45243000  0.03334000  1.0
  C  C43  1  0.76442000  0.54757000  0.96666000  1.0
  C  C44  1  0.12552000  0.45670000  0.12999000  1.0
  C  C45  1  0.87449000  0.54330000  0.87001000  1.0
  C  C46  1  0.49531000  0.32647000  0.94354000  1.0
  C  C47  1  0.50469000  0.67352000  0.05645000  1.0
  C  C48  1  0.43946000  0.34946000  0.80402000  1.0
  C  C49  1  0.56054000  0.65054000  0.19597000  1.0
  C  C50  1  0.55839000  0.35269000  0.70165000  1.0
  C  C51  1  0.44162000  0.64731000  0.29834000  1.0
  C  C52  1  0.59305000  0.47733000  0.65978000  1.0
  C  C53  1  0.40695000  0.52267000  0.34021000  1.0
  C  C54  1  0.70602000  0.47601000  0.56656000  1.0
  C  C55  1  0.29398000  0.52399000  0.43344000  1.0
  C  C56  1  0.75353000  0.23799000  0.55236000  1.0
  C  C57  1  0.24647000  0.76201000  0.44763000  1.0
  C  C58  1  0.64158000  0.23151000  0.64465000  1.0
  C  C59  1  0.35842000  0.76849000  0.35534000  1.0
  C  C60  1  0.88554000  0.68434000  0.35932000  1.0
  C  C61  1  0.11446000  0.31565000  0.64068000  1.0
  C  C62  1  0.87107000  0.82236000  0.26638000  1.0
  C  C63  1  0.12893000  0.17763000  0.73362000  1.0
  C  C64  1  0.89893000  0.93144000  0.31078000  1.0
  C  C65  1  0.10107000  0.06856000  0.68923000  1.0
  C  C66  1  0.88642000  0.06042000  0.22402000  1.0
  C  C67  1  0.11359000  0.93958000  0.77599000  1.0
  C  C68  1  0.91890000  0.17429000  0.27286000  1.0
  C  C69  1  0.08110000  0.82571000  0.72714000  1.0
  C  C70  1  0.84491000  0.08162000  0.09449000  1.0
  C  C71  1  0.15509000  0.91839000  0.90552000  1.0
  C  C72  1  0.81977000  0.97121000  0.04820000  1.0
  C  C73  1  0.18022000  0.02879000  0.95180000  1.0
  C  C74  1  0.83333000  0.84158000  0.13583000  1.0
  C  C75  1  0.16667000  0.15843000  0.86417000  1.0
  N  N76  1  0.14451000  0.35459000  0.23913000  1.0
  N  N77  1  0.85550000  0.64541000  0.76086000  1.0
  N  N78  1  0.78676000  0.35827000  0.51275000  1.0
  N  N79  1  0.21324000  0.64173000  0.48725000  1.0
  N  N80  1  0.77690000  0.99258000  0.92034000  1.0
  N  N81  1  0.22308000  0.00743000  0.07967000  1.0
  O  O82  1  0.88175000  0.57827000  0.31349000  1.0
  O  O83  1  0.11826000  0.42173000  0.68651000  1.0
  O  O84  1  0.89664000  0.68109000  0.48118000  1.0
  O  O85  1  0.10337000  0.31891000  0.51883000  1.0
  O  O86  1  0.01988000  0.13482000  0.35862000  1.0
  O  O87  1  0.98013000  0.86518000  0.64138000  1.0
  O  O88  1  0.84511000  0.30907000  0.23281000  1.0
  O  O89  1  0.15489000  0.69093000  0.76720000  1.0
