# generated using pymatgen
data_CaH8C12SO4
_symmetry_space_group_name_H-M   'P 1'
_cell_length_a   7.07065000
_cell_length_b   9.35327000
_cell_length_c   9.35327000
_cell_angle_alpha   84.44260000
_cell_angle_beta   89.99990000
_cell_angle_gamma   89.99980000
_symmetry_Int_Tables_number   1
_chemical_formula_structural   CaH8C12SO4
_chemical_formula_sum   'Ca2 H16 C24 S2 O8'
_cell_volume   615.65887792
_cell_formula_units_Z   2
loop_
 _symmetry_equiv_pos_site_id
 _symmetry_equiv_pos_as_xyz
  1  'x, y, z'
loop_
 _atom_site_type_symbol
 _atom_site_label
 _atom_site_symmetry_multiplicity
 _atom_site_fract_x
 _atom_site_fract_y
 _atom_site_fract_z
 _atom_site_occupancy
  Ca  Ca0  1  0.50000000  0.50000000  0.50000000  1.0
  Ca  Ca1  1  0.00000000  0.50000000  0.50000000  1.0
  H  H2  1  0.44444000  0.37367000  0.80958000  1.0
  H  H3  1  0.94444000  0.62633000  0.19042000  1.0
  H  H4  1  0.55556000  0.19042000  0.62633000  1.0
  H  H5  1  0.05556000  0.80958000  0.37367000  1.0
  H  H6  1  0.55556000  0.62633000  0.19042000  1.0
  H  H7  1  0.05556000  0.37367000  0.80958000  1.0
  H  H8  1  0.44444000  0.80958000  0.37367000  1.0
  H  H9  1  0.94444000  0.19043000  0.62634000  1.0
  H  H10  1  0.44462000  0.32000000  0.07418000  1.0
  H  H11  1  0.94462000  0.67999000  0.92582000  1.0
  H  H12  1  0.55538000  0.92582000  0.67999000  1.0
  H  H13  1  0.05538000  0.07418000  0.32001000  1.0
  H  H14  1  0.55539000  0.68000000  0.92582000  1.0
  H  H15  1  0.05539000  0.32000000  0.07418000  1.0
  H  H16  1  0.44462000  0.07418000  0.32000000  1.0
  H  H17  1  0.94461000  0.92583000  0.68000000  1.0
  C  C18  1  0.75000000  0.37736000  0.78917000  1.0
  C  C19  1  0.25000000  0.62264000  0.21083000  1.0
  C  C20  1  0.25000000  0.21083000  0.62264000  1.0
  C  C21  1  0.75000000  0.78917000  0.37736000  1.0
  C  C22  1  0.57807000  0.36008000  0.86741000  1.0
  C  C23  1  0.07806000  0.63992000  0.13259000  1.0
  C  C24  1  0.42193000  0.13259000  0.63992000  1.0
  C  C25  1  0.92194000  0.86741000  0.36008000  1.0
  C  C26  1  0.42193000  0.63992000  0.13259000  1.0
  C  C27  1  0.92194000  0.36007000  0.86741000  1.0
  C  C28  1  0.57807000  0.86740000  0.36008000  1.0
  C  C29  1  0.07806000  0.13259000  0.63993000  1.0
  C  C30  1  0.57764000  0.32949000  0.01527000  1.0
  C  C31  1  0.07766000  0.67051000  0.98473000  1.0
  C  C32  1  0.42235000  0.98473000  0.67051000  1.0
  C  C33  1  0.92234000  0.01527000  0.32949000  1.0
  C  C34  1  0.42236000  0.67051000  0.98473000  1.0
  C  C35  1  0.92234000  0.32949000  0.01527000  1.0
  C  C36  1  0.57764000  0.01527000  0.32949000  1.0
  C  C37  1  0.07766000  0.98473000  0.67051000  1.0
  C  C38  1  0.75000000  0.31547000  0.08973000  1.0
  C  C39  1  0.25000000  0.68453000  0.91027000  1.0
  C  C40  1  0.25000000  0.91027000  0.68453000  1.0
  C  C41  1  0.75000000  0.08973000  0.31547000  1.0
  S  S42  1  0.74998000  0.27575000  0.27576000  1.0
  S  S43  1  0.25002000  0.72425000  0.72425000  1.0
  O  O44  1  0.75000000  0.40885000  0.64762000  1.0
  O  O45  1  0.25000000  0.59115000  0.35238000  1.0
  O  O46  1  0.25000000  0.35238000  0.59116000  1.0
  O  O47  1  0.75000000  0.64762000  0.40884000  1.0
  O  O48  1  0.57302000  0.33144000  0.33144000  1.0
  O  O49  1  0.07301000  0.66856000  0.66856000  1.0
  O  O50  1  0.42698000  0.66857000  0.66856000  1.0
  O  O51  1  0.92699000  0.33144000  0.33144000  1.0
