# generated using pymatgen
data_AlH9C24(BrO2)3
_symmetry_space_group_name_H-M   'P 1'
_cell_length_a   4.00352000
_cell_length_b   29.05285000
_cell_length_c   29.05310000
_cell_angle_alpha   120.00085395
_cell_angle_beta   90.00550000
_cell_angle_gamma   89.99769993
_symmetry_Int_Tables_number   1
_chemical_formula_structural   AlH9C24(BrO2)3
_chemical_formula_sum   'Al2 H18 C48 Br6 O12'
_cell_volume   2926.51069598
_cell_formula_units_Z   2
loop_
 _symmetry_equiv_pos_site_id
 _symmetry_equiv_pos_as_xyz
  1  'x, y, z'
loop_
 _atom_site_type_symbol
 _atom_site_label
 _atom_site_symmetry_multiplicity
 _atom_site_fract_x
 _atom_site_fract_y
 _atom_site_fract_z
 _atom_site_occupancy
  Al  Al0  1  0.01080000  0.50001000  0.00001000  1.0
  Al  Al1  1  0.01032000  0.83333000  0.66667000  1.0
  H  H2  1  0.47106000  0.68998000  0.52179000  1.0
  H  H3  1  0.48189000  0.63767000  0.42276000  1.0
  H  H4  1  0.50915000  0.78425000  0.41885000  1.0
  H  H5  1  0.50916000  0.54909000  0.24783000  1.0
  H  H6  1  0.47176000  0.64338000  0.14491000  1.0
  H  H7  1  0.48235000  0.69568000  0.24392000  1.0
  H  H8  1  0.47117000  0.83180000  0.81003000  1.0
  H  H9  1  0.48201000  0.78508000  0.86233000  1.0
  H  H10  1  0.50918000  0.63459000  0.71575000  1.0
  H  H11  1  0.50920000  0.69874000  0.95092000  1.0
  H  H12  1  0.47173000  0.50152000  0.85662000  1.0
  H  H13  1  0.48238000  0.54824000  0.80432000  1.0
  H  H14  1  0.47113000  0.97822000  0.66819000  1.0
  H  H15  1  0.48191000  0.07724000  0.71489000  1.0
  H  H16  1  0.50920000  0.08117000  0.86540000  1.0
  H  H17  1  0.50923000  0.25218000  0.80126000  1.0
  H  H18  1  0.47170000  0.35510000  0.99847000  1.0
  H  H19  1  0.48239000  0.25608000  0.95175000  1.0
  C  C20  1  0.50795000  0.41864000  0.95779000  1.0
  C  C21  1  0.50801000  0.53916000  0.08137000  1.0
  C  C22  1  0.50792000  0.54221000  0.96085000  1.0
  C  C23  1  0.50756000  0.79420000  0.58531000  1.0
  C  C24  1  0.50761000  0.79110000  0.70580000  1.0
  C  C25  1  0.50758000  0.91470000  0.70890000  1.0
  C  C26  1  0.50006000  0.76579000  0.52603000  1.0
  C  C27  1  0.48372000  0.71005000  0.49859000  1.0
  C  C28  1  0.48868000  0.68093000  0.44349000  1.0
  C  C29  1  0.50036000  0.70731000  0.41382000  1.0
  C  C30  1  0.50767000  0.76335000  0.44117000  1.0
  C  C31  1  0.51094000  0.79186000  0.49641000  1.0
  C  C32  1  0.50115000  0.67868000  0.35760000  1.0
  C  C33  1  0.50120000  0.65466000  0.30908000  1.0
  C  C34  1  0.50052000  0.62603000  0.25286000  1.0
  C  C35  1  0.50776000  0.56999000  0.22551000  1.0
  C  C36  1  0.51110000  0.54149000  0.17028000  1.0
  C  C37  1  0.50043000  0.56755000  0.14064000  1.0
  C  C38  1  0.48423000  0.62331000  0.16810000  1.0
  C  C39  1  0.48906000  0.65241000  0.22319000  1.0
  C  C40  1  0.50011000  0.76023000  0.73421000  1.0
  C  C41  1  0.48380000  0.78854000  0.78997000  1.0
  C  C42  1  0.48876000  0.76255000  0.81907000  1.0
  C  C43  1  0.50041000  0.70650000  0.79269000  1.0
  C  C44  1  0.50771000  0.67781000  0.73665000  1.0
  C  C45  1  0.51098000  0.70454000  0.70814000  1.0
  C  C46  1  0.50122000  0.67891000  0.82132000  1.0
  C  C47  1  0.50130000  0.65442000  0.84534000  1.0
  C  C48  1  0.50057000  0.62682000  0.87397000  1.0
  C  C49  1  0.50777000  0.65551000  0.93001000  1.0
  C  C50  1  0.51105000  0.62878000  0.95851000  1.0
  C  C51  1  0.50038000  0.57309000  0.93244000  1.0
  C  C52  1  0.48420000  0.54479000  0.87670000  1.0
  C  C53  1  0.48908000  0.57078000  0.84760000  1.0
  C  C54  1  0.50009000  0.97398000  0.73976000  1.0
  C  C55  1  0.48377000  0.00142000  0.71145000  1.0
  C  C56  1  0.48872000  0.05652000  0.73743000  1.0
  C  C57  1  0.50039000  0.08619000  0.79348000  1.0
  C  C58  1  0.50770000  0.05885000  0.82218000  1.0
  C  C59  1  0.51096000  0.00361000  0.79545000  1.0
  C  C60  1  0.50121000  0.14241000  0.82107000  1.0
  C  C61  1  0.50128000  0.19093000  0.84557000  1.0
  C  C62  1  0.50057000  0.24715000  0.87317000  1.0
  C  C63  1  0.50779000  0.27451000  0.84449000  1.0
  C  C64  1  0.51109000  0.32974000  0.87122000  1.0
  C  C65  1  0.50041000  0.35936000  0.92691000  1.0
  C  C66  1  0.48420000  0.33191000  0.95521000  1.0
  C  C67  1  0.48909000  0.27682000  0.92922000  1.0
  Br  Br68  1  0.50630000  0.86731000  0.53016000  1.0
  Br  Br69  1  0.50636000  0.46603000  0.13651000  1.0
  Br  Br70  1  0.50642000  0.66285000  0.63269000  1.0
  Br  Br71  1  0.50626000  0.67047000  0.03398000  1.0
  Br  Br72  1  0.50637000  0.96987000  0.83717000  1.0
  Br  Br73  1  0.50629000  0.36352000  0.82954000  1.0
  O  O74  1  0.74775000  0.55106000  0.99293000  1.0
  O  O75  1  0.74772000  0.44187000  0.94895000  1.0
  O  O76  1  0.74781000  0.50708000  0.05814000  1.0
  O  O77  1  0.27665000  0.50807000  0.94967000  1.0
  O  O78  1  0.27673000  0.55034000  0.05840000  1.0
  O  O79  1  0.27668000  0.44160000  0.99194000  1.0
  O  O80  1  0.74727000  0.89147000  0.71775000  1.0
  O  O81  1  0.74723000  0.82628000  0.60855000  1.0
  O  O82  1  0.74729000  0.78226000  0.67373000  1.0
  O  O83  1  0.27619000  0.89174000  0.67476000  1.0
  O  O84  1  0.27624000  0.82525000  0.71699000  1.0
  O  O85  1  0.27618000  0.78301000  0.60826000  1.0
