# generated using pymatgen
data_HoAg5H16(C2O)16
_symmetry_space_group_name_H-M   'P 1'
_cell_length_a   7.87419000
_cell_length_b   14.83260000
_cell_length_c   14.97850000
_cell_angle_alpha   64.43670000
_cell_angle_beta   81.39390000
_cell_angle_gamma   81.51150000
_symmetry_Int_Tables_number   1
_chemical_formula_structural   HoAg5H16(C2O)16
_chemical_formula_sum   'Ho2 Ag10 H32 C64 O32'
_cell_volume   1553.61197791
_cell_formula_units_Z   2
loop_
 _symmetry_equiv_pos_site_id
 _symmetry_equiv_pos_as_xyz
  1  'x, y, z'
loop_
 _atom_site_type_symbol
 _atom_site_label
 _atom_site_symmetry_multiplicity
 _atom_site_fract_x
 _atom_site_fract_y
 _atom_site_fract_z
 _atom_site_occupancy
  Ho  Ho0  1  0.35277000  0.25111000  0.25206000  1.0
  Ho  Ho1  1  0.64723000  0.74889000  0.74794000  1.0
  Ag  Ag2  1  0.12733000  0.09215000  0.49722000  1.0
  Ag  Ag3  1  0.87268000  0.90785000  0.50277000  1.0
  Ag  Ag4  1  0.17774000  0.40643000  0.00281000  1.0
  Ag  Ag5  1  0.82226000  0.59358000  0.99719000  1.0
  Ag  Ag6  1  0.79842000  0.32909000  0.01705000  1.0
  Ag  Ag7  1  0.20158000  0.67091000  0.98295000  1.0
  Ag  Ag8  1  0.29229000  0.82563000  0.51550000  1.0
  Ag  Ag9  1  0.70771000  0.17437000  0.48450000  1.0
  Ag  Ag10  1  0.85455000  0.25215000  0.25111000  1.0
  Ag  Ag11  1  0.14545000  0.74785000  0.74889000  1.0
  H  H12  1  0.18171000  0.09192000  0.98520000  1.0
  H  H13  1  0.81828000  0.90808000  0.01479000  1.0
  H  H14  1  0.13518000  0.91317000  0.03692000  1.0
  H  H15  1  0.86481000  0.08683000  0.96307000  1.0
  H  H16  1  0.07497000  0.80237000  0.21759000  1.0
  H  H17  1  0.92502000  0.19763000  0.78241000  1.0
  H  H18  1  0.07696000  0.86932000  0.34328000  1.0
  H  H19  1  0.92304000  0.13068000  0.65672000  1.0
  H  H20  1  0.88845000  0.40149000  0.51336000  1.0
  H  H21  1  0.11156000  0.59851000  0.48664000  1.0
  H  H22  1  0.77275000  0.58068000  0.46024000  1.0
  H  H23  1  0.22725000  0.41932000  0.53976000  1.0
  H  H24  1  0.80453000  0.69809000  0.28044000  1.0
  H  H25  1  0.19547000  0.30191000  0.71956000  1.0
  H  H26  1  0.93508000  0.63393000  0.15564000  1.0
  H  H27  1  0.06492000  0.36607000  0.84437000  1.0
  H  H28  1  0.42518000  0.51126000  0.41572000  1.0
  H  H29  1  0.57481000  0.48873000  0.58428000  1.0
  H  H30  1  0.33609000  0.69202000  0.31440000  1.0
  H  H31  1  0.66391000  0.30798000  0.68560000  1.0
  H  H32  1  0.37022000  0.75900000  0.12836000  1.0
  H  H33  1  0.62977000  0.24100000  0.87164000  1.0
  H  H34  1  0.48346000  0.64533000  0.04699000  1.0
  H  H35  1  0.51653000  0.35467000  0.95301000  1.0
  H  H36  1  0.63637000  0.00051000  0.08510000  1.0
  H  H37  1  0.36363000  0.99949000  0.91490000  1.0
  H  H38  1  0.58799000  0.81951000  0.18400000  1.0
  H  H39  1  0.41201000  0.18049000  0.81600000  1.0
  H  H40  1  0.57006000  0.74746000  0.37035000  1.0
  H  H41  1  0.42994000  0.25255000  0.62965000  1.0
  H  H42  1  0.58919000  0.85674000  0.45440000  1.0
  H  H43  1  0.41081000  0.14326000  0.54560000  1.0
  C  C44  1  0.20502000  0.18744000  0.09365000  1.0
  C  C45  1  0.79499000  0.81256000  0.90635000  1.0
  C  C46  1  0.16556000  0.08027000  0.13371000  1.0
  C  C47  1  0.83444000  0.91973000  0.86628000  1.0
  C  C48  1  0.16193000  0.04171000  0.06377000  1.0
  C  C49  1  0.83806000  0.95829000  0.93623000  1.0
  C  C50  1  0.13316000  0.94197000  0.09291000  1.0
  C  C51  1  0.86683000  0.05803000  0.90708000  1.0
  C  C52  1  0.10183000  0.87986000  0.19388000  1.0
  C  C53  1  0.89816000  0.12014000  0.80612000  1.0
  C  C54  1  0.10359000  0.91722000  0.26443000  1.0
  C  C55  1  0.89640000  0.08278000  0.73557000  1.0
  C  C56  1  0.13684000  0.01697000  0.23604000  1.0
  C  C57  1  0.86316000  0.98303000  0.76396000  1.0
  C  C58  1  0.13349000  0.05133000  0.31646000  1.0
  C  C59  1  0.86651000  0.94867000  0.68354000  1.0
  C  C60  1  0.06777000  0.31192000  0.40725000  1.0
  C  C61  1  0.93223000  0.68808000  0.59276000  1.0
  C  C62  1  0.98462000  0.41760000  0.36609000  1.0
  C  C63  1  0.01538000  0.58240000  0.63391000  1.0
  C  C64  1  0.90006000  0.45343000  0.43513000  1.0
  C  C65  1  0.09994000  0.54657000  0.56487000  1.0
  C  C66  1  0.83575000  0.55377000  0.40514000  1.0
  C  C67  1  0.16426000  0.44623000  0.59486000  1.0
  C  C68  1  0.85312000  0.61944000  0.30464000  1.0
  C  C69  1  0.14688000  0.38056000  0.69536000  1.0
  C  C70  1  0.92910000  0.58382000  0.23461000  1.0
  C  C71  1  0.07089000  0.41617000  0.76539000  1.0
  C  C72  1  0.99518000  0.48310000  0.26358000  1.0
  C  C73  1  0.00482000  0.51690000  0.73642000  1.0
  C  C74  1  0.06070000  0.44941000  0.18305000  1.0
  C  C75  1  0.93930000  0.55059000  0.81695000  1.0
  C  C76  1  0.54570000  0.36754000  0.35225000  1.0
  C  C77  1  0.45430000  0.63246000  0.64775000  1.0
  C  C78  1  0.48816000  0.47493000  0.29000000  1.0
  C  C79  1  0.51183000  0.52507000  0.71000000  1.0
  C  C80  1  0.43045000  0.54091000  0.33505000  1.0
  C  C81  1  0.56955000  0.45909000  0.66495000  1.0
  C  C82  1  0.38364000  0.64205000  0.27811000  1.0
  C  C83  1  0.61636000  0.35795000  0.72189000  1.0
  C  C84  1  0.40239000  0.67965000  0.17436000  1.0
  C  C85  1  0.59761000  0.32035000  0.82564000  1.0
  C  C86  1  0.46283000  0.61530000  0.12832000  1.0
  C  C87  1  0.53717000  0.38470000  0.87168000  1.0
  C  C88  1  0.50068000  0.51241000  0.18545000  1.0
  C  C89  1  0.49931000  0.48759000  0.81456000  1.0
  C  C90  1  0.55156000  0.44545000  0.13188000  1.0
  C  C91  1  0.44844000  0.55455000  0.86812000  1.0
  C  C92  1  0.66911000  0.13748000  0.15306000  1.0
  C  C93  1  0.33090000  0.86252000  0.84695000  1.0
  C  C94  1  0.62858000  0.03119000  0.21296000  1.0
  C  C95  1  0.37142000  0.96881000  0.78704000  1.0
  C  C96  1  0.62193000  0.96821000  0.16601000  1.0
  C  C97  1  0.37807000  0.03179000  0.83399000  1.0
  C  C98  1  0.59677000  0.86723000  0.22147000  1.0
  C  C99  1  0.40323000  0.13277000  0.77853000  1.0
  C  C100  1  0.58546000  0.82685000  0.32535000  1.0
  C  C101  1  0.41454000  0.17315000  0.67465000  1.0
  C  C102  1  0.59211000  0.88868000  0.37314000  1.0
  C  C103  1  0.40789000  0.11132000  0.62686000  1.0
  C  C104  1  0.60669000  0.99168000  0.31760000  1.0
  C  C105  1  0.39331000  0.00832000  0.68240000  1.0
  C  C106  1  0.59307000  0.05753000  0.37207000  1.0
  C  C107  1  0.40692000  0.94247000  0.62793000  1.0
  O  O108  1  0.11938000  0.25261000  0.02425000  1.0
  O  O109  1  0.88063000  0.74739000  0.97575000  1.0
  O  O110  1  0.32695000  0.20884000  0.12632000  1.0
  O  O111  1  0.67305000  0.79116000  0.87368000  1.0
  O  O112  1  0.14404000  0.98621000  0.40501000  1.0
  O  O113  1  0.85597000  0.01379000  0.59498000  1.0
  O  O114  1  0.11704000  0.14646000  0.29528000  1.0
  O  O115  1  0.88296000  0.85354000  0.70472000  1.0
  O  O116  1  0.98342000  0.24404000  0.47668000  1.0
  O  O117  1  0.01659000  0.75596000  0.52332000  1.0
  O  O118  1  0.22311000  0.29437000  0.37562000  1.0
  O  O119  1  0.77690000  0.70563000  0.62439000  1.0
  O  O120  1  0.08639000  0.51424000  0.09441000  1.0
  O  O121  1  0.91361000  0.48576000  0.90559000  1.0
  O  O122  1  0.08396000  0.35433000  0.20398000  1.0
  O  O123  1  0.91604000  0.64567000  0.79602000  1.0
  O  O124  1  0.57028000  0.33970000  0.44174000  1.0
  O  O125  1  0.42972000  0.66031000  0.55826000  1.0
  O  O126  1  0.57395000  0.30742000  0.30788000  1.0
  O  O127  1  0.42605000  0.69258000  0.69212000  1.0
  O  O128  1  0.70438000  0.44444000  0.09020000  1.0
  O  O129  1  0.29562000  0.55556000  0.90979000  1.0
  O  O130  1  0.43580000  0.39670000  0.12675000  1.0
  O  O131  1  0.56419000  0.60330000  0.87325000  1.0
  O  O132  1  0.72319000  0.05846000  0.41240000  1.0
  O  O133  1  0.27681000  0.94154000  0.58760000  1.0
  O  O134  1  0.44741000  0.10611000  0.37852000  1.0
  O  O135  1  0.55259000  0.89389000  0.62149000  1.0
  O  O136  1  0.63801000  0.19691000  0.19796000  1.0
  O  O137  1  0.36199000  0.80309000  0.80205000  1.0
  O  O138  1  0.73650000  0.16503000  0.06477000  1.0
  O  O139  1  0.26352000  0.83497000  0.93524000  1.0
