# generated using pymatgen
data_ZnH8C12(BrN2)2
_symmetry_space_group_name_H-M   'P 1'
_cell_length_a   14.56730000
_cell_length_b   19.14810000
_cell_length_c   30.36380000
_cell_angle_alpha   101.22100000
_cell_angle_beta   89.98280000
_cell_angle_gamma   112.35900000
_symmetry_Int_Tables_number   1
_chemical_formula_structural   ZnH8C12(BrN2)2
_chemical_formula_sum   'Zn12 H96 C144 Br24 N48'
_cell_volume   7657.65748362
_cell_formula_units_Z   12
loop_
 _symmetry_equiv_pos_site_id
 _symmetry_equiv_pos_as_xyz
  1  'x, y, z'
loop_
 _atom_site_type_symbol
 _atom_site_label
 _atom_site_symmetry_multiplicity
 _atom_site_fract_x
 _atom_site_fract_y
 _atom_site_fract_z
 _atom_site_occupancy
  Zn  Zn0  1  0.52645000  0.34743000  0.26901000  1.0
  Zn  Zn1  1  0.93891000  0.16301000  0.59543000  1.0
  Zn  Zn2  1  0.27146000  0.76023000  0.94272000  1.0
  Zn  Zn3  1  0.82110000  0.34747000  0.76909000  1.0
  Zn  Zn4  1  0.22370000  0.16251000  0.09549000  1.0
  Zn  Zn5  1  0.48865000  0.76001000  0.44279000  1.0
  Zn  Zn6  1  0.17889000  0.65253000  0.23091000  1.0
  Zn  Zn7  1  0.77630000  0.83749000  0.90451000  1.0
  Zn  Zn8  1  0.51135000  0.23998000  0.55721000  1.0
  Zn  Zn9  1  0.47355000  0.65258000  0.73099000  1.0
  Zn  Zn10  1  0.06109000  0.83698000  0.40457000  1.0
  Zn  Zn11  1  0.72855000  0.23977000  0.05728000  1.0
  H  H12  1  0.42644000  0.69253000  0.93315000  1.0
  H  H13  1  0.46098000  0.58925000  0.88067000  1.0
  H  H14  1  0.18702000  0.53913000  0.80271000  1.0
  H  H15  1  0.16648000  0.64859000  0.85712000  1.0
  H  H16  1  0.61060000  0.50886000  0.83068000  1.0
  H  H17  1  0.76505000  0.47869000  0.82393000  1.0
  H  H18  1  0.61518000  0.27285000  0.73331000  1.0
  H  H19  1  0.45487000  0.29424000  0.73635000  1.0
  H  H20  1  0.15294000  0.19332000  0.62015000  1.0
  H  H21  1  0.28808000  0.27832000  0.67892000  1.0
  H  H22  1  0.09387000  0.39346000  0.73066000  1.0
  H  H23  1  0.96605000  0.30450000  0.66822000  1.0
  H  H24  1  0.02334000  0.03936000  0.57325000  1.0
  H  H25  1  0.15729000  0.01712000  0.52601000  1.0
  H  H26  1  0.17979000  0.21313000  0.47071000  1.0
  H  H27  1  0.04540000  0.22773000  0.52017000  1.0
  H  H28  1  0.43986000  0.10269000  0.33295000  1.0
  H  H29  1  0.50300000  0.19037000  0.27786000  1.0
  H  H30  1  0.43363000  0.36251000  0.35717000  1.0
  H  H31  1  0.36177000  0.27956000  0.41413000  1.0
  H  H32  1  0.33829000  0.95915000  0.50938000  1.0
  H  H33  1  0.39695000  0.85019000  0.50828000  1.0
  H  H34  1  0.48494000  0.85711000  0.37912000  1.0
  H  H35  1  0.43047000  0.96613000  0.37502000  1.0
  H  H36  1  0.26599000  0.69228000  0.43314000  1.0
  H  H37  1  0.12819000  0.58904000  0.38061000  1.0
  H  H38  1  0.35228000  0.53916000  0.30262000  1.0
  H  H39  1  0.48222000  0.64860000  0.35707000  1.0
  H  H40  1  0.89823000  0.50872000  0.33061000  1.0
  H  H41  1  0.71363000  0.47858000  0.32382000  1.0
  H  H42  1  0.65779000  0.27275000  0.23319000  1.0
  H  H43  1  0.83950000  0.29418000  0.23624000  1.0
  H  H44  1  0.04025000  0.19339000  0.12005000  1.0
  H  H45  1  0.99035000  0.27852000  0.17889000  1.0
  H  H46  1  0.29976000  0.39335000  0.23047000  1.0
  H  H47  1  0.33835000  0.30420000  0.16803000  1.0
  H  H48  1  0.01553000  0.03907000  0.07338000  1.0
  H  H49  1  0.85956000  0.01696000  0.02604000  1.0
  H  H50  1  0.03359000  0.21284000  0.97074000  1.0
  H  H51  1  0.18244000  0.22733000  0.02029000  1.0
  H  H52  1  0.66298000  0.10270000  0.83310000  1.0
  H  H53  1  0.68739000  0.19031000  0.77800000  1.0
  H  H54  1  0.92895000  0.36250000  0.85719000  1.0
  H  H55  1  0.91807000  0.27961000  0.91415000  1.0
  H  H56  1  0.62093000  0.95905000  0.00936000  1.0
  H  H57  1  0.45323000  0.85012000  0.00824000  1.0
  H  H58  1  0.37251000  0.85702000  0.87903000  1.0
  H  H59  1  0.53614000  0.96603000  0.87494000  1.0
  H  H60  1  0.73400000  0.30771000  0.56686000  1.0
  H  H61  1  0.87180000  0.41096000  0.61939000  1.0
  H  H62  1  0.64772000  0.46083000  0.69738000  1.0
  H  H63  1  0.51778000  0.35140000  0.64293000  1.0
  H  H64  1  0.10177000  0.49128000  0.66939000  1.0
  H  H65  1  0.28638000  0.52142000  0.67618000  1.0
  H  H66  1  0.34220000  0.72726000  0.76681000  1.0
  H  H67  1  0.16049000  0.70582000  0.76376000  1.0
  H  H68  1  0.95976000  0.80661000  0.87995000  1.0
  H  H69  1  0.00966000  0.72148000  0.82111000  1.0
  H  H70  1  0.70024000  0.60665000  0.76953000  1.0
  H  H71  1  0.66166000  0.69580000  0.83197000  1.0
  H  H72  1  0.98447000  0.96093000  0.92662000  1.0
  H  H73  1  0.14045000  0.98304000  0.97396000  1.0
  H  H74  1  0.96641000  0.78716000  0.02926000  1.0
  H  H75  1  0.81756000  0.77267000  0.97971000  1.0
  H  H76  1  0.33702000  0.89730000  0.16690000  1.0
  H  H77  1  0.31260000  0.80969000  0.22199000  1.0
  H  H78  1  0.07104000  0.63750000  0.14281000  1.0
  H  H79  1  0.08193000  0.72038000  0.08585000  1.0
  H  H80  1  0.37907000  0.04095000  0.99064000  1.0
  H  H81  1  0.54677000  0.14988000  0.99177000  1.0
  H  H82  1  0.62748000  0.14297000  0.12098000  1.0
  H  H83  1  0.46385000  0.03397000  0.12506000  1.0
  H  H84  1  0.57356000  0.30747000  0.06685000  1.0
  H  H85  1  0.53902000  0.41075000  0.11933000  1.0
  H  H86  1  0.81298000  0.46087000  0.19729000  1.0
  H  H87  1  0.83352000  0.35141000  0.14288000  1.0
  H  H88  1  0.38939000  0.49114000  0.16932000  1.0
  H  H89  1  0.23495000  0.52131000  0.17607000  1.0
  H  H90  1  0.38482000  0.72715000  0.26669000  1.0
  H  H91  1  0.54513000  0.70576000  0.26365000  1.0
  H  H92  1  0.84706000  0.80668000  0.37985000  1.0
  H  H93  1  0.71192000  0.72168000  0.32108000  1.0
  H  H94  1  0.90613000  0.60654000  0.26935000  1.0
  H  H95  1  0.03395000  0.69550000  0.33178000  1.0
  H  H96  1  0.97666000  0.96064000  0.42675000  1.0
  H  H97  1  0.84271000  0.98288000  0.47399000  1.0
  H  H98  1  0.82020000  0.78687000  0.52929000  1.0
  H  H99  1  0.95460000  0.77226000  0.47983000  1.0
  H  H100  1  0.56014000  0.89731000  0.66705000  1.0
  H  H101  1  0.49700000  0.80963000  0.72214000  1.0
  H  H102  1  0.56637000  0.63749000  0.64283000  1.0
  H  H103  1  0.63823000  0.72044000  0.58587000  1.0
  H  H104  1  0.66171000  0.04086000  0.49062000  1.0
  H  H105  1  0.60305000  0.14982000  0.49172000  1.0
  H  H106  1  0.51506000  0.14290000  0.62088000  1.0
  H  H107  1  0.56953000  0.03387000  0.62498000  1.0
  C  C108  1  0.37525000  0.65744000  0.90382000  1.0
  C  C109  1  0.39410000  0.59967000  0.87472000  1.0
  C  C110  1  0.32587000  0.55579000  0.83767000  1.0
  C  C111  1  0.24205000  0.57271000  0.83093000  1.0
  C  C112  1  0.22971000  0.63236000  0.86104000  1.0
  C  C113  1  0.34029000  0.49236000  0.80595000  1.0
  C  C114  1  0.42906000  0.41945000  0.78255000  1.0
  C  C115  1  0.27953000  0.39149000  0.74615000  1.0
  C  C116  1  0.52088000  0.40348000  0.78377000  1.0
  C  C117  1  0.60876000  0.45562000  0.80923000  1.0
  C  C118  1  0.69407000  0.43915000  0.80565000  1.0
  C  C119  1  0.60963000  0.32339000  0.75513000  1.0
  C  C120  1  0.52184000  0.33566000  0.75669000  1.0
  C  C121  1  0.14222000  0.23831000  0.64502000  1.0
  C  C122  1  0.21759000  0.28553000  0.67805000  1.0
  C  C123  1  0.20123000  0.34237000  0.70978000  1.0
  C  C124  1  0.10999000  0.35047000  0.70634000  1.0
  C  C125  1  0.03874000  0.30115000  0.67182000  1.0
  C  C126  1  0.06076000  0.07618000  0.55000000  1.0
  C  C127  1  0.13406000  0.06420000  0.52403000  1.0
  C  C128  1  0.17853000  0.11415000  0.49514000  1.0
  C  C129  1  0.14658000  0.17386000  0.49311000  1.0
  C  C130  1  0.07312000  0.18216000  0.52022000  1.0
  C  C131  1  0.25646000  0.10360000  0.46655000  1.0
  C  C132  1  0.35059000  0.03595000  0.44135000  1.0
  C  C133  1  0.35449000  0.13450000  0.40980000  1.0
  C  C134  1  0.39518000  0.18483000  0.37729000  1.0
  C  C135  1  0.43700000  0.15972000  0.33902000  1.0
  C  C136  1  0.47297000  0.20820000  0.30902000  1.0
  C  C137  1  0.43235000  0.30424000  0.35323000  1.0
  C  C138  1  0.39276000  0.25848000  0.38430000  1.0
  C  C139  1  0.38216000  0.97148000  0.44246000  1.0
  C  C140  1  0.37121000  0.93817000  0.48021000  1.0
  C  C141  1  0.40303000  0.87823000  0.47974000  1.0
  C  C142  1  0.45214000  0.88182000  0.40712000  1.0
  C  C143  1  0.42288000  0.94209000  0.40509000  1.0
  C  C144  1  0.28210000  0.65724000  0.40379000  1.0
  C  C145  1  0.20553000  0.59949000  0.37466000  1.0
  C  C146  1  0.23003000  0.55575000  0.33759000  1.0
  C  C147  1  0.33080000  0.57272000  0.33085000  1.0
  C  C148  1  0.40274000  0.63236000  0.36099000  1.0
  C  C149  1  0.15219000  0.49232000  0.30587000  1.0
  C  C150  1  0.99047000  0.41937000  0.28248000  1.0
  C  C151  1  0.11211000  0.39148000  0.24607000  1.0
  C  C152  1  0.88263000  0.40337000  0.28368000  1.0
  C  C153  1  0.84686000  0.45550000  0.30913000  1.0
  C  C154  1  0.74510000  0.43906000  0.30554000  1.0
  C  C155  1  0.71382000  0.32330000  0.25502000  1.0
  C  C156  1  0.81389000  0.33556000  0.25659000  1.0
  C  C157  1  0.09598000  0.23833000  0.14490000  1.0
  C  C158  1  0.06800000  0.28563000  0.17796000  1.0
  C  C159  1  0.14126000  0.34235000  0.20970000  1.0
  C  C160  1  0.24056000  0.35037000  0.20620000  1.0
  C  C161  1  0.26235000  0.30098000  0.17166000  1.0
  C  C162  1  0.01515000  0.07585000  0.05006000  1.0
  C  C163  1  0.92997000  0.06398000  0.02408000  1.0
  C  C164  1  0.93573000  0.11393000  0.99517000  1.0
  C  C165  1  0.02747000  0.17354000  0.99313000  1.0
  C  C166  1  0.10910000  0.18180000  0.02029000  1.0
  C  C167  1  0.84734000  0.10344000  0.96656000  1.0
  C  C168  1  0.68563000  0.03578000  0.94132000  1.0
  C  C169  1  0.78029000  0.13442000  0.90984000  1.0
  C  C170  1  0.78989000  0.18481000  0.87738000  1.0
  C  C171  1  0.72286000  0.15971000  0.83916000  1.0
  C  C172  1  0.73528000  0.20818000  0.80914000  1.0
  C  C173  1  0.87198000  0.30422000  0.85327000  1.0
  C  C174  1  0.86595000  0.25849000  0.88435000  1.0
  C  C175  1  0.58958000  0.97130000  0.94240000  1.0
  C  C176  1  0.56712000  0.93804000  0.98016000  1.0
  C  C177  1  0.47530000  0.87816000  0.97969000  1.0
  C  C178  1  0.42999000  0.88167000  0.90702000  1.0
  C  C179  1  0.51954000  0.94195000  0.90501000  1.0
  C  C180  1  0.71790000  0.34276000  0.59621000  1.0
  C  C181  1  0.79447000  0.40050000  0.62534000  1.0
  C  C182  1  0.76997000  0.44425000  0.66241000  1.0
  C  C183  1  0.66920000  0.42728000  0.66915000  1.0
  C  C184  1  0.59726000  0.36764000  0.63901000  1.0
  C  C185  1  0.84781000  0.50768000  0.69413000  1.0
  C  C186  1  0.00953000  0.58063000  0.71752000  1.0
  C  C187  1  0.88789000  0.60852000  0.75393000  1.0
  C  C188  1  0.11737000  0.59663000  0.71632000  1.0
  C  C189  1  0.15314000  0.54450000  0.69086000  1.0
  C  C190  1  0.25490000  0.56095000  0.69446000  1.0
  C  C191  1  0.28618000  0.67670000  0.74498000  1.0
  C  C192  1  0.18611000  0.66444000  0.74341000  1.0
  C  C193  1  0.90403000  0.76167000  0.85510000  1.0
  C  C194  1  0.93200000  0.71437000  0.82204000  1.0
  C  C195  1  0.85874000  0.65765000  0.79030000  1.0
  C  C196  1  0.75944000  0.64962000  0.79380000  1.0
  C  C197  1  0.73765000  0.69903000  0.82834000  1.0
  C  C198  1  0.98485000  0.92415000  0.94994000  1.0
  C  C199  1  0.07003000  0.93602000  0.97592000  1.0
  C  C200  1  0.06427000  0.88607000  0.00483000  1.0
  C  C201  1  0.97253000  0.82647000  0.00687000  1.0
  C  C202  1  0.89091000  0.81820000  0.97971000  1.0
  C  C203  1  0.15266000  0.89656000  0.03344000  1.0
  C  C204  1  0.31437000  0.96422000  0.05868000  1.0
  C  C205  1  0.21970000  0.86558000  0.09016000  1.0
  C  C206  1  0.21010000  0.81519000  0.12263000  1.0
  C  C207  1  0.27714000  0.84028000  0.16084000  1.0
  C  C208  1  0.26472000  0.79182000  0.19086000  1.0
  C  C209  1  0.12801000  0.69578000  0.14672000  1.0
  C  C210  1  0.13405000  0.74151000  0.11565000  1.0
  C  C211  1  0.41042000  0.02870000  0.05760000  1.0
  C  C212  1  0.43288000  0.06196000  0.01984000  1.0
  C  C213  1  0.52470000  0.12184000  0.02031000  1.0
  C  C214  1  0.57001000  0.11833000  0.09298000  1.0
  C  C215  1  0.48045000  0.05804000  0.09499000  1.0
  C  C216  1  0.62475000  0.34256000  0.09618000  1.0
  C  C217  1  0.60590000  0.40033000  0.12528000  1.0
  C  C218  1  0.67413000  0.44421000  0.16233000  1.0
  C  C219  1  0.75796000  0.42729000  0.16907000  1.0
  C  C220  1  0.77029000  0.36764000  0.13896000  1.0
  C  C221  1  0.65971000  0.50764000  0.19405000  1.0
  C  C222  1  0.57094000  0.58055000  0.21745000  1.0
  C  C223  1  0.72047000  0.60851000  0.25385000  1.0
  C  C224  1  0.47912000  0.59652000  0.21623000  1.0
  C  C225  1  0.39124000  0.54438000  0.19077000  1.0
  C  C226  1  0.30593000  0.56085000  0.19435000  1.0
  C  C227  1  0.39037000  0.67661000  0.24487000  1.0
  C  C228  1  0.47816000  0.66434000  0.24331000  1.0
  C  C229  1  0.85777000  0.76169000  0.35498000  1.0
  C  C230  1  0.78241000  0.71447000  0.32195000  1.0
  C  C231  1  0.79877000  0.65763000  0.29022000  1.0
  C  C232  1  0.89001000  0.64953000  0.29366000  1.0
  C  C233  1  0.96126000  0.69885000  0.32818000  1.0
  C  C234  1  0.93924000  0.92382000  0.45000000  1.0
  C  C235  1  0.86595000  0.93580000  0.47597000  1.0
  C  C236  1  0.82147000  0.88585000  0.50486000  1.0
  C  C237  1  0.85342000  0.82614000  0.50689000  1.0
  C  C238  1  0.92688000  0.81784000  0.47978000  1.0
  C  C239  1  0.74354000  0.89640000  0.53345000  1.0
  C  C240  1  0.64941000  0.96405000  0.55865000  1.0
  C  C241  1  0.64551000  0.86550000  0.59020000  1.0
  C  C242  1  0.60482000  0.81518000  0.62271000  1.0
  C  C243  1  0.56300000  0.84029000  0.66098000  1.0
  C  C244  1  0.52703000  0.79180000  0.69098000  1.0
  C  C245  1  0.56765000  0.69576000  0.64677000  1.0
  C  C246  1  0.60724000  0.74152000  0.61570000  1.0
  C  C247  1  0.61784000  0.02852000  0.55754000  1.0
  C  C248  1  0.62879000  0.06183000  0.51979000  1.0
  C  C249  1  0.59697000  0.12177000  0.52026000  1.0
  C  C250  1  0.54786000  0.11818000  0.59288000  1.0
  C  C251  1  0.57712000  0.05791000  0.59491000  1.0
  Br  Br252  1  0.49678000  0.46147000  0.29352000  1.0
  Br  Br253  1  0.48033000  0.26154000  0.19784000  1.0
  Br  Br254  1  0.86537000  0.23072000  0.56010000  1.0
  Br  Br255  1  0.86674000  0.05743000  0.63038000  1.0
  Br  Br256  1  0.15487000  0.79192000  0.90446000  1.0
  Br  Br257  1  0.26255000  0.72674000  0.01366000  1.0
  Br  Br258  1  0.96489000  0.46153000  0.79363000  1.0
  Br  Br259  1  0.78142000  0.26186000  0.69788000  1.0
  Br  Br260  1  0.36506000  0.23010000  0.06002000  1.0
  Br  Br261  1  0.18942000  0.05703000  0.13056000  1.0
  Br  Br262  1  0.63706000  0.79088000  0.40463000  1.0
  Br  Br263  1  0.46280000  0.72655000  0.51374000  1.0
  Br  Br264  1  0.03511000  0.53846000  0.20637000  1.0
  Br  Br265  1  0.21857000  0.73813000  0.30212000  1.0
  Br  Br266  1  0.63494000  0.76989000  0.93998000  1.0
  Br  Br267  1  0.81058000  0.94297000  0.86944000  1.0
  Br  Br268  1  0.36294000  0.20911000  0.59537000  1.0
  Br  Br269  1  0.53720000  0.27345000  0.48625000  1.0
  Br  Br270  1  0.50322000  0.53854000  0.70648000  1.0
  Br  Br271  1  0.51969000  0.73848000  0.80216000  1.0
  Br  Br272  1  0.13462000  0.76927000  0.43991000  1.0
  Br  Br273  1  0.13328000  0.94257000  0.36962000  1.0
  Br  Br274  1  0.84513000  0.20808000  0.09555000  1.0
  Br  Br275  1  0.73747000  0.27327000  0.98634000  1.0
  N  N276  1  0.29489000  0.67370000  0.89702000  1.0
  N  N277  1  0.69472000  0.37442000  0.77886000  1.0
  N  N278  1  0.05417000  0.24546000  0.64192000  1.0
  N  N279  1  0.42318000  0.47909000  0.81230000  1.0
  N  N280  1  0.35790000  0.37213000  0.75028000  1.0
  N  N281  1  0.26811000  0.45189000  0.77257000  1.0
  N  N282  1  0.03138000  0.13447000  0.54837000  1.0
  N  N283  1  0.44321000  0.85088000  0.44393000  1.0
  N  N284  1  0.47121000  0.27934000  0.31608000  1.0
  N  N285  1  0.28782000  0.14892000  0.43655000  1.0
  N  N286  1  0.28897000  0.04868000  0.47181000  1.0
  N  N287  1  0.38555000  0.07698000  0.40952000  1.0
  N  N288  1  0.37875000  0.67361000  0.39698000  1.0
  N  N289  1  0.67974000  0.37434000  0.27874000  1.0
  N  N290  1  0.19115000  0.24533000  0.14179000  1.0
  N  N291  1  0.05600000  0.47906000  0.31220000  1.0
  N  N292  1  0.01436000  0.37206000  0.25022000  1.0
  N  N293  1  0.18392000  0.45185000  0.27249000  1.0
  N  N294  1  0.10287000  0.13407000  0.04846000  1.0
  N  N295  1  0.40790000  0.85080000  0.94386000  1.0
  N  N296  1  0.80818000  0.27931000  0.81616000  1.0
  N  N297  1  0.86132000  0.14886000  0.93661000  1.0
  N  N298  1  0.75993000  0.04846000  0.97178000  1.0
  N  N299  1  0.69174000  0.07684000  0.90953000  1.0
  N  N300  1  0.62124000  0.32639000  0.60302000  1.0
  N  N301  1  0.32026000  0.62567000  0.72126000  1.0
  N  N302  1  0.80886000  0.75467000  0.85821000  1.0
  N  N303  1  0.94400000  0.52094000  0.68780000  1.0
  N  N304  1  0.98564000  0.62794000  0.74978000  1.0
  N  N305  1  0.81608000  0.54815000  0.72751000  1.0
  N  N306  1  0.89713000  0.86593000  0.95154000  1.0
  N  N307  1  0.59210000  0.14920000  0.05614000  1.0
  N  N308  1  0.19182000  0.72069000  0.18384000  1.0
  N  N309  1  0.13868000  0.85114000  0.06339000  1.0
  N  N310  1  0.24007000  0.95154000  0.02822000  1.0
  N  N311  1  0.30826000  0.92315000  0.09047000  1.0
  N  N312  1  0.70511000  0.32630000  0.10298000  1.0
  N  N313  1  0.30528000  0.62558000  0.22114000  1.0
  N  N314  1  0.94583000  0.75454000  0.35808000  1.0
  N  N315  1  0.57682000  0.52091000  0.18770000  1.0
  N  N316  1  0.64210000  0.62787000  0.24972000  1.0
  N  N317  1  0.73189000  0.54811000  0.22743000  1.0
  N  N318  1  0.96862000  0.86553000  0.45163000  1.0
  N  N319  1  0.55679000  0.14912000  0.55607000  1.0
  N  N320  1  0.52879000  0.72067000  0.68392000  1.0
  N  N321  1  0.71217000  0.85108000  0.56345000  1.0
  N  N322  1  0.71104000  0.95132000  0.52819000  1.0
  N  N323  1  0.61445000  0.92302000  0.59047000  1.0
