# generated using pymatgen
data_ZnNiH14(C5N4)2
_symmetry_space_group_name_H-M   'P 1'
_cell_length_a   8.42538000
_cell_length_b   8.59618000
_cell_length_c   11.00620000
_cell_angle_alpha   76.00440000
_cell_angle_beta   76.53850000
_cell_angle_gamma   68.88790000
_symmetry_Int_Tables_number   1
_chemical_formula_structural   ZnNiH14(C5N4)2
_chemical_formula_sum   'Zn2 Ni2 H28 C20 N16'
_cell_volume   712.14900319
_cell_formula_units_Z   2
loop_
 _symmetry_equiv_pos_site_id
 _symmetry_equiv_pos_as_xyz
  1  'x, y, z'
loop_
 _atom_site_type_symbol
 _atom_site_label
 _atom_site_symmetry_multiplicity
 _atom_site_fract_x
 _atom_site_fract_y
 _atom_site_fract_z
 _atom_site_occupancy
  Zn  Zn0  1  0.82527000  0.65967000  0.26934000  1.0
  Zn  Zn1  1  0.17474000  0.34033000  0.73066000  1.0
  Ni  Ni2  1  0.50000000  0.49999000  0.00000000  1.0
  Ni  Ni3  1  0.00000000  0.00000000  0.50000000  1.0
  H  H4  1  0.68536000  0.44342000  0.43553000  1.0
  H  H5  1  0.31464000  0.55658000  0.56448000  1.0
  H  H6  1  0.60721000  0.62703000  0.48659000  1.0
  H  H7  1  0.39279000  0.37297000  0.51341000  1.0
  H  H8  1  0.80458000  0.49681000  0.50601000  1.0
  H  H9  1  0.19542000  0.50319000  0.49399000  1.0
  H  H10  1  0.94400000  0.70180000  0.02630000  1.0
  H  H11  1  0.05601000  0.29819000  0.97370000  1.0
  H  H12  1  0.05865000  0.77211000  0.08781000  1.0
  H  H13  1  0.94136000  0.22788000  0.91219000  1.0
  H  H14  1  0.86376000  0.89337000  0.06265000  1.0
  H  H15  1  0.13624000  0.10663000  0.93735000  1.0
  H  H16  1  0.21985000  0.51168000  0.28744000  1.0
  H  H17  1  0.78015000  0.48832000  0.71257000  1.0
  H  H18  1  0.46721000  0.24506000  0.28353000  1.0
  H  H19  1  0.53279000  0.75495000  0.71647000  1.0
  H  H20  1  0.89616000  0.29514000  0.21142000  1.0
  H  H21  1  0.10384000  0.70487000  0.78858000  1.0
  H  H22  1  0.13455000  0.02228000  0.19187000  1.0
  H  H23  1  0.86546000  0.97772000  0.80813000  1.0
  H  H24  1  0.41333000  0.83955000  0.26131000  1.0
  H  H25  1  0.58667000  0.16046000  0.73869000  1.0
  H  H26  1  0.51377000  0.93873000  0.12203000  1.0
  H  H27  1  0.48623000  0.06127000  0.87797000  1.0
  H  H28  1  0.57443000  0.91942000  0.37897000  1.0
  H  H29  1  0.42557000  0.08058000  0.62103000  1.0
  H  H30  1  0.67379000  0.00118000  0.24509000  1.0
  H  H31  1  0.32622000  0.99882000  0.75491000  1.0
  C  C32  1  0.77488000  0.12032000  0.47751000  1.0
  C  C33  1  0.22513000  0.87967000  0.52249000  1.0
  C  C34  1  0.61486000  0.54445000  0.10319000  1.0
  C  C35  1  0.38514000  0.45553000  0.89682000  1.0
  C  C36  1  0.98768000  0.83677000  0.42468000  1.0
  C  C37  1  0.01231000  0.16322000  0.57531000  1.0
  C  C38  1  0.20567000  0.39897000  0.26833000  1.0
  C  C39  1  0.79432000  0.60104000  0.73167000  1.0
  C  C40  1  0.34471000  0.24977000  0.26361000  1.0
  C  C41  1  0.65530000  0.75024000  0.73639000  1.0
  C  C42  1  0.02583000  0.27960000  0.22437000  1.0
  C  C43  1  0.97418000  0.72040000  0.77563000  1.0
  C  C44  1  0.63739000  0.27681000  0.01595000  1.0
  C  C45  1  0.36262000  0.72318000  0.98405000  1.0
  C  C46  1  0.32322000  0.10942000  0.23502000  1.0
  C  C47  1  0.67678000  0.89059000  0.76498000  1.0
  C  C48  1  0.15886000  0.12731000  0.21480000  1.0
  C  C49  1  0.84114000  0.87271000  0.78520000  1.0
  C  C50  1  0.46670000  0.94397000  0.22349000  1.0
  C  C51  1  0.53330000  0.05603000  0.77651000  1.0
  N  N52  1  0.71686000  0.54393000  0.44507000  1.0
  N  N53  1  0.28314000  0.45607000  0.55493000  1.0
  N  N54  1  0.93662000  0.77013000  0.09265000  1.0
  N  N55  1  0.06339000  0.22986000  0.90735000  1.0
  N  N56  1  0.04783000  0.41511000  0.25019000  1.0
  N  N57  1  0.95217000  0.58489000  0.74981000  1.0
  N  N58  1  0.97593000  0.73677000  0.37388000  1.0
  N  N59  1  0.02406000  0.26323000  0.62612000  1.0
  N  N60  1  0.68633000  0.57635000  0.16867000  1.0
  N  N61  1  0.31366000  0.42365000  0.83134000  1.0
  N  N62  1  0.63137000  0.19623000  0.46288000  1.0
  N  N63  1  0.36860000  0.80378000  0.53712000  1.0
  N  N64  1  0.61538000  0.91095000  0.28492000  1.0
  N  N65  1  0.38462000  0.08905000  0.71508000  1.0
  N  N66  1  0.72417000  0.13385000  0.02585000  1.0
  N  N67  1  0.27584000  0.86613000  0.97415000  1.0
