# generated using pymatgen
data_HgH14C18N4(ClO)2
_symmetry_space_group_name_H-M   'P 1'
_cell_length_a   5.00685000
_cell_length_b   13.03570000
_cell_length_c   13.77820000
_cell_angle_alpha   83.78750000
_cell_angle_beta   89.99980000
_cell_angle_gamma   89.99990000
_symmetry_Int_Tables_number   1
_chemical_formula_structural   HgH14C18N4(ClO)2
_chemical_formula_sum   'Hg2 H28 C36 N8 Cl4 O4'
_cell_volume   893.99163845
_cell_formula_units_Z   2
loop_
 _symmetry_equiv_pos_site_id
 _symmetry_equiv_pos_as_xyz
  1  'x, y, z'
loop_
 _atom_site_type_symbol
 _atom_site_label
 _atom_site_symmetry_multiplicity
 _atom_site_fract_x
 _atom_site_fract_y
 _atom_site_fract_z
 _atom_site_occupancy
  Hg  Hg0  1  0.98769000  0.50000000  0.75000000  1.0
  Hg  Hg1  1  0.01231000  0.50000000  0.25000000  1.0
  H  H2  1  0.39243000  0.43606000  0.94300000  1.0
  H  H3  1  0.39243000  0.56394000  0.55700000  1.0
  H  H4  1  0.60756000  0.56395000  0.05701000  1.0
  H  H5  1  0.60758000  0.43606000  0.44300000  1.0
  H  H6  1  0.26824000  0.29674000  0.69161000  1.0
  H  H7  1  0.26824000  0.70326000  0.80839000  1.0
  H  H8  1  0.73177000  0.70325000  0.30839000  1.0
  H  H9  1  0.73177000  0.29674000  0.19161000  1.0
  H  H10  1  0.90061000  0.18088000  0.88601000  1.0
  H  H11  1  0.90061000  0.81912000  0.61399000  1.0
  H  H12  1  0.09939000  0.81911000  0.11398000  1.0
  H  H13  1  0.09939000  0.18088000  0.38601000  1.0
  H  H14  1  0.77209000  0.31763000  0.99518000  1.0
  H  H15  1  0.77209000  0.68237000  0.50482000  1.0
  H  H16  1  0.22791000  0.68237000  0.00482000  1.0
  H  H17  1  0.22792000  0.31763000  0.49518000  1.0
  H  H18  1  0.27502000  0.12740000  0.68316000  1.0
  H  H19  1  0.27502000  0.87260000  0.81684000  1.0
  H  H20  1  0.72497000  0.87260000  0.31684000  1.0
  H  H21  1  0.72498000  0.12740000  0.18316000  1.0
  H  H22  1  0.13519000  0.97075000  0.62202000  1.0
  H  H23  1  0.13519000  0.02924000  0.87799000  1.0
  H  H24  1  0.86481000  0.02924000  0.37798000  1.0
  H  H25  1  0.86481000  0.97075000  0.12202000  1.0
  H  H26  1  0.84925000  0.13121000  0.52116000  1.0
  H  H27  1  0.84926000  0.86878000  0.97884000  1.0
  H  H28  1  0.15075000  0.86879000  0.47884000  1.0
  H  H29  1  0.15074000  0.13121000  0.02116000  1.0
  C  C30  1  0.45403000  0.37534000  0.89928000  1.0
  C  C31  1  0.45402000  0.62466000  0.60072000  1.0
  C  C32  1  0.54597000  0.62466000  0.10072000  1.0
  C  C33  1  0.54598000  0.37534000  0.39928000  1.0
  C  C34  1  0.38281000  0.29602000  0.75905000  1.0
  C  C35  1  0.38281000  0.70399000  0.74094000  1.0
  C  C36  1  0.61719000  0.70399000  0.24094000  1.0
  C  C37  1  0.61719000  0.29602000  0.25905000  1.0
  C  C38  1  0.59026000  0.22585000  0.78219000  1.0
  C  C39  1  0.59025000  0.77416000  0.71781000  1.0
  C  C40  1  0.40975000  0.77416000  0.21781000  1.0
  C  C41  1  0.40974000  0.22585000  0.28219000  1.0
  C  C42  1  0.73461000  0.23346000  0.86800000  1.0
  C  C43  1  0.73461000  0.76654000  0.63200000  1.0
  C  C44  1  0.26540000  0.76655000  0.13200000  1.0
  C  C45  1  0.26539000  0.23346000  0.36800000  1.0
  C  C46  1  0.67175000  0.15152000  0.71254000  1.0
  C  C47  1  0.67175000  0.84848000  0.78746000  1.0
  C  C48  1  0.32824000  0.84849000  0.28746000  1.0
  C  C49  1  0.32825000  0.15152000  0.21254000  1.0
  C  C50  1  0.66398000  0.30839000  0.92798000  1.0
  C  C51  1  0.66397000  0.69161000  0.57202000  1.0
  C  C52  1  0.33602000  0.69161000  0.07202000  1.0
  C  C53  1  0.33602000  0.30839000  0.42798000  1.0
  C  C54  1  0.49182000  0.05673000  0.58084000  1.0
  C  C55  1  0.49182000  0.94327000  0.91916000  1.0
  C  C56  1  0.50818000  0.94327000  0.41916000  1.0
  C  C57  1  0.50818000  0.05673000  0.08084000  1.0
  C  C58  1  0.29437000  0.98314000  0.56797000  1.0
  C  C59  1  0.29437000  0.01687000  0.93203000  1.0
  C  C60  1  0.70563000  0.01686000  0.43203000  1.0
  C  C61  1  0.70563000  0.98313000  0.06797000  1.0
  C  C62  1  0.69807000  0.07312000  0.51218000  1.0
  C  C63  1  0.69807000  0.92688000  0.98782000  1.0
  C  C64  1  0.30193000  0.92688000  0.48782000  1.0
  C  C65  1  0.30193000  0.07312000  0.01218000  1.0
  N  N66  1  0.31788000  0.36912000  0.81609000  1.0
  N  N67  1  0.31789000  0.63088000  0.68391000  1.0
  N  N68  1  0.68211000  0.63089000  0.18391000  1.0
  N  N69  1  0.68212000  0.36912000  0.31609000  1.0
  N  N70  1  0.46728000  0.11598000  0.66018000  1.0
  N  N71  1  0.46727000  0.88402000  0.83982000  1.0
  N  N72  1  0.53272000  0.88402000  0.33982000  1.0
  N  N73  1  0.53273000  0.11598000  0.16018000  1.0
  Cl  Cl74  1  0.88107000  0.58821000  0.88910000  1.0
  Cl  Cl75  1  0.88107000  0.41179000  0.61090000  1.0
  Cl  Cl76  1  0.11893000  0.41179000  0.11090000  1.0
  Cl  Cl77  1  0.11893000  0.58821000  0.38910000  1.0
  O  O78  1  0.91006000  0.12665000  0.70340000  1.0
  O  O79  1  0.91006000  0.87335000  0.79660000  1.0
  O  O80  1  0.08994000  0.87335000  0.29661000  1.0
  O  O81  1  0.08994000  0.12665000  0.20340000  1.0
