# generated using pymatgen
data_CoH14C14(N2Cl)2
_symmetry_space_group_name_H-M   'P 1'
_cell_length_a   7.59729000
_cell_length_b   8.90514000
_cell_length_c   10.96980000
_cell_angle_alpha   90.00000000
_cell_angle_beta   89.99990000
_cell_angle_gamma   97.06870000
_symmetry_Int_Tables_number   1
_chemical_formula_structural   CoH14C14(N2Cl)2
_chemical_formula_sum   'Co2 H28 C28 N8 Cl4'
_cell_volume   736.52012804
_cell_formula_units_Z   2
loop_
 _symmetry_equiv_pos_site_id
 _symmetry_equiv_pos_as_xyz
  1  'x, y, z'
loop_
 _atom_site_type_symbol
 _atom_site_label
 _atom_site_symmetry_multiplicity
 _atom_site_fract_x
 _atom_site_fract_y
 _atom_site_fract_z
 _atom_site_occupancy
  Co  Co0  1  0.80946000  0.19932000  0.99426000  1.0
  Co  Co1  1  0.19054000  0.80068000  0.49426000  1.0
  H  H2  1  0.84219000  0.86378000  0.02652000  1.0
  H  H3  1  0.15781000  0.13622000  0.52652000  1.0
  H  H4  1  0.64774000  0.63170000  0.90124000  1.0
  H  H5  1  0.35226000  0.36830000  0.40124000  1.0
  H  H6  1  0.43938000  0.78390000  0.74535000  1.0
  H  H7  1  0.56062000  0.21610000  0.24535000  1.0
  H  H8  1  0.48726000  0.18736000  0.83210000  1.0
  H  H9  1  0.51273000  0.81264000  0.33210000  1.0
  H  H10  1  0.37524000  0.04972000  0.73221000  1.0
  H  H11  1  0.62477000  0.95028000  0.23221000  1.0
  H  H12  1  0.65319000  0.93708000  0.58919000  1.0
  H  H13  1  0.34681000  0.06292000  0.08919000  1.0
  H  H14  1  0.85485000  0.03750000  0.42244000  1.0
  H  H15  1  0.14516000  0.96250000  0.92244000  1.0
  H  H16  1  0.94652000  0.31138000  0.40264000  1.0
  H  H17  1  0.05349000  0.68862000  0.90264000  1.0
  H  H18  1  0.62830000  0.39193000  0.71627000  1.0
  H  H19  1  0.37170000  0.60807000  0.21627000  1.0
  H  H20  1  0.76870000  0.60250000  0.60683000  1.0
  H  H21  1  0.23130000  0.39750000  0.10683000  1.0
  H  H22  1  0.99026000  0.56210000  0.59038000  1.0
  H  H23  1  0.00974000  0.43790000  0.09039000  1.0
  H  H24  1  0.64449000  0.46420000  0.34585000  1.0
  H  H25  1  0.35551000  0.53580000  0.84585000  1.0
  H  H26  1  0.73768000  0.64637000  0.14826000  1.0
  H  H27  1  0.26232000  0.35363000  0.64826000  1.0
  H  H28  1  0.02525000  0.84106000  0.23189000  1.0
  H  H29  1  0.97474000  0.15894000  0.73189000  1.0
  C  C30  1  0.74428000  0.86863000  0.95539000  1.0
  C  C31  1  0.25572000  0.13137000  0.45540000  1.0
  C  C32  1  0.64470000  0.75253000  0.89023000  1.0
  C  C33  1  0.35530000  0.24747000  0.39023000  1.0
  C  C34  1  0.53873000  0.82588000  0.81235000  1.0
  C  C35  1  0.46127000  0.17412000  0.31235000  1.0
  C  C36  1  0.50629000  0.09791000  0.76642000  1.0
  C  C37  1  0.49371000  0.90209000  0.26642000  1.0
  C  C38  1  0.62688000  0.15854000  0.66347000  1.0
  C  C39  1  0.37312000  0.84146000  0.16347000  1.0
  C  C40  1  0.69102000  0.05886000  0.58054000  1.0
  C  C41  1  0.30898000  0.94114000  0.08054000  1.0
  C  C42  1  0.80512000  0.11483000  0.48729000  1.0
  C  C43  1  0.19488000  0.88517000  0.98729000  1.0
  C  C44  1  0.85702000  0.27000000  0.47631000  1.0
  C  C45  1  0.14298000  0.73000000  0.97631000  1.0
  C  C46  1  0.79295000  0.37098000  0.55808000  1.0
  C  C47  1  0.20705000  0.62902000  0.05808000  1.0
  C  C48  1  0.67711000  0.31425000  0.65095000  1.0
  C  C49  1  0.32289000  0.68575000  0.15095000  1.0
  C  C50  1  0.85540000  0.53810000  0.55256000  1.0
  C  C51  1  0.14460000  0.46190000  0.05256000  1.0
  C  C52  1  0.75032000  0.55623000  0.33511000  1.0
  C  C53  1  0.24968000  0.44376000  0.83511000  1.0
  C  C54  1  0.79992000  0.65097000  0.23720000  1.0
  C  C55  1  0.20008000  0.34903000  0.73720000  1.0
  C  C56  1  0.94629000  0.74875000  0.27861000  1.0
  C  C57  1  0.05371000  0.25125000  0.77861000  1.0
  N  N58  1  0.70405000  0.00496000  0.91922000  1.0
  N  N59  1  0.29595000  0.99504000  0.41922000  1.0
  N  N60  1  0.57681000  0.97638000  0.83208000  1.0
  N  N61  1  0.42319000  0.02362000  0.33209000  1.0
  N  N62  1  0.86364000  0.59631000  0.42782000  1.0
  N  N63  1  0.13636000  0.40369000  0.92783000  1.0
  N  N64  1  0.98542000  0.71476000  0.39460000  1.0
  N  N65  1  0.01457000  0.28524000  0.89460000  1.0
  Cl  Cl66  1  0.61134000  0.36167000  0.01811000  1.0
  Cl  Cl67  1  0.38866000  0.63833000  0.51811000  1.0
  Cl  Cl68  1  0.91072000  0.13010000  0.17316000  1.0
  Cl  Cl69  1  0.08928000  0.86990000  0.67316000  1.0
