# generated using pymatgen
data_CuH11C9N2O
_symmetry_space_group_name_H-M   'P 1'
_cell_length_a   15.80060000
_cell_length_b   16.37470000
_cell_length_c   16.37250557
_cell_angle_alpha   110.16393912
_cell_angle_beta   108.76128613
_cell_angle_gamma   108.75500000
_symmetry_Int_Tables_number   1
_chemical_formula_structural   CuH11C9N2O
_chemical_formula_sum   'Cu12 H132 C108 N24 O12'
_cell_volume   3289.60719185
_cell_formula_units_Z   12
loop_
 _symmetry_equiv_pos_site_id
 _symmetry_equiv_pos_as_xyz
  1  'x, y, z'
loop_
 _atom_site_type_symbol
 _atom_site_label
 _atom_site_symmetry_multiplicity
 _atom_site_fract_x
 _atom_site_fract_y
 _atom_site_fract_z
 _atom_site_occupancy
  Cu  Cu0  1  0.49299000  0.69019000  0.13546000  1.0
  Cu  Cu1  1  0.80289000  0.44515000  0.30986000  1.0
  Cu  Cu2  1  0.35781000  0.86481000  0.55486000  1.0
  Cu  Cu3  1  0.50700000  0.30981000  0.86453000  1.0
  Cu  Cu4  1  0.19711000  0.55485000  0.69015000  1.0
  Cu  Cu5  1  0.64219000  0.13520000  0.44515000  1.0
  Cu  Cu6  1  0.62010000  0.91708000  0.33126000  1.0
  Cu  Cu7  1  0.70306000  0.41395000  0.08281000  1.0
  Cu  Cu8  1  0.28913000  0.66898000  0.58606000  1.0
  Cu  Cu9  1  0.37990000  0.08292000  0.66873000  1.0
  Cu  Cu10  1  0.29694000  0.58604000  0.91719000  1.0
  Cu  Cu11  1  0.71086000  0.33102000  0.41394000  1.0
  H  H12  1  0.58699000  0.59561000  0.05312000  1.0
  H  H13  1  0.99167000  0.45775000  0.40463000  1.0
  H  H14  1  0.53389000  0.94700000  0.54246000  1.0
  H  H15  1  0.41301000  0.40439000  0.94687000  1.0
  H  H16  1  0.00832000  0.54224000  0.59537000  1.0
  H  H17  1  0.46612000  0.05300000  0.45755000  1.0
  H  H18  1  0.71576000  0.61971000  0.10904000  1.0
  H  H19  1  0.09629000  0.48951000  0.38041000  1.0
  H  H20  1  0.60684000  0.89119000  0.51064000  1.0
  H  H21  1  0.28424000  0.38029000  0.89095000  1.0
  H  H22  1  0.90371000  0.51048000  0.61959000  1.0
  H  H23  1  0.39316000  0.10882000  0.48937000  1.0
  H  H24  1  0.67155000  0.64452000  0.01186000  1.0
  H  H25  1  0.02737000  0.36760000  0.35576000  1.0
  H  H26  1  0.65975000  0.98835000  0.63258000  1.0
  H  H27  1  0.32845000  0.35548000  0.98813000  1.0
  H  H28  1  0.97263000  0.63238000  0.64424000  1.0
  H  H29  1  0.34025000  0.01165000  0.36743000  1.0
  H  H30  1  0.81917000  0.06467000  0.33813000  1.0
  H  H31  1  0.75465000  0.27342000  0.93548000  1.0
  H  H32  1  0.48134000  0.66225000  0.72675000  1.0
  H  H33  1  0.18084000  0.93534000  0.66187000  1.0
  H  H34  1  0.24536000  0.72660000  0.06453000  1.0
  H  H35  1  0.51866000  0.33776000  0.27326000  1.0
  H  H36  1  0.91612000  0.04186000  0.31859000  1.0
  H  H37  1  0.87438000  0.27665000  0.95818000  1.0
  H  H38  1  0.59779000  0.68158000  0.72351000  1.0
  H  H39  1  0.08389000  0.95815000  0.68141000  1.0
  H  H40  1  0.12563000  0.72335000  0.04182000  1.0
  H  H41  1  0.40222000  0.31843000  0.27650000  1.0
  H  H42  1  0.89535000  0.03623000  0.41729000  1.0
  H  H43  1  0.85915000  0.38092000  0.96372000  1.0
  H  H44  1  0.47832000  0.58293000  0.61923000  1.0
  H  H45  1  0.10465000  0.96378000  0.58271000  1.0
  H  H46  1  0.14086000  0.61909000  0.03629000  1.0
  H  H47  1  0.52168000  0.41708000  0.38078000  1.0
  H  H48  1  0.82226000  0.80022000  0.04124000  1.0
  H  H49  1  0.02257000  0.24140000  0.20033000  1.0
  H  H50  1  0.78120000  0.95890000  0.75861000  1.0
  H  H51  1  0.17774000  0.19978000  0.95875000  1.0
  H  H52  1  0.97744000  0.75860000  0.79968000  1.0
  H  H53  1  0.21879000  0.04109000  0.24138000  1.0
  H  H54  1  0.97870000  0.80661000  0.03477000  1.0
  H  H55  1  0.17255000  0.22849000  0.19388000  1.0
  H  H56  1  0.94404000  0.96524000  0.77140000  1.0
  H  H57  1  0.02130000  0.19338000  0.96522000  1.0
  H  H58  1  0.82746000  0.77151000  0.80612000  1.0
  H  H59  1  0.05594000  0.03475000  0.22859000  1.0
  H  H60  1  0.22013000  0.13287000  0.47944000  1.0
  H  H61  1  0.08739000  0.34660000  0.86729000  1.0
  H  H62  1  0.74113000  0.52062000  0.65362000  1.0
  H  H63  1  0.77988000  0.86714000  0.52057000  1.0
  H  H64  1  0.91261000  0.65340000  0.13271000  1.0
  H  H65  1  0.25887000  0.47937000  0.34638000  1.0
  H  H66  1  0.09889000  0.05919000  0.46112000  1.0
  H  H67  1  0.03981000  0.40199000  0.94097000  1.0
  H  H68  1  0.63816000  0.53895000  0.59837000  1.0
  H  H69  1  0.90112000  0.94082000  0.53889000  1.0
  H  H70  1  0.96018000  0.59801000  0.05902000  1.0
  H  H71  1  0.36184000  0.46105000  0.40164000  1.0
  H  H72  1  0.20960000  0.12024000  0.57984000  1.0
  H  H73  1  0.08941000  0.45957000  0.87981000  1.0
  H  H74  1  0.63013000  0.42023000  0.54072000  1.0
  H  H75  1  0.79041000  0.87977000  0.42017000  1.0
  H  H76  1  0.91059000  0.54043000  0.12018000  1.0
  H  H77  1  0.36988000  0.57977000  0.45929000  1.0
  H  H78  1  0.97000000  0.89223000  0.35251000  1.0
  H  H79  1  0.07797000  0.46029000  0.10786000  1.0
  H  H80  1  0.61768000  0.64760000  0.53981000  1.0
  H  H81  1  0.02999000  0.10777000  0.64748000  1.0
  H  H82  1  0.92202000  0.53970000  0.89213000  1.0
  H  H83  1  0.38231000  0.35239000  0.46019000  1.0
  H  H84  1  0.13192000  0.85652000  0.18761000  1.0
  H  H85  1  0.27561000  0.33112000  0.14350000  1.0
  H  H86  1  0.94441000  0.81229000  0.66873000  1.0
  H  H87  1  0.86808000  0.14348000  0.81239000  1.0
  H  H88  1  0.72438000  0.66887000  0.85649000  1.0
  H  H89  1  0.05558000  0.18770000  0.33127000  1.0
  H  H90  1  0.22917000  0.77347000  0.27047000  1.0
  H  H91  1  0.45569000  0.49703000  0.22666000  1.0
  H  H92  1  0.95865000  0.72943000  0.50285000  1.0
  H  H93  1  0.77083000  0.22654000  0.72953000  1.0
  H  H94  1  0.54431000  0.50297000  0.77333000  1.0
  H  H95  1  0.04134000  0.27056000  0.49715000  1.0
  H  H96  1  0.10626000  0.70973000  0.25554000  1.0
  H  H97  1  0.39645000  0.54577000  0.29036000  1.0
  H  H98  1  0.85063000  0.74434000  0.45406000  1.0
  H  H99  1  0.89374000  0.29027000  0.74445000  1.0
  H  H100  1  0.60355000  0.45422000  0.70963000  1.0
  H  H101  1  0.14938000  0.25566000  0.54595000  1.0
  H  H102  1  0.21565000  0.72226000  0.34783000  1.0
  H  H103  1  0.49336000  0.62557000  0.27794000  1.0
  H  H104  1  0.86776000  0.65210000  0.37433000  1.0
  H  H105  1  0.78434000  0.27774000  0.65216000  1.0
  H  H106  1  0.50663000  0.37443000  0.72205000  1.0
  H  H107  1  0.13224000  0.34789000  0.62567000  1.0
  H  H108  1  0.42680000  0.84163000  0.32199000  1.0
  H  H109  1  0.58532000  0.48035000  0.15838000  1.0
  H  H110  1  0.10514000  0.67843000  0.51989000  1.0
  H  H111  1  0.57319000  0.15835000  0.67800000  1.0
  H  H112  1  0.41468000  0.51965000  0.84163000  1.0
  H  H113  1  0.89485000  0.32158000  0.48010000  1.0
  H  H114  1  0.42481000  0.73273000  0.32347000  1.0
  H  H115  1  0.69233000  0.59058000  0.26720000  1.0
  H  H116  1  0.10191000  0.67708000  0.40965000  1.0
  H  H117  1  0.57520000  0.26727000  0.67653000  1.0
  H  H118  1  0.30766000  0.40940000  0.73280000  1.0
  H  H119  1  0.89810000  0.32293000  0.59035000  1.0
  H  H120  1  0.34460000  0.72262000  0.21048000  1.0
  H  H121  1  0.62212000  0.48787000  0.27744000  1.0
  H  H122  1  0.13457000  0.79004000  0.51250000  1.0
  H  H123  1  0.65541000  0.27737000  0.78951000  1.0
  H  H124  1  0.37788000  0.51212000  0.72256000  1.0
  H  H125  1  0.86544000  0.20997000  0.48750000  1.0
  H  H126  1  0.57878000  0.75776000  0.01365000  1.0
  H  H127  1  0.82121000  0.25590000  0.24240000  1.0
  H  H128  1  0.56514000  0.98657000  0.74435000  1.0
  H  H129  1  0.42121000  0.24223000  0.98634000  1.0
  H  H130  1  0.17878000  0.74409000  0.75761000  1.0
  H  H131  1  0.43487000  0.01344000  0.25566000  1.0
  H  H132  1  0.47444000  0.78340000  0.98909000  1.0
  H  H133  1  0.69123000  0.20564000  0.21678000  1.0
  H  H134  1  0.48506000  0.01112000  0.79418000  1.0
  H  H135  1  0.52554000  0.21659000  0.01090000  1.0
  H  H136  1  0.30877000  0.79436000  0.78324000  1.0
  H  H137  1  0.51492000  0.98889000  0.20581000  1.0
  H  H138  1  0.47238000  0.68843000  0.89106000  1.0
  H  H139  1  0.78419000  0.20269000  0.31181000  1.0
  H  H140  1  0.58120000  0.10915000  0.79742000  1.0
  H  H141  1  0.52761000  0.31156000  0.10893000  1.0
  H  H142  1  0.21579000  0.79730000  0.68820000  1.0
  H  H143  1  0.41880000  0.89087000  0.20259000  1.0
  C  C144  1  0.69793000  0.74983000  0.15294000  1.0
  C  C145  1  0.94836000  0.40324000  0.25035000  1.0
  C  C146  1  0.54521000  0.84725000  0.59690000  1.0
  C  C147  1  0.30207000  0.25018000  0.84705000  1.0
  C  C148  1  0.05164000  0.59675000  0.74965000  1.0
  C  C149  1  0.45480000  0.15275000  0.40311000  1.0
  C  C150  1  0.79272000  0.83770000  0.20436000  1.0
  C  C151  1  0.95526000  0.36672000  0.16247000  1.0
  C  C152  1  0.58862000  0.79583000  0.63334000  1.0
  C  C153  1  0.20728000  0.16231000  0.79563000  1.0
  C  C154  1  0.04474000  0.63327000  0.83753000  1.0
  C  C155  1  0.41139000  0.20417000  0.36667000  1.0
  C  C156  1  0.78171000  0.91104000  0.26978000  1.0
  C  C157  1  0.87089000  0.35878000  0.08909000  1.0
  C  C158  1  0.51225000  0.73044000  0.64135000  1.0
  C  C159  1  0.21830000  0.08896000  0.73022000  1.0
  C  C160  1  0.12911000  0.64121000  0.91091000  1.0
  C  C161  1  0.48775000  0.26957000  0.35866000  1.0
  C  C162  1  0.66618000  0.64731000  0.07792000  1.0
  C  C163  1  0.01914000  0.43081000  0.35290000  1.0
  C  C164  1  0.58836000  0.92227000  0.56936000  1.0
  C  C165  1  0.33382000  0.35269000  0.92207000  1.0
  C  C166  1  0.98086000  0.56917000  0.64710000  1.0
  C  C167  1  0.41164000  0.07773000  0.43065000  1.0
  C  C168  1  0.85695000  0.01898000  0.33963000  1.0
  C  C169  1  0.83811000  0.32060000  0.98109000  1.0
  C  C170  1  0.51762000  0.66062000  0.67955000  1.0
  C  C171  1  0.14305000  0.98102000  0.66036000  1.0
  C  C172  1  0.16189000  0.67939000  0.01891000  1.0
  C  C173  1  0.48238000  0.33939000  0.32046000  1.0
  C  C174  1  0.88565000  0.84683000  0.19798000  1.0
  C  C175  1  0.03911000  0.35127000  0.15339000  1.0
  C  C176  1  0.68788000  0.80214000  0.64877000  1.0
  C  C177  1  0.11435000  0.15317000  0.80201000  1.0
  C  C178  1  0.96089000  0.64873000  0.84661000  1.0
  C  C179  1  0.31212000  0.19786000  0.35123000  1.0
  C  C180  1  0.88911000  0.82244000  0.10837000  1.0
  C  C181  1  0.06710000  0.28619000  0.17795000  1.0
  C  C182  1  0.78092000  0.89175000  0.71377000  1.0
  C  C183  1  0.11089000  0.17756000  0.89162000  1.0
  C  C184  1  0.93291000  0.71381000  0.82206000  1.0
  C  C185  1  0.21908000  0.10825000  0.28623000  1.0
  C  C186  1  0.97736000  0.82611000  0.10495000  1.0
  C  C187  1  0.15167000  0.27908000  0.17424000  1.0
  C  C188  1  0.87256000  0.89508000  0.72082000  1.0
  C  C189  1  0.02264000  0.17389000  0.89505000  1.0
  C  C190  1  0.84833000  0.72092000  0.82576000  1.0
  C  C191  1  0.12744000  0.10491000  0.27918000  1.0
  C  C192  1  0.19608000  0.99216000  0.46828000  1.0
  C  C193  1  0.20397000  0.47621000  0.00796000  1.0
  C  C194  1  0.72791000  0.53167000  0.52394000  1.0
  C  C195  1  0.80393000  0.00785000  0.53173000  1.0
  C  C196  1  0.79603000  0.52380000  0.99204000  1.0
  C  C197  1  0.27207000  0.46832000  0.47605000  1.0
  C  C198  1  0.18007000  0.08052000  0.49913000  1.0
  C  C199  1  0.09963000  0.41863000  0.91957000  1.0
  C  C200  1  0.68130000  0.50090000  0.58164000  1.0
  C  C201  1  0.81993000  0.91948000  0.50087000  1.0
  C  C202  1  0.90037000  0.58138000  0.08043000  1.0
  C  C203  1  0.31870000  0.49909000  0.41836000  1.0
  C  C204  1  0.15003000  0.90869000  0.37276000  1.0
  C  C205  1  0.24145000  0.46412000  0.09142000  1.0
  C  C206  1  0.77738000  0.62718000  0.53595000  1.0
  C  C207  1  0.84997000  0.09132000  0.62724000  1.0
  C  C208  1  0.75854000  0.53587000  0.90857000  1.0
  C  C209  1  0.22260000  0.37281000  0.46404000  1.0
  C  C210  1  0.06250000  0.88044000  0.28148000  1.0
  C  C211  1  0.18227000  0.40109000  0.11970000  1.0
  C  C212  1  0.78117000  0.71851000  0.59893000  1.0
  C  C213  1  0.93750000  0.11957000  0.71852000  1.0
  C  C214  1  0.81772000  0.59890000  0.88029000  1.0
  C  C215  1  0.21883000  0.28149000  0.40108000  1.0
  C  C216  1  0.97315000  0.87628000  0.28343000  1.0
  C  C217  1  0.09713000  0.40724000  0.12390000  1.0
  C  C218  1  0.68991000  0.71664000  0.59283000  1.0
  C  C219  1  0.02684000  0.12373000  0.71656000  1.0
  C  C220  1  0.90287000  0.59276000  0.87610000  1.0
  C  C221  1  0.31008000  0.28335000  0.40717000  1.0
  C  C222  1  0.06314000  0.85399000  0.19048000  1.0
  C  C223  1  0.20944000  0.33658000  0.14616000  1.0
  C  C224  1  0.87279000  0.80951000  0.66331000  1.0
  C  C225  1  0.93686000  0.14601000  0.80952000  1.0
  C  C226  1  0.79057000  0.66342000  0.85384000  1.0
  C  C227  1  0.12721000  0.19050000  0.33670000  1.0
  C  C228  1  0.20223000  0.85478000  0.38533000  1.0
  C  C229  1  0.34748000  0.53064000  0.14536000  1.0
  C  C230  1  0.81690000  0.61456000  0.46939000  1.0
  C  C231  1  0.79777000  0.14522000  0.61467000  1.0
  C  C232  1  0.65252000  0.46935000  0.85463000  1.0
  C  C233  1  0.18310000  0.38544000  0.53061000  1.0
  C  C234  1  0.18749000  0.76008000  0.31103000  1.0
  C  C235  1  0.42739000  0.55095000  0.24006000  1.0
  C  C236  1  0.87641000  0.68887000  0.44896000  1.0
  C  C237  1  0.81251000  0.23992000  0.68897000  1.0
  C  C238  1  0.57261000  0.44904000  0.75993000  1.0
  C  C239  1  0.12360000  0.31113000  0.55105000  1.0
  C  C240  1  0.42012000  0.76932000  0.27805000  1.0
  C  C241  1  0.65092000  0.50860000  0.23066000  1.0
  C  C242  1  0.14250000  0.72247000  0.49163000  1.0
  C  C243  1  0.57989000  0.23068000  0.72195000  1.0
  C  C244  1  0.34908000  0.49139000  0.76934000  1.0
  C  C245  1  0.85751000  0.27754000  0.50837000  1.0
  C  C246  1  0.49505000  0.72354000  0.97088000  1.0
  C  C247  1  0.77170000  0.24732000  0.27662000  1.0
  C  C248  1  0.52414000  0.02933000  0.75272000  1.0
  C  C249  1  0.50494000  0.27645000  0.02911000  1.0
  C  C250  1  0.22830000  0.75267000  0.72339000  1.0
  C  C251  1  0.47585000  0.97067000  0.24728000  1.0
  N  N252  1  0.63617000  0.77098000  0.18732000  1.0
  N  N253  1  0.86543000  0.41643000  0.22919000  1.0
  N  N254  1  0.44911000  0.81291000  0.58374000  1.0
  N  N255  1  0.36383000  0.22902000  0.81267000  1.0
  N  N256  1  0.13457000  0.58356000  0.77081000  1.0
  N  N257  1  0.55089000  0.18710000  0.41627000  1.0
  N  N258  1  0.68577000  0.86896000  0.25692000  1.0
  N  N259  1  0.81703000  0.38800000  0.13118000  1.0
  N  N260  1  0.42916000  0.74332000  0.61216000  1.0
  N  N261  1  0.31424000  0.13105000  0.74308000  1.0
  N  N262  1  0.18298000  0.61200000  0.86883000  1.0
  N  N263  1  0.57085000  0.25669000  0.38785000  1.0
  N  N264  1  0.27025000  0.98660000  0.53252000  1.0
  N  N265  1  0.28365000  0.54609000  0.01357000  1.0
  N  N266  1  0.73770000  0.46739000  0.45405000  1.0
  N  N267  1  0.72975000  0.01340000  0.46748000  1.0
  N  N268  1  0.71635000  0.45391000  0.98643000  1.0
  N  N269  1  0.26229000  0.53261000  0.54595000  1.0
  N  N270  1  0.27363000  0.90359000  0.48227000  1.0
  N  N271  1  0.37001000  0.57886000  0.09660000  1.0
  N  N272  1  0.79127000  0.51762000  0.42123000  1.0
  N  N273  1  0.72637000  0.09641000  0.51773000  1.0
  N  N274  1  0.62999000  0.42114000  0.90340000  1.0
  N  N275  1  0.20874000  0.48239000  0.57878000  1.0
  O  O276  1  0.50056000  0.78591000  0.25363000  1.0
  O  O277  1  0.71460000  0.46739000  0.21402000  1.0
  O  O278  1  0.24735000  0.74689000  0.53274000  1.0
  O  O279  1  0.49944000  0.21408000  0.74636000  1.0
  O  O280  1  0.28541000  0.53261000  0.78599000  1.0
  O  O281  1  0.75266000  0.25311000  0.46726000  1.0
  O  O282  1  0.44671000  0.65017000  0.99278000  1.0
  O  O283  1  0.79669000  0.34256000  0.34999000  1.0
  O  O284  1  0.45422000  0.00748000  0.65731000  1.0
  O  O285  1  0.55328000  0.34982000  0.00721000  1.0
  O  O286  1  0.20333000  0.65745000  0.65003000  1.0
  O  O287  1  0.54578000  0.99252000  0.34268000  1.0
