# generated using pymatgen
data_Cd5H48C60(N15Cl2)2
_symmetry_space_group_name_H-M   'P 1'
_cell_length_a   9.91241000
_cell_length_b   11.84410000
_cell_length_c   14.55110000
_cell_angle_alpha   74.29220000
_cell_angle_beta   86.88100000
_cell_angle_gamma   81.56310000
_symmetry_Int_Tables_number   1
_chemical_formula_structural   Cd5H48C60(N15Cl2)2
_chemical_formula_sum   'Cd5 H48 C60 N30 Cl4'
_cell_volume   1626.56180877
_cell_formula_units_Z   1
loop_
 _symmetry_equiv_pos_site_id
 _symmetry_equiv_pos_as_xyz
  1  'x, y, z'
loop_
 _atom_site_type_symbol
 _atom_site_label
 _atom_site_symmetry_multiplicity
 _atom_site_fract_x
 _atom_site_fract_y
 _atom_site_fract_z
 _atom_site_occupancy
  Cd  Cd0  1  0.00000000  0.50000000  0.00000000  1.0
  Cd  Cd1  1  0.37909000  0.54769000  0.62387000  1.0
  Cd  Cd2  1  0.62090000  0.45231000  0.37613000  1.0
  Cd  Cd3  1  0.36892000  0.40554000  0.91861000  1.0
  Cd  Cd4  1  0.63108000  0.59445000  0.08139000  1.0
  H  H5  1  0.86172000  0.58355000  0.76707000  1.0
  H  H6  1  0.13827000  0.41645000  0.23293000  1.0
  H  H7  1  0.78872000  0.62389000  0.62941000  1.0
  H  H8  1  0.21128000  0.37611000  0.37059000  1.0
  H  H9  1  0.74965000  0.59422000  0.52144000  1.0
  H  H10  1  0.25035000  0.40578000  0.47856000  1.0
  H  H11  1  0.74915000  0.74323000  0.52521000  1.0
  H  H12  1  0.25085000  0.25677000  0.47479000  1.0
  H  H13  1  0.81130000  0.73131000  0.33803000  1.0
  H  H14  1  0.18870000  0.26869000  0.66197000  1.0
  H  H15  1  0.95640000  0.75569000  0.19060000  1.0
  H  H16  1  0.04360000  0.24431000  0.80940000  1.0
  H  H17  1  0.20731000  0.70589000  0.19883000  1.0
  H  H18  1  0.79269000  0.29411000  0.80117000  1.0
  H  H19  1  0.32466000  0.63415000  0.35298000  1.0
  H  H20  1  0.67535000  0.36585000  0.64703000  1.0
  H  H21  1  0.47184000  0.08649000  0.66195000  1.0
  H  H22  1  0.52816000  0.91351000  0.33804000  1.0
  H  H23  1  0.68135000  0.00489000  0.64033000  1.0
  H  H24  1  0.31865000  0.99511000  0.35966000  1.0
  H  H25  1  0.81029000  0.91539000  0.59285000  1.0
  H  H26  1  0.18971000  0.08461000  0.40715000  1.0
  H  H27  1  0.63426000  0.91166000  0.57270000  1.0
  H  H28  1  0.36574000  0.08834000  0.42729000  1.0
  H  H29  1  0.93492000  0.88966000  0.45287000  1.0
  H  H30  1  0.06508000  0.11034000  0.54713000  1.0
  H  H31  1  0.07095000  0.94019000  0.30304000  1.0
  H  H32  1  0.92905000  0.05981000  0.69696000  1.0
  H  H33  1  0.02286000  0.13742000  0.18505000  1.0
  H  H34  1  0.97714000  0.86259000  0.81495000  1.0
  H  H35  1  0.83137000  0.28634000  0.21191000  1.0
  H  H36  1  0.16863000  0.71366000  0.78809000  1.0
  H  H37  1  0.91113000  0.23744000  0.96851000  1.0
  H  H38  1  0.08888000  0.76256000  0.03150000  1.0
  H  H39  1  0.84221000  0.04757000  0.00482000  1.0
  H  H40  1  0.15780000  0.95243000  0.99518000  1.0
  H  H41  1  0.87450000  0.06743000  0.87908000  1.0
  H  H42  1  0.12550000  0.93257000  0.12092000  1.0
  H  H43  1  0.80923000  0.93728000  0.95015000  1.0
  H  H44  1  0.19078000  0.06271000  0.04985000  1.0
  H  H45  1  0.65423000  0.87462000  0.86474000  1.0
  H  H46  1  0.34577000  0.12539000  0.13526000  1.0
  H  H47  1  0.43516000  0.84343000  0.80574000  1.0
  H  H48  1  0.56484000  0.15658000  0.19426000  1.0
  H  H49  1  0.22941000  0.99256000  0.79419000  1.0
  H  H50  1  0.77059000  0.00744000  0.20581000  1.0
  H  H51  1  0.23579000  0.17919000  0.84342000  1.0
  H  H52  1  0.76422000  0.82081000  0.15658000  1.0
  C  C53  1  0.97007000  0.55453000  0.76147000  1.0
  C  C54  1  0.02992000  0.44547000  0.23853000  1.0
  C  C55  1  0.06012000  0.55895000  0.68363000  1.0
  C  C56  1  0.93988000  0.44105000  0.31637000  1.0
  C  C57  1  0.05514000  0.60169000  0.58049000  1.0
  C  C58  1  0.94485000  0.39832000  0.41952000  1.0
  C  C59  1  0.79958000  0.65202000  0.55186000  1.0
  C  C60  1  0.20042000  0.34798000  0.44814000  1.0
  C  C61  1  0.99007000  0.67125000  0.42923000  1.0
  C  C62  1  0.00994000  0.32875000  0.57077000  1.0
  C  C63  1  0.92222000  0.71322000  0.34240000  1.0
  C  C64  1  0.07779000  0.28679000  0.65760000  1.0
  C  C65  1  0.00438000  0.72666000  0.26028000  1.0
  C  C66  1  0.99562000  0.27334000  0.73973000  1.0
  C  C67  1  0.14729000  0.69924000  0.26441000  1.0
  C  C68  1  0.85271000  0.30076000  0.73559000  1.0
  C  C69  1  0.21453000  0.65816000  0.35096000  1.0
  C  C70  1  0.78547000  0.34184000  0.64905000  1.0
  C  C71  1  0.13422000  0.64410000  0.43437000  1.0
  C  C72  1  0.86578000  0.35590000  0.56563000  1.0
  C  C73  1  0.47952000  0.17677000  0.62132000  1.0
  C  C74  1  0.52048000  0.82322000  0.37868000  1.0
  C  C75  1  0.54754000  0.22287000  0.53538000  1.0
  C  C76  1  0.45245000  0.77713000  0.46461000  1.0
  C  C77  1  0.64084000  0.17467000  0.47128000  1.0
  C  C78  1  0.35915000  0.82533000  0.52871000  1.0
  C  C79  1  0.70963000  0.96847000  0.57927000  1.0
  C  C80  1  0.29037000  0.03153000  0.42073000  1.0
  C  C81  1  0.80710000  0.06126000  0.41653000  1.0
  C  C82  1  0.19289000  0.93874000  0.58347000  1.0
  C  C83  1  0.91188000  0.97552000  0.40143000  1.0
  C  C84  1  0.08812000  0.02448000  0.59857000  1.0
  C  C85  1  0.98838000  0.00538000  0.31705000  1.0
  C  C86  1  0.01162000  0.99463000  0.68294000  1.0
  C  C87  1  0.96015000  0.11635000  0.24977000  1.0
  C  C88  1  0.03985000  0.88365000  0.75022000  1.0
  C  C89  1  0.85403000  0.20124000  0.26440000  1.0
  C  C90  1  0.14597000  0.79877000  0.73560000  1.0
  C  C91  1  0.77787000  0.17353000  0.34949000  1.0
  C  C92  1  0.22213000  0.82647000  0.65051000  1.0
  C  C93  1  0.81563000  0.28845000  0.98176000  1.0
  C  C94  1  0.18437000  0.71155000  0.01824000  1.0
  C  C95  1  0.67937000  0.27573000  0.97234000  1.0
  C  C96  1  0.32063000  0.72427000  0.02766000  1.0
  C  C97  1  0.61128000  0.19725000  0.93624000  1.0
  C  C98  1  0.38872000  0.80274000  0.06376000  1.0
  C  C99  1  0.80694000  0.03286000  0.93948000  1.0
  C  C100  1  0.19307000  0.96714000  0.06052000  1.0
  C  C101  1  0.56563000  0.04612000  0.88537000  1.0
  C  C102  1  0.43437000  0.95388000  0.11462000  1.0
  C  C103  1  0.56476000  0.94178000  0.85820000  1.0
  C  C104  1  0.43524000  0.05822000  0.14180000  1.0
  C  C105  1  0.44104000  0.92467000  0.82610000  1.0
  C  C106  1  0.55896000  0.07534000  0.17390000  1.0
  C  C107  1  0.32330000  0.00908000  0.82069000  1.0
  C  C108  1  0.67670000  0.99092000  0.17931000  1.0
  C  C109  1  0.32522000  0.11286000  0.84778000  1.0
  C  C110  1  0.67478000  0.88714000  0.15222000  1.0
  C  C111  1  0.44781000  0.13113000  0.88061000  1.0
  C  C112  1  0.55219000  0.86887000  0.11939000  1.0
  N  N113  1  0.04386000  0.50380000  0.84098000  1.0
  N  N114  1  0.95613000  0.49620000  0.15902000  1.0
  N  N115  1  0.17388000  0.47792000  0.81455000  1.0
  N  N116  1  0.82611000  0.52208000  0.18545000  1.0
  N  N117  1  0.18537000  0.51018000  0.72079000  1.0
  N  N118  1  0.81463000  0.48982000  0.27921000  1.0
  N  N119  1  0.17087000  0.60102000  0.52890000  1.0
  N  N120  1  0.82912000  0.39898000  0.47111000  1.0
  N  N121  1  0.94269000  0.64435000  0.52364000  1.0
  N  N122  1  0.05731000  0.35565000  0.47637000  1.0
  N  N123  1  0.41405000  0.26873000  0.65155000  1.0
  N  N124  1  0.58596000  0.73126000  0.34845000  1.0
  N  N125  1  0.43995000  0.36739000  0.58709000  1.0
  N  N126  1  0.56005000  0.63260000  0.41291000  1.0
  N  N127  1  0.51904000  0.34307000  0.51602000  1.0
  N  N128  1  0.48096000  0.65693000  0.48397000  1.0
  N  N129  1  0.67377000  0.24118000  0.38561000  1.0
  N  N130  1  0.32623000  0.75883000  0.61439000  1.0
  N  N131  1  0.71734000  0.06401000  0.49298000  1.0
  N  N132  1  0.28265000  0.93598000  0.50701000  1.0
  N  N133  1  0.60092000  0.36785000  0.99734000  1.0
  N  N134  1  0.39908000  0.63215000  0.00266000  1.0
  N  N135  1  0.68456000  0.43287000  0.01988000  1.0
  N  N136  1  0.31544000  0.56713000  0.98012000  1.0
  N  N137  1  0.81519000  0.38714000  0.01101000  1.0
  N  N138  1  0.18481000  0.61286000  0.98899000  1.0
  N  N139  1  0.66761000  0.09046000  0.92144000  1.0
  N  N140  1  0.33240000  0.90954000  0.07856000  1.0
  N  N141  1  0.47997000  0.22397000  0.91176000  1.0
  N  N142  1  0.52004000  0.77603000  0.08824000  1.0
  Cl  Cl143  1  0.17865000  0.30157000  0.04128000  1.0
  Cl  Cl144  1  0.82135000  0.69843000  0.95872000  1.0
  Cl  Cl145  1  0.52705000  0.50951000  0.77136000  1.0
  Cl  Cl146  1  0.47295000  0.49049000  0.22864000  1.0
