# generated using pymatgen
data_NiH16C20S3(N2O)4
_symmetry_space_group_name_H-M   'P 1'
_cell_length_a   10.99320000
_cell_length_b   10.99320000
_cell_length_c   12.62360000
_cell_angle_alpha   89.18790000
_cell_angle_beta   89.18820000
_cell_angle_gamma   72.96710000
_symmetry_Int_Tables_number   1
_chemical_formula_structural   NiH16C20S3(N2O)4
_chemical_formula_sum   'Ni2 H32 C40 S6 N16 O8'
_cell_volume   1458.42471454
_cell_formula_units_Z   2
loop_
 _symmetry_equiv_pos_site_id
 _symmetry_equiv_pos_as_xyz
  1  'x, y, z'
loop_
 _atom_site_type_symbol
 _atom_site_label
 _atom_site_symmetry_multiplicity
 _atom_site_fract_x
 _atom_site_fract_y
 _atom_site_fract_z
 _atom_site_occupancy
  Ni  Ni0  1  0.50000000  0.50000000  0.50000000  1.0
  Ni  Ni1  1  0.50000000  0.50000000  0.00000000  1.0
  H  H2  1  0.65761000  0.47067000  0.27624000  1.0
  H  H3  1  0.52934000  0.34239000  0.22377000  1.0
  H  H4  1  0.34239000  0.52934000  0.72377000  1.0
  H  H5  1  0.47066000  0.65761000  0.77623000  1.0
  H  H6  1  0.78905000  0.34221000  0.58286000  1.0
  H  H7  1  0.65779000  0.21095000  0.91714000  1.0
  H  H8  1  0.21095000  0.65778000  0.41714000  1.0
  H  H9  1  0.34221000  0.78905000  0.08286000  1.0
  H  H10  1  0.99501000  0.27859000  0.44158000  1.0
  H  H11  1  0.72141000  0.00499000  0.05843000  1.0
  H  H12  1  0.00499000  0.72139000  0.55842000  1.0
  H  H13  1  0.27860000  0.99502000  0.94158000  1.0
  H  H14  1  0.79620000  0.29435000  0.12722000  1.0
  H  H15  1  0.70565000  0.20380000  0.37279000  1.0
  H  H16  1  0.20381000  0.70565000  0.87278000  1.0
  H  H17  1  0.29435000  0.79620000  0.62721000  1.0
  H  H18  1  0.95743000  0.30347000  0.97403000  1.0
  H  H19  1  0.69653000  0.04256000  0.52597000  1.0
  H  H20  1  0.04257000  0.69653000  0.02597000  1.0
  H  H21  1  0.30347000  0.95743000  0.47403000  1.0
  H  H22  1  0.17247000  0.25567000  0.89886000  1.0
  H  H23  1  0.74432000  0.82752000  0.60114000  1.0
  H  H24  1  0.82753000  0.74433000  0.10114000  1.0
  H  H25  1  0.25568000  0.17247000  0.39886000  1.0
  H  H26  1  0.38669000  0.33003000  0.84108000  1.0
  H  H27  1  0.66997000  0.61331000  0.65892000  1.0
  H  H28  1  0.61332000  0.66998000  0.15892000  1.0
  H  H29  1  0.33003000  0.38668000  0.34108000  1.0
  H  H30  1  0.23946000  0.50944000  0.12863000  1.0
  H  H31  1  0.49056000  0.76054000  0.37137000  1.0
  H  H32  1  0.76054000  0.49057000  0.87137000  1.0
  H  H33  1  0.50943000  0.23946000  0.62863000  1.0
  C  C34  1  0.71945000  0.42612000  0.34088000  1.0
  C  C35  1  0.57389000  0.28055000  0.15912000  1.0
  C  C36  1  0.28055000  0.57388000  0.65912000  1.0
  C  C37  1  0.42611000  0.71945000  0.84088000  1.0
  C  C38  1  0.79224000  0.35719000  0.49763000  1.0
  C  C39  1  0.64281000  0.20776000  0.00237000  1.0
  C  C40  1  0.20776000  0.64280000  0.50237000  1.0
  C  C41  1  0.35720000  0.79224000  0.99763000  1.0
  C  C42  1  0.89504000  0.32706000  0.42964000  1.0
  C  C43  1  0.67295000  0.10496000  0.07036000  1.0
  C  C44  1  0.10495000  0.67293000  0.57036000  1.0
  C  C45  1  0.32706000  0.89504000  0.92964000  1.0
  C  C46  1  0.91742000  0.35764000  0.23430000  1.0
  C  C47  1  0.64236000  0.08259000  0.26570000  1.0
  C  C48  1  0.08259000  0.64235000  0.76570000  1.0
  C  C49  1  0.35764000  0.91741000  0.73430000  1.0
  C  C50  1  0.88248000  0.32125000  0.13864000  1.0
  C  C51  1  0.67875000  0.11752000  0.36136000  1.0
  C  C52  1  0.11752000  0.67874000  0.86136000  1.0
  C  C53  1  0.32125000  0.88248000  0.63864000  1.0
  C  C54  1  0.96953000  0.32666000  0.05598000  1.0
  C  C55  1  0.67334000  0.03047000  0.44401000  1.0
  C  C56  1  0.03047000  0.67334000  0.94401000  1.0
  C  C57  1  0.32666000  0.96953000  0.55598000  1.0
  C  C58  1  0.06920000  0.36671000  0.09115000  1.0
  C  C59  1  0.63329000  0.93080000  0.40885000  1.0
  C  C60  1  0.93080000  0.63329000  0.90885000  1.0
  C  C61  1  0.36671000  0.06920000  0.59115000  1.0
  C  C62  1  0.21791000  0.31875000  0.93621000  1.0
  C  C63  1  0.68124000  0.78209000  0.56379000  1.0
  C  C64  1  0.78209000  0.68125000  0.06379000  1.0
  C  C65  1  0.31876000  0.21791000  0.43621000  1.0
  C  C66  1  0.32177000  0.35745000  0.90791000  1.0
  C  C67  1  0.64255000  0.67823000  0.59209000  1.0
  C  C68  1  0.67823000  0.64256000  0.09209000  1.0
  C  C69  1  0.35745000  0.32177000  0.40791000  1.0
  C  C70  1  0.25137000  0.45076000  0.05753000  1.0
  C  C71  1  0.54924000  0.74863000  0.44247000  1.0
  C  C72  1  0.74863000  0.54925000  0.94247000  1.0
  C  C73  1  0.45075000  0.25137000  0.55754000  1.0
  S  S74  1  0.05769000  0.39997000  0.22557000  1.0
  S  S75  1  0.60003000  0.94232000  0.27443000  1.0
  S  S76  1  0.94231000  0.60003000  0.77443000  1.0
  S  S77  1  0.39997000  0.05769000  0.72557000  1.0
  S  S78  1  0.61939000  0.38061000  0.75000000  1.0
  S  S79  1  0.38060000  0.61940000  0.25000000  1.0
  N  N80  1  0.68404000  0.41755000  0.44099000  1.0
  N  N81  1  0.58245000  0.31597000  0.05901000  1.0
  N  N82  1  0.31596000  0.58245000  0.55901000  1.0
  N  N83  1  0.41755000  0.68403000  0.94099000  1.0
  N  N84  1  0.84820000  0.37078000  0.32997000  1.0
  N  N85  1  0.62923000  0.15181000  0.17003000  1.0
  N  N86  1  0.15180000  0.62921000  0.67003000  1.0
  N  N87  1  0.37078000  0.84820000  0.82997000  1.0
  N  N88  1  0.17404000  0.37791000  0.03200000  1.0
  N  N89  1  0.62209000  0.82596000  0.46800000  1.0
  N  N90  1  0.82596000  0.62209000  0.96800000  1.0
  N  N91  1  0.37791000  0.17404000  0.53200000  1.0
  N  N92  1  0.34076000  0.43942000  0.98381000  1.0
  N  N93  1  0.56058000  0.65924000  0.51619000  1.0
  N  N94  1  0.65924000  0.56059000  0.01619000  1.0
  N  N95  1  0.43941000  0.34076000  0.48381000  1.0
  O  O96  1  0.55279000  0.45536000  0.65637000  1.0
  O  O97  1  0.54464000  0.44720000  0.84363000  1.0
  O  O98  1  0.44721000  0.54465000  0.34363000  1.0
  O  O99  1  0.45535000  0.55281000  0.15637000  1.0
  O  O100  1  0.75240000  0.38612000  0.75327000  1.0
  O  O101  1  0.61389000  0.24759000  0.74672000  1.0
  O  O102  1  0.24759000  0.61388000  0.24673000  1.0
  O  O103  1  0.38610000  0.75241000  0.25328000  1.0
