# generated using pymatgen
data_PrH8C8NO9
_symmetry_space_group_name_H-M   'P 1'
_cell_length_a   7.51886000
_cell_length_b   8.52199000
_cell_length_c   9.52402000
_cell_angle_alpha   110.68500000
_cell_angle_beta   104.82600000
_cell_angle_gamma   100.25500000
_symmetry_Int_Tables_number   1
_chemical_formula_structural   PrH8C8NO9
_chemical_formula_sum   'Pr2 H16 C16 N2 O18'
_cell_volume   527.04318991
_cell_formula_units_Z   2
loop_
 _symmetry_equiv_pos_site_id
 _symmetry_equiv_pos_as_xyz
  1  'x, y, z'
loop_
 _atom_site_type_symbol
 _atom_site_label
 _atom_site_symmetry_multiplicity
 _atom_site_fract_x
 _atom_site_fract_y
 _atom_site_fract_z
 _atom_site_occupancy
  Pr  Pr0  1  0.15196000  0.64982000  0.89145000  1.0
  Pr  Pr1  1  0.84804000  0.35019000  0.10855000  1.0
  H  H2  1  0.72877000  0.07181000  0.32628000  1.0
  H  H3  1  0.27123000  0.92819000  0.67373000  1.0
  H  H4  1  0.53347000  0.64347000  0.52454000  1.0
  H  H5  1  0.46654000  0.35653000  0.47546000  1.0
  H  H6  1  0.83312000  0.89773000  0.68835000  1.0
  H  H7  1  0.16688000  0.10227000  0.31165000  1.0
  H  H8  1  0.91496000  0.12008000  0.57562000  1.0
  H  H9  1  0.08504000  0.87992000  0.42438000  1.0
  H  H10  1  0.57513000  0.82341000  0.92942000  1.0
  H  H11  1  0.42487000  0.17659000  0.07058000  1.0
  H  H12  1  0.55249000  0.65241000  0.78014000  1.0
  H  H13  1  0.44751000  0.34759000  0.21986000  1.0
  H  H14  1  0.18740000  0.31148000  0.90919000  1.0
  H  H15  1  0.81260000  0.68853000  0.09081000  1.0
  H  H16  1  0.40147000  0.40604000  0.99984000  1.0
  H  H17  1  0.59853000  0.59397000  0.00016000  1.0
  C  C18  1  0.27305000  0.57742000  0.24867000  1.0
  C  C19  1  0.72695000  0.42257000  0.75134000  1.0
  C  C20  1  0.45762000  0.72162000  0.33328000  1.0
  C  C21  1  0.54238000  0.27837000  0.66666667  1.0
  C  C22  1  0.57535000  0.74079000  0.48035000  1.0
  C  C23  1  0.42465000  0.25921000  0.51965000  1.0
  C  C24  1  0.74256000  0.88239000  0.57306000  1.0
  C  C25  1  0.25744000  0.11761000  0.42695000  1.0
  C  C26  1  0.79109000  0.00220000  0.51307000  1.0
  C  C27  1  0.20891000  0.99780000  0.48693000  1.0
  C  C28  1  0.51257000  0.84516000  0.26976000  1.0
  C  C29  1  0.48743000  0.15484000  0.73024000  1.0
  C  C30  1  0.01582000  0.59466000  0.50635000  1.0
  C  C31  1  0.98419000  0.40534000  0.49366000  1.0
  C  C32  1  0.07190000  0.04834000  0.97279000  1.0
  C  C33  1  0.92810000  0.95166000  0.02721000  1.0
  N  N34  1  0.68070000  0.98024000  0.36702000  1.0
  N  N35  1  0.31930000  0.01975000  0.63298000  1.0
  O  O36  1  0.13505000  0.59072000  0.14527000  1.0
  O  O37  1  0.86495000  0.40927000  0.85473000  1.0
  O  O38  1  0.25167000  0.44615000  0.28407000  1.0
  O  O39  1  0.74833000  0.55385000  0.71593000  1.0
  O  O40  1  0.42483000  0.84063000  0.13522000  1.0
  O  O41  1  0.57517000  0.15937000  0.86478000  1.0
  O  O42  1  0.10485000  0.71777000  0.64561000  1.0
  O  O43  1  0.89515000  0.28223000  0.35439000  1.0
  O  O44  1  0.95170000  0.61203000  0.37831000  1.0
  O  O45  1  0.04830000  0.38798000  0.62169000  1.0
  O  O46  1  0.20445000  0.98379000  0.94491000  1.0
  O  O47  1  0.79555000  0.01621000  0.05509000  1.0
  O  O48  1  0.04368000  0.18657000  0.96153000  1.0
  O  O49  1  0.95632000  0.81344000  0.03848000  1.0
  O  O50  1  0.48658000  0.70525000  0.85364000  1.0
  O  O51  1  0.51342000  0.29475000  0.14636000  1.0
  O  O52  1  0.29445000  0.40447000  0.91416000  1.0
  O  O53  1  0.70555000  0.59553000  0.08584000  1.0
