# generated using pymatgen
data_SiNiH8C8(N2F3)2
_symmetry_space_group_name_H-M   'P 1'
_cell_length_a   6.70371000
_cell_length_b   6.70370000
_cell_length_c   8.06095000
_cell_angle_alpha   90.00000000
_cell_angle_beta   89.99990000
_cell_angle_gamma   89.99980000
_symmetry_Int_Tables_number   1
_chemical_formula_structural   SiNiH8C8(N2F3)2
_chemical_formula_sum   'Si1 Ni1 H8 C8 N4 F6'
_cell_volume   362.25635813
_cell_formula_units_Z   1
loop_
 _symmetry_equiv_pos_site_id
 _symmetry_equiv_pos_as_xyz
  1  'x, y, z'
loop_
 _atom_site_type_symbol
 _atom_site_label
 _atom_site_symmetry_multiplicity
 _atom_site_fract_x
 _atom_site_fract_y
 _atom_site_fract_z
 _atom_site_occupancy
  Si  Si0  1  0.50000000  0.50001000  0.00000000  1.0
  Ni  Ni1  1  0.50000000  0.50000000  0.50000000  1.0
  H  H2  1  0.50000000  0.18602000  0.76010000  1.0
  H  H3  1  0.18601000  0.50000000  0.76010000  1.0
  H  H4  1  0.50000000  0.81399000  0.76010000  1.0
  H  H5  1  0.81398000  0.50000000  0.76010000  1.0
  H  H6  1  0.50000000  0.81398000  0.23990000  1.0
  H  H7  1  0.18602000  0.50000000  0.23990000  1.0
  H  H8  1  0.50000000  0.18601000  0.23990000  1.0
  H  H9  1  0.81399000  0.50000000  0.23990000  1.0
  C  C10  1  0.50000000  0.10381000  0.64348000  1.0
  C  C11  1  0.10383000  0.50000000  0.64348000  1.0
  C  C12  1  0.50000000  0.89617000  0.64348000  1.0
  C  C13  1  0.89618000  0.50000000  0.64348000  1.0
  C  C14  1  0.50000000  0.89617000  0.35652000  1.0
  C  C15  1  0.10382000  0.50000000  0.35652000  1.0
  C  C16  1  0.50000000  0.10382000  0.35652000  1.0
  C  C17  1  0.89618000  0.50000000  0.35652000  1.0
  N  N18  1  0.50000000  0.20744000  0.50000000  1.0
  N  N19  1  0.20743000  0.50000000  0.50000000  1.0
  N  N20  1  0.50000000  0.79258000  0.50000000  1.0
  N  N21  1  0.79257000  0.50000000  0.50000000  1.0
  F  F22  1  0.49999000  0.50001000  0.78405000  1.0
  F  F23  1  0.49999000  0.50002000  0.21595000  1.0
  F  F24  1  0.67962000  0.32038000  0.00000000  1.0
  F  F25  1  0.32038000  0.32037000  0.00000000  1.0
  F  F26  1  0.32037000  0.67963000  1.00000000  1.0
  F  F27  1  0.67963000  0.67962000  0.00000000  1.0
