# generated using pymatgen
data_Zn4H61C59NO27
_symmetry_space_group_name_H-M   'P 1'
_cell_length_a   16.90560000
_cell_length_b   17.02630000
_cell_length_c   17.08070000
_cell_angle_alpha   94.90670000
_cell_angle_beta   91.11800000
_cell_angle_gamma   96.15220000
_symmetry_Int_Tables_number   1
_chemical_formula_structural   Zn4H61C59NO27
_chemical_formula_sum   'Zn8 H122 C118 N2 O54'
_cell_volume   4868.23490586
_cell_formula_units_Z   2
loop_
 _symmetry_equiv_pos_site_id
 _symmetry_equiv_pos_as_xyz
  1  'x, y, z'
loop_
 _atom_site_type_symbol
 _atom_site_label
 _atom_site_symmetry_multiplicity
 _atom_site_fract_x
 _atom_site_fract_y
 _atom_site_fract_z
 _atom_site_occupancy
  Zn  Zn0  1  0.66434000  0.78606000  0.76798000  1.0
  Zn  Zn1  1  0.33566000  0.21394000  0.23202000  1.0
  Zn  Zn2  1  0.80987000  0.77044000  0.65535000  1.0
  Zn  Zn3  1  0.19013000  0.22957000  0.34465000  1.0
  Zn  Zn4  1  0.64777000  0.64386000  0.63384000  1.0
  Zn  Zn5  1  0.35223000  0.35615000  0.36615000  1.0
  Zn  Zn6  1  0.76188000  0.63833000  0.77690000  1.0
  Zn  Zn7  1  0.23812000  0.36167000  0.22310000  1.0
  H  H8  1  0.41192000  0.56070000  0.67746000  1.0
  H  H9  1  0.58808000  0.43929000  0.32253000  1.0
  H  H10  1  0.42269000  0.79397000  0.79544000  1.0
  H  H11  1  0.57731000  0.20602000  0.20457000  1.0
  H  H12  1  0.57828000  0.68951000  0.40809000  1.0
  H  H13  1  0.42172000  0.31050000  0.59192000  1.0
  H  H14  1  0.83824000  0.00957000  0.61424000  1.0
  H  H15  1  0.16176000  0.99044000  0.38577000  1.0
  H  H16  1  0.60494000  0.00443000  0.70752000  1.0
  H  H17  1  0.39506000  0.99557000  0.29248000  1.0
  H  H18  1  0.02135000  0.66883000  0.60781000  1.0
  H  H19  1  0.97865000  0.33117000  0.39219000  1.0
  H  H20  1  0.96144000  0.17497000  0.54839000  1.0
  H  H21  1  0.03856000  0.82503000  0.45161000  1.0
  H  H22  1  0.90394000  0.08139000  0.52340000  1.0
  H  H23  1  0.09606000  0.91861000  0.47660000  1.0
  H  H24  1  0.94505000  0.10514000  0.62123000  1.0
  H  H25  1  0.05495000  0.89486000  0.37877000  1.0
  H  H26  1  0.19778000  0.72518000  0.50439000  1.0
  H  H27  1  0.80222000  0.27482000  0.49561000  1.0
  H  H28  1  0.11127000  0.75423000  0.55265000  1.0
  H  H29  1  0.88873000  0.24577000  0.44735000  1.0
  H  H30  1  0.11223000  0.65419000  0.50926000  1.0
  H  H31  1  0.88777000  0.34581000  0.49074000  1.0
  H  H32  1  0.82492000  0.77979000  0.41222000  1.0
  H  H33  1  0.17508000  0.22022000  0.58778000  1.0
  H  H34  1  0.94546000  0.83229000  0.24920000  1.0
  H  H35  1  0.05454000  0.16771000  0.75079000  1.0
  H  H36  1  0.92240000  0.76266000  0.32066000  1.0
  H  H37  1  0.07760000  0.23734000  0.67934000  1.0
  H  H38  1  0.90210000  0.86382000  0.34009000  1.0
  H  H39  1  0.09791000  0.13618000  0.65990000  1.0
  H  H40  1  0.44334000  0.64611000  0.24007000  1.0
  H  H41  1  0.55666000  0.35389000  0.75993000  1.0
  H  H42  1  0.46725000  0.70463000  0.33095000  1.0
  H  H43  1  0.53275000  0.29537000  0.66905000  1.0
  H  H44  1  0.50153000  0.60819000  0.31422000  1.0
  H  H45  1  0.49848000  0.39182000  0.68578000  1.0
  H  H46  1  0.23708000  0.42138000  0.62912000  1.0
  H  H47  1  0.76292000  0.57862000  0.37088000  1.0
  H  H48  1  0.32802000  0.44448000  0.68524000  1.0
  H  H49  1  0.67198000  0.55552000  0.31476000  1.0
  H  H50  1  0.31581000  0.48634000  0.59276000  1.0
  H  H51  1  0.68419000  0.51365000  0.40724000  1.0
  H  H52  1  0.15949000  0.60792000  0.99070000  1.0
  H  H53  1  0.84051000  0.39208000  0.00930000  1.0
  H  H54  1  0.07576000  0.55964000  0.93248000  1.0
  H  H55  1  0.92424000  0.44035000  0.06752000  1.0
  H  H56  1  0.08201000  0.66413000  0.96043000  1.0
  H  H57  1  0.91799000  0.33587000  0.03957000  1.0
  H  H58  1  0.58751000  0.21957000  0.41741000  1.0
  H  H59  1  0.41249000  0.78043000  0.58259000  1.0
  H  H60  1  0.64761000  0.31293000  0.43286000  1.0
  H  H61  1  0.35239000  0.68707000  0.56714000  1.0
  H  H62  1  0.55550000  0.29666000  0.48338000  1.0
  H  H63  1  0.44449000  0.70334000  0.51661000  1.0
  H  H64  1  0.59807000  0.97244000  0.17458000  1.0
  H  H65  1  0.40193000  0.02756000  0.82543000  1.0
  H  H66  1  0.56561000  0.90644000  0.08975000  1.0
  H  H67  1  0.43439000  0.09356000  0.91025000  1.0
  H  H68  1  0.66394000  0.95830000  0.09462000  1.0
  H  H69  1  0.33606000  0.04171000  0.90539000  1.0
  H  H70  1  0.48164000  0.16404000  0.73386000  1.0
  H  H71  1  0.51836000  0.83597000  0.26614000  1.0
  H  H72  1  0.53929000  0.09506000  0.77592000  1.0
  H  H73  1  0.46070000  0.90494000  0.22408000  1.0
  H  H74  1  0.49487000  0.07179000  0.67904000  1.0
  H  H75  1  0.50513000  0.92822000  0.32096000  1.0
  H  H76  1  0.25851000  0.90471000  0.84938000  1.0
  H  H77  1  0.74149000  0.09529000  0.15062000  1.0
  H  H78  1  0.33474000  0.88868000  0.78017000  1.0
  H  H79  1  0.66526000  0.11131000  0.21983000  1.0
  H  H80  1  0.34629000  0.86347000  0.87954000  1.0
  H  H81  1  0.65371000  0.13652000  0.12046000  1.0
  H  H82  1  0.00158000  0.62526000  0.85046000  1.0
  H  H83  1  0.99842000  0.37473000  0.14954000  1.0
  H  H84  1  0.64314000  0.39586000  0.54837000  1.0
  H  H85  1  0.35686000  0.60414000  0.45163000  1.0
  H  H86  1  0.77472000  0.41525000  0.76737000  1.0
  H  H87  1  0.22527000  0.58475000  0.23263000  1.0
  H  H88  1  0.85753000  0.26068000  0.86295000  1.0
  H  H89  1  0.14247000  0.73931000  0.13705000  1.0
  H  H90  1  0.78414000  0.32948000  0.86376000  1.0
  H  H91  1  0.21585000  0.67052000  0.13625000  1.0
  H  H92  1  0.87583000  0.34990000  0.81415000  1.0
  H  H93  1  0.12416000  0.65010000  0.18585000  1.0
  H  H94  1  0.74129000  0.61914000  0.01096000  1.0
  H  H95  1  0.25871000  0.38086000  0.98903000  1.0
  H  H96  1  0.65649000  0.84703000  0.00951000  1.0
  H  H97  1  0.34351000  0.15298000  0.99049000  1.0
  H  H98  1  0.77677000  0.51051000  0.17926000  1.0
  H  H99  1  0.22322000  0.48949000  0.82073000  1.0
  H  H100  1  0.81697000  0.56141000  0.09855000  1.0
  H  H101  1  0.18303000  0.43860000  0.90144000  1.0
  H  H102  1  0.71575000  0.51600000  0.09322000  1.0
  H  H103  1  0.28424000  0.48400000  0.90677000  1.0
  H  H104  1  0.93231000  0.74239000  0.59777000  1.0
  H  H105  1  0.06769000  0.25761000  0.40224000  1.0
  H  H106  1  0.88525000  0.78480000  0.53851000  1.0
  H  H107  1  0.11475000  0.21520000  0.46149000  1.0
  H  H108  1  0.98671000  0.83317000  0.72973000  1.0
  H  H109  1  0.01329000  0.16682000  0.27028000  1.0
  H  H110  1  0.94719000  0.90494000  0.95931000  1.0
  H  H111  1  0.05281000  0.09506000  0.04069000  1.0
  H  H112  1  0.86477000  0.86297000  0.89769000  1.0
  H  H113  1  0.13523000  0.13704000  0.10230000  1.0
  H  H114  1  0.09105000  0.84838000  0.80991000  1.0
  H  H115  1  0.90896000  0.15162000  0.19009000  1.0
  H  H116  1  0.08058000  0.84187000  0.91147000  1.0
  H  H117  1  0.91943000  0.15813000  0.08854000  1.0
  H  H118  1  0.88326000  0.77887000  0.00860000  1.0
  H  H119  1  0.11674000  0.22112000  0.99140000  1.0
  H  H120  1  0.98198000  0.76657000  0.97962000  1.0
  H  H121  1  0.01801000  0.23342000  0.02038000  1.0
  H  H122  1  0.89938000  0.72598000  0.91692000  1.0
  H  H123  1  0.10062000  0.27402000  0.08308000  1.0
  H  H124  1  0.15042000  0.97447000  0.88997000  1.0
  H  H125  1  0.84959000  0.02553000  0.11003000  1.0
  H  H126  1  0.05552000  0.98825000  0.92756000  1.0
  H  H127  1  0.94448000  0.01175000  0.07244000  1.0
  H  H128  1  0.07214000  0.99344000  0.82550000  1.0
  H  H129  1  0.92786000  0.00656000  0.17449000  1.0
  C  C130  1  0.76465000  0.76991000  0.29759000  1.0
  C  C131  1  0.23536000  0.23010000  0.70241000  1.0
  C  C132  1  0.38024000  0.60677000  0.70645000  1.0
  C  C133  1  0.61976000  0.39323000  0.29354000  1.0
  C  C134  1  0.66963000  0.80464000  0.12583000  1.0
  C  C135  1  0.33037000  0.19537000  0.87418000  1.0
  C  C136  1  0.51077000  0.69079000  0.72385000  1.0
  C  C137  1  0.48923000  0.30921000  0.27615000  1.0
  C  C138  1  0.70859000  0.71961000  0.50146000  1.0
  C  C139  1  0.29140000  0.28040000  0.49854000  1.0
  C  C140  1  0.68082000  0.28503000  0.58364000  1.0
  C  C141  1  0.31917000  0.71497000  0.41637000  1.0
  C  C142  1  0.13336000  0.66712000  0.67125000  1.0
  C  C143  1  0.86663000  0.33287000  0.32875000  1.0
  C  C144  1  0.38607000  0.73994000  0.77342000  1.0
  C  C145  1  0.61393000  0.26005000  0.22658000  1.0
  C  C146  1  0.78709000  0.12238000  0.61969000  1.0
  C  C147  1  0.21291000  0.87762000  0.38031000  1.0
  C  C148  1  0.25818000  0.66061000  0.74774000  1.0
  C  C149  1  0.74182000  0.33938000  0.25225000  1.0
  C  C150  1  0.70186000  0.73414000  0.41677000  1.0
  C  C151  1  0.29814000  0.26586000  0.58323000  1.0
  C  C152  1  0.42340000  0.67808000  0.73613000  1.0
  C  C153  1  0.57660000  0.32192000  0.26387000  1.0
  C  C154  1  0.62917000  0.71282000  0.37599000  1.0
  C  C155  1  0.37083000  0.28718000  0.62401000  1.0
  C  C156  1  0.72192000  0.00122000  0.66214000  1.0
  C  C157  1  0.27808000  0.99878000  0.33786000  1.0
  C  C158  1  0.65364000  0.11837000  0.66975000  1.0
  C  C159  1  0.34636000  0.88163000  0.33025000  1.0
  C  C160  1  0.69286000  0.74660000  0.25476000  1.0
  C  C161  1  0.30715000  0.25340000  0.74524000  1.0
  C  C162  1  0.78768000  0.04175000  0.62929000  1.0
  C  C163  1  0.21232000  0.95826000  0.37071000  1.0
  C  C164  1  0.65440000  0.03838000  0.68183000  1.0
  C  C165  1  0.34560000  0.96162000  0.31817000  1.0
  C  C166  1  0.17040000  0.65529000  0.74334000  1.0
  C  C167  1  0.82960000  0.34470000  0.25665000  1.0
  C  C168  1  0.12284000  0.64005000  0.80802000  1.0
  C  C169  1  0.87716000  0.35994000  0.19198000  1.0
  C  C170  1  0.69251000  0.74303000  0.16792000  1.0
  C  C171  1  0.30749000  0.25697000  0.83208000  1.0
  C  C172  1  0.05056000  0.66235000  0.66372000  1.0
  C  C173  1  0.94944000  0.33764000  0.33627000  1.0
  C  C174  1  0.72576000  0.91741000  0.67974000  1.0
  C  C175  1  0.27424000  0.08260000  0.32026000  1.0
  C  C176  1  0.72056000  0.16182000  0.64029000  1.0
  C  C177  1  0.27943000  0.83819000  0.35971000  1.0
  C  C178  1  0.91862000  0.12963000  0.57033000  1.0
  C  C179  1  0.08138000  0.87037000  0.42967000  1.0
  C  C180  1  0.72144000  0.24893000  0.64128000  1.0
  C  C181  1  0.27856000  0.75107000  0.35872000  1.0
  C  C182  1  0.14831000  0.70542000  0.54064000  1.0
  C  C183  1  0.85169000  0.29458000  0.45936000  1.0
  C  C184  1  0.30330000  0.73105000  0.77821000  1.0
  C  C185  1  0.69670000  0.26894000  0.22179000  1.0
  C  C186  1  0.62496000  0.71883000  0.29487000  1.0
  C  C187  1  0.37505000  0.28117000  0.70514000  1.0
  C  C188  1  0.76956000  0.76394000  0.37848000  1.0
  C  C189  1  0.23044000  0.23607000  0.62152000  1.0
  C  C190  1  0.90327000  0.81450000  0.29403000  1.0
  C  C191  1  0.09673000  0.18550000  0.70597000  1.0
  C  C192  1  0.29755000  0.59812000  0.71296000  1.0
  C  C193  1  0.70245000  0.40187000  0.28703000  1.0
  C  C194  1  0.48896000  0.66190000  0.28676000  1.0
  C  C195  1  0.51104000  0.33810000  0.71324000  1.0
  C  C196  1  0.28576000  0.46782000  0.64585000  1.0
  C  C197  1  0.71424000  0.53217000  0.35414000  1.0
  C  C198  1  0.11681000  0.61454000  0.94323000  1.0
  C  C199  1  0.88318000  0.38546000  0.05677000  1.0
  C  C200  1  0.60755000  0.26908000  0.46088000  1.0
  C  C201  1  0.39245000  0.73091000  0.53912000  1.0
  C  C202  1  0.61672000  0.92926000  0.12929000  1.0
  C  C203  1  0.38327000  0.07075000  0.87071000  1.0
  C  C204  1  0.52310000  0.11984000  0.72103000  1.0
  C  C205  1  0.47690000  0.88016000  0.27897000  1.0
  C  C206  1  0.30322000  0.86549000  0.83065000  1.0
  C  C207  1  0.69678000  0.13450000  0.16935000  1.0
  C  C208  1  0.00457000  0.64748000  0.72902000  1.0
  C  C209  1  0.99544000  0.35252000  0.27098000  1.0
  C  C210  1  0.91650000  0.64731000  0.72208000  1.0
  C  C211  1  0.08350000  0.35268000  0.27792000  1.0
  C  C212  1  0.03993000  0.63635000  0.80141000  1.0
  C  C213  1  0.96007000  0.36365000  0.19859000  1.0
  C  C214  1  0.67468000  0.36675000  0.59171000  1.0
  C  C215  1  0.32531000  0.63325000  0.40829000  1.0
  C  C216  1  0.70800000  0.41172000  0.65899000  1.0
  C  C217  1  0.29199000  0.58828000  0.34101000  1.0
  C  C218  1  0.69732000  0.49742000  0.67324000  1.0
  C  C219  1  0.30268000  0.50258000  0.32676000  1.0
  C  C220  1  0.75012000  0.37761000  0.71620000  1.0
  C  C221  1  0.24986000  0.62239000  0.28380000  1.0
  C  C222  1  0.75729000  0.29656000  0.70659000  1.0
  C  C223  1  0.24270000  0.70344000  0.29342000  1.0
  C  C224  1  0.83005000  0.30268000  0.82871000  1.0
  C  C225  1  0.16994000  0.69731000  0.17129000  1.0
  C  C226  1  0.71799000  0.67558000  0.12637000  1.0
  C  C227  1  0.28201000  0.32442000  0.87363000  1.0
  C  C228  1  0.72193000  0.67035000  0.04458000  1.0
  C  C229  1  0.27807000  0.32965000  0.95542000  1.0
  C  C230  1  0.67343000  0.80031000  0.04388000  1.0
  C  C231  1  0.32657000  0.19970000  0.95612000  1.0
  C  C232  1  0.70013000  0.73322000  0.00429000  1.0
  C  C233  1  0.29986000  0.26679000  0.99571000  1.0
  C  C234  1  0.70622000  0.72812000  0.91713000  1.0
  C  C235  1  0.29379000  0.27189000  0.08287000  1.0
  C  C236  1  0.76330000  0.54764000  0.13263000  1.0
  C  C237  1  0.23670000  0.45237000  0.86736000  1.0
  C  C238  1  0.94354000  0.83318000  0.77746000  1.0
  C  C239  1  0.05646000  0.16681000  0.22254000  1.0
  C  C240  1  0.92471000  0.85376000  0.91823000  1.0
  C  C241  1  0.07529000  0.14624000  0.08177000  1.0
  C  C242  1  0.06171000  0.87328000  0.86178000  1.0
  C  C243  1  0.93830000  0.12672000  0.13822000  1.0
  C  C244  1  0.92248000  0.77662000  0.95810000  1.0
  C  C245  1  0.07752000  0.22337000  0.04189000  1.0
  C  C246  1  0.08615000  0.96244000  0.87700000  1.0
  C  C247  1  0.91385000  0.03756000  0.12300000  1.0
  N  N248  1  0.97565000  0.85381000  0.84958000  1.0
  N  N249  1  0.02436000  0.14619000  0.15042000  1.0
  O  O250  1  0.72225000  0.71036000  0.70723000  1.0
  O  O251  1  0.27776000  0.28964000  0.29277000  1.0
  O  O252  1  0.64507000  0.68989000  0.53258000  1.0
  O  O253  1  0.35494000  0.31012000  0.46742000  1.0
  O  O254  1  0.67087000  0.53239000  0.61634000  1.0
  O  O255  1  0.32913000  0.46761000  0.38366000  1.0
  O  O256  1  0.77686000  0.87941000  0.64396000  1.0
  O  O257  1  0.22314000  0.12059000  0.35604000  1.0
  O  O258  1  0.72962000  0.66453000  0.88481000  1.0
  O  O259  1  0.27040000  0.33549000  0.11520000  1.0
  O  O260  1  0.77646000  0.73487000  0.53634000  1.0
  O  O261  1  0.22354000  0.26514000  0.46366000  1.0
  O  O262  1  0.53998000  0.63953000  0.67708000  1.0
  O  O263  1  0.46002000  0.36046000  0.32292000  1.0
  O  O264  1  0.24926000  0.53178000  0.68536000  1.0
  O  O265  1  0.75074000  0.46822000  0.31463000  1.0
  O  O266  1  0.59126000  0.16073000  0.68840000  1.0
  O  O267  1  0.40874000  0.83928000  0.31160000  1.0
  O  O268  1  0.67733000  0.89162000  0.73104000  1.0
  O  O269  1  0.32267000  0.10838000  0.26896000  1.0
  O  O270  1  0.71442000  0.52957000  0.74269000  1.0
  O  O271  1  0.28557000  0.47043000  0.25730000  1.0
  O  O272  1  0.87668000  0.62898000  0.78250000  1.0
  O  O273  1  0.12332000  0.37101000  0.21749000  1.0
  O  O274  1  0.54862000  0.75279000  0.75971000  1.0
  O  O275  1  0.45138000  0.24720000  0.24029000  1.0
  O  O276  1  0.68841000  0.78743000  0.88187000  1.0
  O  O277  1  0.31159000  0.21258000  0.11813000  1.0
  O  O278  1  0.55791000  0.69619000  0.24908000  1.0
  O  O279  1  0.44210000  0.30382000  0.75092000  1.0
  O  O280  1  0.88586000  0.66707000  0.65902000  1.0
  O  O281  1  0.11414000  0.33293000  0.34098000  1.0
  O  O282  1  0.82797000  0.79590000  0.25401000  1.0
  O  O283  1  0.17203000  0.20410000  0.74599000  1.0
  O  O284  1  0.18323000  0.68439000  0.61193000  1.0
  O  O285  1  0.81677000  0.31561000  0.38807000  1.0
  O  O286  1  0.16317000  0.62966000  0.87624000  1.0
  O  O287  1  0.83683000  0.37033000  0.12376000  1.0
  O  O288  1  0.64841000  0.23508000  0.52178000  1.0
  O  O289  1  0.35158000  0.76492000  0.47822000  1.0
  O  O290  1  0.64483000  0.86788000  0.17042000  1.0
  O  O291  1  0.35517000  0.13212000  0.82958000  1.0
  O  O292  1  0.87049000  0.81500000  0.76410000  1.0
  O  O293  1  0.12952000  0.18499000  0.23591000  1.0
  O  O294  1  0.26032000  0.78977000  0.80925000  1.0
  O  O295  1  0.73969000  0.21022000  0.19075000  1.0
  O  O296  1  0.85038000  0.16820000  0.59180000  1.0
  O  O297  1  0.14962000  0.83180000  0.40820000  1.0
  O  O298  1  0.79620000  0.25733000  0.75987000  1.0
  O  O299  1  0.20379000  0.74266000  0.24013000  1.0
  O  O300  1  0.73818000  0.61804000  0.17165000  1.0
  O  O301  1  0.26182000  0.38196000  0.82834000  1.0
  O  O302  1  0.92330000  0.79594000  0.58339000  1.0
  O  O303  1  0.07671000  0.20405000  0.41662000  1.0
