# generated using pymatgen
data_KLuH8(CO3)4
_symmetry_space_group_name_H-M   'P 1'
_cell_length_a   8.76276000
_cell_length_b   9.14084000
_cell_length_c   9.14089453
_cell_angle_alpha   76.71817929
_cell_angle_beta   61.35875943
_cell_angle_gamma   61.35900000
_symmetry_Int_Tables_number   1
_chemical_formula_structural   KLuH8(CO3)4
_chemical_formula_sum   'K2 Lu2 H16 C8 O24'
_cell_volume   563.95928016
_cell_formula_units_Z   2
loop_
 _symmetry_equiv_pos_site_id
 _symmetry_equiv_pos_as_xyz
  1  'x, y, z'
loop_
 _atom_site_type_symbol
 _atom_site_label
 _atom_site_symmetry_multiplicity
 _atom_site_fract_x
 _atom_site_fract_y
 _atom_site_fract_z
 _atom_site_occupancy
  K  K0  1  0.12502000  0.24998000  0.75001000  1.0
  K  K1  1  0.87498000  0.75002000  0.24999000  1.0
  Lu  Lu2  1  0.62495000  0.24999000  0.75001000  1.0
  Lu  Lu3  1  0.37498000  0.74999000  0.25001000  1.0
  H  H4  1  0.05084000  0.59907000  0.58951000  1.0
  H  H5  1  0.23944000  0.90090000  0.91050000  1.0
  H  H6  1  0.14993000  0.58953000  0.90088000  1.0
  H  H7  1  0.64035000  0.91047000  0.59911000  1.0
  H  H8  1  0.94913000  0.40093000  0.41051000  1.0
  H  H9  1  0.76058000  0.09911000  0.08949000  1.0
  H  H10  1  0.85009000  0.41049000  0.09909000  1.0
  H  H11  1  0.35966000  0.08952000  0.40089000  1.0
  H  H12  1  0.82290000  0.67100000  0.67295000  1.0
  H  H13  1  0.16684000  0.82900000  0.82705000  1.0
  H  H14  1  0.99390000  0.67297000  0.82896000  1.0
  H  H15  1  0.49583000  0.82703000  0.67104000  1.0
  H  H16  1  0.17707000  0.32901000  0.32707000  1.0
  H  H17  1  0.83317000  0.17102000  0.17293000  1.0
  H  H18  1  0.00608000  0.32706000  0.17105000  1.0
  H  H19  1  0.50416000  0.17297000  0.32897000  1.0
  C  C20  1  0.42308000  0.01875000  0.97170000  1.0
  C  C21  1  0.41353000  0.48124000  0.52830000  1.0
  C  C22  1  0.94181000  0.97171000  0.48125000  1.0
  C  C23  1  0.39478000  0.52829000  0.01874000  1.0
  C  C24  1  0.57695000  0.98125000  0.02829000  1.0
  C  C25  1  0.58649000  0.51875000  0.47171000  1.0
  C  C26  1  0.05818000  0.02830000  0.51876000  1.0
  C  C27  1  0.60525000  0.47169000  0.98124000  1.0
  O  O28  1  0.93811000  0.60828000  0.69633000  1.0
  O  O29  1  0.24273000  0.89171000  0.80368000  1.0
  O  O30  1  0.04645000  0.69635000  0.89163000  1.0
  O  O31  1  0.63444000  0.80365000  0.60835000  1.0
  O  O32  1  0.06186000  0.39173000  0.30369000  1.0
  O  O33  1  0.75728000  0.10831000  0.19631000  1.0
  O  O34  1  0.95356000  0.30366000  0.10836000  1.0
  O  O35  1  0.36556000  0.19635000  0.39164000  1.0
  O  O36  1  0.41213000  0.12501000  0.85750000  1.0
  O  O37  1  0.39463000  0.37497000  0.64250000  1.0
  O  O38  1  0.03713000  0.85750000  0.37498000  1.0
  O  O39  1  0.26963000  0.64248000  0.12502000  1.0
  O  O40  1  0.58790000  0.87497000  0.14249000  1.0
  O  O41  1  0.60536000  0.62502000  0.35751000  1.0
  O  O42  1  0.96285000  0.14249000  0.62503000  1.0
  O  O43  1  0.73039000  0.35749000  0.87498000  1.0
  O  O44  1  0.32138000  0.93793000  0.04510000  1.0
  O  O45  1  0.30441000  0.56206000  0.45490000  1.0
  O  O46  1  0.75929000  0.04509000  0.56208000  1.0
  O  O47  1  0.36647000  0.45491000  0.93791000  1.0
  O  O48  1  0.67864000  0.06206000  0.95489000  1.0
  O  O49  1  0.69559000  0.43793000  0.54512000  1.0
  O  O50  1  0.24070000  0.95489000  0.43793000  1.0
  O  O51  1  0.63353000  0.54510000  0.06208000  1.0
