# generated using pymatgen
data_MnH6C6(N2O)4
_symmetry_space_group_name_H-M   'P 1'
_cell_length_a   4.95319000
_cell_length_b   7.77995000
_cell_length_c   13.52490000
_cell_angle_alpha   90.00000000
_cell_angle_beta   90.00000000
_cell_angle_gamma   104.62200000
_symmetry_Int_Tables_number   1
_chemical_formula_structural   MnH6C6(N2O)4
_chemical_formula_sum   'Mn2 H12 C12 N16 O8'
_cell_volume   504.30960710
_cell_formula_units_Z   2
loop_
 _symmetry_equiv_pos_site_id
 _symmetry_equiv_pos_as_xyz
  1  'x, y, z'
loop_
 _atom_site_type_symbol
 _atom_site_label
 _atom_site_symmetry_multiplicity
 _atom_site_fract_x
 _atom_site_fract_y
 _atom_site_fract_z
 _atom_site_occupancy
  Mn  Mn0  1  0.00000000  0.00000000  0.00000000  1.0
  Mn  Mn1  1  0.50000000  0.50000000  0.50000000  1.0
  H  H2  1  0.27370000  0.82143000  0.80946000  1.0
  H  H3  1  0.22630000  0.67857000  0.30946000  1.0
  H  H4  1  0.72630000  0.17857000  0.19054000  1.0
  H  H5  1  0.77370000  0.32143000  0.69054000  1.0
  H  H6  1  0.46018000  0.88494000  0.62268000  1.0
  H  H7  1  0.03982000  0.61506000  0.12268000  1.0
  H  H8  1  0.53982000  0.11506000  0.37732000  1.0
  H  H9  1  0.96018000  0.38494000  0.87732000  1.0
  H  H10  1  0.30898000  0.03184000  0.55328000  1.0
  H  H11  1  0.19102000  0.46816000  0.05328000  1.0
  H  H12  1  0.69102000  0.96816000  0.44672000  1.0
  H  H13  1  0.80898000  0.53184000  0.94672000  1.0
  C  C14  1  0.13547000  0.89790000  0.78156000  1.0
  C  C15  1  0.36453000  0.60210000  0.28156000  1.0
  C  C16  1  0.86452000  0.10211000  0.21844000  1.0
  C  C17  1  0.63547000  0.39790000  0.71843000  1.0
  C  C18  1  0.26336000  0.91242000  0.60006000  1.0
  C  C19  1  0.23664000  0.58758000  0.10006000  1.0
  C  C20  1  0.73664000  0.08758000  0.39994000  1.0
  C  C21  1  0.76336000  0.41242000  0.89994000  1.0
  C  C22  1  0.08997000  0.75607000  0.53913000  1.0
  C  C23  1  0.41003000  0.74393000  0.03913000  1.0
  C  C24  1  0.91003000  0.24393000  0.46087000  1.0
  C  C25  1  0.58997000  0.25607000  0.96087000  1.0
  N  N26  1  0.95553000  0.95940000  0.83516000  1.0
  N  N27  1  0.54447000  0.54060000  0.33516000  1.0
  N  N28  1  0.04448000  0.04060000  0.16484000  1.0
  N  N29  1  0.45553000  0.45940000  0.66484000  1.0
  N  N30  1  0.11967000  0.95119000  0.68767000  1.0
  N  N31  1  0.38033000  0.54881000  0.18767000  1.0
  N  N32  1  0.88033000  0.04881000  0.31233000  1.0
  N  N33  1  0.61967000  0.45119000  0.81233000  1.0
  N  N34  1  0.92693000  0.04718000  0.68310000  1.0
  N  N35  1  0.57307000  0.45282000  0.18310000  1.0
  N  N36  1  0.07307000  0.95282000  0.31690000  1.0
  N  N37  1  0.42693000  0.54718000  0.81690000  1.0
  N  N38  1  0.82967000  0.05127000  0.77230000  1.0
  N  N39  1  0.67033000  0.44873000  0.27230000  1.0
  N  N40  1  0.17033000  0.94873000  0.22770000  1.0
  N  N41  1  0.32967000  0.55127000  0.72770000  1.0
  O  O42  1  0.22752000  0.67478000  0.48604000  1.0
  O  O43  1  0.27248000  0.82522000  0.98604000  1.0
  O  O44  1  0.77248000  0.32522000  0.51396000  1.0
  O  O45  1  0.72752000  0.17478000  0.01396000  1.0
  O  O46  1  0.82728000  0.72767000  0.54402000  1.0
  O  O47  1  0.67273000  0.77233000  0.04402000  1.0
  O  O48  1  0.17272000  0.27233000  0.45598000  1.0
  O  O49  1  0.32728000  0.22767000  0.95598000  1.0
