# generated using pymatgen
data_CuH18C22S4(N5O7)2
_symmetry_space_group_name_H-M   'P 1'
_cell_length_a   8.35818000
_cell_length_b   9.96256000
_cell_length_c   10.37970000
_cell_angle_alpha   109.54800000
_cell_angle_beta   98.28610000
_cell_angle_gamma   102.35100000
_symmetry_Int_Tables_number   1
_chemical_formula_structural   CuH18C22S4(N5O7)2
_chemical_formula_sum   'Cu1 H18 C22 S4 N10 O14'
_cell_volume   773.49037623
_cell_formula_units_Z   1
loop_
 _symmetry_equiv_pos_site_id
 _symmetry_equiv_pos_as_xyz
  1  'x, y, z'
loop_
 _atom_site_type_symbol
 _atom_site_label
 _atom_site_symmetry_multiplicity
 _atom_site_fract_x
 _atom_site_fract_y
 _atom_site_fract_z
 _atom_site_occupancy
  Cu  Cu0  1  0.00000000  0.00000000  0.00000000  1.0
  H  H1  1  0.70362000  0.40402000  0.08892000  1.0
  H  H2  1  0.29638000  0.59598000  0.91108000  1.0
  H  H3  1  0.20013000  0.68979000  0.31549000  1.0
  H  H4  1  0.79987000  0.31021000  0.68451000  1.0
  H  H5  1  0.67199000  0.91235000  0.06018000  1.0
  H  H6  1  0.32801000  0.08765000  0.93982000  1.0
  H  H7  1  0.60605000  0.05396000  0.17869000  1.0
  H  H8  1  0.39395000  0.94604000  0.82131000  1.0
  H  H9  1  0.61071000  0.89166000  0.21193000  1.0
  H  H10  1  0.38929000  0.10834000  0.78807000  1.0
  H  H11  1  0.56654000  0.31733000  0.58040000  1.0
  H  H12  1  0.43346000  0.68267000  0.41960000  1.0
  H  H13  1  0.44748000  0.19002000  0.41010000  1.0
  H  H14  1  0.55253000  0.80999000  0.58990000  1.0
  H  H15  1  0.36814000  0.40266000  0.36134000  1.0
  H  H16  1  0.63187000  0.59735000  0.63866000  1.0
  H  H17  1  0.58586000  0.41895000  0.38855000  1.0
  H  H18  1  0.41414000  0.58106000  0.61145000  1.0
  C  C19  1  0.79691000  0.58742000  0.02870000  1.0
  C  C20  1  0.20309000  0.41258000  0.97130000  1.0
  C  C21  1  0.80732000  0.50020000  0.10662000  1.0
  C  C22  1  0.19268000  0.49980000  0.89338000  1.0
  C  C23  1  0.95185000  0.54083000  0.21292000  1.0
  C  C24  1  0.04815000  0.45917000  0.78708000  1.0
  C  C25  1  0.08593000  0.66228000  0.23591000  1.0
  C  C26  1  0.91408000  0.33772000  0.76409000  1.0
  C  C27  1  0.07739000  0.74657000  0.15365000  1.0
  C  C28  1  0.92261000  0.25342000  0.84634000  1.0
  C  C29  1  0.92917000  0.71687000  0.04588000  1.0
  C  C30  1  0.07083000  0.28313000  0.95412000  1.0
  C  C31  1  0.67567000  0.97076000  0.17108000  1.0
  C  C32  1  0.32433000  0.02924000  0.82892000  1.0
  C  C33  1  0.85203000  0.04332000  0.25304000  1.0
  C  C34  1  0.14797000  0.95668000  0.74696000  1.0
  C  C35  1  0.11788000  0.17631000  0.42369000  1.0
  C  C36  1  0.88212000  0.82369000  0.57632000  1.0
  C  C37  1  0.45984000  0.29645000  0.49414000  1.0
  C  C38  1  0.54016000  0.70356000  0.50586000  1.0
  C  C39  1  0.48119000  0.42361000  0.44194000  1.0
  C  C40  1  0.51882000  0.57639000  0.55806000  1.0
  S  S41  1  0.90963000  0.11677000  0.43424000  1.0
  S  S42  1  0.09037000  0.88323000  0.56576000  1.0
  S  S43  1  0.27977000  0.26766000  0.57318000  1.0
  S  S44  1  0.72023000  0.73234000  0.42682000  1.0
  N  N45  1  0.64288000  0.54253000  0.91989000  1.0
  N  N46  1  0.35712000  0.45747000  0.08011000  1.0
  N  N47  1  0.96309000  0.45249000  0.29864000  1.0
  N  N48  1  0.03691000  0.54751000  0.70136000  1.0
  N  N49  1  0.23028000  0.86203000  0.17658000  1.0
  N  N50  1  0.76972000  0.13797000  0.82342000  1.0
  N  N51  1  0.98468000  0.06445000  0.19944000  1.0
  N  N52  1  0.01532000  0.93555000  0.80056000  1.0
  N  N53  1  0.13518000  0.14019000  0.29360000  1.0
  N  N54  1  0.86482000  0.85981000  0.70640000  1.0
  O  O55  1  0.90839000  0.78878000  0.96664000  1.0
  O  O56  1  0.09161000  0.21122000  0.03336000  1.0
  O  O57  1  0.58148000  0.63946000  0.90270000  1.0
  O  O58  1  0.41852000  0.36053000  0.09730000  1.0
  O  O59  1  0.58048000  0.40650000  0.85103000  1.0
  O  O60  1  0.41952000  0.59350000  0.14897000  1.0
  O  O61  1  0.83624000  0.35072000  0.28071000  1.0
  O  O62  1  0.16376000  0.64928000  0.71929000  1.0
  O  O63  1  0.09873000  0.48405000  0.38443000  1.0
  O  O64  1  0.90127000  0.51595000  0.61557000  1.0
  O  O65  1  0.33500000  0.90811000  0.29061000  1.0
  O  O66  1  0.66500000  0.09189000  0.70938000  1.0
  O  O67  1  0.25054000  0.90680000  0.07955000  1.0
  O  O68  1  0.74946000  0.09320000  0.92045000  1.0
