# generated using pymatgen
data_ZnH12C19N3O5
_symmetry_space_group_name_H-M   'P 1'
_cell_length_a   6.86668000
_cell_length_b   9.24548000
_cell_length_c   13.76420000
_cell_angle_alpha   92.68490000
_cell_angle_beta   103.07900000
_cell_angle_gamma   100.94400000
_symmetry_Int_Tables_number   1
_chemical_formula_structural   ZnH12C19N3O5
_chemical_formula_sum   'Zn2 H24 C38 N6 O10'
_cell_volume   831.98990741
_cell_formula_units_Z   2
loop_
 _symmetry_equiv_pos_site_id
 _symmetry_equiv_pos_as_xyz
  1  'x, y, z'
loop_
 _atom_site_type_symbol
 _atom_site_label
 _atom_site_symmetry_multiplicity
 _atom_site_fract_x
 _atom_site_fract_y
 _atom_site_fract_z
 _atom_site_occupancy
  Zn  Zn0  1  0.41177000  0.67082000  0.21172000  1.0
  Zn  Zn1  1  0.58823000  0.32918000  0.78829000  1.0
  H  H2  1  0.18807000  0.36191000  0.56861000  1.0
  H  H3  1  0.81192000  0.63809000  0.43139000  1.0
  H  H4  1  0.43485000  0.98405000  0.42365000  1.0
  H  H5  1  0.56516000  0.01595000  0.57635000  1.0
  H  H6  1  0.41305000  0.21326000  0.52018000  1.0
  H  H7  1  0.58696000  0.78675000  0.47982000  1.0
  H  H8  1  0.77160000  0.14214000  0.37285000  1.0
  H  H9  1  0.22840000  0.85786000  0.62715000  1.0
  H  H10  1  0.40087000  0.89422000  0.05301000  1.0
  H  H11  1  0.59913000  0.10577000  0.94699000  1.0
  H  H12  1  0.29522000  0.87682000  0.86298000  1.0
  H  H13  1  0.70479000  0.12317000  0.13702000  1.0
  H  H14  1  0.16788000  0.62378000  0.76999000  1.0
  H  H15  1  0.83213000  0.37621000  0.23001000  1.0
  H  H16  1  0.14599000  0.40218000  0.86590000  1.0
  H  H17  1  0.85401000  0.59782000  0.13410000  1.0
  H  H18  1  0.13264000  0.23003000  0.95526000  1.0
  H  H19  1  0.86736000  0.76996000  0.04474000  1.0
  H  H20  1  0.15408000  0.03332000  0.07498000  1.0
  H  H21  1  0.84592000  0.96668000  0.92502000  1.0
  H  H22  1  0.30499000  0.10786000  0.25637000  1.0
  H  H23  1  0.69501000  0.89213000  0.74363000  1.0
  H  H24  1  0.41374000  0.37713000  0.31621000  1.0
  H  H25  1  0.58625000  0.62286000  0.68379000  1.0
  C  C26  1  0.73530000  0.87977000  0.27492000  1.0
  C  C27  1  0.26469000  0.12023000  0.72509000  1.0
  C  C28  1  0.92961000  0.97539000  0.33602000  1.0
  C  C29  1  0.07039000  0.02461000  0.66398000  1.0
  C  C30  1  0.11801000  0.93093000  0.34919000  1.0
  C  C31  1  0.88199000  0.06908000  0.65081000  1.0
  C  C32  1  0.28901000  0.01734000  0.41634000  1.0
  C  C33  1  0.71099000  0.98267000  0.58366000  1.0
  C  C34  1  0.27783000  0.14736000  0.46785000  1.0
  C  C35  1  0.72217000  0.85265000  0.53215000  1.0
  C  C36  1  0.09180000  0.19495000  0.45034000  1.0
  C  C37  1  0.90819000  0.80505000  0.54966000  1.0
  C  C38  1  0.91758000  0.10800000  0.38487000  1.0
  C  C39  1  0.08242000  0.89200000  0.61513000  1.0
  C  C40  1  0.15219000  0.81387000  0.27957000  1.0
  C  C41  1  0.84781000  0.18613000  0.72042000  1.0
  C  C42  1  0.96998000  0.42746000  0.46544000  1.0
  C  C43  1  0.03000000  0.57255000  0.53455000  1.0
  C  C44  1  0.34158000  0.78874000  0.00739000  1.0
  C  C45  1  0.65842000  0.21126000  0.99261000  1.0
  C  C46  1  0.28242000  0.77774000  0.90320000  1.0
  C  C47  1  0.71759000  0.22226000  0.09680000  1.0
  C  C48  1  0.21217000  0.63700000  0.85171000  1.0
  C  C49  1  0.78784000  0.36300000  0.14829000  1.0
  C  C50  1  0.20242000  0.51258000  0.90529000  1.0
  C  C51  1  0.79759000  0.48742000  0.09471000  1.0
  C  C52  1  0.26406000  0.53210000  0.00994000  1.0
  C  C53  1  0.73594000  0.46790000  0.99007000  1.0
  C  C54  1  0.26369000  0.40766000  0.07395000  1.0
  C  C55  1  0.73631000  0.59234000  0.92604000  1.0
  C  C56  1  0.19561000  0.25931000  0.03533000  1.0
  C  C57  1  0.80439000  0.74068000  0.96467000  1.0
  C  C58  1  0.20726000  0.15017000  0.10159000  1.0
  C  C59  1  0.79275000  0.84983000  0.89841000  1.0
  C  C60  1  0.28841000  0.19056000  0.20352000  1.0
  C  C61  1  0.71159000  0.80944000  0.79648000  1.0
  C  C62  1  0.34950000  0.34004000  0.23707000  1.0
  C  C63  1  0.65049000  0.65996000  0.76293000  1.0
  N  N64  1  0.08794000  0.33024000  0.49995000  1.0
  N  N65  1  0.91206000  0.66976000  0.50005000  1.0
  N  N66  1  0.33260000  0.66915000  0.05902000  1.0
  N  N67  1  0.66740000  0.33084000  0.94098000  1.0
  N  N68  1  0.33621000  0.44571000  0.17380000  1.0
  N  N69  1  0.66379000  0.55429000  0.82619000  1.0
  O  O70  1  0.60348000  0.93640000  0.21944000  1.0
  O  O71  1  0.39652000  0.06360000  0.78056000  1.0
  O  O72  1  0.70649000  0.73954000  0.28734000  1.0
  O  O73  1  0.29351000  0.26046000  0.71266000  1.0
  O  O74  1  0.06681000  0.80665000  0.18822000  1.0
  O  O75  1  0.93319000  0.19335000  0.81178000  1.0
  O  O76  1  0.28526000  0.73645000  0.31717000  1.0
  O  O77  1  0.71473000  0.26356000  0.68283000  1.0
  O  O78  1  0.83118000  0.40941000  0.38783000  1.0
  O  O79  1  0.16882000  0.59059000  0.61217000  1.0
