# generated using pymatgen
data_ZnH8C16N3Cl3O4
_symmetry_space_group_name_H-M   'P 1'
_cell_length_a   13.76430000
_cell_length_b   14.23390000
_cell_length_c   15.22100000
_cell_angle_alpha   91.34890000
_cell_angle_beta   90.77660000
_cell_angle_gamma   95.40570000
_symmetry_Int_Tables_number   1
_chemical_formula_structural   ZnH8C16N3Cl3O4
_chemical_formula_sum   'Zn2 H16 C32 N6 Cl6 O8'
_cell_volume   2967.63534170
_cell_formula_units_Z   2
loop_
 _symmetry_equiv_pos_site_id
 _symmetry_equiv_pos_as_xyz
  1  'x, y, z'
loop_
 _atom_site_type_symbol
 _atom_site_label
 _atom_site_symmetry_multiplicity
 _atom_site_fract_x
 _atom_site_fract_y
 _atom_site_fract_z
 _atom_site_occupancy
  Zn  Zn0  1  0.51624000  0.39619000  0.49812000  1.0
  Zn  Zn1  1  0.49251000  0.60500000  0.50094000  1.0
  H  H2  1  0.54272000  0.35830000  0.05761000  1.0
  H  H3  1  0.66216000  0.79124000  0.64294000  1.0
  H  H4  1  0.37886000  0.29984000  0.39990000  1.0
  H  H5  1  0.33509000  0.18907000  0.36542000  1.0
  H  H6  1  0.59393000  0.90706000  0.70228000  1.0
  H  H7  1  0.58442000  0.01758000  0.66041000  1.0
  H  H8  1  0.43368000  0.98524000  0.32981000  1.0
  H  H9  1  0.41840000  0.09634000  0.29283000  1.0
  H  H10  1  0.53531000  0.64368000  0.94415000  1.0
  H  H11  1  0.54249000  0.35952000  0.22153000  1.0
  H  H12  1  0.54421000  0.64292000  0.78137000  1.0
  H  H13  1  0.43297000  0.63162000  0.22566000  1.0
  H  H14  1  0.45739000  0.34517000  0.77100000  1.0
  H  H15  1  0.42961000  0.63054000  0.06167000  1.0
  H  H16  1  0.44337000  0.34567000  0.93412000  1.0
  H  H17  1  0.58367000  0.68943000  0.63822000  1.0
  C  C18  1  0.49207000  0.49620000  0.33149000  1.0
  C  C19  1  0.59600000  0.20650000  0.52642000  1.0
  C  C20  1  0.53536000  0.80297000  0.57594000  1.0
  C  C21  1  0.46454000  0.19504000  0.42986000  1.0
  C  C22  1  0.53935000  0.90412000  0.57817000  1.0
  C  C23  1  0.47069000  0.09492000  0.41837000  1.0
  C  C24  1  0.49319000  0.94981000  0.50851000  1.0
  C  C25  1  0.51722000  0.04800000  0.48642000  1.0
  C  C26  1  0.31606000  0.46531000  0.50570000  1.0
  C  C27  1  0.68874000  0.55348000  0.49098000  1.0
  C  C28  1  0.79435000  0.56539000  0.48865000  1.0
  C  C29  1  0.51083000  0.49237000  0.66834000  1.0
  C  C30  1  0.21069000  0.45783000  0.50043000  1.0
  C  C31  1  0.98299000  0.55562000  0.49103000  1.0
  C  C32  1  0.02238000  0.47020000  0.49339000  1.0
  C  C33  1  0.12250000  0.46158000  0.49632000  1.0
  C  C34  1  0.88287000  0.56387000  0.48902000  1.0
  C  C35  1  0.51682000  0.41769000  0.09411000  1.0
  C  C36  1  0.51657000  0.57822000  0.90640000  1.0
  C  C37  1  0.51770000  0.41823000  0.18543000  1.0
  C  C38  1  0.52290000  0.57780000  0.81530000  1.0
  C  C39  1  0.48832000  0.49573000  0.23325000  1.0
  C  C40  1  0.45575000  0.57142000  0.09647000  1.0
  C  C41  1  0.50283000  0.49357000  0.76610000  1.0
  C  C42  1  0.45677000  0.57215000  0.18794000  1.0
  C  C43  1  0.47443000  0.41004000  0.80984000  1.0
  C  C44  1  0.46749000  0.41066000  0.90088000  1.0
  C  C45  1  0.48645000  0.49452000  0.04789000  1.0
  C  C46  1  0.48942000  0.49455000  0.95098000  1.0
  C  C47  1  0.41064000  0.88986000  0.47105000  1.0
  C  C48  1  0.59798000  0.10948000  0.52596000  1.0
  C  C49  1  0.40800000  0.79229000  0.47473000  1.0
  N  N50  1  0.47600000  0.74913000  0.52010000  1.0
  N  N51  1  0.52341000  0.24891000  0.48601000  1.0
  N  N52  1  0.59207000  0.76199000  0.63613000  1.0
  N  N53  1  0.39537000  0.23367000  0.38067000  1.0
  N  N54  1  0.58808000  0.94773000  0.64894000  1.0
  N  N55  1  0.42631000  0.05387000  0.34446000  1.0
  Cl  Cl56  1  0.94462000  0.36710000  0.49343000  1.0
  Cl  Cl57  1  0.06099000  0.65861000  0.49100000  1.0
  Cl  Cl58  1  0.30190000  0.93529000  0.44513000  1.0
  Cl  Cl59  1  0.70980000  0.06655000  0.54499000  1.0
  Cl  Cl60  1  0.31471000  0.72114000  0.42486000  1.0
  Cl  Cl61  1  0.68861000  0.27923000  0.57515000  1.0
  O  O62  1  0.51757000  0.42186000  0.36692000  1.0
  O  O63  1  0.53080000  0.57111000  0.63072000  1.0
  O  O64  1  0.46952000  0.57036000  0.37208000  1.0
  O  O65  1  0.49687000  0.41254000  0.62840000  1.0
  O  O66  1  0.35944000  0.39371000  0.48224000  1.0
  O  O67  1  0.64233000  0.62588000  0.48117000  1.0
  O  O68  1  0.35570000  0.54466000  0.53366000  1.0
  O  O69  1  0.65401000  0.46923000  0.50380000  1.0
