# generated using pymatgen
data_NdH6C6NO6
_symmetry_space_group_name_H-M   'P 1'
_cell_length_a   6.63455000
_cell_length_b   7.02976000
_cell_length_c   17.43990000
_cell_angle_alpha   89.99990000
_cell_angle_beta   90.00000000
_cell_angle_gamma   90.00000000
_symmetry_Int_Tables_number   1
_chemical_formula_structural   NdH6C6NO6
_chemical_formula_sum   'Nd4 H24 C24 N4 O24'
_cell_volume   813.38462706
_cell_formula_units_Z   4
loop_
 _symmetry_equiv_pos_site_id
 _symmetry_equiv_pos_as_xyz
  1  'x, y, z'
loop_
 _atom_site_type_symbol
 _atom_site_label
 _atom_site_symmetry_multiplicity
 _atom_site_fract_x
 _atom_site_fract_y
 _atom_site_fract_z
 _atom_site_occupancy
  Nd  Nd0  1  0.55077000  0.22083000  0.82936000  1.0
  Nd  Nd1  1  0.94923000  0.77917000  0.32936000  1.0
  Nd  Nd2  1  0.44923000  0.72083000  0.67064000  1.0
  Nd  Nd3  1  0.05077000  0.27917000  0.17064000  1.0
  H  H4  1  0.97446000  0.82360000  0.82911000  1.0
  H  H5  1  0.52554000  0.17640000  0.32912000  1.0
  H  H6  1  0.02554000  0.32360000  0.67089000  1.0
  H  H7  1  0.47446000  0.67640000  0.17088000  1.0
  H  H8  1  0.11205000  0.93287000  0.90469000  1.0
  H  H9  1  0.38795000  0.06713000  0.40469000  1.0
  H  H10  1  0.88795000  0.43287000  0.59531000  1.0
  H  H11  1  0.61205000  0.56713000  0.09531000  1.0
  H  H12  1  0.57575000  0.80150000  0.96550000  1.0
  H  H13  1  0.92424000  0.19850000  0.46550000  1.0
  H  H14  1  0.42425000  0.30150000  0.53450000  1.0
  H  H15  1  0.07575000  0.69850000  0.03450000  1.0
  H  H16  1  0.78316000  0.66569000  0.93162000  1.0
  H  H17  1  0.71684000  0.33431000  0.43162000  1.0
  H  H18  1  0.21684000  0.16569000  0.56838000  1.0
  H  H19  1  0.28316000  0.83431000  0.06838000  1.0
  H  H20  1  0.97107000  0.99811000  0.01221000  1.0
  H  H21  1  0.52893000  0.00189000  0.51221000  1.0
  H  H22  1  0.02893000  0.49811000  0.48779000  1.0
  H  H23  1  0.47107000  0.50189000  0.98779000  1.0
  H  H24  1  0.70773000  0.01478000  0.02575000  1.0
  H  H25  1  0.79226000  0.98523000  0.52575000  1.0
  H  H26  1  0.29227000  0.51478000  0.47425000  1.0
  H  H27  1  0.20773000  0.48523000  0.97425000  1.0
  C  C28  1  0.98172000  0.95006000  0.86626000  1.0
  C  C29  1  0.51828000  0.04994000  0.36626000  1.0
  C  C30  1  0.01828000  0.45006000  0.63374000  1.0
  C  C31  1  0.48172000  0.54994000  0.13374000  1.0
  C  C32  1  0.02260000  0.11381000  0.81058000  1.0
  C  C33  1  0.47740000  0.88619000  0.31058000  1.0
  C  C34  1  0.97740000  0.61381000  0.68942000  1.0
  C  C35  1  0.52259000  0.38619000  0.18942000  1.0
  C  C36  1  0.68460000  0.78737000  0.91816000  1.0
  C  C37  1  0.81540000  0.21263000  0.41816000  1.0
  C  C38  1  0.31540000  0.28737000  0.58184000  1.0
  C  C39  1  0.18460000  0.71263000  0.08184000  1.0
  C  C40  1  0.56000000  0.73763000  0.84803000  1.0
  C  C41  1  0.94000000  0.26237000  0.34803000  1.0
  C  C42  1  0.44000000  0.23762000  0.65197000  1.0
  C  C43  1  0.06000000  0.76237000  0.15197000  1.0
  C  C44  1  0.83087000  0.05226000  0.98644000  1.0
  C  C45  1  0.66913000  0.94774000  0.48644000  1.0
  C  C46  1  0.16913000  0.55226000  0.51356000  1.0
  C  C47  1  0.33087000  0.44774000  0.01356000  1.0
  C  C48  1  0.84121000  0.26813000  0.98586000  1.0
  C  C49  1  0.65880000  0.73187000  0.48585000  1.0
  C  C50  1  0.15880000  0.76813000  0.51414000  1.0
  C  C51  1  0.34119000  0.23187000  0.01415000  1.0
  N  N52  1  0.79178000  0.96972000  0.91048000  1.0
  N  N53  1  0.70822000  0.03027000  0.41048000  1.0
  N  N54  1  0.20822000  0.46972000  0.58952000  1.0
  N  N55  1  0.29178000  0.53027000  0.08952000  1.0
  O  O56  1  0.87212000  0.18363000  0.77492000  1.0
  O  O57  1  0.62788000  0.81638000  0.27493000  1.0
  O  O58  1  0.12788000  0.68362000  0.72508000  1.0
  O  O59  1  0.37212000  0.31637000  0.22507000  1.0
  O  O60  1  0.20203000  0.16641000  0.79901000  1.0
  O  O61  1  0.29797000  0.83360000  0.29901000  1.0
  O  O62  1  0.79797000  0.66641000  0.70099000  1.0
  O  O63  1  0.70203000  0.33359000  0.20099000  1.0
  O  O64  1  0.51209000  0.87292000  0.80235000  1.0
  O  O65  1  0.98790000  0.12708000  0.30235000  1.0
  O  O66  1  0.48791000  0.37292000  0.69765000  1.0
  O  O67  1  0.01209000  0.62707000  0.19765000  1.0
  O  O68  1  0.50275000  0.56841000  0.83683000  1.0
  O  O69  1  0.99725000  0.43158000  0.33683000  1.0
  O  O70  1  0.49725000  0.06841000  0.66317000  1.0
  O  O71  1  0.00275000  0.93158000  0.16317000  1.0
  O  O72  1  0.78845000  0.35596000  0.92576000  1.0
  O  O73  1  0.71155000  0.64405000  0.42577000  1.0
  O  O74  1  0.21154000  0.85595000  0.57424000  1.0
  O  O75  1  0.28846000  0.14405000  0.07423000  1.0
  O  O76  1  0.89805000  0.34896000  0.04743000  1.0
  O  O77  1  0.60194000  0.65103000  0.54744000  1.0
  O  O78  1  0.10195000  0.84896000  0.45257000  1.0
  O  O79  1  0.39807000  0.15103000  0.95256000  1.0
