# generated using pymatgen
data_CoH18C22(NO5)2
_symmetry_space_group_name_H-M   'P 1'
_cell_length_a   6.82937000
_cell_length_b   8.42719000
_cell_length_c   8.93941000
_cell_angle_alpha   103.35400000
_cell_angle_beta   91.47310000
_cell_angle_gamma   104.39500000
_symmetry_Int_Tables_number   1
_chemical_formula_structural   CoH18C22(NO5)2
_chemical_formula_sum   'Co1 H18 C22 N2 O10'
_cell_volume   482.96820493
_cell_formula_units_Z   1
loop_
 _symmetry_equiv_pos_site_id
 _symmetry_equiv_pos_as_xyz
  1  'x, y, z'
loop_
 _atom_site_type_symbol
 _atom_site_label
 _atom_site_symmetry_multiplicity
 _atom_site_fract_x
 _atom_site_fract_y
 _atom_site_fract_z
 _atom_site_occupancy
  Co  Co0  1  0.50000000  0.50000000  0.00000000  1.0
  H  H1  1  0.94118000  0.16077000  0.04230000  1.0
  H  H2  1  0.05882000  0.83923000  0.95770000  1.0
  H  H3  1  0.18526000  0.63389000  0.11125000  1.0
  H  H4  1  0.81474000  0.36611000  0.88875000  1.0
  H  H5  1  0.18861000  0.47117000  0.17406000  1.0
  H  H6  1  0.81139000  0.52883000  0.82594000  1.0
  H  H7  1  0.42801000  0.83169000  0.37515000  1.0
  H  H8  1  0.57198000  0.16830000  0.62484000  1.0
  H  H9  1  0.06924000  0.31028000  0.55691000  1.0
  H  H10  1  0.93077000  0.68973000  0.44309000  1.0
  H  H11  1  0.61520000  0.04699000  0.80312000  1.0
  H  H12  1  0.38480000  0.95301000  0.19687000  1.0
  H  H13  1  0.32687000  0.58161000  0.46585000  1.0
  H  H14  1  0.67312000  0.41838000  0.53415000  1.0
  H  H15  1  0.60269000  0.87856000  0.99653000  1.0
  H  H16  1  0.39732000  0.12144000  0.00347000  1.0
  H  H17  1  0.34475000  0.43262000  0.67276000  1.0
  H  H18  1  0.65524000  0.56738000  0.32725000  1.0
  C  C19  1  0.89257000  0.78954000  0.18330000  1.0
  C  C20  1  0.10743000  0.21046000  0.81670000  1.0
  C  C21  1  0.00257000  0.18190000  0.26203000  1.0
  C  C22  1  0.99744000  0.81810000  0.73797000  1.0
  C  C23  1  0.95123000  0.90398000  0.34435000  1.0
  C  C24  1  0.04878000  0.09602000  0.65565000  1.0
  C  C25  1  0.46991000  0.82972000  0.61462000  1.0
  C  C26  1  0.53009000  0.17028000  0.38538000  1.0
  C  C27  1  0.99543000  0.08179000  0.38023000  1.0
  C  C28  1  0.00458000  0.91821000  0.61977000  1.0
  C  C29  1  0.47283000  0.91526000  0.49065000  1.0
  C  C30  1  0.52716000  0.08473000  0.50934000  1.0
  C  C31  1  0.04124000  0.17355000  0.53421000  1.0
  C  C32  1  0.95877000  0.82645000  0.46578000  1.0
  C  C33  1  0.54657000  0.91142000  0.76839000  1.0
  C  C34  1  0.45342000  0.08858000  0.23160000  1.0
  C  C35  1  0.39056000  0.65370000  0.58172000  1.0
  C  C36  1  0.60944000  0.34630000  0.41828000  1.0
  C  C37  1  0.54135000  0.81803000  0.87778000  1.0
  C  C38  1  0.45865000  0.18197000  0.12222000  1.0
  C  C39  1  0.39540000  0.56949000  0.69726000  1.0
  C  C40  1  0.60460000  0.43052000  0.30274000  1.0
  N  N41  1  0.46784000  0.64812000  0.84446000  1.0
  N  N42  1  0.53216000  0.35189000  0.15554000  1.0
  O  O43  1  0.91590000  0.09161000  0.12467000  1.0
  O  O44  1  0.08410000  0.90839000  0.87533000  1.0
  O  O45  1  0.08536000  0.33571000  0.29240000  1.0
  O  O46  1  0.91463000  0.66429000  0.70760000  1.0
  O  O47  1  0.03505000  0.76563000  0.09759000  1.0
  O  O48  1  0.96494000  0.23436000  0.90241000  1.0
  O  O49  1  0.70543000  0.72015000  0.15020000  1.0
  O  O50  1  0.29457000  0.27985000  0.84981000  1.0
  O  O51  1  0.27362000  0.56323000  0.13361000  1.0
  O  O52  1  0.72638000  0.43677000  0.86640000  1.0
