# generated using pymatgen
data_ZnH8C12S2(NO2)2
_symmetry_space_group_name_H-M   'P 1'
_cell_length_a   6.36964000
_cell_length_b   13.38000000
_cell_length_c   16.02870000
_cell_angle_alpha   105.63600000
_cell_angle_beta   89.99990000
_cell_angle_gamma   89.99980000
_symmetry_Int_Tables_number   1
_chemical_formula_structural   ZnH8C12S2(NO2)2
_chemical_formula_sum   'Zn4 H32 C48 S8 N8 O16'
_cell_volume   1315.50534308
_cell_formula_units_Z   4
loop_
 _symmetry_equiv_pos_site_id
 _symmetry_equiv_pos_as_xyz
  1  'x, y, z'
loop_
 _atom_site_type_symbol
 _atom_site_label
 _atom_site_symmetry_multiplicity
 _atom_site_fract_x
 _atom_site_fract_y
 _atom_site_fract_z
 _atom_site_occupancy
  Zn  Zn0  1  0.37450000  0.50000000  0.75000000  1.0
  Zn  Zn1  1  0.62550000  0.50000000  0.25000000  1.0
  Zn  Zn2  1  0.19568000  0.00000000  0.75000000  1.0
  Zn  Zn3  1  0.80431000  0.00000000  0.25000000  1.0
  H  H4  1  0.12805000  0.46319000  0.59219000  1.0
  H  H5  1  0.12806000  0.53681000  0.90781000  1.0
  H  H6  1  0.87196000  0.53682000  0.40780000  1.0
  H  H7  1  0.87196000  0.46318000  0.09219000  1.0
  H  H8  1  0.40866000  0.79468000  0.70745000  1.0
  H  H9  1  0.40866000  0.20533000  0.79256000  1.0
  H  H10  1  0.59135000  0.20532000  0.29255000  1.0
  H  H11  1  0.59135000  0.79467000  0.20744000  1.0
  H  H12  1  0.33772000  0.11907000  0.41802000  1.0
  H  H13  1  0.33772000  0.88093000  0.08198000  1.0
  H  H14  1  0.66225000  0.88093000  0.58197000  1.0
  H  H15  1  0.66225000  0.11907000  0.91803000  1.0
  H  H16  1  0.59245000  0.22928000  0.51972000  1.0
  H  H17  1  0.59244000  0.77071000  0.98028000  1.0
  H  H18  1  0.40754000  0.77070000  0.48027000  1.0
  H  H19  1  0.40756000  0.22930000  0.01972000  1.0
  H  H20  1  0.88668000  0.36846000  0.49578000  1.0
  H  H21  1  0.88669000  0.63155000  0.00422000  1.0
  H  H22  1  0.11331000  0.63155000  0.50421000  1.0
  H  H23  1  0.11333000  0.36845000  0.99578000  1.0
  H  H24  1  0.06074000  0.78675000  0.86488000  1.0
  H  H25  1  0.06075000  0.21323000  0.63513000  1.0
  H  H26  1  0.93926000  0.21325000  0.13513000  1.0
  H  H27  1  0.93925000  0.78674000  0.36487000  1.0
  H  H28  1  0.79686000  0.92658000  0.92308000  1.0
  H  H29  1  0.79686000  0.07342000  0.57693000  1.0
  H  H30  1  0.20313000  0.07342000  0.07692000  1.0
  H  H31  1  0.20313000  0.92657000  0.42307000  1.0
  H  H32  1  0.63994000  0.65941000  0.65210000  1.0
  H  H33  1  0.63993000  0.34061000  0.84790000  1.0
  H  H34  1  0.36007000  0.34061000  0.34789000  1.0
  H  H35  1  0.36009000  0.65938000  0.15210000  1.0
  C  C36  1  0.94147000  0.17776000  0.37856000  1.0
  C  C37  1  0.94147000  0.82223000  0.12144000  1.0
  C  C38  1  0.05852000  0.82223000  0.62144000  1.0
  C  C39  1  0.05853000  0.17777000  0.87857000  1.0
  C  C40  1  0.09126000  0.23521000  0.44640000  1.0
  C  C41  1  0.09127000  0.76478000  0.05360000  1.0
  C  C42  1  0.90874000  0.76478000  0.55360000  1.0
  C  C43  1  0.90874000  0.23522000  0.94640000  1.0
  C  C44  1  0.29251000  0.19646000  0.45648000  1.0
  C  C45  1  0.29251000  0.80354000  0.04352000  1.0
  C  C46  1  0.70749000  0.80354000  0.54351000  1.0
  C  C47  1  0.70749000  0.19646000  0.95649000  1.0
  C  C48  1  0.43538000  0.25743000  0.51270000  1.0
  C  C49  1  0.43537000  0.74257000  0.98730000  1.0
  C  C50  1  0.56462000  0.74257000  0.48730000  1.0
  C  C51  1  0.56462000  0.25744000  0.01270000  1.0
  C  C52  1  0.38194000  0.35853000  0.56111000  1.0
  C  C53  1  0.38193000  0.64147000  0.93890000  1.0
  C  C54  1  0.61807000  0.64147000  0.43889000  1.0
  C  C55  1  0.61806000  0.35853000  0.06111000  1.0
  C  C56  1  0.04000000  0.33333333  0.49761000  1.0
  C  C57  1  0.04000000  0.66666667  0.00239000  1.0
  C  C58  1  0.96001000  0.66666667  0.50238000  1.0
  C  C59  1  0.96001000  0.33333333  0.99763000  1.0
  C  C60  1  0.02457000  0.62478000  0.71750000  1.0
  C  C61  1  0.02458000  0.37522000  0.78250000  1.0
  C  C62  1  0.97543000  0.37523000  0.28250000  1.0
  C  C63  1  0.97543000  0.62477000  0.21750000  1.0
  C  C64  1  0.87152000  0.71035000  0.75428000  1.0
  C  C65  1  0.87152000  0.28965000  0.74572000  1.0
  C  C66  1  0.12848000  0.28965000  0.24571000  1.0
  C  C67  1  0.12849000  0.71034000  0.25428000  1.0
  C  C68  1  0.91188000  0.78799000  0.83166000  1.0
  C  C69  1  0.91189000  0.21201000  0.66835000  1.0
  C  C70  1  0.08812000  0.21201000  0.16834000  1.0
  C  C71  1  0.08811000  0.78798000  0.33165000  1.0
  C  C72  1  0.76687000  0.86558000  0.86388000  1.0
  C  C73  1  0.76688000  0.13442000  0.63613000  1.0
  C  C74  1  0.23313000  0.13442000  0.13613000  1.0
  C  C75  1  0.23312000  0.86557000  0.36387000  1.0
  C  C76  1  0.57611000  0.86852000  0.81958000  1.0
  C  C77  1  0.57611000  0.13148000  0.68043000  1.0
  C  C78  1  0.42390000  0.13148000  0.18043000  1.0
  C  C79  1  0.42389000  0.86851000  0.31957000  1.0
  C  C80  1  0.68450000  0.71616000  0.71196000  1.0
  C  C81  1  0.68448000  0.28385000  0.78804000  1.0
  C  C82  1  0.31551000  0.28385000  0.28804000  1.0
  C  C83  1  0.31553000  0.71614000  0.21196000  1.0
  S  S84  1  0.56462000  0.44017000  0.62380000  1.0
  S  S85  1  0.56462000  0.55983000  0.87621000  1.0
  S  S86  1  0.43538000  0.55982000  0.37621000  1.0
  S  S87  1  0.43538000  0.44018000  0.12379000  1.0
  S  S88  1  0.38633000  0.95918000  0.86058000  1.0
  S  S89  1  0.38634000  0.04082000  0.63944000  1.0
  S  S90  1  0.61367000  0.04082000  0.13943000  1.0
  S  S91  1  0.61365000  0.95918000  0.36057000  1.0
  N  N92  1  0.18112000  0.39060000  0.55251000  1.0
  N  N93  1  0.18111000  0.60940000  0.94748000  1.0
  N  N94  1  0.81889000  0.60940000  0.44748000  1.0
  N  N95  1  0.81888000  0.39060000  0.05252000  1.0
  N  N96  1  0.54570000  0.79287000  0.74414000  1.0
  N  N97  1  0.54570000  0.20713000  0.75586000  1.0
  N  N98  1  0.45431000  0.20713000  0.25586000  1.0
  N  N99  1  0.45432000  0.79286000  0.24414000  1.0
  O  O100  1  0.00677000  0.08940000  0.33164000  1.0
  O  O101  1  0.00674000  0.91060000  0.16836000  1.0
  O  O102  1  0.99322000  0.91060000  0.66837000  1.0
  O  O103  1  0.99325000  0.08940000  0.83164000  1.0
  O  O104  1  0.76799000  0.21947000  0.37046000  1.0
  O  O105  1  0.76800000  0.78053000  0.12955000  1.0
  O  O106  1  0.23199000  0.78052000  0.62954000  1.0
  O  O107  1  0.23200000  0.21948000  0.87046000  1.0
  O  O108  1  0.18568000  0.62276000  0.76530000  1.0
  O  O109  1  0.18568000  0.37723000  0.73469000  1.0
  O  O110  1  0.81432000  0.37723000  0.23470000  1.0
  O  O111  1  0.81432000  0.62276000  0.26530000  1.0
  O  O112  1  0.98619000  0.56258000  0.64489000  1.0
  O  O113  1  0.98623000  0.43742000  0.85511000  1.0
  O  O114  1  0.01380000  0.43743000  0.35510000  1.0
  O  O115  1  0.01379000  0.56257000  0.14490000  1.0
