# generated using pymatgen
data_TlH8AuC22(NF5)2
_symmetry_space_group_name_H-M   'P 1'
_cell_length_a   7.70636000
_cell_length_b   11.56240000
_cell_length_c   12.85920000
_cell_angle_alpha   74.64200000
_cell_angle_beta   74.78000000
_cell_angle_gamma   89.70740000
_symmetry_Int_Tables_number   1
_chemical_formula_structural   TlH8AuC22(NF5)2
_chemical_formula_sum   'Tl2 H16 Au2 C44 N4 F20'
_cell_volume   1063.57682688
_cell_formula_units_Z   2
loop_
 _symmetry_equiv_pos_site_id
 _symmetry_equiv_pos_as_xyz
  1  'x, y, z'
loop_
 _atom_site_type_symbol
 _atom_site_label
 _atom_site_symmetry_multiplicity
 _atom_site_fract_x
 _atom_site_fract_y
 _atom_site_fract_z
 _atom_site_occupancy
  Tl  Tl0  1  0.78638000  0.19703000  0.70843000  1.0
  Tl  Tl1  1  0.21362000  0.80297000  0.29157000  1.0
  H  H2  1  0.11352000  0.40531000  0.71144000  1.0
  H  H3  1  0.88648000  0.59469000  0.28856000  1.0
  H  H4  1  0.20150000  0.53065000  0.81847000  1.0
  H  H5  1  0.79850000  0.46935000  0.18153000  1.0
  H  H6  1  0.26680000  0.63062000  0.90828000  1.0
  H  H7  1  0.73320000  0.36938000  0.09172000  1.0
  H  H8  1  0.33413000  0.74944000  0.02782000  1.0
  H  H9  1  0.66587000  0.25056000  0.97218000  1.0
  H  H10  1  0.38764000  0.25412000  0.95551000  1.0
  H  H11  1  0.61236000  0.74588000  0.04449000  1.0
  H  H12  1  0.07254000  0.17926000  0.04384000  1.0
  H  H13  1  0.92746000  0.82074000  0.95616000  1.0
  H  H14  1  0.18290000  0.88925000  0.88533000  1.0
  H  H15  1  0.81709000  0.11076000  0.11467000  1.0
  H  H16  1  0.49727000  0.97133000  0.81199000  1.0
  H  H17  1  0.50273000  0.02867000  0.18802000  1.0
  Au  Au18  1  0.41253000  0.59576000  0.40724000  1.0
  Au  Au19  1  0.58748000  0.40424000  0.59277000  1.0
  C  C20  1  0.30306000  0.47280000  0.34820000  1.0
  C  C21  1  0.69694000  0.52720000  0.65180000  1.0
  C  C22  1  0.16287000  0.38886000  0.41616000  1.0
  C  C23  1  0.83713000  0.61114000  0.58384000  1.0
  C  C24  1  0.09170000  0.30029000  0.38070000  1.0
  C  C25  1  0.90830000  0.69971000  0.61931000  1.0
  C  C26  1  0.16016000  0.29526000  0.27051000  1.0
  C  C27  1  0.83984000  0.70475000  0.72949000  1.0
  C  C28  1  0.29973000  0.37780000  0.19885000  1.0
  C  C29  1  0.70027000  0.62220000  0.80115000  1.0
  C  C30  1  0.36687000  0.46382000  0.23904000  1.0
  C  C31  1  0.63313000  0.53618000  0.76096000  1.0
  C  C32  1  0.51133000  0.72379000  0.46538000  1.0
  C  C33  1  0.48868000  0.27621000  0.53462000  1.0
  C  C34  1  0.65614000  0.80650000  0.40314000  1.0
  C  C35  1  0.34386000  0.19350000  0.59686000  1.0
  C  C36  1  0.71729000  0.89645000  0.44159000  1.0
  C  C37  1  0.28271000  0.10355000  0.55842000  1.0
  C  C38  1  0.63284000  0.90343000  0.54960000  1.0
  C  C39  1  0.36716000  0.09657000  0.45040000  1.0
  C  C40  1  0.48914000  0.82118000  0.61586000  1.0
  C  C41  1  0.51085000  0.17882000  0.38414000  1.0
  C  C42  1  0.43196000  0.73471000  0.57253000  1.0
  C  C43  1  0.56804000  0.26529000  0.42748000  1.0
  C  C44  1  0.03253000  0.39941000  0.79636000  1.0
  C  C45  1  0.96747000  0.60059000  0.20364000  1.0
  C  C46  1  0.08137000  0.47021000  0.85755000  1.0
  C  C47  1  0.91864000  0.52979000  0.14245000  1.0
  C  C48  1  0.97627000  0.46246000  0.96660000  1.0
  C  C49  1  0.02373000  0.53754000  0.03339000  1.0
  C  C50  1  0.17647000  0.61909000  0.99152000  1.0
  C  C51  1  0.82353000  0.38091000  0.00847000  1.0
  C  C52  1  0.21570000  0.68623000  0.05857000  1.0
  C  C53  1  0.78429000  0.31377000  0.94143000  1.0
  C  C54  1  0.33932000  0.17093000  0.94452000  1.0
  C  C55  1  0.66068000  0.82907000  0.05548000  1.0
  C  C56  1  0.15988000  0.12850000  0.99354000  1.0
  C  C57  1  0.84011000  0.87151000  0.00646000  1.0
  C  C58  1  0.09539000  0.02401000  0.97548000  1.0
  C  C59  1  0.90461000  0.97599000  0.02452000  1.0
  C  C60  1  0.22111000  0.96818000  0.90726000  1.0
  C  C61  1  0.77888000  0.03182000  0.09275000  1.0
  C  C62  1  0.39920000  0.01516000  0.86444000  1.0
  C  C63  1  0.60080000  0.98484000  0.13557000  1.0
  N  N64  1  0.88607000  0.32191000  0.83723000  1.0
  N  N65  1  0.11393000  0.67809000  0.16276000  1.0
  N  N66  1  0.45967000  0.11528000  0.88161000  1.0
  N  N67  1  0.54032000  0.88472000  0.11839000  1.0
  F  F68  1  0.09056000  0.38797000  0.52590000  1.0
  F  F69  1  0.90944000  0.61203000  0.47411000  1.0
  F  F70  1  0.96172000  0.21637000  0.45184000  1.0
  F  F71  1  0.03828000  0.78363000  0.54816000  1.0
  F  F72  1  0.09371000  0.21005000  0.23379000  1.0
  F  F73  1  0.90630000  0.78995000  0.76621000  1.0
  F  F74  1  0.36788000  0.37213000  0.09166000  1.0
  F  F75  1  0.63213000  0.62787000  0.90834000  1.0
  F  F76  1  0.50435000  0.54207000  0.16420000  1.0
  F  F77  1  0.49565000  0.45793000  0.83580000  1.0
  F  F78  1  0.75111000  0.80046000  0.29881000  1.0
  F  F79  1  0.24889000  0.19954000  0.70119000  1.0
  F  F80  1  0.85894000  0.97510000  0.37709000  1.0
  F  F81  1  0.14106000  0.02490000  0.62292000  1.0
  F  F82  1  0.69209000  0.98713000  0.59098000  1.0
  F  F83  1  0.30792000  0.01286000  0.40902000  1.0
  F  F84  1  0.40988000  0.82519000  0.72275000  1.0
  F  F85  1  0.59011000  0.17481000  0.27725000  1.0
  F  F86  1  0.29301000  0.65549000  0.64306000  1.0
  F  F87  1  0.70699000  0.34451000  0.35695000  1.0
