# generated using pymatgen
data_CuH24C20S2ClO3
_symmetry_space_group_name_H-M   'P 1'
_cell_length_a   9.44907000
_cell_length_b   10.07610000
_cell_length_c   12.49190000
_cell_angle_alpha   105.61800000
_cell_angle_beta   99.08290000
_cell_angle_gamma   93.96270000
_symmetry_Int_Tables_number   1
_chemical_formula_structural   CuH24C20S2ClO3
_chemical_formula_sum   'Cu2 H48 C40 S4 Cl2 O6'
_cell_volume   1123.25906350
_cell_formula_units_Z   2
loop_
 _symmetry_equiv_pos_site_id
 _symmetry_equiv_pos_as_xyz
  1  'x, y, z'
loop_
 _atom_site_type_symbol
 _atom_site_label
 _atom_site_symmetry_multiplicity
 _atom_site_fract_x
 _atom_site_fract_y
 _atom_site_fract_z
 _atom_site_occupancy
  Cu  Cu0  1  0.40072000  0.44882000  0.38165000  1.0
  Cu  Cu1  1  0.59928000  0.55118000  0.61836000  1.0
  H  H2  1  0.18791000  0.79787000  0.93617000  1.0
  H  H3  1  0.81209000  0.20212000  0.06383000  1.0
  H  H4  1  0.07630000  0.93554000  0.95042000  1.0
  H  H5  1  0.92370000  0.06445000  0.04958000  1.0
  H  H6  1  0.02128000  0.87923000  0.13033000  1.0
  H  H7  1  0.97873000  0.12077000  0.86967000  1.0
  H  H8  1  0.93866000  0.76339000  0.99570000  1.0
  H  H9  1  0.06135000  0.23660000  0.00430000  1.0
  H  H10  1  0.84742000  0.72717000  0.14503000  1.0
  H  H11  1  0.15259000  0.27283000  0.85498000  1.0
  H  H12  1  0.73279000  0.58627000  0.24979000  1.0
  H  H13  1  0.26721000  0.41374000  0.75022000  1.0
  H  H14  1  0.85598000  0.39911000  0.30531000  1.0
  H  H15  1  0.14401000  0.60089000  0.69470000  1.0
  H  H16  1  0.09092000  0.34479000  0.24582000  1.0
  H  H17  1  0.90906000  0.65520000  0.75418000  1.0
  H  H18  1  0.26166000  0.51038000  0.05742000  1.0
  H  H19  1  0.73834000  0.48961000  0.94258000  1.0
  H  H20  1  0.25351000  0.36175000  0.10780000  1.0
  H  H21  1  0.74649000  0.63824000  0.89221000  1.0
  H  H22  1  0.51232000  0.77162000  0.30977000  1.0
  H  H23  1  0.48768000  0.22838000  0.69023000  1.0
  H  H24  1  0.36920000  0.75338000  0.19403000  1.0
  H  H25  1  0.63080000  0.24661000  0.80597000  1.0
  H  H26  1  0.19164000  0.77533000  0.32021000  1.0
  H  H27  1  0.80836000  0.22466000  0.67978000  1.0
  H  H28  1  0.32073000  0.75097000  0.43206000  1.0
  H  H29  1  0.67926000  0.24903000  0.56794000  1.0
  H  H30  1  0.28011000  0.01604000  0.53802000  1.0
  H  H31  1  0.71989000  0.98396000  0.46198000  1.0
  H  H32  1  0.15975000  0.00717000  0.40925000  1.0
  H  H33  1  0.84025000  0.99283000  0.59075000  1.0
  H  H34  1  0.45074000  0.19393000  0.49684000  1.0
  H  H35  1  0.54925000  0.80607000  0.50316000  1.0
  H  H36  1  0.28106000  0.25298000  0.51621000  1.0
  H  H37  1  0.71893000  0.74702000  0.48379000  1.0
  H  H38  1  0.55699000  0.18593000  0.31139000  1.0
  H  H39  1  0.44301000  0.81407000  0.68861000  1.0
  H  H40  1  0.43642000  0.02603000  0.25916000  1.0
  H  H41  1  0.56358000  0.97397000  0.74083000  1.0
  H  H42  1  0.60442000  0.32096000  0.18759000  1.0
  H  H43  1  0.39557000  0.67906000  0.81241000  1.0
  H  H44  1  0.57692000  0.35119000  0.99421000  1.0
  H  H45  1  0.42307000  0.64883000  0.00580000  1.0
  H  H46  1  0.39433000  0.19055000  0.83798000  1.0
  H  H47  1  0.60567000  0.80947000  0.16202000  1.0
  H  H48  1  0.24373000  0.00399000  0.87439000  1.0
  H  H49  1  0.75628000  0.99601000  0.12560000  1.0
  C  C50  1  0.14048000  0.87458000  0.99691000  1.0
  C  C51  1  0.85953000  0.12541000  0.00309000  1.0
  C  C52  1  0.04216000  0.80367000  0.05389000  1.0
  C  C53  1  0.95785000  0.19632000  0.94610000  1.0
  C  C54  1  0.03603000  0.61642000  0.13791000  1.0
  C  C55  1  0.96396000  0.38356000  0.86209000  1.0
  C  C56  1  0.90203000  0.64440000  0.16773000  1.0
  C  C57  1  0.09797000  0.35561000  0.83227000  1.0
  C  C58  1  0.83740000  0.56482000  0.22687000  1.0
  C  C59  1  0.16260000  0.43518000  0.77314000  1.0
  C  C60  1  0.90514000  0.45766000  0.25615000  1.0
  C  C61  1  0.09486000  0.54235000  0.74385000  1.0
  C  C62  1  0.03711000  0.42883000  0.22390000  1.0
  C  C63  1  0.96288000  0.57116000  0.77611000  1.0
  C  C64  1  0.10445000  0.50627000  0.16454000  1.0
  C  C65  1  0.89555000  0.49373000  0.83546000  1.0
  C  C66  1  0.24577000  0.47385000  0.13026000  1.0
  C  C67  1  0.75423000  0.52614000  0.86975000  1.0
  C  C68  1  0.39963000  0.72735000  0.27378000  1.0
  C  C69  1  0.60037000  0.27264000  0.72622000  1.0
  C  C70  1  0.30720000  0.79304000  0.35844000  1.0
  C  C71  1  0.69279000  0.20697000  0.64156000  1.0
  C  C72  1  0.27426000  0.02900000  0.45201000  1.0
  C  C73  1  0.72573000  0.97100000  0.54798000  1.0
  C  C74  1  0.33494000  0.17590000  0.46129000  1.0
  C  C75  1  0.66505000  0.82409000  0.53871000  1.0
  C  C76  1  0.45272000  0.13462000  0.25935000  1.0
  C  C77  1  0.54728000  0.86538000  0.74065000  1.0
  C  C78  1  0.43759000  0.15006000  0.14251000  1.0
  C  C79  1  0.56240000  0.84994000  0.85749000  1.0
  C  C80  1  0.52451000  0.25251000  0.11873000  1.0
  C  C81  1  0.47549000  0.74750000  0.88127000  1.0
  C  C82  1  0.50921000  0.26918000  0.01016000  1.0
  C  C83  1  0.49078000  0.73083000  0.98984000  1.0
  C  C84  1  0.40677000  0.18024000  0.92345000  1.0
  C  C85  1  0.59323000  0.81977000  0.07656000  1.0
  C  C86  1  0.31967000  0.07532000  0.94410000  1.0
  C  C87  1  0.68033000  0.92468000  0.05590000  1.0
  C  C88  1  0.33367000  0.06110000  0.05361000  1.0
  C  C89  1  0.66634000  0.93890000  0.94639000  1.0
  S  S90  1  0.40662000  0.54191000  0.24057000  1.0
  S  S91  1  0.59338000  0.45809000  0.75944000  1.0
  S  S92  1  0.31176000  0.22109000  0.32851000  1.0
  S  S93  1  0.68824000  0.77892000  0.67149000  1.0
  Cl  Cl94  1  0.33898000  0.55782000  0.55248000  1.0
  Cl  Cl95  1  0.66102000  0.44218000  0.44752000  1.0
  O  O96  1  0.25119000  0.96408000  0.08269000  1.0
  O  O97  1  0.74882000  0.03592000  0.91730000  1.0
  O  O98  1  0.10947000  0.69264000  0.08352000  1.0
  O  O99  1  0.89053000  0.30735000  0.91647000  1.0
  O  O100  1  0.35913000  0.93739000  0.38973000  1.0
  O  O101  1  0.64085000  0.06261000  0.61027000  1.0
