# generated using pymatgen
data_V6Zn2H18C20N6O17
_symmetry_space_group_name_H-M   'P 1'
_cell_length_a   7.27659000
_cell_length_b   10.30280000
_cell_length_c   10.62355472
_cell_angle_alpha   98.22569802
_cell_angle_beta   109.62716108
_cell_angle_gamma   92.12110000
_symmetry_Int_Tables_number   1
_chemical_formula_structural   V6Zn2H18C20N6O17
_chemical_formula_sum   'V6 Zn2 H18 C20 N6 O17'
_cell_volume   739.34997813
_cell_formula_units_Z   1
loop_
 _symmetry_equiv_pos_site_id
 _symmetry_equiv_pos_as_xyz
  1  'x, y, z'
loop_
 _atom_site_type_symbol
 _atom_site_label
 _atom_site_symmetry_multiplicity
 _atom_site_fract_x
 _atom_site_fract_y
 _atom_site_fract_z
 _atom_site_occupancy
  V  V0  1  0.68552000  0.56823000  0.12226000  1.0
  V  V1  1  0.31448000  0.43177000  0.87774000  1.0
  V  V2  1  0.82604000  0.40182000  0.91314000  1.0
  V  V3  1  0.17396000  0.59818000  0.08686000  1.0
  V  V4  1  0.73236000  0.45676000  0.60220000  1.0
  V  V5  1  0.26764000  0.54323000  0.39780000  1.0
  Zn  Zn6  1  0.87079000  0.32668000  0.32377000  1.0
  Zn  Zn7  1  0.12921000  0.67332000  0.67623000  1.0
  H  H8  1  0.77590000  0.90584000  0.18554000  1.0
  H  H9  1  0.22410000  0.09416000  0.81446000  1.0
  H  H10  1  0.05363000  0.83930000  0.31182000  1.0
  H  H11  1  0.94637000  0.16070000  0.68818000  1.0
  H  H12  1  0.35552000  0.89318000  0.51447000  1.0
  H  H13  1  0.64448000  0.10682000  0.48553000  1.0
  H  H14  1  0.44552000  0.13031000  0.63455000  1.0
  H  H15  1  0.55448000  0.86969000  0.36545000  1.0
  H  H16  1  0.22532000  0.29892000  0.54295000  1.0
  H  H17  1  0.77468000  0.70108000  0.45705000  1.0
  H  H18  1  0.45881000  0.87869000  0.11231000  1.0
  H  H19  1  0.54119000  0.12131000  0.88769000  1.0
  H  H20  1  0.14179000  0.97364000  0.07172000  1.0
  H  H21  1  0.85821000  0.02636000  0.92828000  1.0
  H  H22  1  0.13971000  0.22282000  0.12674000  1.0
  H  H23  1  0.86029000  0.77718000  0.87326000  1.0
  H  H24  1  0.46247000  0.35782000  0.21931000  1.0
  H  H25  1  0.53753000  0.64218000  0.78069000  1.0
  C  C26  1  0.09888000  0.94038000  0.36386000  1.0
  C  C27  1  0.90112000  0.05961000  0.63614000  1.0
  C  C28  1  0.26640000  0.97137000  0.47686000  1.0
  C  C29  1  0.73360000  0.02863000  0.52314000  1.0
  C  C30  1  0.31669000  0.10206000  0.54406000  1.0
  C  C31  1  0.68331000  0.89794000  0.45594000  1.0
  C  C32  1  0.19515000  0.19626000  0.49357000  1.0
  C  C33  1  0.80485000  0.80374000  0.50643000  1.0
  C  C34  1  0.97911000  0.04161000  0.32131000  1.0
  C  C35  1  0.02089000  0.95839000  0.67869000  1.0
  C  C36  1  0.62946000  0.06719000  0.19030000  1.0
  C  C37  1  0.37054000  0.93281000  0.80970000  1.0
  C  C38  1  0.45332000  0.98465000  0.13433000  1.0
  C  C39  1  0.54669000  0.01535000  0.86568000  1.0
  C  C40  1  0.27653000  0.03901000  0.11186000  1.0
  C  C41  1  0.72347000  0.96099000  0.88814000  1.0
  C  C42  1  0.27506000  0.17561000  0.14286000  1.0
  C  C43  1  0.72495000  0.82439000  0.85715000  1.0
  C  C44  1  0.45301000  0.25099000  0.19457000  1.0
  C  C45  1  0.54699000  0.74901000  0.80543000  1.0
  N  N46  1  0.80250000  0.00679000  0.21559000  1.0
  N  N47  1  0.19750000  0.99321000  0.78441000  1.0
  N  N48  1  0.62795000  0.19933000  0.21766000  1.0
  N  N49  1  0.37205000  0.80067000  0.78234000  1.0
  N  N50  1  0.02999000  0.16718000  0.38365000  1.0
  N  N51  1  0.97001000  0.83282000  0.61635000  1.0
  O  O52  1  0.83394000  0.36924000  0.50417000  1.0
  O  O53  1  0.16605000  0.63076000  0.49582000  1.0
  O  O54  1  0.12311000  0.40639000  0.31681000  1.0
  O  O55  1  0.87688000  0.59360000  0.68318000  1.0
  O  O56  1  0.50000000  0.50000000  0.50000000  1.0
  O  O57  1  0.74812000  0.49802000  0.26108000  1.0
  O  O58  1  0.25188000  0.50198000  0.73892000  1.0
  O  O59  1  0.92237000  0.53948000  0.07753000  1.0
  O  O60  1  0.07763000  0.46052000  0.92247000  1.0
  O  O61  1  0.59784000  0.46689000  0.93355000  1.0
  O  O62  1  0.40217000  0.53311000  0.06645000  1.0
  O  O63  1  0.84298000  0.26288000  0.96622000  1.0
  O  O64  1  0.15703000  0.73712000  0.03378000  1.0
  O  O65  1  0.72154000  0.36292000  0.73099000  1.0
  O  O66  1  0.27846000  0.63708000  0.26901000  1.0
  O  O67  1  0.71296000  0.72860000  0.16306000  1.0
  O  O68  1  0.28704000  0.27140000  0.83694000  1.0
