# generated using pymatgen
data_AlH5C16I4N4O5
_symmetry_space_group_name_H-M   'P 1'
_cell_length_a   6.70984000
_cell_length_b   25.43970000
_cell_length_c   28.17550000
_cell_angle_alpha   89.99980000
_cell_angle_beta   89.99970000
_cell_angle_gamma   89.99990000
_symmetry_Int_Tables_number   1
_chemical_formula_structural   AlH5C16I4N4O5
_chemical_formula_sum   'Al4 H20 C64 I16 N16 O20'
_cell_volume   4809.45406961
_cell_formula_units_Z   4
loop_
 _symmetry_equiv_pos_site_id
 _symmetry_equiv_pos_as_xyz
  1  'x, y, z'
loop_
 _atom_site_type_symbol
 _atom_site_label
 _atom_site_symmetry_multiplicity
 _atom_site_fract_x
 _atom_site_fract_y
 _atom_site_fract_z
 _atom_site_occupancy
  Al  Al0  1  0.21537000  0.75182000  0.25000000  1.0
  Al  Al1  1  0.78462000  0.24818000  0.75000000  1.0
  Al  Al2  1  0.71537000  0.74818000  0.25000000  1.0
  Al  Al3  1  0.28462000  0.25182000  0.75000000  1.0
  H  H4  1  0.24743000  0.60889000  0.45144000  1.0
  H  H5  1  0.75258000  0.39111000  0.54856000  1.0
  H  H6  1  0.75257000  0.39111000  0.95144000  1.0
  H  H7  1  0.24743000  0.60889000  0.04857000  1.0
  H  H8  1  0.74742000  0.89111000  0.04856000  1.0
  H  H9  1  0.25258000  0.10889000  0.95144000  1.0
  H  H10  1  0.25259000  0.10889000  0.54856000  1.0
  H  H11  1  0.74741000  0.89111000  0.45144000  1.0
  H  H12  1  0.69159000  0.61954000  0.33641000  1.0
  H  H13  1  0.30842000  0.38046000  0.66359000  1.0
  H  H14  1  0.30841000  0.38046000  0.83641000  1.0
  H  H15  1  0.69159000  0.61955000  0.16359000  1.0
  H  H16  1  0.19158000  0.88046000  0.16359000  1.0
  H  H17  1  0.80842000  0.11954000  0.83641000  1.0
  H  H18  1  0.80842000  0.11954000  0.66359000  1.0
  H  H19  1  0.19157000  0.88046000  0.33641000  1.0
  H  H20  1  0.45628000  0.68059000  0.25000000  1.0
  H  H21  1  0.54371000  0.31941000  0.75000000  1.0
  H  H22  1  0.95629000  0.81942000  0.25000000  1.0
  H  H23  1  0.04371000  0.18059000  0.75000000  1.0
  C  C24  1  0.46831000  0.81200000  0.31517000  1.0
  C  C25  1  0.53168000  0.18800000  0.68483000  1.0
  C  C26  1  0.53168000  0.18800000  0.81517000  1.0
  C  C27  1  0.46831000  0.81200000  0.18483000  1.0
  C  C28  1  0.96832000  0.68800000  0.18483000  1.0
  C  C29  1  0.03168000  0.31200000  0.81517000  1.0
  C  C30  1  0.03169000  0.31200000  0.68483000  1.0
  C  C31  1  0.96832000  0.68800000  0.31517000  1.0
  C  C32  1  0.12886000  0.64962000  0.39068000  1.0
  C  C33  1  0.87115000  0.35038000  0.60933000  1.0
  C  C34  1  0.87114000  0.35038000  0.89068000  1.0
  C  C35  1  0.12886000  0.64962000  0.10933000  1.0
  C  C36  1  0.62886000  0.85038000  0.10933000  1.0
  C  C37  1  0.37114000  0.14962000  0.89067000  1.0
  C  C38  1  0.37115000  0.14962000  0.60932000  1.0
  C  C39  1  0.62885000  0.85038000  0.39067000  1.0
  C  C40  1  0.12564000  0.61116000  0.42596000  1.0
  C  C41  1  0.87436000  0.38884000  0.57404000  1.0
  C  C42  1  0.87436000  0.38884000  0.92596000  1.0
  C  C43  1  0.12565000  0.61116000  0.07405000  1.0
  C  C44  1  0.62562000  0.88884000  0.07404000  1.0
  C  C45  1  0.37438000  0.11116000  0.92596000  1.0
  C  C46  1  0.37438000  0.11116000  0.57404000  1.0
  C  C47  1  0.62562000  0.88884000  0.42596000  1.0
  C  C48  1  0.96858000  0.57515000  0.42957000  1.0
  C  C49  1  0.03142000  0.42485000  0.57043000  1.0
  C  C50  1  0.03142000  0.42485000  0.92957000  1.0
  C  C51  1  0.96858000  0.57515000  0.07043000  1.0
  C  C52  1  0.46856000  0.92485000  0.07043000  1.0
  C  C53  1  0.53144000  0.07515000  0.92957000  1.0
  C  C54  1  0.53145000  0.07515000  0.57043000  1.0
  C  C55  1  0.46856000  0.92485000  0.42957000  1.0
  C  C56  1  0.80871000  0.57873000  0.39754000  1.0
  C  C57  1  0.19129000  0.42126000  0.60246000  1.0
  C  C58  1  0.19128000  0.42127000  0.89754000  1.0
  C  C59  1  0.80872000  0.57873000  0.10246000  1.0
  C  C60  1  0.30870000  0.92127000  0.10246000  1.0
  C  C61  1  0.69130000  0.07874000  0.89754000  1.0
  C  C62  1  0.69131000  0.07874000  0.60246000  1.0
  C  C63  1  0.30869000  0.92126000  0.39754000  1.0
  C  C64  1  0.81318000  0.61660000  0.36185000  1.0
  C  C65  1  0.18683000  0.38341000  0.63815000  1.0
  C  C66  1  0.18681000  0.38340000  0.86185000  1.0
  C  C67  1  0.81319000  0.61660000  0.13815000  1.0
  C  C68  1  0.31318000  0.88341000  0.13815000  1.0
  C  C69  1  0.68682000  0.11659000  0.86185000  1.0
  C  C70  1  0.68682000  0.11659000  0.63815000  1.0
  C  C71  1  0.31317000  0.88341000  0.36185000  1.0
  C  C72  1  0.97324000  0.65183000  0.35713000  1.0
  C  C73  1  0.02677000  0.34817000  0.64287000  1.0
  C  C74  1  0.02676000  0.34817000  0.85713000  1.0
  C  C75  1  0.97324000  0.65183000  0.14287000  1.0
  C  C76  1  0.47324000  0.84817000  0.14287000  1.0
  C  C77  1  0.52676000  0.15183000  0.85713000  1.0
  C  C78  1  0.52676000  0.15183000  0.64287000  1.0
  C  C79  1  0.47323000  0.84817000  0.35713000  1.0
  C  C80  1  0.01767000  0.46534000  0.53291000  1.0
  C  C81  1  0.98234000  0.53466000  0.46709000  1.0
  C  C82  1  0.98234000  0.53466000  0.03291000  1.0
  C  C83  1  0.01766000  0.46534000  0.96709000  1.0
  C  C84  1  0.51767000  0.03465000  0.96709000  1.0
  C  C85  1  0.48233000  0.96534000  0.03291000  1.0
  C  C86  1  0.48232000  0.96534000  0.46709000  1.0
  C  C87  1  0.51767000  0.03466000  0.53291000  1.0
  I  I88  1  0.36984000  0.70272000  0.39525000  1.0
  I  I89  1  0.63018000  0.29728000  0.60475000  1.0
  I  I90  1  0.63015000  0.29728000  0.89525000  1.0
  I  I91  1  0.36988000  0.70271000  0.10476000  1.0
  I  I92  1  0.86987000  0.79729000  0.10476000  1.0
  I  I93  1  0.13013000  0.20271000  0.89525000  1.0
  I  I94  1  0.13016000  0.20272000  0.60475000  1.0
  I  I95  1  0.86986000  0.79729000  0.39525000  1.0
  I  I96  1  0.56117000  0.52843000  0.40254000  1.0
  I  I97  1  0.43884000  0.47156000  0.59746000  1.0
  I  I98  1  0.43882000  0.47157000  0.90253000  1.0
  I  I99  1  0.56117000  0.52844000  0.09747000  1.0
  I  I100  1  0.06115000  0.97157000  0.09746000  1.0
  I  I101  1  0.93886000  0.02844000  0.90254000  1.0
  I  I102  1  0.93886000  0.02844000  0.59746000  1.0
  I  I103  1  0.06113000  0.97156000  0.40254000  1.0
  N  N104  1  0.83826000  0.53300000  0.50047000  1.0
  N  N105  1  0.16175000  0.46700000  0.49952000  1.0
  N  N106  1  0.16175000  0.46700000  0.00047000  1.0
  N  N107  1  0.83824000  0.53300000  0.99953000  1.0
  N  N108  1  0.33826000  0.96700000  0.99953000  1.0
  N  N109  1  0.66174000  0.03300000  0.00047000  1.0
  N  N110  1  0.66174000  0.03300000  0.49952000  1.0
  N  N111  1  0.33826000  0.96700000  0.50048000  1.0
  N  N112  1  0.85683000  0.49730000  0.53440000  1.0
  N  N113  1  0.14317000  0.50270000  0.46560000  1.0
  N  N114  1  0.14319000  0.50270000  0.03440000  1.0
  N  N115  1  0.85681000  0.49730000  0.96560000  1.0
  N  N116  1  0.35683000  0.00269000  0.96559000  1.0
  N  N117  1  0.64317000  0.99730000  0.03441000  1.0
  N  N118  1  0.64317000  0.99730000  0.46560000  1.0
  N  N119  1  0.35684000  0.00270000  0.53440000  1.0
  O  O120  1  0.63505000  0.79689000  0.20124000  1.0
  O  O121  1  0.36494000  0.20311000  0.79876000  1.0
  O  O122  1  0.36494000  0.20311000  0.70124000  1.0
  O  O123  1  0.63505000  0.79689000  0.29876000  1.0
  O  O124  1  0.13506000  0.70311000  0.29876000  1.0
  O  O125  1  0.86494000  0.29689000  0.70124000  1.0
  O  O126  1  0.86494000  0.29689000  0.79876000  1.0
  O  O127  1  0.13506000  0.70311000  0.20124000  1.0
  O  O128  1  0.29751000  0.80085000  0.29817000  1.0
  O  O129  1  0.70248000  0.19915000  0.70183000  1.0
  O  O130  1  0.70248000  0.19915000  0.79817000  1.0
  O  O131  1  0.29751000  0.80085000  0.20183000  1.0
  O  O132  1  0.79752000  0.69916000  0.20183000  1.0
  O  O133  1  0.20247000  0.30084000  0.79817000  1.0
  O  O134  1  0.20249000  0.30084000  0.70183000  1.0
  O  O135  1  0.79751000  0.69916000  0.29817000  1.0
  O  O136  1  0.46292000  0.71858000  0.25000000  1.0
  O  O137  1  0.53708000  0.28142000  0.75000000  1.0
  O  O138  1  0.96291000  0.78142000  0.25000000  1.0
  O  O139  1  0.03708000  0.21858000  0.75000000  1.0
