# generated using pymatgen
data_PrH22(C3O)11
_symmetry_space_group_name_H-M   'P 1'
_cell_length_a   10.38530000
_cell_length_b   11.55460000
_cell_length_c   13.70210000
_cell_angle_alpha   101.81700000
_cell_angle_beta   110.64300000
_cell_angle_gamma   100.03900000
_symmetry_Int_Tables_number   1
_chemical_formula_structural   PrH22(C3O)11
_chemical_formula_sum   'Pr2 H44 C66 O22'
_cell_volume   1450.47992941
_cell_formula_units_Z   2
loop_
 _symmetry_equiv_pos_site_id
 _symmetry_equiv_pos_as_xyz
  1  'x, y, z'
loop_
 _atom_site_type_symbol
 _atom_site_label
 _atom_site_symmetry_multiplicity
 _atom_site_fract_x
 _atom_site_fract_y
 _atom_site_fract_z
 _atom_site_occupancy
  Pr  Pr0  1  0.61806000  0.56323000  0.66574000  1.0
  Pr  Pr1  1  0.38193000  0.43677000  0.33425000  1.0
  H  H2  1  0.81423000  0.85863000  0.02575000  1.0
  H  H3  1  0.18576000  0.14137000  0.97425000  1.0
  H  H4  1  0.26463000  0.94333000  0.94188000  1.0
  H  H5  1  0.73537000  0.05668000  0.05813000  1.0
  H  H6  1  0.46548000  0.87802000  0.90763000  1.0
  H  H7  1  0.53452000  0.12199000  0.09238000  1.0
  H  H8  1  0.44725000  0.80822000  0.71844000  1.0
  H  H9  1  0.55276000  0.19179000  0.28157000  1.0
  H  H10  1  0.22765000  0.80385000  0.56190000  1.0
  H  H11  1  0.77236000  0.19616000  0.43811000  1.0
  H  H12  1  0.03175000  0.87592000  0.59827000  1.0
  H  H13  1  0.96825000  0.12409000  0.40174000  1.0
  H  H14  1  0.69350000  0.94272000  0.63284000  1.0
  H  H15  1  0.30649000  0.05728000  0.36716000  1.0
  H  H16  1  0.42144000  0.88652000  0.25031000  1.0
  H  H17  1  0.57857000  0.11347000  0.74968000  1.0
  H  H18  1  0.37304000  0.82765000  0.05322000  1.0
  H  H19  1  0.62697000  0.17233000  0.94677000  1.0
  H  H20  1  0.13375000  0.69925000  0.91735000  1.0
  H  H21  1  0.86625000  0.30074000  0.08264000  1.0
  H  H22  1  0.94229000  0.62827000  0.97806000  1.0
  H  H23  1  0.05770000  0.37174000  0.02193000  1.0
  H  H24  1  0.99288000  0.68590000  0.17677000  1.0
  H  H25  1  0.00711000  0.31410000  0.82322000  1.0
  H  H26  1  0.85964000  0.45374000  0.60677000  1.0
  H  H27  1  0.14036000  0.54626000  0.39323000  1.0
  H  H28  1  0.72114000  0.58547000  0.10470000  1.0
  H  H29  1  0.27886000  0.41453000  0.89531000  1.0
  H  H30  1  0.60947000  0.75809000  0.08019000  1.0
  H  H31  1  0.39054000  0.24191000  0.91982000  1.0
  H  H32  1  0.63433000  0.91818000  0.24307000  1.0
  H  H33  1  0.36567000  0.08182000  0.75694000  1.0
  H  H34  1  0.76351000  0.90347000  0.42917000  1.0
  H  H35  1  0.23650000  0.09652000  0.57083000  1.0
  H  H36  1  0.87234000  0.73090000  0.45301000  1.0
  H  H37  1  0.12766000  0.26910000  0.54699000  1.0
  H  H38  1  0.49238000  0.45651000  0.80970000  1.0
  H  H39  1  0.50762000  0.54350000  0.19030000  1.0
  H  H40  1  0.55937000  0.35978000  0.76489000  1.0
  H  H41  1  0.44063000  0.64022000  0.23511000  1.0
  H  H42  1  0.94048000  0.53387000  0.77941000  1.0
  H  H43  1  0.05952000  0.46613000  0.22059000  1.0
  H  H44  1  0.83477000  0.43706000  0.79888000  1.0
  H  H45  1  0.16523000  0.56294000  0.20112000  1.0
  C  C46  1  0.80386000  0.78541000  0.82652000  1.0
  C  C47  1  0.19612000  0.21459000  0.17348000  1.0
  C  C48  1  0.90393000  0.89852000  0.91408000  1.0
  C  C49  1  0.09606000  0.10148000  0.08592000  1.0
  C  C50  1  0.89575000  0.92264000  0.01571000  1.0
  C  C51  1  0.10424000  0.07736000  0.98430000  1.0
  C  C52  1  0.00913000  0.97673000  0.89754000  1.0
  C  C53  1  0.99086000  0.02327000  0.10247000  1.0
  C  C54  1  0.01742000  0.95961000  0.78789000  1.0
  C  C55  1  0.98257000  0.04039000  0.21212000  1.0
  C  C56  1  0.13515000  0.91296000  0.77149000  1.0
  C  C57  1  0.86486000  0.08705000  0.22853000  1.0
  C  C58  1  0.25721000  0.91301000  0.85894000  1.0
  C  C59  1  0.74280000  0.08699000  0.14107000  1.0
  C  C60  1  0.36956000  0.87661000  0.83977000  1.0
  C  C61  1  0.63044000  0.12340000  0.16024000  1.0
  C  C62  1  0.35973000  0.83723000  0.73326000  1.0
  C  C63  1  0.64027000  0.16278000  0.26675000  1.0
  C  C64  1  0.23681000  0.83445000  0.64546000  1.0
  C  C65  1  0.76319000  0.16556000  0.35454000  1.0
  C  C66  1  0.12621000  0.87317000  0.66481000  1.0
  C  C67  1  0.87379000  0.12683000  0.33521000  1.0
  C  C68  1  0.48285000  0.74441000  0.49415000  1.0
  C  C69  1  0.51714000  0.25559000  0.50585000  1.0
  C  C70  1  0.48756000  0.87621000  0.49762000  1.0
  C  C71  1  0.51243000  0.12379000  0.50238000  1.0
  C  C72  1  0.60781000  0.96804000  0.57534000  1.0
  C  C73  1  0.39218000  0.03195000  0.42466000  1.0
  C  C74  1  0.37817000  0.90876000  0.42231000  1.0
  C  C75  1  0.62182000  0.09124000  0.57768000  1.0
  C  C76  1  0.24137000  0.81497000  0.34326000  1.0
  C  C77  1  0.75862000  0.18503000  0.65673000  1.0
  C  C78  1  0.21070000  0.78798000  0.22566000  1.0
  C  C79  1  0.78930000  0.21202000  0.77433000  1.0
  C  C80  1  0.31708000  0.82937000  0.19048000  1.0
  C  C81  1  0.68292000  0.17062000  0.80951000  1.0
  C  C82  1  0.28935000  0.79665000  0.07998000  1.0
  C  C83  1  0.71065000  0.20335000  0.92001000  1.0
  C  C84  1  0.15485000  0.72411000  0.00366000  1.0
  C  C85  1  0.84515000  0.27588000  0.99633000  1.0
  C  C86  1  0.04755000  0.68382000  0.03809000  1.0
  C  C87  1  0.95245000  0.31618000  0.96190000  1.0
  C  C88  1  0.07527000  0.71550000  0.14851000  1.0
  C  C89  1  0.92472000  0.28450000  0.85148000  1.0
  C  C90  1  0.70009000  0.49097000  0.42271000  1.0
  C  C91  1  0.29991000  0.50902000  0.57728000  1.0
  C  C92  1  0.85579000  0.49983000  0.46203000  1.0
  C  C93  1  0.14421000  0.50017000  0.53797000  1.0
  C  C94  1  0.92254000  0.47737000  0.56138000  1.0
  C  C95  1  0.07747000  0.52263000  0.43862000  1.0
  C  C96  1  0.93400000  0.52274000  0.39934000  1.0
  C  C97  1  0.06600000  0.47725000  0.60066000  1.0
  C  C98  1  0.87330000  0.54720000  0.29158000  1.0
  C  C99  1  0.12670000  0.45280000  0.70842000  1.0
  C  C100  1  0.80171000  0.64646000  0.28003000  1.0
  C  C101  1  0.19830000  0.35354000  0.71997000  1.0
  C  C102  1  0.72817000  0.65504000  0.17483000  1.0
  C  C103  1  0.27183000  0.34495000  0.82517000  1.0
  C  C104  1  0.66666667  0.75166000  0.16180000  1.0
  C  C105  1  0.33333333  0.24834000  0.83821000  1.0
  C  C106  1  0.67928000  0.84086000  0.25333000  1.0
  C  C107  1  0.32073000  0.15914000  0.74667000  1.0
  C  C108  1  0.75232000  0.83299000  0.35804000  1.0
  C  C109  1  0.24768000  0.16700000  0.64197000  1.0
  C  C110  1  0.81318000  0.73597000  0.37140000  1.0
  C  C111  1  0.18683000  0.26403000  0.62861000  1.0
  O  O112  1  0.83345000  0.74529000  0.74506000  1.0
  O  O113  1  0.16654000  0.25473000  0.25494000  1.0
  O  O114  1  0.69339000  0.73022000  0.83701000  1.0
  O  O115  1  0.30659000  0.26979000  0.16298000  1.0
  O  O116  1  0.93324000  0.99228000  0.71674000  1.0
  O  O117  1  0.06677000  0.00772000  0.28327000  1.0
  O  O118  1  0.53889000  0.72263000  0.58453000  1.0
  O  O119  1  0.46110000  0.27737000  0.41546000  1.0
  O  O120  1  0.42525000  0.66501000  0.40043000  1.0
  O  O121  1  0.57474000  0.33499000  0.59957000  1.0
  O  O122  1  0.15833000  0.76364000  0.37708000  1.0
  O  O123  1  0.84166000  0.23636000  0.62290000  1.0
  O  O124  1  0.62163000  0.44806000  0.32185000  1.0
  O  O125  1  0.37837000  0.55194000  0.67815000  1.0
  O  O126  1  0.64886000  0.52501000  0.49316000  1.0
  O  O127  1  0.35115000  0.47499000  0.50684000  1.0
  O  O128  1  0.89300000  0.48817000  0.21385000  1.0
  O  O129  1  0.10700000  0.51183000  0.78615000  1.0
  O  O130  1  0.58045000  0.44691000  0.80238000  1.0
  O  O131  1  0.41955000  0.55309000  0.19762000  1.0
  O  O132  1  0.84324000  0.51344000  0.77847000  1.0
  O  O133  1  0.15676000  0.48656000  0.22152000  1.0
