# generated using pymatgen
data_CoH10C18S2(NO)4
_symmetry_space_group_name_H-M   'P 1'
_cell_length_a   14.69480000
_cell_length_b   14.69430000
_cell_length_c   14.70540000
_cell_angle_alpha   85.28380000
_cell_angle_beta   85.28380000
_cell_angle_gamma   69.62510000
_symmetry_Int_Tables_number   1
_chemical_formula_structural   CoH10C18S2(NO)4
_chemical_formula_sum   'Co6 H60 C108 S12 N24 O24'
_cell_volume   2961.70431261
_cell_formula_units_Z   6
loop_
 _symmetry_equiv_pos_site_id
 _symmetry_equiv_pos_as_xyz
  1  'x, y, z'
loop_
 _atom_site_type_symbol
 _atom_site_label
 _atom_site_symmetry_multiplicity
 _atom_site_fract_x
 _atom_site_fract_y
 _atom_site_fract_z
 _atom_site_occupancy
  Co  Co0  1  0.26447000  0.13449000  0.22354000  1.0
  Co  Co1  1  0.86551000  0.73552000  0.27646000  1.0
  Co  Co2  1  0.73553000  0.86551000  0.77647000  1.0
  Co  Co3  1  0.13448000  0.26448000  0.72354000  1.0
  Co  Co4  1  0.60369000  0.39631000  0.75000000  1.0
  Co  Co5  1  0.39631000  0.60369000  0.24999000  1.0
  H  H6  1  0.02775000  0.94597000  0.18469000  1.0
  H  H7  1  0.05402000  0.97226000  0.31531000  1.0
  H  H8  1  0.97226000  0.05402000  0.81532000  1.0
  H  H9  1  0.94599000  0.02773000  0.68470000  1.0
  H  H10  1  0.77093000  0.09695000  0.95469000  1.0
  H  H11  1  0.90305000  0.22906000  0.54531000  1.0
  H  H12  1  0.22907000  0.90304000  0.04531000  1.0
  H  H13  1  0.09697000  0.77094000  0.45468000  1.0
  H  H14  1  0.65488000  0.20503000  0.84613000  1.0
  H  H15  1  0.79497000  0.34511000  0.65388000  1.0
  H  H16  1  0.34512000  0.79496000  0.15386000  1.0
  H  H17  1  0.20504000  0.65489000  0.34612000  1.0
  H  H18  1  0.78427000  0.41509000  0.84008000  1.0
  H  H19  1  0.58492000  0.21573000  0.65992000  1.0
  H  H20  1  0.21573000  0.58491000  0.15992000  1.0
  H  H21  1  0.41508000  0.78429000  0.34007000  1.0
  H  H22  1  0.90421000  0.31786000  0.95135000  1.0
  H  H23  1  0.68215000  0.09577000  0.54866000  1.0
  H  H24  1  0.09578000  0.68213000  0.04865000  1.0
  H  H25  1  0.31786000  0.90423000  0.45134000  1.0
  H  H26  1  0.54632000  0.81343000  0.16485000  1.0
  H  H27  1  0.18658000  0.45368000  0.33515000  1.0
  H  H28  1  0.45368000  0.18658000  0.83515000  1.0
  H  H29  1  0.81342000  0.54632000  0.66486000  1.0
  H  H30  1  0.35087000  0.94272000  0.87842000  1.0
  H  H31  1  0.05727000  0.64913000  0.62159000  1.0
  H  H32  1  0.64914000  0.05728000  0.12159000  1.0
  H  H33  1  0.94272000  0.35087000  0.37841000  1.0
  H  H34  1  0.26308000  0.05114000  0.75047000  1.0
  H  H35  1  0.94885000  0.73691000  0.74954000  1.0
  H  H36  1  0.73692000  0.94886000  0.24954000  1.0
  H  H37  1  0.05114000  0.26308000  0.25046000  1.0
  H  H38  1  0.18830000  0.29415000  0.90274000  1.0
  H  H39  1  0.70585000  0.81170000  0.59726000  1.0
  H  H40  1  0.81168000  0.70585000  0.09726000  1.0
  H  H41  1  0.29414000  0.18832000  0.40274000  1.0
  H  H42  1  0.27868000  0.19764000  0.03431000  1.0
  H  H43  1  0.80237000  0.72132000  0.46569000  1.0
  H  H44  1  0.72131000  0.80238000  0.96569000  1.0
  H  H45  1  0.19762000  0.27870000  0.53431000  1.0
  H  H46  1  0.48067000  0.71147000  0.55124000  1.0
  H  H47  1  0.28853000  0.51933000  0.94876000  1.0
  H  H48  1  0.51933000  0.28852000  0.44875000  1.0
  H  H49  1  0.71147000  0.48066000  0.05124000  1.0
  H  H50  1  0.21946000  0.57285000  0.69086000  1.0
  H  H51  1  0.42715000  0.78057000  0.80915000  1.0
  H  H52  1  0.78056000  0.42714000  0.30915000  1.0
  H  H53  1  0.57284000  0.21944000  0.19085000  1.0
  H  H54  1  0.11689000  0.46906000  0.71991000  1.0
  H  H55  1  0.53094000  0.88312000  0.78011000  1.0
  H  H56  1  0.88312000  0.53094000  0.28010000  1.0
  H  H57  1  0.46905000  0.11688000  0.21990000  1.0
  H  H58  1  0.35005000  0.22009000  0.65602000  1.0
  H  H59  1  0.77990000  0.64995000  0.84398000  1.0
  H  H60  1  0.64995000  0.77990000  0.34398000  1.0
  H  H61  1  0.22010000  0.35005000  0.15602000  1.0
  H  H62  1  0.45958000  0.31487000  0.61980000  1.0
  H  H63  1  0.68511000  0.54042000  0.88020000  1.0
  H  H64  1  0.54042000  0.68512000  0.38019000  1.0
  H  H65  1  0.31488000  0.45958000  0.11979000  1.0
  C  C66  1  0.12242000  0.09293000  0.16676000  1.0
  C  C67  1  0.90707000  0.87758000  0.33324000  1.0
  C  C68  1  0.87758000  0.90707000  0.83324000  1.0
  C  C69  1  0.09293000  0.12242000  0.66676000  1.0
  C  C70  1  0.03592000  0.08847000  0.12377000  1.0
  C  C71  1  0.91153000  0.96408000  0.37623000  1.0
  C  C72  1  0.96408000  0.91152000  0.87624000  1.0
  C  C73  1  0.08847000  0.03592000  0.62376000  1.0
  C  C74  1  0.00084000  0.01215000  0.14137000  1.0
  C  C75  1  0.98784000  0.99916000  0.35863000  1.0
  C  C76  1  0.99916000  0.98785000  0.85863000  1.0
  C  C77  1  0.01216000  0.00084000  0.64137000  1.0
  C  C78  1  0.91151000  0.14105000  0.03440000  1.0
  C  C79  1  0.85896000  0.08848000  0.46559000  1.0
  C  C80  1  0.08850000  0.85895000  0.96560000  1.0
  C  C81  1  0.14105000  0.91152000  0.53440000  1.0
  C  C82  1  0.84486000  0.20047000  0.96707000  1.0
  C  C83  1  0.79953000  0.15514000  0.53293000  1.0
  C  C84  1  0.15514000  0.79952000  0.03293000  1.0
  C  C85  1  0.20048000  0.84487000  0.46706000  1.0
  C  C86  1  0.77500000  0.16841000  0.93369000  1.0
  C  C87  1  0.83159000  0.22499000  0.56631000  1.0
  C  C88  1  0.22499000  0.83159000  0.06631000  1.0
  C  C89  1  0.16842000  0.77501000  0.43368000  1.0
  C  C90  1  0.71031000  0.22768000  0.87221000  1.0
  C  C91  1  0.77232000  0.28969000  0.62780000  1.0
  C  C92  1  0.28969000  0.77231000  0.12779000  1.0
  C  C93  1  0.22769000  0.71031000  0.37220000  1.0
  C  C94  1  0.78112000  0.34573000  0.86973000  1.0
  C  C95  1  0.65428000  0.21887000  0.63027000  1.0
  C  C96  1  0.21888000  0.65426000  0.13027000  1.0
  C  C97  1  0.34573000  0.78114000  0.36971000  1.0
  C  C98  1  0.84861000  0.29108000  0.93180000  1.0
  C  C99  1  0.70893000  0.15138000  0.56820000  1.0
  C  C100  1  0.15139000  0.70892000  0.06820000  1.0
  C  C101  1  0.29108000  0.84863000  0.43179000  1.0
  C  C102  1  0.42378000  0.96873000  0.28536000  1.0
  C  C103  1  0.03127000  0.57622000  0.21465000  1.0
  C  C104  1  0.57623000  0.03127000  0.71464000  1.0
  C  C105  1  0.96872000  0.42378000  0.78535000  1.0
  C  C106  1  0.42799000  0.95582000  0.18491000  1.0
  C  C107  1  0.04418000  0.57201000  0.31510000  1.0
  C  C108  1  0.57202000  0.04418000  0.81510000  1.0
  C  C109  1  0.95581000  0.42799000  0.68490000  1.0
  C  C110  1  0.48961000  0.87795000  0.13935000  1.0
  C  C111  1  0.12206000  0.51039000  0.36065000  1.0
  C  C112  1  0.51039000  0.12206000  0.86065000  1.0
  C  C113  1  0.87794000  0.48961000  0.63935000  1.0
  C  C114  1  0.37247000  0.00165000  0.04517000  1.0
  C  C115  1  0.99835000  0.62753000  0.45484000  1.0
  C  C116  1  0.62754000  0.99837000  0.95484000  1.0
  C  C117  1  0.00163000  0.37248000  0.54517000  1.0
  C  C118  1  0.32010000  0.06107000  0.96906000  1.0
  C  C119  1  0.93893000  0.67989000  0.53095000  1.0
  C  C120  1  0.67990000  0.93894000  0.03095000  1.0
  C  C121  1  0.06105000  0.32011000  0.46905000  1.0
  C  C122  1  0.31647000  0.02058000  0.88671000  1.0
  C  C123  1  0.97941000  0.68353000  0.61330000  1.0
  C  C124  1  0.68354000  0.97942000  0.11330000  1.0
  C  C125  1  0.02058000  0.31647000  0.38670000  1.0
  C  C126  1  0.26695000  0.07993000  0.81547000  1.0
  C  C127  1  0.92007000  0.73305000  0.68454000  1.0
  C  C128  1  0.73306000  0.92008000  0.18454000  1.0
  C  C129  1  0.07993000  0.26695000  0.31546000  1.0
  C  C130  1  0.22562000  0.21609000  0.90025000  1.0
  C  C131  1  0.78392000  0.77438000  0.59975000  1.0
  C  C132  1  0.77438000  0.78392000  0.09975000  1.0
  C  C133  1  0.21607000  0.22563000  0.40025000  1.0
  C  C134  1  0.27494000  0.16184000  0.97388000  1.0
  C  C135  1  0.83816000  0.72506000  0.52612000  1.0
  C  C136  1  0.72506000  0.83816000  0.02612000  1.0
  C  C137  1  0.16183000  0.27495000  0.47388000  1.0
  C  C138  1  0.63523000  0.55808000  0.64422000  1.0
  C  C139  1  0.44192000  0.36477000  0.85577000  1.0
  C  C140  1  0.36477000  0.44192000  0.35576000  1.0
  C  C141  1  0.55808000  0.63523000  0.14423000  1.0
  C  C142  1  0.53515000  0.56603000  0.62185000  1.0
  C  C143  1  0.43396000  0.46485000  0.87815000  1.0
  C  C144  1  0.46485000  0.43396000  0.37815000  1.0
  C  C145  1  0.56603000  0.53515000  0.12185000  1.0
  C  C146  1  0.46924000  0.64519000  0.57874000  1.0
  C  C147  1  0.35481000  0.53076000  0.92125000  1.0
  C  C148  1  0.53077000  0.35480000  0.42125000  1.0
  C  C149  1  0.64519000  0.46924000  0.07875000  1.0
  C  C150  1  0.40930000  0.51306000  0.63090000  1.0
  C  C151  1  0.48694000  0.59071000  0.86909000  1.0
  C  C152  1  0.59071000  0.48693000  0.36909000  1.0
  C  C153  1  0.51305000  0.40929000  0.13090000  1.0
  C  C154  1  0.34867000  0.45257000  0.65112000  1.0
  C  C155  1  0.54742000  0.65134000  0.84888000  1.0
  C  C156  1  0.65134000  0.54742000  0.34888000  1.0
  C  C157  1  0.45257000  0.34866000  0.15111000  1.0
  C  C158  1  0.25037000  0.49528000  0.67987000  1.0
  C  C159  1  0.50471000  0.74964000  0.82015000  1.0
  C  C160  1  0.74964000  0.50471000  0.32014000  1.0
  C  C161  1  0.49528000  0.25036000  0.17985000  1.0
  C  C162  1  0.19302000  0.43768000  0.69690000  1.0
  C  C163  1  0.56232000  0.80699000  0.80311000  1.0
  C  C164  1  0.80699000  0.56231000  0.30311000  1.0
  C  C165  1  0.43767000  0.19301000  0.19689000  1.0
  C  C166  1  0.32241000  0.29879000  0.66139000  1.0
  C  C167  1  0.70119000  0.67758000  0.83861000  1.0
  C  C168  1  0.67759000  0.70120000  0.33861000  1.0
  C  C169  1  0.29880000  0.32242000  0.16138000  1.0
  C  C170  1  0.38428000  0.35185000  0.64201000  1.0
  C  C171  1  0.64813000  0.61572000  0.85799000  1.0
  C  C172  1  0.61572000  0.64813000  0.35799000  1.0
  C  C173  1  0.35186000  0.38428000  0.14200000  1.0
  S  S174  1  0.90101000  0.03155000  0.08227000  1.0
  S  S175  1  0.96844000  0.09899000  0.41773000  1.0
  S  S176  1  0.09899000  0.96844000  0.91773000  1.0
  S  S177  1  0.03157000  0.90100000  0.58227000  1.0
  S  S178  1  0.46383000  0.88988000  0.02751000  1.0
  S  S179  1  0.11013000  0.53617000  0.47250000  1.0
  S  S180  1  0.53617000  0.11013000  0.97249000  1.0
  S  S181  1  0.88986000  0.46384000  0.52751000  1.0
  S  S182  1  0.36142000  0.62698000  0.57450000  1.0
  S  S183  1  0.37301000  0.63859000  0.92549000  1.0
  S  S184  1  0.63859000  0.37300000  0.42548000  1.0
  S  S185  1  0.62698000  0.36141000  0.07451000  1.0
  N  N186  1  0.98461000  0.16070000  0.06340000  1.0
  N  N187  1  0.83930000  0.01538000  0.43660000  1.0
  N  N188  1  0.01539000  0.83929000  0.93660000  1.0
  N  N189  1  0.16070000  0.98462000  0.56339000  1.0
  N  N190  1  0.71101000  0.31655000  0.84168000  1.0
  N  N191  1  0.68346000  0.28899000  0.65832000  1.0
  N  N192  1  0.28899000  0.68344000  0.15832000  1.0
  N  N193  1  0.31655000  0.71102000  0.34167000  1.0
  N  N194  1  0.36268000  0.02563000  0.13129000  1.0
  N  N195  1  0.97437000  0.63731000  0.36872000  1.0
  N  N196  1  0.63732000  0.97437000  0.86872000  1.0
  N  N197  1  0.02562000  0.36269000  0.63128000  1.0
  N  N198  1  0.22011000  0.17627000  0.82234000  1.0
  N  N199  1  0.82373000  0.77988000  0.67767000  1.0
  N  N200  1  0.77989000  0.82373000  0.17766000  1.0
  N  N201  1  0.17627000  0.22011000  0.32234000  1.0
  N  N202  1  0.50093000  0.49172000  0.65100000  1.0
  N  N203  1  0.50828000  0.49908000  0.84900000  1.0
  N  N204  1  0.49908000  0.50828000  0.34900000  1.0
  N  N205  1  0.49172000  0.50093000  0.15100000  1.0
  N  N206  1  0.22744000  0.34078000  0.68761000  1.0
  N  N207  1  0.65921000  0.77256000  0.81240000  1.0
  N  N208  1  0.77256000  0.65921000  0.31240000  1.0
  N  N209  1  0.34078000  0.22744000  0.18760000  1.0
  O  O210  1  0.15556000  0.16128000  0.13792000  1.0
  O  O211  1  0.83872000  0.84444000  0.36209000  1.0
  O  O212  1  0.84444000  0.83872000  0.86209000  1.0
  O  O213  1  0.16128000  0.15556000  0.63791000  1.0
  O  O214  1  0.16089000  0.03127000  0.23010000  1.0
  O  O215  1  0.96873000  0.83910000  0.26990000  1.0
  O  O216  1  0.83911000  0.96872000  0.76989000  1.0
  O  O217  1  0.03128000  0.16089000  0.73010000  1.0
  O  O218  1  0.35225000  0.04463000  0.31214000  1.0
  O  O219  1  0.95537000  0.64774000  0.18786000  1.0
  O  O220  1  0.64776000  0.95537000  0.68786000  1.0
  O  O221  1  0.04462000  0.35226000  0.81214000  1.0
  O  O222  1  0.48409000  0.90906000  0.33503000  1.0
  O  O223  1  0.09094000  0.51592000  0.16497000  1.0
  O  O224  1  0.51593000  0.09095000  0.66497000  1.0
  O  O225  1  0.90904000  0.48409000  0.83503000  1.0
  O  O226  1  0.67754000  0.48402000  0.69897000  1.0
  O  O227  1  0.51599000  0.32245000  0.80103000  1.0
  O  O228  1  0.32246000  0.51599000  0.30103000  1.0
  O  O229  1  0.48401000  0.67755000  0.19897000  1.0
  O  O230  1  0.66986000  0.62065000  0.61133000  1.0
  O  O231  1  0.37935000  0.33013000  0.88865000  1.0
  O  O232  1  0.33013000  0.37935000  0.38865000  1.0
  O  O233  1  0.62065000  0.66987000  0.11134000  1.0
