# generated using pymatgen
data_CuH12C17IN3
_symmetry_space_group_name_H-M   'P 1'
_cell_length_a   12.91750000
_cell_length_b   13.05301908
_cell_length_c   13.09950000
_cell_angle_alpha   76.05587982
_cell_angle_beta   60.85610000
_cell_angle_gamma   60.34275289
_symmetry_Int_Tables_number   1
_chemical_formula_structural   CuH12C17IN3
_chemical_formula_sum   'Cu4 H48 C68 I4 N12'
_cell_volume   1676.39857488
_cell_formula_units_Z   4
loop_
 _symmetry_equiv_pos_site_id
 _symmetry_equiv_pos_as_xyz
  1  'x, y, z'
loop_
 _atom_site_type_symbol
 _atom_site_label
 _atom_site_symmetry_multiplicity
 _atom_site_fract_x
 _atom_site_fract_y
 _atom_site_fract_z
 _atom_site_occupancy
  Cu  Cu0  1  0.63915000  0.46509000  0.61297000  1.0
  Cu  Cu1  1  0.71812000  0.53378000  0.38791000  1.0
  Cu  Cu2  1  0.74783000  0.61135000  0.53453000  1.0
  Cu  Cu3  1  0.89507000  0.38811000  0.46551000  1.0
  H  H4  1  0.93283000  0.95383000  0.43804000  1.0
  H  H5  1  0.32350000  0.04787000  0.56123000  1.0
  H  H6  1  0.62839000  0.44129000  0.04749000  1.0
  H  H7  1  0.11620000  0.55898000  0.95278000  1.0
  H  H8  1  0.06084000  0.06093000  0.29610000  1.0
  H  H9  1  0.41630000  0.94002000  0.70452000  1.0
  H  H10  1  0.64252000  0.29805000  0.94009000  1.0
  H  H11  1  0.88078000  0.70151000  0.06028000  1.0
  H  H12  1  0.51328000  0.58479000  0.81721000  1.0
  H  H13  1  0.91577000  0.41422000  0.18397000  1.0
  H  H14  1  0.67027000  0.81558000  0.41509000  1.0
  H  H15  1  0.90410000  0.18434000  0.58263000  1.0
  H  H16  1  0.40320000  0.65518000  0.02074000  1.0
  H  H17  1  0.07849000  0.34493000  0.98046000  1.0
  H  H18  1  0.57594000  0.02070000  0.34524000  1.0
  H  H19  1  0.94481000  0.97934000  0.65250000  1.0
  H  H20  1  0.38563000  0.22201000  0.79137000  1.0
  H  H21  1  0.40064000  0.77679000  0.20755000  1.0
  H  H22  1  0.82317000  0.79103000  0.77739000  1.0
  H  H23  1  0.39083000  0.20878000  0.22304000  1.0
  H  H24  1  0.51709000  0.32213000  0.63685000  1.0
  H  H25  1  0.47802000  0.67631000  0.36297000  1.0
  H  H26  1  0.84649000  0.63468000  0.67753000  1.0
  H  H27  1  0.15902000  0.36498000  0.32227000  1.0
  H  H28  1  0.17570000  0.85205000  0.01557000  1.0
  H  H29  1  0.04306000  0.14769000  0.98395000  1.0
  H  H30  1  0.80832000  0.01504000  0.14802000  1.0
  H  H31  1  0.96819000  0.98564000  0.85457000  1.0
  H  H32  1  0.92880000  0.79421000  0.36784000  1.0
  H  H33  1  0.09039000  0.20742000  0.63044000  1.0
  H  H34  1  0.70228000  0.37041000  0.20701000  1.0
  H  H35  1  0.27664000  0.63068000  0.79452000  1.0
  H  H36  1  0.24709000  0.40283000  0.14652000  1.0
  H  H37  1  0.79571000  0.59768000  0.85333000  1.0
  H  H38  1  0.60590000  0.14861000  0.59706000  1.0
  H  H39  1  0.35243000  0.85073000  0.40248000  1.0
  H  H40  1  0.27321000  0.56134000  0.18533000  1.0
  H  H41  1  0.01873000  0.43942000  0.81521000  1.0
  H  H42  1  0.54081000  0.18721000  0.43901000  1.0
  H  H43  1  0.16910000  0.81259000  0.55958000  1.0
  H  H44  1  0.21633000  0.28306000  0.11432000  1.0
  H  H45  1  0.61322000  0.71785000  0.88485000  1.0
  H  H46  1  0.66968000  0.11628000  0.71714000  1.0
  H  H47  1  0.50326000  0.88327000  0.28175000  1.0
  H  H48  1  0.04591000  0.74762000  0.15667000  1.0
  H  H49  1  0.95020000  0.25287000  0.84156000  1.0
  H  H50  1  0.79724000  0.15740000  0.25245000  1.0
  H  H51  1  0.20276000  0.84398000  0.74991000  1.0
  C  C52  1  0.12890000  0.96229000  0.14695000  1.0
  C  C53  1  0.23709000  0.03807000  0.85309000  1.0
  C  C54  1  0.72311000  0.14777000  0.03861000  1.0
  C  C55  1  0.90790000  0.85247000  0.96316000  1.0
  C  C56  1  0.98637000  0.93147000  0.34549000  1.0
  C  C57  1  0.26229000  0.06981000  0.65381000  1.0
  C  C58  1  0.66745000  0.34795000  0.06959000  1.0
  C  C59  1  0.08353000  0.65245000  0.93123000  1.0
  C  C60  1  0.20793000  0.02148000  0.06267000  1.0
  C  C61  1  0.29130000  0.97856000  0.93775000  1.0
  C  C62  1  0.72776000  0.06305000  0.97948000  1.0
  C  C63  1  0.76923000  0.93715000  0.02225000  1.0
  C  C64  1  0.05807000  0.99147000  0.26667000  1.0
  C  C65  1  0.31496000  0.00936000  0.73332000  1.0
  C  C66  1  0.67454000  0.26848000  0.00951000  1.0
  C  C67  1  0.95162000  0.73158000  0.99142000  1.0
  C  C68  1  0.36694000  0.39918000  0.95944000  1.0
  C  C69  1  0.72586000  0.60052000  0.04068000  1.0
  C  C70  1  0.67403000  0.95984000  0.60027000  1.0
  C  C71  1  0.23543000  0.03959000  0.39849000  1.0
  C  C72  1  0.44471000  0.45152000  0.86497000  1.0
  C  C73  1  0.76177000  0.54784000  0.13557000  1.0
  C  C74  1  0.69097000  0.86434000  0.54796000  1.0
  C  C75  1  0.10508000  0.13514000  0.45056000  1.0
  C  C76  1  0.45755000  0.54335000  0.88989000  1.0
  C  C77  1  0.89102000  0.45610000  0.11105000  1.0
  C  C78  1  0.65304000  0.88910000  0.45648000  1.0
  C  C79  1  0.00118000  0.11060000  0.54161000  1.0
  C  C80  1  0.39632000  0.58203000  0.00308000  1.0
  C  C81  1  0.98105000  0.41799000  0.99784000  1.0
  C  C82  1  0.60061000  0.00319000  0.41808000  1.0
  C  C83  1  0.02439000  0.99662000  0.58001000  1.0
  C  C84  1  0.34962000  0.31016000  0.93288000  1.0
  C  C85  1  0.59334000  0.68928000  0.06678000  1.0
  C  C86  1  0.71780000  0.93335000  0.68919000  1.0
  C  C87  1  0.34079000  0.06619000  0.31009000  1.0
  C  C88  1  0.40132000  0.28567000  0.81552000  1.0
  C  C89  1  0.50377000  0.71327000  0.18396000  1.0
  C  C90  1  0.78352000  0.81506000  0.71372000  1.0
  C  C91  1  0.31226000  0.18457000  0.28612000  1.0
  C  C92  1  0.47508000  0.34129000  0.72917000  1.0
  C  C93  1  0.54694000  0.65744000  0.27075000  1.0
  C  C94  1  0.79633000  0.72773000  0.65820000  1.0
  C  C95  1  0.18278000  0.27190000  0.34135000  1.0
  C  C96  1  0.12301000  0.87437000  0.10816000  1.0
  C  C97  1  0.10496000  0.12580000  0.89132000  1.0
  C  C98  1  0.76821000  0.10849000  0.12606000  1.0
  C  C99  1  0.00002000  0.89212000  0.87613000  1.0
  C  C100  1  0.98322000  0.84266000  0.30634000  1.0
  C  C101  1  0.13161000  0.15851000  0.69242000  1.0
  C  C102  1  0.70968000  0.30841000  0.15824000  1.0
  C  C103  1  0.17370000  0.69243000  0.84317000  1.0
  C  C104  1  0.30807000  0.44002000  0.07461000  1.0
  C  C105  1  0.82231000  0.56025000  0.92554000  1.0
  C  C106  1  0.61714000  0.07590000  0.55979000  1.0
  C  C107  1  0.25414000  0.92363000  0.43916000  1.0
  C  C108  1  0.32200000  0.52949000  0.09631000  1.0
  C  C109  1  0.94713000  0.47093000  0.90422000  1.0
  C  C110  1  0.58135000  0.09747000  0.47063000  1.0
  C  C111  1  0.15141000  0.90228000  0.52791000  1.0
  C  C112  1  0.27730000  0.24955000  0.02442000  1.0
  C  C113  1  0.55139000  0.75038000  0.97510000  1.0
  C  C114  1  0.69832000  0.02555000  0.75025000  1.0
  C  C115  1  0.47420000  0.97419000  0.24918000  1.0
  C  C116  1  0.05023000  0.81535000  0.18741000  1.0
  C  C117  1  0.05260000  0.18521000  0.81138000  1.0
  C  C118  1  0.76190000  0.18841000  0.18507000  1.0
  C  C119  1  0.13206000  0.81257000  0.81695000  1.0
  I  I120  1  0.49932000  0.68733000  0.56468000  1.0
  I  I121  1  0.75068000  0.31208000  0.43693000  1.0
  I  I122  1  0.93458000  0.56539000  0.31344000  1.0
  I  I123  1  0.81253000  0.43426000  0.68786000  1.0
  N  N124  1  0.20386000  0.11188000  0.09355000  1.0
  N  N125  1  0.40814000  0.88822000  0.90669000  1.0
  N  N126  1  0.70145000  0.09448000  0.88907000  1.0
  N  N127  1  0.68444000  0.90565000  0.11187000  1.0
  N  N128  1  0.50226000  0.41807000  0.75051000  1.0
  N  N129  1  0.67190000  0.58086000  0.24993000  1.0
  N  N130  1  0.74793000  0.74904000  0.58144000  1.0
  N  N131  1  0.07974000  0.25054000  0.41755000  1.0
  N  N132  1  0.28285000  0.15627000  0.99942000  1.0
  N  N133  1  0.43845000  0.84314000  0.00069000  1.0
  N  N134  1  0.71686000  0.99993000  0.84374000  1.0
  N  N135  1  0.56026000  0.00016000  0.15681000  1.0
