# generated using pymatgen
data_ZnH14C14(N2O)6
_symmetry_space_group_name_H-M   'P 1'
_cell_length_a   7.25106000
_cell_length_b   7.62927000
_cell_length_c   9.44433000
_cell_angle_alpha   110.15030000
_cell_angle_beta   94.63250000
_cell_angle_gamma   99.53220000
_symmetry_Int_Tables_number   1
_chemical_formula_structural   ZnH14C14(N2O)6
_chemical_formula_sum   'Zn1 H14 C14 N12 O6'
_cell_volume   478.32323573
_cell_formula_units_Z   1
loop_
 _symmetry_equiv_pos_site_id
 _symmetry_equiv_pos_as_xyz
  1  'x, y, z'
loop_
 _atom_site_type_symbol
 _atom_site_label
 _atom_site_symmetry_multiplicity
 _atom_site_fract_x
 _atom_site_fract_y
 _atom_site_fract_z
 _atom_site_occupancy
  Zn  Zn0  1  0.49999000  0.00000000  0.50000000  1.0
  H  H1  1  0.46397000  0.69732000  0.56927000  1.0
  H  H2  1  0.53603000  0.30268000  0.43073000  1.0
  H  H3  1  0.30408000  0.61540000  0.42524000  1.0
  H  H4  1  0.69592000  0.38459000  0.57476000  1.0
  H  H5  1  0.95823000  0.97964000  0.20327000  1.0
  H  H6  1  0.04177000  0.02034000  0.79671000  1.0
  H  H7  1  0.92512000  0.15364000  0.37834000  1.0
  H  H8  1  0.07487000  0.84633000  0.62164000  1.0
  H  H9  1  0.71698000  0.67853000  0.38427000  1.0
  H  H10  1  0.28300000  0.32146000  0.61573000  1.0
  H  H11  1  0.46793000  0.98665000  0.16513000  1.0
  H  H12  1  0.53208000  0.01336000  0.83487000  1.0
  H  H13  1  0.57821000  0.79843000  0.91868000  1.0
  H  H14  1  0.42181000  0.20159000  0.08133000  1.0
  C  C15  1  0.21458000  0.16026000  0.33777000  1.0
  C  C16  1  0.78541000  0.83974000  0.66223000  1.0
  C  C17  1  0.00325000  0.12833000  0.28070000  1.0
  C  C18  1  0.99674000  0.87166000  0.71928000  1.0
  C  C19  1  0.84054000  0.44842000  0.13799000  1.0
  C  C20  1  0.15947000  0.55159000  0.86201000  1.0
  C  C21  1  0.74766000  0.60632000  0.14545000  1.0
  C  C22  1  0.25235000  0.39369000  0.85455000  1.0
  C  C23  1  0.68803000  0.70932000  0.28145000  1.0
  C  C24  1  0.31196000  0.29067000  0.71855000  1.0
  C  C25  1  0.55067000  0.87851000  0.15936000  1.0
  C  C26  1  0.44935000  0.12150000  0.84066000  1.0
  C  C27  1  0.61101000  0.77461000  0.02452000  1.0
  C  C28  1  0.38900000  0.22541000  0.97549000  1.0
  N  N29  1  0.90541000  0.41336000  0.26073000  1.0
  N  N30  1  0.09458000  0.58664000  0.73927000  1.0
  N  N31  1  0.94808000  0.24353000  0.19677000  1.0
  N  N32  1  0.05191000  0.75647000  0.80322000  1.0
  N  N33  1  0.91198000  0.17487000  0.04358000  1.0
  N  N34  1  0.08803000  0.82514000  0.95641000  1.0
  N  N35  1  0.84538000  0.30422000  0.00513000  1.0
  N  N36  1  0.15464000  0.69580000  0.99487000  1.0
  N  N37  1  0.59050000  0.84557000  0.28790000  1.0
  N  N38  1  0.40950000  0.15443000  0.71210000  1.0
  N  N39  1  0.70851000  0.63863000  0.01605000  1.0
  N  N40  1  0.29151000  0.36139000  0.98396000  1.0
  O  O41  1  0.25219000  0.02867000  0.38228000  1.0
  O  O42  1  0.74779000  0.97133000  0.61774000  1.0
  O  O43  1  0.32899000  0.30605000  0.33999000  1.0
  O  O44  1  0.67100000  0.69394000  0.66001000  1.0
  O  O45  1  0.35855000  0.73106000  0.51403000  1.0
  O  O46  1  0.64144000  0.26893000  0.48597000  1.0
