# generated using pymatgen
data_CoH3(CN2)4
_symmetry_space_group_name_H-M   'P 1'
_cell_length_a   5.84221000
_cell_length_b   7.82701434
_cell_length_c   9.01584000
_cell_angle_alpha   87.01747932
_cell_angle_beta   81.99650000
_cell_angle_gamma   68.13075277
_symmetry_Int_Tables_number   1
_chemical_formula_structural   CoH3(CN2)4
_chemical_formula_sum   'Co2 H6 C8 N16'
_cell_volume   378.87286276
_cell_formula_units_Z   2
loop_
 _symmetry_equiv_pos_site_id
 _symmetry_equiv_pos_as_xyz
  1  'x, y, z'
loop_
 _atom_site_type_symbol
 _atom_site_label
 _atom_site_symmetry_multiplicity
 _atom_site_fract_x
 _atom_site_fract_y
 _atom_site_fract_z
 _atom_site_occupancy
  Co  Co0  1  0.19641000  0.60743000  0.99998000  1.0
  Co  Co1  1  0.80359000  0.39256000  0.00002000  1.0
  H  H2  1  0.36023000  0.70350000  0.65412000  1.0
  H  H3  1  0.93663000  0.70319000  0.34604000  1.0
  H  H4  1  0.63977000  0.29650000  0.34588000  1.0
  H  H5  1  0.06338000  0.29681000  0.65396000  1.0
  H  H6  1  0.27729000  0.00011000  0.51180000  1.0
  H  H7  1  0.72271000  0.99989000  0.48820000  1.0
  C  C8  1  0.25990000  0.83546000  0.70973000  1.0
  C  C9  1  0.90488000  0.83520000  0.29041000  1.0
  C  C10  1  0.74010000  0.16454000  0.29027000  1.0
  C  C11  1  0.09512000  0.16480000  0.70959000  1.0
  C  C12  1  0.21593000  0.00012000  0.63118000  1.0
  C  C13  1  0.78407000  0.99988000  0.36882000  1.0
  C  C14  1  0.05259000  0.00005000  0.92232000  1.0
  C  C15  1  0.94741000  0.99995000  0.07768000  1.0
  N  N16  1  0.17900000  0.83473000  0.85724000  1.0
  N  N17  1  0.98653000  0.83458000  0.14287000  1.0
  N  N18  1  0.82100000  0.16527000  0.14276000  1.0
  N  N19  1  0.01347000  0.16542000  0.85713000  1.0
  N  N20  1  0.49893000  0.42924000  0.87425000  1.0
  N  N21  1  0.07175000  0.42920000  0.12574000  1.0
  N  N22  1  0.50106000  0.57076000  0.12575000  1.0
  N  N23  1  0.92825000  0.57080000  0.87426000  1.0
  N  N24  1  0.51494000  0.36286000  0.75319000  1.0
  N  N25  1  0.12221000  0.36279000  0.24677000  1.0
  N  N26  1  0.48506000  0.63714000  0.24682000  1.0
  N  N27  1  0.87779000  0.63721000  0.75323000  1.0
  N  N28  1  0.53599000  0.29572000  0.63713000  1.0
  N  N29  1  0.16838000  0.29561000  0.36281000  1.0
  N  N30  1  0.46400000  0.70429000  0.36285000  1.0
  N  N31  1  0.83161000  0.70439000  0.63720000  1.0
