# generated using pymatgen
data_ZnH18C17NO6
_symmetry_space_group_name_H-M   'P 1'
_cell_length_a   10.57100000
_cell_length_b   11.86280000
_cell_length_c   15.89710000
_cell_angle_alpha   89.87320000
_cell_angle_beta   91.78450000
_cell_angle_gamma   89.85880000
_symmetry_Int_Tables_number   1
_chemical_formula_structural   ZnH18C17NO6
_chemical_formula_sum   'Zn2 H36 C34 N2 O12'
_cell_volume   1992.54461437
_cell_formula_units_Z   2
loop_
 _symmetry_equiv_pos_site_id
 _symmetry_equiv_pos_as_xyz
  1  'x, y, z'
loop_
 _atom_site_type_symbol
 _atom_site_label
 _atom_site_symmetry_multiplicity
 _atom_site_fract_x
 _atom_site_fract_y
 _atom_site_fract_z
 _atom_site_occupancy
  Zn  Zn0  1  0.37165000  0.50185000  0.50433000  1.0
  Zn  Zn1  1  0.62767000  0.50103000  0.49631000  1.0
  H  H2  1  0.36435000  0.63151000  0.04672000  1.0
  H  H3  1  0.51698000  0.67233000  0.08607000  1.0
  H  H4  1  0.45339000  0.67028000  0.91524000  1.0
  H  H5  1  0.61126000  0.64877000  0.95444000  1.0
  H  H6  1  0.38222000  0.35606000  0.90422000  1.0
  H  H7  1  0.59536000  0.33403000  0.95563000  1.0
  H  H8  1  0.42252000  0.32335000  0.04485000  1.0
  H  H9  1  0.64223000  0.37184000  0.09513000  1.0
  H  H10  1  0.89301000  0.56314000  0.11381000  1.0
  H  H11  1  0.85911000  0.42107000  0.08704000  1.0
  H  H12  1  0.77548000  0.54289000  0.24720000  1.0
  H  H13  1  0.73561000  0.40351000  0.22190000  1.0
  H  H14  1  0.96766000  0.34877000  0.22470000  1.0
  H  H15  1  0.92011000  0.40248000  0.32236000  1.0
  H  H16  1  0.00904000  0.48850000  0.25374000  1.0
  H  H17  1  0.16722000  0.37887000  0.16912000  1.0
  H  H18  1  0.31570000  0.31065000  0.16390000  1.0
  H  H19  1  0.08224000  0.26543000  0.04900000  1.0
  H  H20  1  0.23050000  0.19896000  0.03782000  1.0
  H  H21  1  0.21583000  0.11231000  0.18249000  1.0
  H  H22  1  0.08252000  0.07470000  0.11798000  1.0
  H  H23  1  0.06841000  0.18037000  0.19588000  1.0
  H  H24  1  0.84898000  0.39869000  0.83272000  1.0
  H  H25  1  0.69932000  0.33210000  0.83261000  1.0
  H  H26  1  0.92916000  0.28131000  0.94971000  1.0
  H  H27  1  0.77767000  0.22467000  0.96640000  1.0
  H  H28  1  0.77709000  0.12625000  0.82759000  1.0
  H  H29  1  0.91615000  0.08881000  0.88683000  1.0
  H  H30  1  0.92399000  0.18797000  0.80349000  1.0
  H  H31  1  0.10156000  0.50730000  0.87392000  1.0
  H  H32  1  0.16094000  0.37198000  0.90258000  1.0
  H  H33  1  0.23366000  0.50804000  0.74602000  1.0
  H  H34  1  0.29918000  0.37695000  0.77386000  1.0
  H  H35  1  0.08382000  0.28527000  0.76021000  1.0
  H  H36  1  0.12961000  0.34863000  0.66519000  1.0
  H  H37  1  0.01618000  0.41637000  0.72894000  1.0
  C  C38  1  0.49184000  0.28262000  0.50707000  1.0
  C  C39  1  0.53520000  0.50542000  0.75212000  1.0
  C  C40  1  0.47024000  0.49043000  0.24803000  1.0
  C  C41  1  0.48527000  0.49115000  0.08132000  1.0
  C  C42  1  0.51492000  0.49529000  0.91827000  1.0
  C  C43  1  0.51417000  0.61632000  0.95535000  1.0
  C  C44  1  0.46588000  0.61208000  0.04557000  1.0
  C  C45  1  0.52969000  0.49983000  0.82825000  1.0
  C  C46  1  0.47239000  0.48999000  0.17161000  1.0
  C  C47  1  0.47764000  0.49249000  0.33843000  1.0
  C  C48  1  0.53101000  0.50796000  0.66175000  1.0
  C  C49  1  0.49147000  0.05807000  0.50342000  1.0
  C  C50  1  0.49099000  0.16112000  0.50621000  1.0
  C  C51  1  0.93519000  0.50183000  0.49604000  1.0
  C  C52  1  0.06427000  0.50376000  0.50421000  1.0
  C  C53  1  0.49587000  0.72000000  0.49514000  1.0
  C  C54  1  0.38862000  0.41083000  0.03526000  1.0
  C  C55  1  0.62066000  0.45010000  0.05978000  1.0
  C  C56  1  0.38761000  0.43679000  0.93852000  1.0
  C  C57  1  0.62094000  0.42375000  0.96387000  1.0
  C  C58  1  0.49261000  0.94453000  0.50009000  1.0
  C  C59  1  0.49423000  0.84151000  0.49693000  1.0
  C  C60  1  0.82425000  0.49477000  0.12187000  1.0
  C  C61  1  0.80991000  0.46744000  0.21491000  1.0
  C  C62  1  0.93347000  0.42499000  0.25613000  1.0
  C  C63  1  0.23152000  0.33699000  0.12598000  1.0
  C  C64  1  0.16717000  0.23567000  0.08439000  1.0
  C  C65  1  0.13158000  0.14585000  0.14857000  1.0
  C  C66  1  0.78076000  0.35732000  0.87341000  1.0
  C  C67  1  0.84069000  0.25484000  0.91718000  1.0
  C  C68  1  0.86596000  0.15923000  0.85554000  1.0
  C  C69  1  0.18369000  0.45075000  0.86905000  1.0
  C  C70  1  0.21219000  0.42776000  0.77713000  1.0
  C  C71  1  0.10434000  0.36665000  0.73035000  1.0
  N  N72  1  0.82552000  0.50015000  0.48901000  1.0
  N  N73  1  0.17392000  0.50535000  0.51137000  1.0
  O  O74  1  0.38871000  0.33137000  0.52561000  1.0
  O  O75  1  0.59574000  0.32948000  0.48862000  1.0
  O  O76  1  0.37648000  0.47358000  0.37807000  1.0
  O  O77  1  0.58691000  0.51325000  0.37152000  1.0
  O  O78  1  0.42305000  0.52926000  0.62674000  1.0
  O  O79  1  0.63360000  0.48798000  0.62387000  1.0
  O  O80  1  0.38933000  0.67171000  0.48266000  1.0
  O  O81  1  0.60351000  0.67294000  0.50666000  1.0
  O  O82  1  0.70839000  0.53532000  0.08311000  1.0
  O  O83  1  0.26482000  0.42136000  0.06545000  1.0
  O  O84  1  0.74283000  0.44212000  0.93219000  1.0
  O  O85  1  0.28598000  0.50771000  0.91251000  1.0
