# generated using pymatgen
data_AgH10C8SN2O3
_symmetry_space_group_name_H-M   'P 1'
_cell_length_a   7.12116000
_cell_length_b   9.33889000
_cell_length_c   15.81500000
_cell_angle_alpha   90.00010000
_cell_angle_beta   90.00000000
_cell_angle_gamma   104.64400000
_symmetry_Int_Tables_number   1
_chemical_formula_structural   AgH10C8SN2O3
_chemical_formula_sum   'Ag4 H40 C32 S4 N8 O12'
_cell_volume   1017.59050485
_cell_formula_units_Z   4
loop_
 _symmetry_equiv_pos_site_id
 _symmetry_equiv_pos_as_xyz
  1  'x, y, z'
loop_
 _atom_site_type_symbol
 _atom_site_label
 _atom_site_symmetry_multiplicity
 _atom_site_fract_x
 _atom_site_fract_y
 _atom_site_fract_z
 _atom_site_occupancy
  Ag  Ag0  1  0.29565000  0.00010000  0.02378000  1.0
  Ag  Ag1  1  0.70435000  0.49990000  0.52378000  1.0
  Ag  Ag2  1  0.70435000  0.99990000  0.97622000  1.0
  Ag  Ag3  1  0.29565000  0.50010000  0.47622000  1.0
  H  H4  1  0.17007000  0.03225000  0.20779000  1.0
  H  H5  1  0.82994000  0.46775000  0.70779000  1.0
  H  H6  1  0.82994000  0.96775000  0.79221000  1.0
  H  H7  1  0.17006000  0.53225000  0.29221000  1.0
  H  H8  1  0.28025000  0.99624000  0.35421000  1.0
  H  H9  1  0.71976000  0.50376000  0.85421000  1.0
  H  H10  1  0.71975000  0.00375000  0.64579000  1.0
  H  H11  1  0.28025000  0.49624000  0.14579000  1.0
  H  H12  1  0.54456000  0.85974000  0.37349000  1.0
  H  H13  1  0.45544000  0.64026000  0.87349000  1.0
  H  H14  1  0.45544000  0.14026000  0.62651000  1.0
  H  H15  1  0.54457000  0.35974000  0.12651000  1.0
  H  H16  1  0.68317000  0.76957000  0.24830000  1.0
  H  H17  1  0.31683000  0.73043000  0.74830000  1.0
  H  H18  1  0.31683000  0.23043000  0.75169000  1.0
  H  H19  1  0.68317000  0.26957000  0.25170000  1.0
  H  H20  1  0.72773000  0.63203000  0.15085000  1.0
  H  H21  1  0.27228000  0.86797000  0.65085000  1.0
  H  H22  1  0.27228000  0.36797000  0.84915000  1.0
  H  H23  1  0.72773000  0.13203000  0.34916000  1.0
  H  H24  1  0.89121000  0.79592000  0.11069000  1.0
  H  H25  1  0.10879000  0.70408000  0.61069000  1.0
  H  H26  1  0.10879000  0.20408000  0.88931000  1.0
  H  H27  1  0.89121000  0.29592000  0.38931000  1.0
  H  H28  1  0.67988000  0.52430000  0.00524000  1.0
  H  H29  1  0.32011000  0.97570000  0.50525000  1.0
  H  H30  1  0.32011000  0.47570000  0.99476000  1.0
  H  H31  1  0.67988000  0.02430000  0.49476000  1.0
  H  H32  1  0.84015000  0.68561000  0.96375000  1.0
  H  H33  1  0.15985000  0.81439000  0.46376000  1.0
  H  H34  1  0.15985000  0.31439000  0.03624000  1.0
  H  H35  1  0.84015000  0.18561000  0.53625000  1.0
  H  H36  1  0.11129000  0.63641000  0.04983000  1.0
  H  H37  1  0.88871000  0.86359000  0.54984000  1.0
  H  H38  1  0.88871000  0.36359000  0.95017000  1.0
  H  H39  1  0.11129000  0.13641000  0.45017000  1.0
  H  H40  1  0.94993000  0.47753000  0.09436000  1.0
  H  H41  1  0.05007000  0.02246000  0.59437000  1.0
  H  H42  1  0.05007000  0.52247000  0.90564000  1.0
  H  H43  1  0.94993000  0.97753000  0.40564000  1.0
  C  C44  1  0.28152000  0.97312000  0.21940000  1.0
  C  C45  1  0.71848000  0.52689000  0.71940000  1.0
  C  C46  1  0.71848000  0.02688000  0.78060000  1.0
  C  C47  1  0.28152000  0.47311000  0.28060000  1.0
  C  C48  1  0.34452000  0.95291000  0.30075000  1.0
  C  C49  1  0.65549000  0.54709000  0.80075000  1.0
  C  C50  1  0.65549000  0.04709000  0.69925000  1.0
  C  C51  1  0.34451000  0.45291000  0.19925000  1.0
  C  C52  1  0.49009000  0.87905000  0.31121000  1.0
  C  C53  1  0.50991000  0.62095000  0.81121000  1.0
  C  C54  1  0.50992000  0.12095000  0.68879000  1.0
  C  C55  1  0.49009000  0.37905000  0.18879000  1.0
  C  C56  1  0.56834000  0.82630000  0.24049000  1.0
  C  C57  1  0.43166000  0.67370000  0.74049000  1.0
  C  C58  1  0.43167000  0.17370000  0.75951000  1.0
  C  C59  1  0.56834000  0.32630000  0.25951000  1.0
  C  C60  1  0.49462000  0.84865000  0.16122000  1.0
  C  C61  1  0.50538000  0.65135000  0.66122000  1.0
  C  C62  1  0.50539000  0.15136000  0.83877000  1.0
  C  C63  1  0.49461000  0.34864000  0.33878000  1.0
  C  C64  1  0.76764000  0.70291000  0.09500000  1.0
  C  C65  1  0.23236000  0.79708000  0.59500000  1.0
  C  C66  1  0.23237000  0.29709000  0.90500000  1.0
  C  C67  1  0.76764000  0.20291000  0.40500000  1.0
  C  C68  1  0.80975000  0.61384000  0.01986000  1.0
  C  C69  1  0.19025000  0.88616000  0.51986000  1.0
  C  C70  1  0.19025000  0.38616000  0.98014000  1.0
  C  C71  1  0.80975000  0.11384000  0.48014000  1.0
  C  C72  1  0.98044000  0.54669000  0.03707000  1.0
  C  C73  1  0.01956000  0.95331000  0.53707000  1.0
  C  C74  1  0.01956000  0.45331000  0.96293000  1.0
  C  C75  1  0.98043000  0.04669000  0.46293000  1.0
  S  S76  1  0.56294000  0.77609000  0.06616000  1.0
  S  S77  1  0.43706000  0.72391000  0.56616000  1.0
  S  S78  1  0.43706000  0.22391000  0.93384000  1.0
  S  S79  1  0.56294000  0.27609000  0.43384000  1.0
  N  N80  1  0.35523000  0.92215000  0.15062000  1.0
  N  N81  1  0.64478000  0.57785000  0.65063000  1.0
  N  N82  1  0.64478000  0.07786000  0.84937000  1.0
  N  N83  1  0.35522000  0.42214000  0.34938000  1.0
  N  N84  1  0.10802000  0.85549000  0.86656000  1.0
  N  N85  1  0.89198000  0.64451000  0.36656000  1.0
  N  N86  1  0.89198000  0.14451000  0.13344000  1.0
  N  N87  1  0.10802000  0.35549000  0.63344000  1.0
  O  O88  1  0.03240000  0.94171000  0.91151000  1.0
  O  O89  1  0.96761000  0.55829000  0.41151000  1.0
  O  O90  1  0.96761000  0.05829000  0.08849000  1.0
  O  O91  1  0.03240000  0.44172000  0.58849000  1.0
  O  O92  1  0.24935000  0.81294000  0.89777000  1.0
  O  O93  1  0.75065000  0.68706000  0.39777000  1.0
  O  O94  1  0.75064000  0.18706000  0.10222000  1.0
  O  O95  1  0.24935000  0.31293000  0.60223000  1.0
  O  O96  1  0.04314000  0.81575000  0.79431000  1.0
  O  O97  1  0.95686000  0.68426000  0.29431000  1.0
  O  O98  1  0.95685000  0.18426000  0.20569000  1.0
  O  O99  1  0.04314000  0.31574000  0.70569000  1.0
