# generated using pymatgen
data_HgH26C32N4(ClO2)2
_symmetry_space_group_name_H-M   'P 1'
_cell_length_a   5.13571000
_cell_length_b   21.61930000
_cell_length_c   29.31550000
_cell_angle_alpha   90.00000000
_cell_angle_beta   90.00000000
_cell_angle_gamma   89.99990000
_symmetry_Int_Tables_number   1
_chemical_formula_structural   HgH26C32N4(ClO2)2
_chemical_formula_sum   'Hg4 H104 C128 N16 Cl8 O16'
_cell_volume   3254.91330950
_cell_formula_units_Z   4
loop_
 _symmetry_equiv_pos_site_id
 _symmetry_equiv_pos_as_xyz
  1  'x, y, z'
loop_
 _atom_site_type_symbol
 _atom_site_label
 _atom_site_symmetry_multiplicity
 _atom_site_fract_x
 _atom_site_fract_y
 _atom_site_fract_z
 _atom_site_occupancy
  Hg  Hg0  1  0.53336000  0.24236000  0.87822000  1.0
  Hg  Hg1  1  0.53336000  0.75765000  0.12178000  1.0
  Hg  Hg2  1  0.46664000  0.25765000  0.37822000  1.0
  Hg  Hg3  1  0.46663000  0.74235000  0.62178000  1.0
  H  H4  1  0.20495000  0.33685000  0.94384000  1.0
  H  H5  1  0.20495000  0.66315000  0.05616000  1.0
  H  H6  1  0.79505000  0.16316000  0.44384000  1.0
  H  H7  1  0.79504000  0.83685000  0.55617000  1.0
  H  H8  1  0.84459000  0.34117000  0.00213000  1.0
  H  H9  1  0.84459000  0.65883000  0.99787000  1.0
  H  H10  1  0.15541000  0.15883000  0.50213000  1.0
  H  H11  1  0.15541000  0.84118000  0.49787000  1.0
  H  H12  1  0.82433000  0.14108000  0.99802000  1.0
  H  H13  1  0.82432000  0.85892000  0.00198000  1.0
  H  H14  1  0.17567000  0.35892000  0.49802000  1.0
  H  H15  1  0.17567000  0.64108000  0.50198000  1.0
  H  H16  1  0.18822000  0.14549000  0.94062000  1.0
  H  H17  1  0.18822000  0.85451000  0.05938000  1.0
  H  H18  1  0.81178000  0.35451000  0.44062000  1.0
  H  H19  1  0.81178000  0.64549000  0.55938000  1.0
  H  H20  1  0.33296000  0.47148000  0.13302000  1.0
  H  H21  1  0.33296000  0.52852000  0.86698000  1.0
  H  H22  1  0.66704000  0.02852000  0.63302000  1.0
  H  H23  1  0.66704000  0.97148000  0.36698000  1.0
  H  H24  1  0.05877000  0.45845000  0.22516000  1.0
  H  H25  1  0.05877000  0.54155000  0.77484000  1.0
  H  H26  1  0.94123000  0.04155000  0.72516000  1.0
  H  H27  1  0.94123000  0.95845000  0.27484000  1.0
  H  H28  1  0.39199000  0.44416000  0.21288000  1.0
  H  H29  1  0.39199000  0.55584000  0.78712000  1.0
  H  H30  1  0.60801000  0.05584000  0.71288000  1.0
  H  H31  1  0.60801000  0.94416000  0.28712000  1.0
  H  H32  1  0.43389000  0.56010000  0.19148000  1.0
  H  H33  1  0.43389000  0.43990000  0.80852000  1.0
  H  H34  1  0.56611000  0.93990000  0.69148000  1.0
  H  H35  1  0.56611000  0.06010000  0.30852000  1.0
  H  H36  1  0.36035000  0.54618000  0.24991000  1.0
  H  H37  1  0.36035000  0.45382000  0.75009000  1.0
  H  H38  1  0.63965000  0.95382000  0.74991000  1.0
  H  H39  1  0.63965000  0.04618000  0.25009000  1.0
  H  H40  1  0.11140000  0.56981000  0.21204000  1.0
  H  H41  1  0.11141000  0.43019000  0.78796000  1.0
  H  H42  1  0.88859000  0.93019000  0.71204000  1.0
  H  H43  1  0.88860000  0.06981000  0.28796000  1.0
  H  H44  1  0.88306000  0.48853000  0.10070000  1.0
  H  H45  1  0.88306000  0.51147000  0.89930000  1.0
  H  H46  1  0.11694000  0.01147000  0.60070000  1.0
  H  H47  1  0.11694000  0.98853000  0.39930000  1.0
  H  H48  1  0.99158000  0.55103000  0.13499000  1.0
  H  H49  1  0.99158000  0.44897000  0.86501000  1.0
  H  H50  1  0.00842000  0.94897000  0.63499000  1.0
  H  H51  1  0.00841000  0.05103000  0.36501000  1.0
  H  H52  1  0.76119000  0.49751000  0.15718000  1.0
  H  H53  1  0.76119000  0.50249000  0.84282000  1.0
  H  H54  1  0.23881000  0.00249000  0.65718000  1.0
  H  H55  1  0.23881000  0.99751000  0.34282000  1.0
  H  H56  1  0.71279000  0.01173000  0.13038000  1.0
  H  H57  1  0.71279000  0.98827000  0.86962000  1.0
  H  H58  1  0.28721000  0.48827000  0.63038000  1.0
  H  H59  1  0.28721000  0.51173000  0.36962000  1.0
  H  H60  1  0.08054000  0.93542000  0.11992000  1.0
  H  H61  1  0.08054000  0.06459000  0.88008000  1.0
  H  H62  1  0.91946000  0.56458000  0.61992000  1.0
  H  H63  1  0.91946000  0.43541000  0.38008000  1.0
  H  H64  1  0.29478000  0.99790000  0.11118000  1.0
  H  H65  1  0.29478000  0.00210000  0.88882000  1.0
  H  H66  1  0.70522000  0.50210000  0.61118000  1.0
  H  H67  1  0.70522000  0.49790000  0.38882000  1.0
  H  H68  1  0.17950000  0.03824000  0.19085000  1.0
  H  H69  1  0.17950000  0.96176000  0.80915000  1.0
  H  H70  1  0.82050000  0.46176000  0.69085000  1.0
  H  H71  1  0.82050000  0.53824000  0.30915000  1.0
  H  H72  1  0.31300000  0.96291000  0.19264000  1.0
  H  H73  1  0.31300000  0.03709000  0.80736000  1.0
  H  H74  1  0.68700000  0.53709000  0.69264000  1.0
  H  H75  1  0.68700000  0.46291000  0.30736000  1.0
  H  H76  1  0.97054000  0.97324000  0.19802000  1.0
  H  H77  1  0.97053000  0.02676000  0.80198000  1.0
  H  H78  1  0.02946000  0.52676000  0.69802000  1.0
  H  H79  1  0.02946000  0.47324000  0.30198000  1.0
  H  H80  1  0.66705000  0.03443000  0.04686000  1.0
  H  H81  1  0.66706000  0.96557000  0.95314000  1.0
  H  H82  1  0.33294000  0.46557000  0.54686000  1.0
  H  H83  1  0.33295000  0.53443000  0.45314000  1.0
  H  H84  1  0.77161000  0.95735000  0.05740000  1.0
  H  H85  1  0.77161000  0.04265000  0.94260000  1.0
  H  H86  1  0.22839000  0.54265000  0.55740000  1.0
  H  H87  1  0.22840000  0.45735000  0.44260000  1.0
  H  H88  1  0.00105000  0.01370000  0.03840000  1.0
  H  H89  1  0.00105000  0.98630000  0.96160000  1.0
  H  H90  1  0.99895000  0.48630000  0.53840000  1.0
  H  H91  1  0.99895000  0.51370000  0.46160000  1.0
  H  H92  1  0.20964000  0.35003000  0.25904000  1.0
  H  H93  1  0.20964000  0.64997000  0.74096000  1.0
  H  H94  1  0.79037000  0.14997000  0.75904000  1.0
  H  H95  1  0.79036000  0.85003000  0.24096000  1.0
  H  H96  1  0.83927000  0.35132000  0.31498000  1.0
  H  H97  1  0.83927000  0.64868000  0.68501000  1.0
  H  H98  1  0.16074000  0.14868000  0.81498000  1.0
  H  H99  1  0.16073000  0.85132000  0.18502000  1.0
  H  H100  1  0.79738000  0.16031000  0.31699000  1.0
  H  H101  1  0.79737000  0.83969000  0.68301000  1.0
  H  H102  1  0.20262000  0.33969000  0.81699000  1.0
  H  H103  1  0.20262000  0.66031000  0.18301000  1.0
  H  H104  1  0.16059000  0.15019000  0.25973000  1.0
  H  H105  1  0.16058000  0.84981000  0.74027000  1.0
  H  H106  1  0.83941000  0.34981000  0.75973000  1.0
  H  H107  1  0.83941000  0.65019000  0.24027000  1.0
  C  C108  1  0.11538000  0.29482000  0.95730000  1.0
  C  C109  1  0.11538000  0.70518000  0.04270000  1.0
  C  C110  1  0.88462000  0.20518000  0.45730000  1.0
  C  C111  1  0.88462000  0.79482000  0.54270000  1.0
  C  C112  1  0.91703000  0.29712000  0.98939000  1.0
  C  C113  1  0.91703000  0.70288000  0.01061000  1.0
  C  C114  1  0.08298000  0.20288000  0.48939000  1.0
  C  C115  1  0.08297000  0.79712000  0.51061000  1.0
  C  C116  1  0.80767000  0.24112000  0.00480000  1.0
  C  C117  1  0.80767000  0.75888000  0.99520000  1.0
  C  C118  1  0.19233000  0.25888000  0.50480000  1.0
  C  C119  1  0.19233000  0.74112000  0.49520000  1.0
  C  C120  1  0.90546000  0.18518000  0.98711000  1.0
  C  C121  1  0.90545000  0.81482000  0.01289000  1.0
  C  C122  1  0.09455000  0.31482000  0.48711000  1.0
  C  C123  1  0.09454000  0.68518000  0.51289000  1.0
  C  C124  1  0.10557000  0.18753000  0.95535000  1.0
  C  C125  1  0.10558000  0.81247000  0.04465000  1.0
  C  C126  1  0.89443000  0.31247000  0.45535000  1.0
  C  C127  1  0.89442000  0.68753000  0.54465000  1.0
  C  C128  1  0.60473000  0.24109000  0.03714000  1.0
  C  C129  1  0.60473000  0.75891000  0.96285000  1.0
  C  C130  1  0.39527000  0.25891000  0.53714000  1.0
  C  C131  1  0.39527000  0.74109000  0.46286000  1.0
  C  C132  1  0.42990000  0.24093000  0.06519000  1.0
  C  C133  1  0.42990000  0.75907000  0.93481000  1.0
  C  C134  1  0.57010000  0.25907000  0.56519000  1.0
  C  C135  1  0.57010000  0.74093000  0.43481000  1.0
  C  C136  1  0.22626000  0.24162000  0.09714000  1.0
  C  C137  1  0.22626000  0.75838000  0.90286000  1.0
  C  C138  1  0.77374000  0.25838000  0.59714000  1.0
  C  C139  1  0.77374000  0.74161000  0.40286000  1.0
  C  C140  1  0.14245000  0.29616000  0.11909000  1.0
  C  C141  1  0.14246000  0.70385000  0.88091000  1.0
  C  C142  1  0.85755000  0.20385000  0.61909000  1.0
  C  C143  1  0.85755000  0.79615000  0.38091000  1.0
  C  C144  1  0.93696000  0.29728000  0.15000000  1.0
  C  C145  1  0.93696000  0.70272000  0.85000000  1.0
  C  C146  1  0.06304000  0.20272000  0.65000000  1.0
  C  C147  1  0.06304000  0.79728000  0.35000000  1.0
  C  C148  1  0.79652000  0.24381000  0.16263000  1.0
  C  C149  1  0.79651000  0.75619000  0.83737000  1.0
  C  C150  1  0.20349000  0.25619000  0.66263000  1.0
  C  C151  1  0.20348000  0.74381000  0.33737000  1.0
  C  C152  1  0.88204000  0.18917000  0.14095000  1.0
  C  C153  1  0.88204000  0.81083000  0.85905000  1.0
  C  C154  1  0.11796000  0.31083000  0.64095000  1.0
  C  C155  1  0.11796000  0.68917000  0.35905000  1.0
  C  C156  1  0.08713000  0.18813000  0.10993000  1.0
  C  C157  1  0.08713000  0.81187000  0.89007000  1.0
  C  C158  1  0.91288000  0.31187000  0.60993000  1.0
  C  C159  1  0.91287000  0.68813000  0.39007000  1.0
  C  C160  1  0.25401000  0.35994000  0.11630000  1.0
  C  C161  1  0.25401000  0.64006000  0.88370000  1.0
  C  C162  1  0.74599000  0.14006000  0.61630000  1.0
  C  C163  1  0.74599000  0.85994000  0.38370000  1.0
  C  C164  1  0.90780000  0.36211000  0.16709000  1.0
  C  C165  1  0.90780000  0.63789000  0.83291000  1.0
  C  C166  1  0.09220000  0.13789000  0.66709000  1.0
  C  C167  1  0.09220000  0.86211000  0.33291000  1.0
  C  C168  1  0.15827000  0.46258000  0.15376000  1.0
  C  C169  1  0.15827000  0.53742000  0.84624000  1.0
  C  C170  1  0.84173000  0.03742000  0.65376000  1.0
  C  C171  1  0.84173000  0.96258000  0.34624000  1.0
  C  C172  1  0.22459000  0.47359000  0.20426000  1.0
  C  C173  1  0.22459000  0.52641000  0.79574000  1.0
  C  C174  1  0.77541000  0.02641000  0.70426000  1.0
  C  C175  1  0.77541000  0.97359000  0.29574000  1.0
  C  C176  1  0.28687000  0.54108000  0.21493000  1.0
  C  C177  1  0.28687000  0.45892000  0.78507000  1.0
  C  C178  1  0.71313000  0.95892000  0.71493000  1.0
  C  C179  1  0.71313000  0.04108000  0.28507000  1.0
  C  C180  1  0.93465000  0.50216000  0.13564000  1.0
  C  C181  1  0.93465000  0.49784000  0.86436000  1.0
  C  C182  1  0.06535000  0.99784000  0.63564000  1.0
  C  C183  1  0.06535000  0.00216000  0.36436000  1.0
  C  C184  1  0.12191000  0.12301000  0.09376000  1.0
  C  C185  1  0.12191000  0.87699000  0.90624000  1.0
  C  C186  1  0.87809000  0.37699000  0.59376000  1.0
  C  C187  1  0.87809000  0.62301000  0.40624000  1.0
  C  C188  1  0.77744000  0.12487000  0.14491000  1.0
  C  C189  1  0.77744000  0.87513000  0.85509000  1.0
  C  C190  1  0.22256000  0.37513000  0.64491000  1.0
  C  C191  1  0.22256000  0.62487000  0.35509000  1.0
  C  C192  1  0.88676000  0.02132000  0.10965000  1.0
  C  C193  1  0.88676000  0.97868000  0.89035000  1.0
  C  C194  1  0.11324000  0.47868000  0.60965000  1.0
  C  C195  1  0.11324000  0.52132000  0.39035000  1.0
  C  C196  1  0.11557000  0.98406000  0.12891000  1.0
  C  C197  1  0.11557000  0.01594000  0.87109000  1.0
  C  C198  1  0.88443000  0.51594000  0.62891000  1.0
  C  C199  1  0.88443000  0.48406000  0.37109000  1.0
  C  C200  1  0.14598000  0.99006000  0.18046000  1.0
  C  C201  1  0.14598000  0.00994000  0.81954000  1.0
  C  C202  1  0.85402000  0.50994000  0.68046000  1.0
  C  C203  1  0.85402000  0.49006000  0.31954000  1.0
  C  C204  1  0.82870000  0.00619000  0.05977000  1.0
  C  C205  1  0.82871000  0.99381000  0.94023000  1.0
  C  C206  1  0.17129000  0.49381000  0.55977000  1.0
  C  C207  1  0.17130000  0.50619000  0.44023000  1.0
  C  C208  1  0.59193000  0.24500000  0.19445000  1.0
  C  C209  1  0.59193000  0.75500000  0.80555000  1.0
  C  C210  1  0.40807000  0.25500000  0.69445000  1.0
  C  C211  1  0.40806000  0.74500000  0.30555000  1.0
  C  C212  1  0.41634000  0.24676000  0.22236000  1.0
  C  C213  1  0.41633000  0.75324000  0.77765000  1.0
  C  C214  1  0.58367000  0.25324000  0.72236000  1.0
  C  C215  1  0.58366000  0.74676000  0.27764000  1.0
  C  C216  1  0.21195000  0.24969000  0.25444000  1.0
  C  C217  1  0.21194000  0.75031000  0.74556000  1.0
  C  C218  1  0.78806000  0.25031000  0.75444000  1.0
  C  C219  1  0.78805000  0.74969000  0.24556000  1.0
  C  C220  1  0.12069000  0.30711000  0.27057000  1.0
  C  C221  1  0.12069000  0.69289000  0.72943000  1.0
  C  C222  1  0.87932000  0.19289000  0.77057000  1.0
  C  C223  1  0.87931000  0.80711000  0.22943000  1.0
  C  C224  1  0.91699000  0.30792000  0.30173000  1.0
  C  C225  1  0.91700000  0.69208000  0.69827000  1.0
  C  C226  1  0.08301000  0.19208000  0.80173000  1.0
  C  C227  1  0.08301000  0.80792000  0.19827000  1.0
  C  C228  1  0.89348000  0.20087000  0.30265000  1.0
  C  C229  1  0.89347000  0.79913000  0.69735000  1.0
  C  C230  1  0.10652000  0.29913000  0.80265000  1.0
  C  C231  1  0.10652000  0.70087000  0.19735000  1.0
  C  C232  1  0.09370000  0.19542000  0.27112000  1.0
  C  C233  1  0.09369000  0.80458000  0.72888000  1.0
  C  C234  1  0.90631000  0.30458000  0.77112000  1.0
  C  C235  1  0.90630000  0.69542000  0.22888000  1.0
  N  N236  1  0.20763000  0.24118000  0.94071000  1.0
  N  N237  1  0.20763000  0.75882000  0.05930000  1.0
  N  N238  1  0.79237000  0.25882000  0.44070000  1.0
  N  N239  1  0.79237000  0.74118000  0.55929000  1.0
  N  N240  1  0.10529000  0.39646000  0.14608000  1.0
  N  N241  1  0.10529000  0.60355000  0.85392000  1.0
  N  N242  1  0.89471000  0.10355000  0.64608000  1.0
  N  N243  1  0.89471000  0.89645000  0.35392000  1.0
  N  N244  1  0.92944000  0.08818000  0.11579000  1.0
  N  N245  1  0.92944000  0.91182000  0.88421000  1.0
  N  N246  1  0.07056000  0.41182000  0.61579000  1.0
  N  N247  1  0.07056000  0.58818000  0.38421000  1.0
  N  N248  1  0.80623000  0.25588000  0.31751000  1.0
  N  N249  1  0.80623000  0.74412000  0.68249000  1.0
  N  N250  1  0.19377000  0.24412000  0.81751000  1.0
  N  N251  1  0.19377000  0.75588000  0.18249000  1.0
  Cl  Cl252  1  0.62282000  0.35065000  0.88070000  1.0
  Cl  Cl253  1  0.62283000  0.64935000  0.11930000  1.0
  Cl  Cl254  1  0.37718000  0.14935000  0.38070000  1.0
  Cl  Cl255  1  0.37717000  0.85065000  0.61930000  1.0
  Cl  Cl256  1  0.61234000  0.13354000  0.87597000  1.0
  Cl  Cl257  1  0.61234000  0.86646000  0.12403000  1.0
  Cl  Cl258  1  0.38766000  0.36646000  0.37597000  1.0
  Cl  Cl259  1  0.38766000  0.63354000  0.62403000  1.0
  O  O260  1  0.43902000  0.37804000  0.09358000  1.0
  O  O261  1  0.43902000  0.62196000  0.90642000  1.0
  O  O262  1  0.56098000  0.12196000  0.59358000  1.0
  O  O263  1  0.56099000  0.87804000  0.40642000  1.0
  O  O264  1  0.74752000  0.38185000  0.19441000  1.0
  O  O265  1  0.74752000  0.61815000  0.80559000  1.0
  O  O266  1  0.25247000  0.11815000  0.69441000  1.0
  O  O267  1  0.25248000  0.88184000  0.30559000  1.0
  O  O268  1  0.28324000  0.10337000  0.06659000  1.0
  O  O269  1  0.28323000  0.89663000  0.93341000  1.0
  O  O270  1  0.71676000  0.39663000  0.56659000  1.0
  O  O271  1  0.71677000  0.60337000  0.43341000  1.0
  O  O272  1  0.59521000  0.10657000  0.16824000  1.0
  O  O273  1  0.59521000  0.89343000  0.83176000  1.0
  O  O274  1  0.40479000  0.39343000  0.66824000  1.0
  O  O275  1  0.40479000  0.60657000  0.33176000  1.0
