# generated using pymatgen
data_ZnH16C19N3O5
_symmetry_space_group_name_H-M   'P 1'
_cell_length_a   9.71926000
_cell_length_b   10.98790000
_cell_length_c   18.93830000
_cell_angle_alpha   89.85860000
_cell_angle_beta   90.06800000
_cell_angle_gamma   89.90200000
_symmetry_Int_Tables_number   1
_chemical_formula_structural   ZnH16C19N3O5
_chemical_formula_sum   'Zn2 H32 C38 N6 O10'
_cell_volume   2022.49112444
_cell_formula_units_Z   2
loop_
 _symmetry_equiv_pos_site_id
 _symmetry_equiv_pos_as_xyz
  1  'x, y, z'
loop_
 _atom_site_type_symbol
 _atom_site_label
 _atom_site_symmetry_multiplicity
 _atom_site_fract_x
 _atom_site_fract_y
 _atom_site_fract_z
 _atom_site_occupancy
  Zn  Zn0  1  0.36415000  0.51040000  0.49797000  1.0
  Zn  Zn1  1  0.64794000  0.50944000  0.49810000  1.0
  H  H2  1  0.29014000  0.43590000  0.71622000  1.0
  H  H3  1  0.29693000  0.14739000  0.61627000  1.0
  H  H4  1  0.18663000  0.13350000  0.54122000  1.0
  H  H5  1  0.29740000  0.91920000  0.63017000  1.0
  H  H6  1  0.18625000  0.90666000  0.55525000  1.0
  H  H7  1  0.87487000  0.42711000  0.40015000  1.0
  H  H8  1  0.13466000  0.42609000  0.39955000  1.0
  H  H9  1  0.14345000  0.57130000  0.65961000  1.0
  H  H10  1  0.13709000  0.71530000  0.61584000  1.0
  H  H11  1  0.88744000  0.55608000  0.66003000  1.0
  H  H12  1  0.27850000  0.38307000  0.84467000  1.0
  H  H13  1  0.30552000  0.31519000  0.16964000  1.0
  H  H14  1  0.31573000  0.38583000  0.29524000  1.0
  H  H15  1  0.67725000  0.51500000  0.12705000  1.0
  H  H16  1  0.67314000  0.88599000  0.42484000  1.0
  H  H17  1  0.92841000  0.17265000  0.40095000  1.0
  H  H18  1  0.84099000  0.19290000  0.48298000  1.0
  H  H19  1  0.88735000  0.04434000  0.45414000  1.0
  H  H20  1  0.72237000  0.06599000  0.35170000  1.0
  H  H21  1  0.67777000  0.21369000  0.38042000  1.0
  H  H22  1  0.82085000  0.92219000  0.58415000  1.0
  H  H23  1  0.98717000  0.86103000  0.56997000  1.0
  H  H24  1  0.84320000  0.80598000  0.52088000  1.0
  H  H25  1  0.73797000  0.72066000  0.63037000  1.0
  H  H26  1  0.87393000  0.77775000  0.68230000  1.0
  H  H27  1  0.73274000  0.34672000  0.90409000  1.0
  H  H28  1  0.82297000  0.39139000  0.75742000  1.0
  H  H29  1  0.58830000  0.74323000  0.31645000  1.0
  H  H30  1  0.74426000  0.80715000  0.28506000  1.0
  H  H31  1  0.60452000  0.78362000  0.22591000  1.0
  H  H32  1  0.77000000  0.58235000  0.30166000  1.0
  H  H33  1  0.79077000  0.62329000  0.21169000  1.0
  C  C34  1  0.50273000  0.74413000  0.50157000  1.0
  C  C35  1  0.51023000  0.43365000  0.71072000  1.0
  C  C36  1  0.49557000  0.36735000  0.06808000  1.0
  C  C37  1  0.49679000  0.34961000  0.93193000  1.0
  C  C38  1  0.38769000  0.37480000  0.18773000  1.0
  C  C39  1  0.39347000  0.41449000  0.25727000  1.0
  C  C40  1  0.50107000  0.48883000  0.28112000  1.0
  C  C41  1  0.60417000  0.52900000  0.23389000  1.0
  C  C42  1  0.59808000  0.48699000  0.16451000  1.0
  C  C43  1  0.49276000  0.40938000  0.14111000  1.0
  C  C44  1  0.40121000  0.95168000  0.52738000  1.0
  C  C45  1  0.50749000  0.46986000  0.63421000  1.0
  C  C46  1  0.49941000  0.87891000  0.49457000  1.0
  C  C47  1  0.59704000  0.94067000  0.45287000  1.0
  C  C48  1  0.60069000  0.06764000  0.44538000  1.0
  C  C49  1  0.50158000  0.13953000  0.48113000  1.0
  C  C50  1  0.40219000  0.07785000  0.52010000  1.0
  C  C51  1  0.27803000  0.09574000  0.56760000  1.0
  C  C52  1  0.27785000  0.95241000  0.57626000  1.0
  C  C53  1  0.93484000  0.56205000  0.54893000  1.0
  C  C54  1  0.93373000  0.46616000  0.44352000  1.0
  C  C55  1  0.07708000  0.46560000  0.44316000  1.0
  C  C56  1  0.50354000  0.27526000  0.48280000  1.0
  C  C57  1  0.07839000  0.56199000  0.54815000  1.0
  C  C58  1  0.09068000  0.62441000  0.61856000  1.0
  C  C59  1  0.92621000  0.62196000  0.62103000  1.0
  C  C60  1  0.50658000  0.51398000  0.35905000  1.0
  C  C61  1  0.38355000  0.42118000  0.74684000  1.0
  C  C62  1  0.37681000  0.39142000  0.81756000  1.0
  C  C63  1  0.49930000  0.37234000  0.85652000  1.0
  C  C64  1  0.62637000  0.38142000  0.82102000  1.0
  C  C65  1  0.63208000  0.41112000  0.74821000  1.0
  C  C66  1  0.71072000  0.12335000  0.39897000  1.0
  C  C67  1  0.85028000  0.13400000  0.43648000  1.0
  C  C68  1  0.84839000  0.74211000  0.62957000  1.0
  C  C69  1  0.87738000  0.83779000  0.57295000  1.0
  C  C70  1  0.71566000  0.61747000  0.25498000  1.0
  C  C71  1  0.65968000  0.74512000  0.27152000  1.0
  N  N72  1  0.61826000  0.34265000  0.96704000  1.0
  N  N73  1  0.61886000  0.35326000  0.03629000  1.0
  N  N74  1  0.37657000  0.33388000  0.03539000  1.0
  N  N75  1  0.37657000  0.32623000  0.96639000  1.0
  N  N76  1  0.85924000  0.51420000  0.49752000  1.0
  N  N77  1  0.15285000  0.51351000  0.49667000  1.0
  O  O78  1  0.39152000  0.69078000  0.51968000  1.0
  O  O79  1  0.61691000  0.69127000  0.48863000  1.0
  O  O80  1  0.39153000  0.46117000  0.60297000  1.0
  O  O81  1  0.61861000  0.50736000  0.60618000  1.0
  O  O82  1  0.38948000  0.32986000  0.47240000  1.0
  O  O83  1  0.61791000  0.32548000  0.49785000  1.0
  O  O84  1  0.39488000  0.54283000  0.38974000  1.0
  O  O85  1  0.62293000  0.49787000  0.38864000  1.0
  O  O86  1  0.75086000  0.36303000  0.85184000  1.0
  O  O87  1  0.75999000  0.41476000  0.71899000  1.0
