# generated using pymatgen
data_CdH9C9S2N3O
_symmetry_space_group_name_H-M   'P 1'
_cell_length_a   8.12297000
_cell_length_b   8.12299000
_cell_length_c   19.39720000
_cell_angle_alpha   92.91370000
_cell_angle_beta   92.91400000
_cell_angle_gamma   93.40520000
_symmetry_Int_Tables_number   1
_chemical_formula_structural   CdH9C9S2N3O
_chemical_formula_sum   'Cd4 H36 C36 S8 N12 O4'
_cell_volume   1274.10707766
_cell_formula_units_Z   4
loop_
 _symmetry_equiv_pos_site_id
 _symmetry_equiv_pos_as_xyz
  1  'x, y, z'
loop_
 _atom_site_type_symbol
 _atom_site_label
 _atom_site_symmetry_multiplicity
 _atom_site_fract_x
 _atom_site_fract_y
 _atom_site_fract_z
 _atom_site_occupancy
  Cd  Cd0  1  0.03228000  0.96771000  0.75000000  1.0
  Cd  Cd1  1  0.96772000  0.03229000  0.25000000  1.0
  Cd  Cd2  1  0.70081000  0.29918000  0.75000000  1.0
  Cd  Cd3  1  0.29919000  0.70081000  0.25000000  1.0
  H  H4  1  0.80655000  0.04344000  0.03470000  1.0
  H  H5  1  0.95656000  0.19345000  0.46530000  1.0
  H  H6  1  0.19345000  0.95656000  0.96530000  1.0
  H  H7  1  0.04344000  0.80655000  0.53470000  1.0
  H  H8  1  0.59527000  0.80246000  0.02718000  1.0
  H  H9  1  0.19754000  0.40473000  0.47282000  1.0
  H  H10  1  0.40473000  0.19754000  0.97282000  1.0
  H  H11  1  0.80246000  0.59528000  0.52719000  1.0
  H  H12  1  0.47717000  0.69847000  0.90991000  1.0
  H  H13  1  0.30153000  0.52283000  0.59009000  1.0
  H  H14  1  0.52283000  0.30153000  0.09009000  1.0
  H  H15  1  0.69847000  0.47718000  0.40991000  1.0
  H  H16  1  0.03651000  0.17834000  0.89802000  1.0
  H  H17  1  0.82166000  0.96349000  0.60198000  1.0
  H  H18  1  0.96349000  0.82167000  0.10198000  1.0
  H  H19  1  0.17834000  0.03651000  0.39802000  1.0
  H  H20  1  0.96940000  0.24307000  0.98115000  1.0
  H  H21  1  0.75693000  0.03059000  0.51885000  1.0
  H  H22  1  0.03059000  0.75693000  0.01885000  1.0
  H  H23  1  0.24308000  0.96941000  0.48115000  1.0
  H  H24  1  0.87530000  0.31250000  0.90323000  1.0
  H  H25  1  0.68751000  0.12470000  0.59677000  1.0
  H  H26  1  0.12469000  0.68750000  0.09677000  1.0
  H  H27  1  0.31249000  0.87530000  0.40323000  1.0
  H  H28  1  0.42021000  0.84070000  0.78203000  1.0
  H  H29  1  0.15929000  0.57979000  0.71797000  1.0
  H  H30  1  0.57979000  0.15930000  0.21797000  1.0
  H  H31  1  0.84070000  0.42021000  0.28203000  1.0
  H  H32  1  0.55403000  0.67716000  0.78109000  1.0
  H  H33  1  0.32283000  0.44598000  0.71891000  1.0
  H  H34  1  0.44597000  0.32283000  0.21891000  1.0
  H  H35  1  0.67717000  0.55403000  0.28109000  1.0
  H  H36  1  0.61569000  0.86833000  0.74522000  1.0
  H  H37  1  0.13167000  0.38430000  0.75478000  1.0
  H  H38  1  0.38430000  0.13167000  0.25478000  1.0
  H  H39  1  0.86833000  0.61569000  0.24522000  1.0
  C  C40  1  0.95042000  0.61042000  0.83052000  1.0
  C  C41  1  0.38958000  0.04957000  0.66948000  1.0
  C  C42  1  0.04958000  0.38958000  0.16948000  1.0
  C  C43  1  0.61043000  0.95042000  0.33052000  1.0
  C  C44  1  0.34585000  0.21569000  0.83281000  1.0
  C  C45  1  0.78430000  0.65414000  0.66719000  1.0
  C  C46  1  0.65414000  0.78430000  0.16719000  1.0
  C  C47  1  0.21570000  0.34587000  0.33281000  1.0
  C  C48  1  0.80618000  0.06379000  0.92588000  1.0
  C  C49  1  0.93622000  0.19382000  0.57412000  1.0
  C  C50  1  0.19382000  0.93621000  0.07412000  1.0
  C  C51  1  0.06379000  0.80618000  0.42588000  1.0
  C  C52  1  0.75351000  0.99193000  0.98503000  1.0
  C  C53  1  0.00807000  0.24650000  0.51497000  1.0
  C  C54  1  0.24649000  0.00806000  0.01497000  1.0
  C  C55  1  0.99194000  0.75351000  0.48503000  1.0
  C  C56  1  0.63637000  0.85899000  0.98070000  1.0
  C  C57  1  0.14101000  0.36363000  0.51930000  1.0
  C  C58  1  0.36363000  0.14100000  0.01930000  1.0
  C  C59  1  0.85900000  0.63638000  0.48070000  1.0
  C  C60  1  0.57055000  0.80099000  0.91600000  1.0
  C  C61  1  0.19901000  0.42945000  0.58401000  1.0
  C  C62  1  0.42945000  0.19901000  0.08400000  1.0
  C  C63  1  0.80099000  0.57055000  0.41600000  1.0
  C  C64  1  0.62231000  0.87170000  0.85616000  1.0
  C  C65  1  0.12829000  0.37769000  0.64384000  1.0
  C  C66  1  0.37769000  0.12829000  0.14384000  1.0
  C  C67  1  0.87171000  0.62231000  0.35617000  1.0
  C  C68  1  0.92886000  0.20715000  0.92746000  1.0
  C  C69  1  0.79285000  0.07114000  0.57254000  1.0
  C  C70  1  0.07114000  0.79285000  0.07254000  1.0
  C  C71  1  0.20715000  0.92886000  0.42746000  1.0
  C  C72  1  0.55082000  0.81207000  0.78672000  1.0
  C  C73  1  0.18793000  0.44919000  0.71328000  1.0
  C  C74  1  0.44918000  0.18793000  0.21328000  1.0
  C  C75  1  0.81207000  0.55081000  0.28672000  1.0
  S  S76  1  0.08722000  0.76064000  0.85323000  1.0
  S  S77  1  0.23935000  0.91277000  0.64677000  1.0
  S  S78  1  0.91277000  0.23935000  0.14677000  1.0
  S  S79  1  0.76065000  0.08723000  0.35323000  1.0
  S  S80  1  0.49839000  0.34915000  0.85648000  1.0
  S  S81  1  0.65084000  0.50161000  0.64351000  1.0
  S  S82  1  0.50161000  0.65084000  0.14352000  1.0
  S  S83  1  0.34916000  0.49839000  0.35649000  1.0
  N  N84  1  0.85293000  0.50009000  0.81387000  1.0
  N  N85  1  0.49990000  0.14706000  0.68613000  1.0
  N  N86  1  0.14706000  0.49991000  0.18613000  1.0
  N  N87  1  0.50010000  0.85294000  0.31387000  1.0
  N  N88  1  0.23345000  0.11984000  0.81675000  1.0
  N  N89  1  0.88015000  0.76655000  0.68325000  1.0
  N  N90  1  0.76655000  0.88015000  0.18325000  1.0
  N  N91  1  0.11985000  0.23345000  0.31675000  1.0
  N  N92  1  0.74100000  0.99978000  0.86261000  1.0
  N  N93  1  0.00022000  0.25900000  0.63739000  1.0
  N  N94  1  0.25900000  0.00022000  0.13739000  1.0
  N  N95  1  0.99978000  0.74100000  0.36261000  1.0
  O  O96  1  0.79835000  0.06542000  0.80564000  1.0
  O  O97  1  0.93458000  0.20165000  0.69436000  1.0
  O  O98  1  0.20165000  0.93458000  0.19436000  1.0
  O  O99  1  0.06542000  0.79835000  0.30564000  1.0
