# generated using pymatgen
data_HgH20C26(N3Cl)2
_symmetry_space_group_name_H-M   'P 1'
_cell_length_a   6.96404000
_cell_length_b   9.04939000
_cell_length_c   21.27400000
_cell_angle_alpha   91.80660000
_cell_angle_beta   90.00000000
_cell_angle_gamma   112.63000000
_symmetry_Int_Tables_number   1
_chemical_formula_structural   HgH20C26(N3Cl)2
_chemical_formula_sum   'Hg2 H40 C52 N12 Cl4'
_cell_volume   1236.75057556
_cell_formula_units_Z   2
loop_
 _symmetry_equiv_pos_site_id
 _symmetry_equiv_pos_as_xyz
  1  'x, y, z'
loop_
 _atom_site_type_symbol
 _atom_site_label
 _atom_site_symmetry_multiplicity
 _atom_site_fract_x
 _atom_site_fract_y
 _atom_site_fract_z
 _atom_site_occupancy
  Hg  Hg0  1  0.41777000  0.99997000  0.74997000  1.0
  Hg  Hg1  1  0.58223000  0.00003000  0.25003000  1.0
  H  H2  1  0.25292000  0.88519000  0.58623000  1.0
  H  H3  1  0.36821000  0.11513000  0.91377000  1.0
  H  H4  1  0.74708000  0.11481000  0.41377000  1.0
  H  H5  1  0.63179000  0.88486000  0.08623000  1.0
  H  H6  1  0.99478000  0.65125000  0.70775000  1.0
  H  H7  1  0.34406000  0.34900000  0.79244000  1.0
  H  H8  1  0.00522000  0.34874000  0.29225000  1.0
  H  H9  1  0.65595000  0.65102000  0.20756000  1.0
  H  H10  1  0.66900000  0.56417000  0.64504000  1.0
  H  H11  1  0.10532000  0.43596000  0.85515000  1.0
  H  H12  1  0.33100000  0.43583000  0.35496000  1.0
  H  H13  1  0.89469000  0.56404000  0.14485000  1.0
  H  H14  1  0.15341000  0.12640000  0.66459000  1.0
  H  H15  1  0.02748000  0.87376000  0.83545000  1.0
  H  H16  1  0.84658000  0.87359000  0.33541000  1.0
  H  H17  1  0.97252000  0.12625000  0.16455000  1.0
  H  H18  1  0.35198000  0.59209000  0.47655000  1.0
  H  H19  1  0.76017000  0.40817000  0.02346000  1.0
  H  H20  1  0.64801000  0.40791000  0.52345000  1.0
  H  H21  1  0.23982000  0.59183000  0.97654000  1.0
  H  H22  1  0.34747000  0.60675000  0.68008000  1.0
  H  H23  1  0.74078000  0.39295000  0.81994000  1.0
  H  H24  1  0.65253000  0.39325000  0.31992000  1.0
  H  H25  1  0.25923000  0.60705000  0.18006000  1.0
  H  H26  1  0.20733000  0.08967000  0.51842000  1.0
  H  H27  1  0.11770000  0.91075000  0.98152000  1.0
  H  H28  1  0.79267000  0.91033000  0.48158000  1.0
  H  H29  1  0.88230000  0.08925000  0.01847000  1.0
  H  H30  1  0.04203000  0.34609000  0.67362000  1.0
  H  H31  1  0.69539000  0.65339000  0.82626000  1.0
  H  H32  1  0.95798000  0.65391000  0.32638000  1.0
  H  H33  1  0.30462000  0.34662000  0.17374000  1.0
  H  H34  1  0.05575000  0.32699000  0.47924000  1.0
  H  H35  1  0.72829000  0.67303000  0.02064000  1.0
  H  H36  1  0.94424000  0.67301000  0.52076000  1.0
  H  H37  1  0.27171000  0.32697000  0.97936000  1.0
  H  H38  1  0.83457000  0.06647000  0.60248000  1.0
  H  H39  1  0.76842000  0.93351000  0.89753000  1.0
  H  H40  1  0.16542000  0.93352000  0.39753000  1.0
  H  H41  1  0.23158000  0.06649000  0.10246000  1.0
  C  C42  1  0.35907000  0.93483000  0.54782000  1.0
  C  C43  1  0.42448000  0.06533000  0.95218000  1.0
  C  C44  1  0.64093000  0.06517000  0.45218000  1.0
  C  C45  1  0.57552000  0.93466000  0.04782000  1.0
  C  C46  1  0.37761000  0.61806000  0.57836000  1.0
  C  C47  1  0.75967000  0.38191000  0.92168000  1.0
  C  C48  1  0.62239000  0.38193000  0.42164000  1.0
  C  C49  1  0.24033000  0.61809000  0.07832000  1.0
  C  C50  1  0.52459000  0.88591000  0.53793000  1.0
  C  C51  1  0.63885000  0.11410000  0.96213000  1.0
  C  C52  1  0.47541000  0.11409000  0.46207000  1.0
  C  C53  1  0.36115000  0.88590000  0.03786000  1.0
  C  C54  1  0.95287000  0.73882000  0.68312000  1.0
  C  C55  1  0.21453000  0.26137000  0.81703000  1.0
  C  C56  1  0.04713000  0.26118000  0.31688000  1.0
  C  C57  1  0.78548000  0.73864000  0.18298000  1.0
  C  C58  1  0.76974000  0.69079000  0.64801000  1.0
  C  C59  1  0.07938000  0.30935000  0.85215000  1.0
  C  C60  1  0.23026000  0.30921000  0.35199000  1.0
  C  C61  1  0.92062000  0.69066000  0.14786000  1.0
  C  C62  1  0.72042000  0.80744000  0.61671000  1.0
  C  C63  1  0.91334000  0.19263000  0.88340000  1.0
  C  C64  1  0.27958000  0.19256000  0.38329000  1.0
  C  C65  1  0.08666000  0.80737000  0.11660000  1.0
  C  C66  1  0.04024000  0.00324000  0.65957000  1.0
  C  C67  1  0.03742000  0.99690000  0.84050000  1.0
  C  C68  1  0.95975000  0.99675000  0.34043000  1.0
  C  C69  1  0.96258000  0.00311000  0.15950000  1.0
  C  C70  1  0.29113000  0.53912000  0.52127000  1.0
  C  C71  1  0.75205000  0.46097000  0.97872000  1.0
  C  C72  1  0.70886000  0.46088000  0.47872000  1.0
  C  C73  1  0.24794000  0.53903000  0.02128000  1.0
  C  C74  1  0.28924000  0.54729000  0.63454000  1.0
  C  C75  1  0.74193000  0.45246000  0.86547000  1.0
  C  C76  1  0.71075000  0.45271000  0.36546000  1.0
  C  C77  1  0.25807000  0.54754000  0.13453000  1.0
  C  C78  1  0.33397000  0.04913000  0.51011000  1.0
  C  C79  1  0.28485000  0.95106000  0.98984000  1.0
  C  C80  1  0.66603000  0.95087000  0.48988000  1.0
  C  C81  1  0.71514000  0.04894000  0.01016000  1.0
  C  C82  1  0.11961000  0.40144000  0.63077000  1.0
  C  C83  1  0.71765000  0.59816000  0.86914000  1.0
  C  C84  1  0.88039000  0.59856000  0.36923000  1.0
  C  C85  1  0.28235000  0.40185000  0.13086000  1.0
  C  C86  1  0.12420000  0.39204000  0.52308000  1.0
  C  C87  1  0.73183000  0.60792000  0.97683000  1.0
  C  C88  1  0.87580000  0.60796000  0.47692000  1.0
  C  C89  1  0.26818000  0.39208000  0.02317000  1.0
  C  C90  1  0.86036000  0.96831000  0.62440000  1.0
  C  C91  1  0.89242000  0.03177000  0.87568000  1.0
  C  C92  1  0.13964000  0.03169000  0.37561000  1.0
  C  C93  1  0.10758000  0.96823000  0.12432000  1.0
  N  N94  1  0.08941000  0.89184000  0.68838000  1.0
  N  N95  1  0.19804000  0.10835000  0.81172000  1.0
  N  N96  1  0.91058000  0.10816000  0.31161000  1.0
  N  N97  1  0.80197000  0.89166000  0.18828000  1.0
  N  N98  1  0.54605000  0.76878000  0.57817000  1.0
  N  N99  1  0.77758000  0.23126000  0.92193000  1.0
  N  N100  1  0.45395000  0.23121000  0.42183000  1.0
  N  N101  1  0.22242000  0.76874000  0.07807000  1.0
  N  N102  1  0.03732000  0.32270000  0.57640000  1.0
  N  N103  1  0.71405000  0.67702000  0.92347000  1.0
  N  N104  1  0.96267000  0.67730000  0.42360000  1.0
  N  N105  1  0.28596000  0.32298000  0.07653000  1.0
  Cl  Cl106  1  0.61869000  0.24797000  0.70196000  1.0
  Cl  Cl107  1  0.37062000  0.75199000  0.79802000  1.0
  Cl  Cl108  1  0.38132000  0.75203000  0.29804000  1.0
  Cl  Cl109  1  0.62938000  0.24801000  0.20198000  1.0
