# generated using pymatgen
data_Zr6H19C50Br10ClO32
_symmetry_space_group_name_H-M   'P 1'
_cell_length_a   14.78320000
_cell_length_b   14.79873665
_cell_length_c   14.80340000
_cell_angle_alpha   90.20570451
_cell_angle_beta   119.81370000
_cell_angle_gamma   119.78820123
_symmetry_Int_Tables_number   1
_chemical_formula_structural   Zr6H19C50Br10ClO32
_chemical_formula_sum   'Zr6 H19 C50 Br10 Cl1 O32'
_cell_volume   2299.66208117
_cell_formula_units_Z   1
loop_
 _symmetry_equiv_pos_site_id
 _symmetry_equiv_pos_as_xyz
  1  'x, y, z'
loop_
 _atom_site_type_symbol
 _atom_site_label
 _atom_site_symmetry_multiplicity
 _atom_site_fract_x
 _atom_site_fract_y
 _atom_site_fract_z
 _atom_site_occupancy
  Zr  Zr0  1  0.49082000  0.61408000  0.11436000  1.0
  Zr  Zr1  1  0.50614000  0.38309000  0.88339000  1.0
  Zr  Zr2  1  0.73680000  0.62128000  0.12166000  1.0
  Zr  Zr3  1  0.25969000  0.37527000  0.87544000  1.0
  Zr  Zr4  1  0.49826000  0.37946000  0.11807000  1.0
  Zr  Zr5  1  0.49850000  0.61800000  0.87972000  1.0
  H  H6  1  0.68002000  0.59256000  0.28036000  1.0
  H  H7  1  0.31691000  0.21696000  0.90473000  1.0
  H  H8  1  0.69238000  0.59838000  0.91075000  1.0
  H  H9  1  0.30476000  0.58736000  0.89898000  1.0
  H  H10  1  0.53838000  0.38590000  0.42311000  1.0
  H  H11  1  0.44671000  0.60621000  0.56886000  1.0
  H  H12  1  0.55838000  0.93285000  0.89675000  1.0
  H  H13  1  0.46662000  0.07849000  0.11699000  1.0
  H  H14  1  0.95577000  0.09766000  0.86693000  1.0
  H  H15  1  0.04182000  0.91104000  0.14253000  1.0
  H  H16  1  0.95542000  0.35550000  0.58712000  1.0
  H  H17  1  0.04098000  0.62994000  0.39931000  1.0
  H  H18  1  0.04616000  0.91162000  0.40011000  1.0
  H  H19  1  0.70893000  0.97199000  0.38174000  1.0
  H  H20  1  0.71126000  0.88684000  0.46640000  1.0
  H  H21  1  0.89241000  0.05620000  0.63612000  1.0
  H  H22  1  0.89023000  0.14158000  0.55139000  1.0
  H  H23  1  0.23070000  0.62581000  0.13568000  1.0
  H  H24  1  0.76671000  0.36308000  0.87080000  1.0
  C  C25  1  0.48150000  0.49479000  0.29367000  1.0
  C  C26  1  0.51807000  0.20537000  0.00460000  1.0
  C  C27  1  0.50403000  0.49753000  0.69841000  1.0
  C  C28  1  0.49666000  0.80107000  0.00240000  1.0
  C  C29  1  0.79419000  0.80482000  0.29731000  1.0
  C  C30  1  0.18345000  0.48267000  0.99032000  1.0
  C  C31  1  0.20289000  0.19995000  0.69251000  1.0
  C  C32  1  0.81378000  0.50698000  0.01496000  1.0
  C  C33  1  0.79690000  0.49395000  0.30214000  1.0
  C  C34  1  0.79742000  0.80990000  0.00291000  1.0
  C  C35  1  0.19967000  0.49430000  0.68722000  1.0
  C  C36  1  0.19981000  0.19551000  0.00349000  1.0
  C  C37  1  0.50220000  0.49488000  0.59624000  1.0
  C  C38  1  0.48358000  0.49774000  0.39601000  1.0
  C  C39  1  0.52993000  0.43315000  0.55509000  1.0
  C  C40  1  0.45903000  0.56164000  0.43869000  1.0
  C  C41  1  0.51846000  0.43426000  0.45602000  1.0
  C  C42  1  0.46748000  0.55844000  0.53634000  1.0
  C  C43  1  0.52032000  0.10512000  0.00445000  1.0
  C  C44  1  0.50258000  0.90520000  0.00784000  1.0
  C  C45  1  0.54692000  0.06341000  0.94198000  1.0
  C  C46  1  0.47703000  0.94741000  0.07106000  1.0
  C  C47  1  0.53786000  0.96542000  0.94474000  1.0
  C  C48  1  0.48684000  0.04573000  0.06885000  1.0
  C  C49  1  0.89628000  0.91072000  0.00002000  1.0
  C  C50  1  0.10114000  0.09718000  0.00873000  1.0
  C  C51  1  0.87215000  0.96424000  0.92103000  1.0
  C  C52  1  0.12535000  0.04365000  0.08765000  1.0
  C  C53  1  0.97363000  0.05551000  0.92706000  1.0
  C  C54  1  0.02384000  0.95290000  0.08214000  1.0
  C  C55  1  0.89572000  0.48850000  0.40019000  1.0
  C  C56  1  0.10073000  0.49694000  0.58628000  1.0
  C  C57  1  0.87166000  0.40966000  0.45385000  1.0
  C  C58  1  0.12471000  0.57539000  0.53223000  1.0
  C  C59  1  0.97322000  0.41530000  0.54465000  1.0
  C  C60  1  0.02315000  0.56976000  0.44139000  1.0
  C  C61  1  0.89595000  0.90623000  0.39617000  1.0
  C  C62  1  0.10264000  0.10074000  0.59115000  1.0
  C  C63  1  0.87316000  0.96010000  0.45100000  1.0
  C  C64  1  0.12500000  0.04515000  0.53452000  1.0
  C  C65  1  0.97371000  0.05383000  0.54494000  1.0
  C  C66  1  0.02438000  0.95146000  0.44039000  1.0
  C  C67  1  0.77144000  0.95944000  0.45320000  1.0
  C  C68  1  0.88499000  0.06568000  0.55961000  1.0
  C  C69  1  0.91450000  0.50555000  0.01483000  1.0
  C  C70  1  0.08285000  0.48285000  0.99189000  1.0
  C  C71  1  0.04744000  0.58096000  0.09057000  1.0
  C  C72  1  0.94992000  0.40771000  0.91592000  1.0
  C  C73  1  0.12797000  0.56827000  0.07789000  1.0
  C  C74  1  0.86944000  0.42029000  0.92874000  1.0
  Br  Br75  1  0.59113000  0.35043000  0.62813000  1.0
  Br  Br76  1  0.41053000  0.65379000  0.37188000  1.0
  Br  Br77  1  0.59979000  0.13235000  0.85322000  1.0
  Br  Br78  1  0.42202000  0.87730000  0.15850000  1.0
  Br  Br79  1  0.70795000  0.92222000  0.80162000  1.0
  Br  Br80  1  0.28943000  0.08374000  0.20502000  1.0
  Br  Br81  1  0.70763000  0.29191000  0.41368000  1.0
  Br  Br82  1  0.28869000  0.69313000  0.57263000  1.0
  Br  Br83  1  0.13058000  0.70354000  0.21277000  1.0
  Br  Br84  1  0.86670000  0.28649000  0.79225000  1.0
  Cl  Cl85  1  0.27595000  0.08697000  0.57663000  1.0
  O  O86  1  0.48306000  0.57128000  0.25373000  1.0
  O  O87  1  0.51449000  0.24392000  0.92697000  1.0
  O  O88  1  0.50603000  0.42291000  0.74017000  1.0
  O  O89  1  0.49322000  0.75821000  0.07610000  1.0
  O  O90  1  0.83195000  0.76389000  0.25905000  1.0
  O  O91  1  0.14917000  0.40832000  0.91352000  1.0
  O  O92  1  0.16186000  0.23556000  0.73197000  1.0
  O  O93  1  0.84797000  0.58376000  0.08928000  1.0
  O  O94  1  0.68047000  0.42017000  0.26253000  1.0
  O  O95  1  0.68090000  0.76742000  0.92652000  1.0
  O  O96  1  0.31613000  0.57118000  0.73023000  1.0
  O  O97  1  0.31632000  0.23563000  0.07768000  1.0
  O  O98  1  0.83722000  0.77241000  0.08036000  1.0
  O  O99  1  0.15987000  0.41643000  0.72433000  1.0
  O  O100  1  0.15999000  0.23138000  0.92445000  1.0
  O  O101  1  0.83657000  0.57273000  0.26596000  1.0
  O  O102  1  0.67857000  0.76495000  0.25894000  1.0
  O  O103  1  0.69889000  0.43017000  0.93765000  1.0
  O  O104  1  0.31970000  0.24229000  0.73456000  1.0
  O  O105  1  0.29837000  0.56002000  0.06714000  1.0
  O  O106  1  0.49586000  0.76298000  0.92437000  1.0
  O  O107  1  0.48280000  0.41806000  0.25618000  1.0
  O  O108  1  0.51496000  0.24222000  0.08029000  1.0
  O  O109  1  0.50237000  0.57419000  0.73570000  1.0
  O  O110  1  0.35894000  0.56130000  0.92658000  1.0
  O  O111  1  0.63789000  0.57070000  0.93645000  1.0
  O  O112  1  0.36867000  0.29697000  0.93200000  1.0
  O  O113  1  0.62791000  0.56555000  0.20035000  1.0
  O  O114  1  0.60063000  0.45236000  0.05167000  1.0
  O  O115  1  0.39594000  0.44582000  0.04469000  1.0
  O  O116  1  0.40307000  0.44953000  0.85096000  1.0
  O  O117  1  0.59395000  0.64684000  0.04819000  1.0
