# generated using pymatgen
data_NaH6C3N7O2
_symmetry_space_group_name_H-M   'P 1'
_cell_length_a   8.44605000
_cell_length_b   8.44705000
_cell_length_c   12.37358188
_cell_angle_alpha   105.46021778
_cell_angle_beta   106.64053528
_cell_angle_gamma   100.94400000
_symmetry_Int_Tables_number   1
_chemical_formula_structural   NaH6C3N7O2
_chemical_formula_sum   'Na4 H24 C12 N28 O8'
_cell_volume   780.60591889
_cell_formula_units_Z   4
loop_
 _symmetry_equiv_pos_site_id
 _symmetry_equiv_pos_as_xyz
  1  'x, y, z'
loop_
 _atom_site_type_symbol
 _atom_site_label
 _atom_site_symmetry_multiplicity
 _atom_site_fract_x
 _atom_site_fract_y
 _atom_site_fract_z
 _atom_site_occupancy
  Na  Na0  1  0.25405000  0.50406000  0.25005000  1.0
  Na  Na1  1  0.74595000  0.49594000  0.74995000  1.0
  Na  Na2  1  0.00000000  0.50000000  0.00000000  1.0
  Na  Na3  1  0.50000000  0.50000000  0.50000000  1.0
  H  H4  1  0.35028000  0.47134000  0.03928000  1.0
  H  H5  1  0.43207000  0.81098000  0.46075000  1.0
  H  H6  1  0.64972000  0.52866000  0.96072000  1.0
  H  H7  1  0.56793000  0.18902000  0.53925000  1.0
  H  H8  1  0.38219000  0.67113000  0.09486000  1.0
  H  H9  1  0.57629000  0.78731000  0.40516000  1.0
  H  H10  1  0.61781000  0.32887000  0.90514000  1.0
  H  H11  1  0.42371000  0.21269000  0.59484000  1.0
  H  H12  1  0.93782000  0.18912000  0.08515000  1.0
  H  H13  1  0.10399000  0.35277000  0.41498000  1.0
  H  H14  1  0.06218000  0.81088000  0.91485000  1.0
  H  H15  1  0.89601000  0.64723000  0.58502000  1.0
  H  H16  1  0.09589000  0.21841000  0.04123000  1.0
  H  H17  1  0.17716000  0.55479000  0.45892000  1.0
  H  H18  1  0.90411000  0.78159000  0.95877000  1.0
  H  H19  1  0.82284000  0.44521000  0.54108000  1.0
  H  H20  1  0.17216000  0.11423000  0.31590000  1.0
  H  H21  1  0.79821000  0.35618000  0.18405000  1.0
  H  H22  1  0.82785000  0.88578000  0.68411000  1.0
  H  H23  1  0.20179000  0.64382000  0.81595000  1.0
  H  H24  1  0.82144000  0.65575000  0.27849000  1.0
  H  H25  1  0.37725000  0.04299000  0.22166000  1.0
  H  H26  1  0.17856000  0.34425000  0.72151000  1.0
  H  H27  1  0.62274000  0.95700000  0.77833000  1.0
  C  C28  1  0.11015000  0.97842000  0.29081000  1.0
  C  C29  1  0.68752000  0.31930000  0.20919000  1.0
  C  C30  1  0.88986000  0.02159000  0.70920000  1.0
  C  C31  1  0.31249000  0.68070000  0.79081000  1.0
  C  C32  1  0.92924000  0.74110000  0.27146000  1.0
  C  C33  1  0.46963000  0.15779000  0.22867000  1.0
  C  C34  1  0.07076000  0.25890000  0.72854000  1.0
  C  C35  1  0.53037000  0.84221000  0.77133000  1.0
  C  C36  1  0.88481000  0.01635000  0.37760000  1.0
  C  C37  1  0.63874000  0.00721000  0.12248000  1.0
  C  C38  1  0.11520000  0.98366000  0.62241000  1.0
  C  C39  1  0.36126000  0.99280000  0.87752000  1.0
  N  N40  1  0.04005000  0.69926000  0.22050000  1.0
  N  N41  1  0.47872000  0.31958000  0.27959000  1.0
  N  N42  1  0.95995000  0.30075000  0.77950000  1.0
  N  N43  1  0.52128000  0.68042000  0.72041000  1.0
  N  N44  1  0.15522000  0.85099000  0.23297000  1.0
  N  N45  1  0.61794000  0.42222000  0.26702000  1.0
  N  N46  1  0.84478000  0.14901000  0.76703000  1.0
  N  N47  1  0.38206000  0.57778000  0.73298000  1.0
  N  N48  1  0.96813000  0.91656000  0.31735000  1.0
  N  N49  1  0.59916000  0.15076000  0.18274000  1.0
  N  N50  1  0.03188000  0.08344000  0.68265000  1.0
  N  N51  1  0.40084000  0.84924000  0.81726000  1.0
  N  N52  1  0.93801000  0.18804000  0.41567000  1.0
  N  N53  1  0.77234000  0.02235000  0.08439000  1.0
  N  N54  1  0.06199000  0.81196000  0.58433000  1.0
  N  N55  1  0.22766000  0.97765000  0.91561000  1.0
  N  N56  1  0.82740000  0.23607000  0.46776000  1.0
  N  N57  1  0.76830000  0.85969000  0.03226000  1.0
  N  N58  1  0.17260000  0.76393000  0.53224000  1.0
  N  N59  1  0.23170000  0.14031000  0.96774000  1.0
  N  N60  1  0.71409000  0.09950000  0.46092000  1.0
  N  N61  1  0.63858000  0.75322000  0.03912000  1.0
  N  N62  1  0.28591000  0.90050000  0.53908000  1.0
  N  N63  1  0.36143000  0.24678000  0.96088000  1.0
  N  N64  1  0.74702000  0.95638000  0.40370000  1.0
  N  N65  1  0.55267000  0.84333000  0.09637000  1.0
  N  N66  1  0.25298000  0.04362000  0.59630000  1.0
  N  N67  1  0.44734000  0.15667000  0.90363000  1.0
  O  O68  1  0.30323000  0.55821000  0.07992000  1.0
  O  O69  1  0.47831000  0.72330000  0.42010000  1.0
  O  O70  1  0.69677000  0.44179000  0.92008000  1.0
  O  O71  1  0.52169000  0.27670000  0.57990000  1.0
  O  O72  1  0.03306000  0.28055000  0.08693000  1.0
  O  O73  1  0.19368000  0.44625000  0.41328000  1.0
  O  O74  1  0.96694000  0.71946000  0.91307000  1.0
  O  O75  1  0.80632000  0.55375000  0.58672000  1.0
