# generated using pymatgen
data_HgH4C5S2N3
_symmetry_space_group_name_H-M   'P 1'
_cell_length_a   9.38490000
_cell_length_b   9.38498000
_cell_length_c   11.17400000
_cell_angle_alpha   70.06730000
_cell_angle_beta   70.06740000
_cell_angle_gamma   72.14210000
_symmetry_Int_Tables_number   1
_chemical_formula_structural   HgH4C5S2N3
_chemical_formula_sum   'Hg4 H16 C20 S8 N12'
_cell_volume   849.35724367
_cell_formula_units_Z   4
loop_
 _symmetry_equiv_pos_site_id
 _symmetry_equiv_pos_as_xyz
  1  'x, y, z'
loop_
 _atom_site_type_symbol
 _atom_site_label
 _atom_site_symmetry_multiplicity
 _atom_site_fract_x
 _atom_site_fract_y
 _atom_site_fract_z
 _atom_site_occupancy
  Hg  Hg0  1  0.17964000  0.35159000  0.10312000  1.0
  Hg  Hg1  1  0.64841000  0.82036000  0.39688000  1.0
  Hg  Hg2  1  0.82036000  0.64841000  0.89688000  1.0
  Hg  Hg3  1  0.35159000  0.17964000  0.60312000  1.0
  H  H4  1  0.54878000  0.37344000  0.88478000  1.0
  H  H5  1  0.62656000  0.45121000  0.61521000  1.0
  H  H6  1  0.45122000  0.62656000  0.11521000  1.0
  H  H7  1  0.37344000  0.54878000  0.38478000  1.0
  H  H8  1  0.73287000  0.25669000  0.90389000  1.0
  H  H9  1  0.74331000  0.26712000  0.59611000  1.0
  H  H10  1  0.26712000  0.74331000  0.09611000  1.0
  H  H11  1  0.25669000  0.73287000  0.40389000  1.0
  H  H12  1  0.58451000  0.30539000  0.04184000  1.0
  H  H13  1  0.69461000  0.41548000  0.45815000  1.0
  H  H14  1  0.41549000  0.69461000  0.95816000  1.0
  H  H15  1  0.30539000  0.58451000  0.54185000  1.0
  H  H16  1  0.22835000  0.00136000  0.11058000  1.0
  H  H17  1  0.99863000  0.77165000  0.38943000  1.0
  H  H18  1  0.77165000  0.99864000  0.88942000  1.0
  H  H19  1  0.00137000  0.22835000  0.61057000  1.0
  C  C20  1  0.60770000  0.27396000  0.95000000  1.0
  C  C21  1  0.72604000  0.39229000  0.55000000  1.0
  C  C22  1  0.39229000  0.72604000  0.05000000  1.0
  C  C23  1  0.27397000  0.60770000  0.45000000  1.0
  C  C24  1  0.35102000  0.00003000  0.06083000  1.0
  C  C25  1  0.99997000  0.64898000  0.43918000  1.0
  C  C26  1  0.64898000  0.99997000  0.93917000  1.0
  C  C27  1  0.00003000  0.35101000  0.56083000  1.0
  C  C28  1  0.54999000  0.13229000  0.97649000  1.0
  C  C29  1  0.86772000  0.45000000  0.52351000  1.0
  C  C30  1  0.45001000  0.86771000  0.02351000  1.0
  C  C31  1  0.13229000  0.54999000  0.47649000  1.0
  C  C32  1  0.30773000  0.42780000  0.79719000  1.0
  C  C33  1  0.57220000  0.69227000  0.70281000  1.0
  C  C34  1  0.69227000  0.57220000  0.20281000  1.0
  C  C35  1  0.42781000  0.30773000  0.29720000  1.0
  C  C36  1  0.16056000  0.08784000  0.37324000  1.0
  C  C37  1  0.91216000  0.83943000  0.12675000  1.0
  C  C38  1  0.83944000  0.91216000  0.62676000  1.0
  C  C39  1  0.08783000  0.16057000  0.87324000  1.0
  S  S40  1  0.21690000  0.54976000  0.89091000  1.0
  S  S41  1  0.45024000  0.78310000  0.60909000  1.0
  S  S42  1  0.78310000  0.45025000  0.10909000  1.0
  S  S43  1  0.54976000  0.21690000  0.39092000  1.0
  S  S44  1  0.02300000  0.19493000  0.29761000  1.0
  S  S45  1  0.80507000  0.97700000  0.20238000  1.0
  S  S46  1  0.97700000  0.80508000  0.70239000  1.0
  S  S47  1  0.19492000  0.02300000  0.79761000  1.0
  N  N48  1  0.39955000  0.12889000  0.03805000  1.0
  N  N49  1  0.87111000  0.60044000  0.46196000  1.0
  N  N50  1  0.60044000  0.87111000  0.96195000  1.0
  N  N51  1  0.12889000  0.39955000  0.53805000  1.0
  N  N52  1  0.37626000  0.34552000  0.72711000  1.0
  N  N53  1  0.65449000  0.62373000  0.77289000  1.0
  N  N54  1  0.62374000  0.65448000  0.27289000  1.0
  N  N55  1  0.34552000  0.37627000  0.22711000  1.0
  N  N56  1  0.25456000  0.00869000  0.42994000  1.0
  N  N57  1  0.99131000  0.74544000  0.07006000  1.0
  N  N58  1  0.74544000  0.99132000  0.57005000  1.0
  N  N59  1  0.00868000  0.25457000  0.92994000  1.0
