# generated using pymatgen
data_ZnH6C11N5O4
_symmetry_space_group_name_H-M   'P 1'
_cell_length_a   7.27010000
_cell_length_b   8.36685000
_cell_length_c   10.03880000
_cell_angle_alpha   96.67410000
_cell_angle_beta   94.12260000
_cell_angle_gamma   106.53600000
_symmetry_Int_Tables_number   1
_chemical_formula_structural   ZnH6C11N5O4
_chemical_formula_sum   'Zn2 H12 C22 N10 O8'
_cell_volume   577.87208172
_cell_formula_units_Z   2
loop_
 _symmetry_equiv_pos_site_id
 _symmetry_equiv_pos_as_xyz
  1  'x, y, z'
loop_
 _atom_site_type_symbol
 _atom_site_label
 _atom_site_symmetry_multiplicity
 _atom_site_fract_x
 _atom_site_fract_y
 _atom_site_fract_z
 _atom_site_occupancy
  Zn  Zn0  1  0.20793000  0.01706000  0.08587000  1.0
  Zn  Zn1  1  0.79207000  0.98294000  0.91413000  1.0
  H  H2  1  0.24986000  0.46424000  0.67930000  1.0
  H  H3  1  0.75013000  0.53576000  0.32070000  1.0
  H  H4  1  0.25106000  0.75301000  0.78831000  1.0
  H  H5  1  0.74894000  0.24700000  0.21169000  1.0
  H  H6  1  0.24426000  0.97346000  0.63882000  1.0
  H  H7  1  0.75574000  0.02654000  0.36118000  1.0
  H  H8  1  0.24519000  0.65065000  0.29369000  1.0
  H  H9  1  0.75481000  0.34935000  0.70631000  1.0
  H  H10  1  0.19979000  0.58444000  0.00386000  1.0
  H  H11  1  0.80021000  0.41556000  0.99613000  1.0
  H  H12  1  0.24343000  0.91254000  0.40960000  1.0
  H  H13  1  0.75657000  0.08746000  0.59040000  1.0
  C  C14  1  0.25418000  0.37070000  0.41131000  1.0
  C  C15  1  0.74582000  0.62930000  0.58869000  1.0
  C  C16  1  0.25244000  0.53416000  0.47865000  1.0
  C  C17  1  0.74756000  0.46584000  0.52135000  1.0
  C  C18  1  0.25297000  0.56562000  0.61936000  1.0
  C  C19  1  0.74703000  0.43438000  0.38064000  1.0
  C  C20  1  0.25021000  0.72325000  0.67995000  1.0
  C  C21  1  0.74979000  0.27676000  0.32005000  1.0
  C  C22  1  0.24681000  0.84713000  0.60011000  1.0
  C  C23  1  0.75319000  0.15287000  0.39989000  1.0
  C  C24  1  0.24757000  0.66290000  0.40286000  1.0
  C  C25  1  0.75243000  0.33710000  0.59714000  1.0
  C  C26  1  0.12642000  0.25774000  0.89641000  1.0
  C  C27  1  0.87358000  0.74226000  0.10359000  1.0
  C  C28  1  0.49263000  0.15839000  0.90332000  1.0
  C  C29  1  0.50737000  0.84161000  0.09668000  1.0
  C  C30  1  0.33055000  0.54543000  0.00147000  1.0
  C  C31  1  0.66945000  0.45457000  0.99853000  1.0
  C  C32  1  0.32011000  0.37986000  0.95267000  1.0
  C  C33  1  0.67989000  0.62014000  0.04733000  1.0
  C  C34  1  0.49214000  0.33434000  0.95154000  1.0
  C  C35  1  0.50786000  0.66566000  0.04846000  1.0
  N  N36  1  0.23570000  0.32913000  0.27619000  1.0
  N  N37  1  0.76430000  0.67087000  0.72381000  1.0
  N  N38  1  0.24153000  0.17088000  0.25930000  1.0
  N  N39  1  0.75847000  0.82912000  0.74070000  1.0
  N  N40  1  0.26299000  0.11759000  0.37843000  1.0
  N  N41  1  0.73701000  0.88241000  0.62157000  1.0
  N  N42  1  0.27128000  0.24120000  0.47609000  1.0
  N  N43  1  0.72872000  0.75880000  0.52391000  1.0
  N  N44  1  0.24470000  0.81268000  0.46543000  1.0
  N  N45  1  0.75530000  0.18732000  0.53457000  1.0
  O  O46  1  0.34888000  0.03478000  0.91983000  1.0
  O  O47  1  0.65112000  0.96522000  0.08017000  1.0
  O  O48  1  0.63903000  0.14065000  0.84871000  1.0
  O  O49  1  0.36097000  0.85934000  0.15129000  1.0
  O  O50  1  0.03703000  0.16449000  0.98182000  1.0
  O  O51  1  0.96297000  0.83551000  0.01818000  1.0
  O  O52  1  0.06178000  0.25466000  0.77835000  1.0
  O  O53  1  0.93821000  0.74533000  0.22165000  1.0
