# generated using pymatgen
data_LiSnH8C10(OF5)3
_symmetry_space_group_name_H-M   'P 1'
_cell_length_a   9.66680000
_cell_length_b   10.51000000
_cell_length_c   10.79520000
_cell_angle_alpha   115.10900000
_cell_angle_beta   95.74840000
_cell_angle_gamma   110.72300000
_symmetry_Int_Tables_number   1
_chemical_formula_structural   LiSnH8C10(OF5)3
_chemical_formula_sum   'Li2 Sn2 H16 C20 O6 F30'
_cell_volume   887.37772088
_cell_formula_units_Z   2
loop_
 _symmetry_equiv_pos_site_id
 _symmetry_equiv_pos_as_xyz
  1  'x, y, z'
loop_
 _atom_site_type_symbol
 _atom_site_label
 _atom_site_symmetry_multiplicity
 _atom_site_fract_x
 _atom_site_fract_y
 _atom_site_fract_z
 _atom_site_occupancy
  Li  Li0  1  0.18540000  0.18849000  0.34076000  1.0
  Li  Li1  1  0.81460000  0.81151000  0.65924000  1.0
  Sn  Sn2  1  0.58178000  0.39717000  0.41687000  1.0
  Sn  Sn3  1  0.41822000  0.60283000  0.58313000  1.0
  H  H4  1  0.25705000  0.02808000  0.49227000  1.0
  H  H5  1  0.74295000  0.97192000  0.50773000  1.0
  H  H6  1  0.08003000  0.85185000  0.39237000  1.0
  H  H7  1  0.91997000  0.14815000  0.60763000  1.0
  H  H8  1  0.85115000  0.87549000  0.30803000  1.0
  H  H9  1  0.14885000  0.12451000  0.69197000  1.0
  H  H10  1  0.87446000  0.06725000  0.34971000  1.0
  H  H11  1  0.12554000  0.93275000  0.65029000  1.0
  H  H12  1  0.84724000  0.85050000  0.03830000  1.0
  H  H13  1  0.15276000  0.14950000  0.96170000  1.0
  H  H14  1  0.02354000  0.87096000  0.13400000  1.0
  H  H15  1  0.97646000  0.12904000  0.86600000  1.0
  H  H16  1  0.01836000  0.25892000  0.13473000  1.0
  H  H17  1  0.98164000  0.74108000  0.86527000  1.0
  H  H18  1  0.84540000  0.07957000  0.03817000  1.0
  H  H19  1  0.15460000  0.92043000  0.96183000  1.0
  C  C20  1  0.70961000  0.46778000  0.27271000  1.0
  C  C21  1  0.29039000  0.53221000  0.72729000  1.0
  C  C22  1  0.63375000  0.51026000  0.17315000  1.0
  C  C23  1  0.36625000  0.48974000  0.82685000  1.0
  C  C24  1  0.78181000  0.41480000  0.56495000  1.0
  C  C25  1  0.21819000  0.58520000  0.43504000  1.0
  C  C26  1  0.75242000  0.39425000  0.69439000  1.0
  C  C27  1  0.24758000  0.60575000  0.30561000  1.0
  C  C28  1  0.45721000  0.12897000  0.24828000  1.0
  C  C29  1  0.54279000  0.87103000  0.75172000  1.0
  C  C30  1  0.52927000  0.01531000  0.22905000  1.0
  C  C31  1  0.47073000  0.98469000  0.77095000  1.0
  C  C32  1  0.13127000  0.97720000  0.47244000  1.0
  C  C33  1  0.86873000  0.02280000  0.52756000  1.0
  C  C34  1  0.90908000  0.00028000  0.39023000  1.0
  C  C35  1  0.09092000  0.99972000  0.60977000  1.0
  C  C36  1  0.97467000  0.90775000  0.06650000  1.0
  C  C37  1  0.02533000  0.09225000  0.93350000  1.0
  C  C38  1  0.97254000  0.13227000  0.06678000  1.0
  C  C39  1  0.02746000  0.86773000  0.93322000  1.0
  O  O40  1  0.36822000  0.37108000  0.43640000  1.0
  O  O41  1  0.63178000  0.62892000  0.56360000  1.0
  O  O42  1  0.07417000  0.05649000  0.41480000  1.0
  O  O43  1  0.92583000  0.94351000  0.58520000  1.0
  O  O44  1  0.02923000  0.07523000  0.15137000  1.0
  O  O45  1  0.97076000  0.92477000  0.84863000  1.0
  F  F46  1  0.74797000  0.35122000  0.18802000  1.0
  F  F47  1  0.25203000  0.64878000  0.81198000  1.0
  F  F48  1  0.84808000  0.59910000  0.36195000  1.0
  F  F49  1  0.15192000  0.40089000  0.63805000  1.0
  F  F50  1  0.49688000  0.38892000  0.08048000  1.0
  F  F51  1  0.50312000  0.61108000  0.91952000  1.0
  F  F52  1  0.60678000  0.63516000  0.25207000  1.0
  F  F53  1  0.39321000  0.36484000  0.74793000  1.0
  F  F54  1  0.72583000  0.54968000  0.09522000  1.0
  F  F55  1  0.27417000  0.45032000  0.90478000  1.0
  F  F56  1  0.90417000  0.56204000  0.61914000  1.0
  F  F57  1  0.09583000  0.43796000  0.38086000  1.0
  F  F58  1  0.83394000  0.30716000  0.48804000  1.0
  F  F59  1  0.16606000  0.69284000  0.51196000  1.0
  F  F60  1  0.72022000  0.51014000  0.78438000  1.0
  F  F61  1  0.27978000  0.48986000  0.21562000  1.0
  F  F62  1  0.87559000  0.39807000  0.77153000  1.0
  F  F63  1  0.12441000  0.60194000  0.22847000  1.0
  F  F64  1  0.62913000  0.25491000  0.64894000  1.0
  F  F65  1  0.37087000  0.74509000  0.35106000  1.0
  F  F66  1  0.31659000  0.06104000  0.27488000  1.0
  F  F67  1  0.68341000  0.93897000  0.72512000  1.0
  F  F68  1  0.41409000  0.11549000  0.11535000  1.0
  F  F69  1  0.58591000  0.88451000  0.88465000  1.0
  F  F70  1  0.66247000  0.06043000  0.19393000  1.0
  F  F71  1  0.33753000  0.93957000  0.80607000  1.0
  F  F72  1  0.56334000  0.01365000  0.35366000  1.0
  F  F73  1  0.43666000  0.98635000  0.64634000  1.0
  F  F74  1  0.43306000  0.86630000  0.12526000  1.0
  F  F75  1  0.56694000  0.13370000  0.87474000  1.0
