# generated using pymatgen
data_ZnH12C18NO4
_symmetry_space_group_name_H-M   'P 1'
_cell_length_a   9.81370000
_cell_length_b   11.01810000
_cell_length_c   11.05410000
_cell_angle_alpha   91.41910000
_cell_angle_beta   97.50410000
_cell_angle_gamma   106.93000000
_symmetry_Int_Tables_number   1
_chemical_formula_structural   ZnH12C18NO4
_chemical_formula_sum   'Zn2 H24 C36 N2 O8'
_cell_volume   1131.17965468
_cell_formula_units_Z   2
loop_
 _symmetry_equiv_pos_site_id
 _symmetry_equiv_pos_as_xyz
  1  'x, y, z'
loop_
 _atom_site_type_symbol
 _atom_site_label
 _atom_site_symmetry_multiplicity
 _atom_site_fract_x
 _atom_site_fract_y
 _atom_site_fract_z
 _atom_site_occupancy
  Zn  Zn0  1  0.34060000  0.45153000  0.50359000  1.0
  Zn  Zn1  1  0.64374000  0.53451000  0.49281000  1.0
  H  H2  1  0.58514000  0.12094000  0.09802000  1.0
  H  H3  1  0.37399000  0.46005000  0.87914000  1.0
  H  H4  1  0.27343000  0.44098000  0.08135000  1.0
  H  H5  1  0.70552000  0.52790000  0.91517000  1.0
  H  H6  1  0.11151000  0.54605000  0.41614000  1.0
  H  H7  1  0.85821000  0.41698000  0.55599000  1.0
  H  H8  1  0.18877000  0.22472000  0.62864000  1.0
  H  H9  1  0.13696000  0.12651000  0.82424000  1.0
  H  H10  1  0.03127000  0.23117000  0.97513000  1.0
  H  H11  1  0.97742000  0.43416000  0.92874000  1.0
  H  H12  1  0.03014000  0.53265000  0.73463000  1.0
  H  H13  1  0.39656000  0.86338000  0.89520000  1.0
  H  H14  1  0.74137000  0.66037000  0.27101000  1.0
  H  H15  1  0.85139000  0.86201000  0.17467000  1.0
  H  H16  1  0.09245000  0.00489000  0.26754000  1.0
  H  H17  1  0.22308000  0.94493000  0.45278000  1.0
  H  H18  1  0.11597000  0.74301000  0.54626000  1.0
  H  H19  1  0.44505000  0.21188000  0.71418000  1.0
  H  H20  1  0.54243000  0.77411000  0.28119000  1.0
  H  H21  1  0.40149000  0.09177000  0.89701000  1.0
  H  H22  1  0.58157000  0.89317000  0.09657000  1.0
  H  H23  1  0.44075000  0.75737000  0.71179000  1.0
  H  H24  1  0.54504000  0.22815000  0.28243000  1.0
  H  H25  1  0.60360000  0.49988000  0.11339000  1.0
  C  C26  1  0.57530000  0.50973000  0.73398000  1.0
  C  C27  1  0.49678000  0.73008000  0.49787000  1.0
  C  C28  1  0.44425000  0.11274000  0.71269000  1.0
  C  C29  1  0.54237000  0.87302000  0.28193000  1.0
  C  C30  1  0.41961000  0.04554000  0.81466000  1.0
  C  C31  1  0.56450000  0.93953000  0.17927000  1.0
  C  C32  1  0.41768000  0.91589000  0.81384000  1.0
  C  C33  1  0.56583000  0.06895000  0.17985000  1.0
  C  C34  1  0.44248000  0.85677000  0.71164000  1.0
  C  C35  1  0.54329000  0.12876000  0.28258000  1.0
  C  C36  1  0.46922000  0.92348000  0.60363000  1.0
  C  C37  1  0.40732000  0.46818000  0.26179000  1.0
  C  C38  1  0.51930000  0.06281000  0.39132000  1.0
  C  C39  1  0.46864000  0.05445000  0.60379000  1.0
  C  C40  1  0.51995000  0.93189000  0.39127000  1.0
  C  C41  1  0.49577000  0.86581000  0.49763000  1.0
  C  C42  1  0.49311000  0.12067000  0.49745000  1.0
  C  C43  1  0.10610000  0.38107000  0.66652000  1.0
  C  C44  1  0.13997000  0.26828000  0.69414000  1.0
  C  C45  1  0.11114000  0.21430000  0.80400000  1.0
  C  C46  1  0.05168000  0.27302000  0.88839000  1.0
  C  C47  1  0.02129000  0.38674000  0.86240000  1.0
  C  C48  1  0.59513000  0.50670000  0.86878000  1.0
  C  C49  1  0.04874000  0.44137000  0.75226000  1.0
  C  C50  1  0.92435000  0.68673000  0.41046000  1.0
  C  C51  1  0.84819000  0.72252000  0.30754000  1.0
  C  C52  1  0.91018000  0.83501000  0.25498000  1.0
  C  C53  1  0.04548000  0.91492000  0.30671000  1.0
  C  C54  1  0.11955000  0.88115000  0.41083000  1.0
  C  C55  1  0.06015000  0.76714000  0.46267000  1.0
  C  C56  1  0.38408000  0.46155000  0.12651000  1.0
  C  C57  1  0.48162000  0.48035000  0.93137000  1.0
  C  C58  1  0.49559000  0.48082000  0.06214000  1.0
  C  C59  1  0.92163000  0.49607000  0.50963000  1.0
  C  C60  1  0.06577000  0.49697000  0.49303000  1.0
  C  C61  1  0.48982000  0.25575000  0.49668000  1.0
  N  N62  1  0.85504000  0.57367000  0.46246000  1.0
  N  N63  1  0.14115000  0.43442000  0.55582000  1.0
  O  O64  1  0.44591000  0.48338000  0.67985000  1.0
  O  O65  1  0.53777000  0.50219000  0.31472000  1.0
  O  O66  1  0.68815000  0.53856000  0.68211000  1.0
  O  O67  1  0.29571000  0.43989000  0.31555000  1.0
  O  O68  1  0.36738000  0.27395000  0.49566000  1.0
  O  O69  1  0.61865000  0.71060000  0.50161000  1.0
  O  O70  1  0.60945000  0.34037000  0.49675000  1.0
  O  O71  1  0.37578000  0.64648000  0.49474000  1.0
