# generated using pymatgen
data_AlH10C19I2NO5
_symmetry_space_group_name_H-M   'P 1'
_cell_length_a   6.63763000
_cell_length_b   25.73620000
_cell_length_c   28.52280000
_cell_angle_alpha   90.35460000
_cell_angle_beta   90.43320000
_cell_angle_gamma   88.48930000
_symmetry_Int_Tables_number   1
_chemical_formula_structural   AlH10C19I2NO5
_chemical_formula_sum   'Al4 H40 C76 I8 N4 O20'
_cell_volume   4870.55476822
_cell_formula_units_Z   4
loop_
 _symmetry_equiv_pos_site_id
 _symmetry_equiv_pos_as_xyz
  1  'x, y, z'
loop_
 _atom_site_type_symbol
 _atom_site_label
 _atom_site_symmetry_multiplicity
 _atom_site_fract_x
 _atom_site_fract_y
 _atom_site_fract_z
 _atom_site_occupancy
  Al  Al0  1  0.77088000  0.74853000  0.74686000  1.0
  Al  Al1  1  0.22912000  0.25147000  0.25314000  1.0
  Al  Al2  1  0.27099000  0.74692000  0.74568000  1.0
  Al  Al3  1  0.72901000  0.25308000  0.25433000  1.0
  H  H4  1  0.69480000  0.65045000  0.63762000  1.0
  H  H5  1  0.30521000  0.34955000  0.36238000  1.0
  H  H6  1  0.33255000  0.56925000  0.57792000  1.0
  H  H7  1  0.66745000  0.43075000  0.42208000  1.0
  H  H8  1  0.33964000  0.63482000  0.64372000  1.0
  H  H9  1  0.66037000  0.36518000  0.35628000  1.0
  H  H10  1  0.75320000  0.67551000  0.87429000  1.0
  H  H11  1  0.24679000  0.32449000  0.12571000  1.0
  H  H12  1  0.15070000  0.47322000  0.92399000  1.0
  H  H13  1  0.84931000  0.52678000  0.07601000  1.0
  H  H14  1  0.24160000  0.05357000  0.39752000  1.0
  H  H15  1  0.75839000  0.94643000  0.60248000  1.0
  H  H16  1  0.23451000  0.12181000  0.33547000  1.0
  H  H17  1  0.76548000  0.87820000  0.66453000  1.0
  H  H18  1  0.20209000  0.06045000  0.49572000  1.0
  H  H19  1  0.79790000  0.93955000  0.50428000  1.0
  H  H20  1  0.76361000  0.11295000  0.05242000  1.0
  H  H21  1  0.23638000  0.88705000  0.94758000  1.0
  H  H22  1  0.20412000  0.05460000  0.10372000  1.0
  H  H23  1  0.79588000  0.94540000  0.89628000  1.0
  H  H24  1  0.21133000  0.11967000  0.16792000  1.0
  H  H25  1  0.78867000  0.88034000  0.83209000  1.0
  H  H26  1  0.34501000  0.97964000  0.07638000  1.0
  H  H27  1  0.65499000  0.02037000  0.92362000  1.0
  H  H28  1  0.35873000  0.91329000  0.01422000  1.0
  H  H29  1  0.64126000  0.08671000  0.98578000  1.0
  H  H30  1  0.13720000  0.41026000  0.98823000  1.0
  H  H31  1  0.86282000  0.58973000  0.01177000  1.0
  H  H32  1  0.20517000  0.98664000  0.55131000  1.0
  H  H33  1  0.79482000  0.01336000  0.44869000  1.0
  H  H34  1  0.68657000  0.58536000  0.57153000  1.0
  H  H35  1  0.31343000  0.41464000  0.42847000  1.0
  H  H36  1  0.73488000  0.61437000  0.94087000  1.0
  H  H37  1  0.26513000  0.38563000  0.05913000  1.0
  H  H38  1  0.29690000  0.54252000  0.89687000  1.0
  H  H39  1  0.70310000  0.45747000  0.10313000  1.0
  H  H40  1  0.52810000  0.68395000  0.76627000  1.0
  H  H41  1  0.47190000  0.31605000  0.23373000  1.0
  H  H42  1  0.02165000  0.80949000  0.76912000  1.0
  H  H43  1  0.97835000  0.19051000  0.23088000  1.0
  C  C44  1  0.51228000  0.80455000  0.67931000  1.0
  C  C45  1  0.48769000  0.19545000  0.32069000  1.0
  C  C46  1  0.51519000  0.81165000  0.81068000  1.0
  C  C47  1  0.48479000  0.18835000  0.18933000  1.0
  C  C48  1  0.03059000  0.68409000  0.80990000  1.0
  C  C49  1  0.96939000  0.31591000  0.19011000  1.0
  C  C50  1  0.02125000  0.68385000  0.68423000  1.0
  C  C51  1  0.97876000  0.31615000  0.31577000  1.0
  C  C52  1  0.83305000  0.63226000  0.62423000  1.0
  C  C53  1  0.16696000  0.36774000  0.37577000  1.0
  C  C54  1  0.82845000  0.59631000  0.58773000  1.0
  C  C55  1  0.17155000  0.40369000  0.41227000  1.0
  C  C56  1  0.00906000  0.57324000  0.57118000  1.0
  C  C57  1  0.99094000  0.42676000  0.42882000  1.0
  C  C58  1  0.19417000  0.58729000  0.59131000  1.0
  C  C59  1  0.80583000  0.41272000  0.40869000  1.0
  C  C60  1  0.19807000  0.62342000  0.62766000  1.0
  C  C61  1  0.80194000  0.37658000  0.37234000  1.0
  C  C62  1  0.01771000  0.64584000  0.64458000  1.0
  C  C63  1  0.98229000  0.35416000  0.35542000  1.0
  C  C64  1  0.99572000  0.46564000  0.46679000  1.0
  C  C65  1  0.00427000  0.53437000  0.53321000  1.0
  C  C66  1  0.87350000  0.64661000  0.88023000  1.0
  C  C67  1  0.12649000  0.35338000  0.11978000  1.0
  C  C68  1  0.86430000  0.61245000  0.91755000  1.0
  C  C69  1  0.13571000  0.38754000  0.08245000  1.0
  C  C70  1  0.01645000  0.57411000  0.92419000  1.0
  C  C71  1  0.98357000  0.42588000  0.07581000  1.0
  C  C72  1  0.17657000  0.57168000  0.89223000  1.0
  C  C73  1  0.82344000  0.42832000  0.10777000  1.0
  C  C74  1  0.18570000  0.60620000  0.85483000  1.0
  C  C75  1  0.81430000  0.39380000  0.14517000  1.0
  C  C76  1  0.03411000  0.64480000  0.84829000  1.0
  C  C77  1  0.96588000  0.35520000  0.15171000  1.0
  C  C78  1  0.08717000  0.48548000  0.95756000  1.0
  C  C79  1  0.91285000  0.51452000  0.04244000  1.0
  C  C80  1  0.07924000  0.44983000  0.99388000  1.0
  C  C81  1  0.92078000  0.55017000  0.00612000  1.0
  C  C82  1  0.99171000  0.46356000  0.03712000  1.0
  C  C83  1  0.00831000  0.53644000  0.96288000  1.0
  C  C84  1  0.62690000  0.16516000  0.40114000  1.0
  C  C85  1  0.37311000  0.83484000  0.59886000  1.0
  C  C86  1  0.62811000  0.12701000  0.43639000  1.0
  C  C87  1  0.37189000  0.87299000  0.56361000  1.0
  C  C88  1  0.49407000  0.08532000  0.43442000  1.0
  C  C89  1  0.50593000  0.91468000  0.56558000  1.0
  C  C90  1  0.34931000  0.08485000  0.39837000  1.0
  C  C91  1  0.65068000  0.91515000  0.60163000  1.0
  C  C92  1  0.34605000  0.12242000  0.36368000  1.0
  C  C93  1  0.65394000  0.87759000  0.63632000  1.0
  C  C94  1  0.48898000  0.16154000  0.36333000  1.0
  C  C95  1  0.51102000  0.83846000  0.63667000  1.0
  C  C96  1  0.33245000  0.03377000  0.49743000  1.0
  C  C97  1  0.66754000  0.96623000  0.50256000  1.0
  C  C98  1  0.33429000  0.99234000  0.52865000  1.0
  C  C99  1  0.66570000  0.00766000  0.47135000  1.0
  C  C100  1  0.50142000  0.95797000  0.53143000  1.0
  C  C101  1  0.49857000  0.04203000  0.46857000  1.0
  C  C102  1  0.64308000  0.15107000  0.11358000  1.0
  C  C103  1  0.35692000  0.84893000  0.88642000  1.0
  C  C104  1  0.64108000  0.11407000  0.07763000  1.0
  C  C105  1  0.35892000  0.88594000  0.92237000  1.0
  C  C106  1  0.48695000  0.07788000  0.07379000  1.0
  C  C107  1  0.51305000  0.92212000  0.92621000  1.0
  C  C108  1  0.33055000  0.08064000  0.10676000  1.0
  C  C109  1  0.66945000  0.91936000  0.89324000  1.0
  C  C110  1  0.33333333  0.11734000  0.14261000  1.0
  C  C111  1  0.66666667  0.88266000  0.85740000  1.0
  C  C112  1  0.49034000  0.15267000  0.14765000  1.0
  C  C113  1  0.50967000  0.84733000  0.85235000  1.0
  C  C114  1  0.41066000  0.98913000  0.04267000  1.0
  C  C115  1  0.58934000  0.01087000  0.95733000  1.0
  C  C116  1  0.41853000  0.95156000  0.00746000  1.0
  C  C117  1  0.58146000  0.04844000  0.99254000  1.0
  C  C118  1  0.50779000  0.96159000  0.96397000  1.0
  C  C119  1  0.49220000  0.03841000  0.03603000  1.0
  I  I120  1  0.81012000  0.23034000  0.40789000  1.0
  I  I121  1  0.18991000  0.76965000  0.59210000  1.0
  I  I122  1  0.81957000  0.13249000  0.49570000  1.0
  I  I123  1  0.18043000  0.86750000  0.50430000  1.0
  I  I124  1  0.87672000  0.20497000  0.10976000  1.0
  I  I125  1  0.12329000  0.79503000  0.89025000  1.0
  I  I126  1  0.42767000  0.59179000  0.80820000  1.0
  I  I127  1  0.57231000  0.40821000  0.19180000  1.0
  N  N128  1  0.18169000  0.51201000  0.51953000  1.0
  N  N129  1  0.81831000  0.48799000  0.48047000  1.0
  N  N130  1  0.17735000  0.47706000  0.48573000  1.0
  N  N131  1  0.82264000  0.52294000  0.51427000  1.0
  O  O132  1  0.34753000  0.79852000  0.79296000  1.0
  O  O133  1  0.65248000  0.20148000  0.20705000  1.0
  O  O134  1  0.68343000  0.79444000  0.69793000  1.0
  O  O135  1  0.31659000  0.20556000  0.30208000  1.0
  O  O136  1  0.85162000  0.70044000  0.69941000  1.0
  O  O137  1  0.14837000  0.29956000  0.30059000  1.0
  O  O138  1  0.68908000  0.79841000  0.79523000  1.0
  O  O139  1  0.31092000  0.20159000  0.20477000  1.0
  O  O140  1  0.85695000  0.69981000  0.79573000  1.0
  O  O141  1  0.14304000  0.30019000  0.20427000  1.0
  O  O142  1  0.34385000  0.79098000  0.69535000  1.0
  O  O143  1  0.65616000  0.20903000  0.30465000  1.0
  O  O144  1  0.52506000  0.71654000  0.74904000  1.0
  O  O145  1  0.47493000  0.28347000  0.25096000  1.0
  O  O146  1  0.19896000  0.69920000  0.79503000  1.0
  O  O147  1  0.80103000  0.30080000  0.20497000  1.0
  O  O148  1  0.19237000  0.69657000  0.70040000  1.0
  O  O149  1  0.80762000  0.30343000  0.29960000  1.0
  O  O150  1  0.01913000  0.77988000  0.74791000  1.0
  O  O151  1  0.98087000  0.22012000  0.25209000  1.0
