# generated using pymatgen
data_ZnBH20C19(N3O)2
_symmetry_space_group_name_H-M   'P 1'
_cell_length_a   15.59352344
_cell_length_b   15.59340000
_cell_length_c   15.59360000
_cell_angle_alpha   105.52800000
_cell_angle_beta   105.52786544
_cell_angle_gamma   117.68256342
_symmetry_Int_Tables_number   1
_chemical_formula_structural   ZnBH20C19(N3O)2
_chemical_formula_sum   'Zn4 B4 H80 C76 N24 O8'
_cell_volume   2873.30005866
_cell_formula_units_Z   4
loop_
 _symmetry_equiv_pos_site_id
 _symmetry_equiv_pos_as_xyz
  1  'x, y, z'
loop_
 _atom_site_type_symbol
 _atom_site_label
 _atom_site_symmetry_multiplicity
 _atom_site_fract_x
 _atom_site_fract_y
 _atom_site_fract_z
 _atom_site_occupancy
  Zn  Zn0  1  0.88889000  0.93061000  0.27190000  1.0
  Zn  Zn1  1  0.38301000  0.11111000  0.04172000  1.0
  Zn  Zn2  1  0.65870000  0.61698000  0.72810000  1.0
  Zn  Zn3  1  0.06939000  0.34129000  0.95828000  1.0
  B  B4  1  0.31051000  0.26223000  0.36268000  1.0
  B  B5  1  0.05217000  0.68950000  0.95172000  1.0
  B  B6  1  0.89955000  0.94783000  0.63732000  1.0
  B  B7  1  0.73777000  0.10045000  0.04828000  1.0
  H  H8  1  0.26790000  0.04834000  0.29911000  1.0
  H  H9  1  0.03121000  0.73211000  0.78045000  1.0
  H  H10  1  0.74924000  0.96879000  0.70089000  1.0
  H  H11  1  0.95165000  0.25076000  0.21956000  1.0
  H  H12  1  0.84090000  0.56029000  0.10408000  1.0
  H  H13  1  0.26318000  0.15909000  0.71939000  1.0
  H  H14  1  0.45621000  0.73682000  0.89591000  1.0
  H  H15  1  0.43970000  0.54379000  0.28061000  1.0
  H  H16  1  0.34205000  0.20697000  0.52766000  1.0
  H  H17  1  0.18561000  0.65795000  0.86493000  1.0
  H  H18  1  0.67932000  0.81440000  0.47234000  1.0
  H  H19  1  0.79302000  0.32068000  0.13507000  1.0
  H  H20  1  0.49399000  0.45705000  0.85077000  1.0
  H  H21  1  0.35677000  0.50601000  0.96305000  1.0
  H  H22  1  0.60628000  0.64322000  0.14923000  1.0
  H  H23  1  0.54296000  0.39372000  0.03695000  1.0
  H  H24  1  0.71963000  0.37753000  0.95045000  1.0
  H  H25  1  0.23082000  0.28037000  0.65791000  1.0
  H  H26  1  0.42709000  0.76919000  0.04955000  1.0
  H  H27  1  0.62246000  0.57291000  0.34210000  1.0
  H  H28  1  0.54571000  0.32785000  0.82451000  1.0
  H  H29  1  0.27880000  0.45429000  0.78214000  1.0
  H  H30  1  0.50335000  0.72121000  0.17549000  1.0
  H  H31  1  0.67214000  0.49665000  0.21785000  1.0
  H  H32  1  0.05972000  0.88507000  0.26203000  1.0
  H  H33  1  0.20232000  0.94029000  0.82536000  1.0
  H  H34  1  0.62305000  0.79770000  0.73798000  1.0
  H  H35  1  0.11492000  0.37695000  0.17464000  1.0
  H  H36  1  0.55908000  0.21410000  0.27240000  1.0
  H  H37  1  0.71332000  0.44092000  0.65502000  1.0
  H  H38  1  0.94170000  0.28669000  0.72760000  1.0
  H  H39  1  0.78590000  0.05830000  0.34498000  1.0
  H  H40  1  0.01539000  0.17434000  0.36632000  1.0
  H  H41  1  0.35093000  0.98461000  0.15895000  1.0
  H  H42  1  0.80802000  0.64907000  0.63368000  1.0
  H  H43  1  0.82566000  0.19197000  0.84105000  1.0
  H  H44  1  0.11146000  0.26025000  0.33408000  1.0
  H  H45  1  0.22262000  0.88855000  0.14879000  1.0
  H  H46  1  0.92617000  0.77738000  0.66593000  1.0
  H  H47  1  0.73976000  0.07383000  0.85122000  1.0
  H  H48  1  0.15612000  0.27056000  0.45540000  1.0
  H  H49  1  0.29928000  0.84388000  0.11444000  1.0
  H  H50  1  0.81516000  0.70072000  0.54460000  1.0
  H  H51  1  0.72944000  0.18484000  0.88556000  1.0
  H  H52  1  0.18989000  0.19114000  0.17093000  1.0
  H  H53  1  0.98103000  0.81010000  0.00124000  1.0
  H  H54  1  0.02020000  0.01895000  0.82906000  1.0
  H  H55  1  0.80886000  0.97979000  0.99876000  1.0
  H  H56  1  0.24919000  0.21610000  0.08926000  1.0
  H  H57  1  0.84006000  0.75081000  0.96690000  1.0
  H  H58  1  0.12684000  0.15993000  0.91075000  1.0
  H  H59  1  0.78391000  0.87316000  0.03310000  1.0
  H  H60  1  0.17822000  0.08355000  0.07942000  1.0
  H  H61  1  0.90119000  0.82178000  0.90533000  1.0
  H  H62  1  0.00414000  0.09880000  0.92059000  1.0
  H  H63  1  0.91645000  0.99586000  0.09467000  1.0
  H  H64  1  0.51854000  0.38318000  0.70776000  1.0
  H  H65  1  0.18922000  0.48145000  0.86464000  1.0
  H  H66  1  0.67542000  0.81078000  0.29223000  1.0
  H  H67  1  0.61682000  0.32459000  0.13537000  1.0
  H  H68  1  0.51736000  0.28792000  0.42912000  1.0
  H  H69  1  0.91176000  0.48264000  0.77056000  1.0
  H  H70  1  0.85880000  0.08824000  0.57088000  1.0
  H  H71  1  0.71207000  0.14120000  0.22943000  1.0
  H  H72  1  0.55668000  0.59278000  0.52660000  1.0
  H  H73  1  0.96992000  0.44332000  0.03610000  1.0
  H  H74  1  0.06618000  0.03008000  0.47340000  1.0
  H  H75  1  0.40722000  0.93382000  0.96390000  1.0
  H  H76  1  0.41641000  0.50481000  0.43610000  1.0
  H  H77  1  0.01969000  0.58359000  0.08840000  1.0
  H  H78  1  0.06871000  0.98031000  0.56391000  1.0
  H  H79  1  0.49520000  0.93129000  0.91160000  1.0
  H  H80  1  0.51001000  0.48071000  0.41295000  1.0
  H  H81  1  0.90294000  0.49000000  0.97070000  1.0
  H  H82  1  0.06777000  0.09707000  0.58706000  1.0
  H  H83  1  0.51929000  0.93223000  0.02929000  1.0
  H  H84  1  0.27723000  0.31102000  0.33424000  1.0
  H  H85  1  0.05701000  0.72277000  0.03379000  1.0
  H  H86  1  0.97677000  0.94298000  0.66576000  1.0
  H  H87  1  0.68898000  0.02322000  0.96621000  1.0
  C  C88  1  0.63748000  0.58224000  0.99109000  1.0
  C  C89  1  0.35361000  0.36252000  0.94476000  1.0
  C  C90  1  0.59116000  0.64640000  0.00891000  1.0
  C  C91  1  0.41776000  0.40885000  0.05524000  1.0
  C  C92  1  0.73649000  0.61007000  0.06192000  1.0
  C  C93  1  0.32544000  0.26351000  0.87359000  1.0
  C  C94  1  0.54814000  0.67456000  0.93806000  1.0
  C  C95  1  0.38992000  0.45185000  0.12641000  1.0
  C  C96  1  0.20238000  0.05190000  0.30655000  1.0
  C  C97  1  0.10417000  0.79762000  0.84952000  1.0
  C  C98  1  0.74536000  0.89584000  0.69345000  1.0
  C  C99  1  0.94809000  0.25464000  0.15048000  1.0
  C  C100  1  0.11816000  0.12781000  0.34051000  1.0
  C  C101  1  0.22235000  0.88184000  0.00965000  1.0
  C  C102  1  0.78730000  0.77765000  0.65949000  1.0
  C  C103  1  0.87219000  0.21270000  0.99035000  1.0
  C  C104  1  0.76479000  0.53597000  0.04631000  1.0
  C  C105  1  0.28152000  0.23521000  0.77119000  1.0
  C  C106  1  0.48967000  0.71848000  0.95369000  1.0
  C  C107  1  0.46402000  0.51033000  0.22881000  1.0
  C  C108  1  0.39794000  0.29151000  0.54640000  1.0
  C  C109  1  0.14847000  0.60206000  0.89358000  1.0
  C  C110  1  0.74511000  0.85154000  0.45359000  1.0
  C  C111  1  0.70848000  0.25489000  0.10643000  1.0
  C  C112  1  0.57158000  0.48062000  0.90504000  1.0
  C  C113  1  0.33346000  0.42843000  0.90905000  1.0
  C  C114  1  0.57559000  0.66655000  0.09496000  1.0
  C  C115  1  0.51938000  0.42442000  0.09096000  1.0
  C  C116  1  0.33575000  0.19776000  0.20613000  1.0
  C  C117  1  0.87037000  0.66424000  0.86200000  1.0
  C  C118  1  0.99163000  0.12962000  0.79387000  1.0
  C  C119  1  0.80224000  0.00837000  0.13799000  1.0
  C  C120  1  0.69779000  0.43529000  0.96113000  1.0
  C  C121  1  0.26334000  0.30221000  0.73751000  1.0
  C  C122  1  0.47417000  0.73667000  0.03888000  1.0
  C  C123  1  0.56471000  0.52584000  0.26250000  1.0
  C  C124  1  0.81666000  0.71811000  0.15496000  1.0
  C  C125  1  0.33830000  0.18334000  0.90146000  1.0
  C  C126  1  0.56315000  0.66170000  0.84504000  1.0
  C  C127  1  0.28188000  0.43684000  0.09854000  1.0
  C  C128  1  0.60070000  0.40793000  0.88994000  1.0
  C  C129  1  0.28924000  0.39930000  0.80723000  1.0
  C  C130  1  0.51800000  0.71077000  0.11006000  1.0
  C  C131  1  0.59206000  0.48200000  0.19276000  1.0
  C  C132  1  0.10045000  0.97217000  0.28778000  1.0
  C  C133  1  0.18734000  0.89955000  0.87172000  1.0
  C  C134  1  0.68439000  0.81267000  0.71221000  1.0
  C  C135  1  0.02782000  0.31561000  0.12828000  1.0
  C  C136  1  0.09881000  0.21250000  0.37581000  1.0
  C  C137  1  0.27700000  0.90119000  0.11369000  1.0
  C  C138  1  0.83669000  0.72300000  0.62420000  1.0
  C  C139  1  0.78751000  0.16331000  0.88631000  1.0
  C  C140  1  0.23243000  0.17094000  0.13283000  1.0
  C  C141  1  0.90039000  0.76757000  0.93851000  1.0
  C  C142  1  0.03811000  0.09960000  0.86717000  1.0
  C  C143  1  0.82907000  0.96189000  0.06150000  1.0
  C  C144  1  0.48531000  0.37859000  0.63489000  1.0
  C  C145  1  0.14958000  0.51468000  0.89328000  1.0
  C  C146  1  0.74370000  0.85042000  0.36510000  1.0
  C  C147  1  0.62141000  0.25631000  0.10673000  1.0
  C  C148  1  0.49061000  0.21690000  0.27122000  1.0
  C  C149  1  0.78061000  0.50939000  0.72629000  1.0
  C  C150  1  0.94568000  0.21939000  0.72878000  1.0
  C  C151  1  0.78310000  0.05432000  0.27371000  1.0
  C  C152  1  0.47112000  0.25411000  0.34892000  1.0
  C  C153  1  0.87780000  0.52888000  0.78299000  1.0
  C  C154  1  0.90519000  0.12221000  0.65108000  1.0
  C  C155  1  0.74589000  0.09481000  0.21701000  1.0
  C  C156  1  0.47008000  0.43805000  0.52303000  1.0
  C  C157  1  0.05295000  0.52992000  0.96797000  1.0
  C  C158  1  0.91503000  0.94706000  0.47698000  1.0
  C  C159  1  0.56195000  0.08498000  0.03203000  1.0
  C  C160  1  0.48963000  0.50818000  0.47218000  1.0
  C  C161  1  0.98255000  0.51038000  0.01855000  1.0
  C  C162  1  0.03600000  0.01745000  0.52782000  1.0
  C  C163  1  0.49182000  0.96399000  0.98144000  1.0
  N  N164  1  0.21291000  0.14984000  0.33936000  1.0
  N  N165  1  0.12645000  0.78709000  0.93693000  1.0
  N  N166  1  0.81048000  0.87355000  0.66064000  1.0
  N  N167  1  0.85016000  0.18952000  0.06307000  1.0
  N  N168  1  0.40541000  0.18133000  0.18248000  1.0
  N  N169  1  0.77707000  0.59459000  0.77592000  1.0
  N  N170  1  0.99885000  0.22293000  0.81752000  1.0
  N  N171  1  0.81867000  0.00116000  0.22408000  1.0
  N  N172  1  0.04828000  0.02051000  0.30904000  1.0
  N  N173  1  0.26076000  0.95172000  0.97223000  1.0
  N  N174  1  0.71147000  0.73924000  0.69096000  1.0
  N  N175  1  0.97949000  0.28852000  0.02777000  1.0
  N  N176  1  0.37322000  0.24183000  0.30715000  1.0
  N  N177  1  0.93393000  0.62678000  0.86860000  1.0
  N  N178  1  0.93467000  0.06607000  0.69285000  1.0
  N  N179  1  0.75817000  0.06532000  0.13139000  1.0
  N  N180  1  0.38864000  0.32965000  0.47612000  1.0
  N  N181  1  0.08748000  0.61136000  0.94101000  1.0
  N  N182  1  0.85353000  0.91252000  0.52388000  1.0
  N  N183  1  0.67035000  0.14648000  0.05899000  1.0
  N  N184  1  0.53011000  0.46974000  0.61952000  1.0
  N  N185  1  0.08940000  0.46989000  0.93963000  1.0
  N  N186  1  0.85023000  0.91060000  0.38048000  1.0
  N  N187  1  0.53026000  0.14978000  0.06037000  1.0
  O  O188  1  0.81410000  0.79812000  0.14719000  1.0
  O  O189  1  0.33309000  0.18590000  0.98403000  1.0
  O  O190  1  0.65093000  0.66691000  0.85281000  1.0
  O  O191  1  0.20187000  0.34906000  0.01597000  1.0
  O  O192  1  0.88035000  0.72707000  0.23084000  1.0
  O  O193  1  0.35049000  0.11965000  0.84673000  1.0
  O  O194  1  0.49624000  0.64952000  0.76917000  1.0
  O  O195  1  0.27292000  0.50376000  0.15327000  1.0
