# generated using pymatgen
data_Zn3H20C28(NO)10
_symmetry_space_group_name_H-M   'P 1'
_cell_length_a   7.47740000
_cell_length_b   12.21220000
_cell_length_c   18.51360000
_cell_angle_alpha   81.54640000
_cell_angle_beta   89.99980000
_cell_angle_gamma   89.99990000
_symmetry_Int_Tables_number   1
_chemical_formula_structural   Zn3H20C28(NO)10
_chemical_formula_sum   'Zn6 H40 C56 N20 O20'
_cell_volume   1672.21098787
_cell_formula_units_Z   2
loop_
 _symmetry_equiv_pos_site_id
 _symmetry_equiv_pos_as_xyz
  1  'x, y, z'
loop_
 _atom_site_type_symbol
 _atom_site_label
 _atom_site_symmetry_multiplicity
 _atom_site_fract_x
 _atom_site_fract_y
 _atom_site_fract_z
 _atom_site_occupancy
  Zn  Zn0  1  0.00046000  0.00004000  0.00003000  1.0
  Zn  Zn1  1  0.50056000  0.49995000  0.49996000  1.0
  Zn  Zn2  1  0.78748000  0.10644000  0.68007000  1.0
  Zn  Zn3  1  0.28748000  0.39357000  0.81993000  1.0
  Zn  Zn4  1  0.21253000  0.89356000  0.31995000  1.0
  Zn  Zn5  1  0.71253000  0.60644000  0.18005000  1.0
  H  H6  1  0.47954000  0.94117000  0.72940000  1.0
  H  H7  1  0.97953000  0.55883000  0.77060000  1.0
  H  H8  1  0.52047000  0.05882000  0.27062000  1.0
  H  H9  1  0.02046000  0.44117000  0.22938000  1.0
  H  H10  1  0.37494000  0.92807000  0.51093000  1.0
  H  H11  1  0.87494000  0.57193000  0.98907000  1.0
  H  H12  1  0.62502000  0.07193000  0.48906000  1.0
  H  H13  1  0.12503000  0.42806000  0.01095000  1.0
  H  H14  1  0.39979000  0.12412000  0.54102000  1.0
  H  H15  1  0.89979000  0.37588000  0.95898000  1.0
  H  H16  1  0.60017000  0.87588000  0.45897000  1.0
  H  H17  1  0.10018000  0.62411000  0.04104000  1.0
  H  H18  1  0.88190000  0.73110000  0.59009000  1.0
  H  H19  1  0.38190000  0.76889000  0.90990000  1.0
  H  H20  1  0.11807000  0.26891000  0.40990000  1.0
  H  H21  1  0.61805000  0.23110000  0.09010000  1.0
  H  H22  1  0.11729000  0.81492000  0.55394000  1.0
  H  H23  1  0.61729000  0.68508000  0.94606000  1.0
  H  H24  1  0.88268000  0.18508000  0.44605000  1.0
  H  H25  1  0.38269000  0.31492000  0.05395000  1.0
  H  H26  1  0.60036000  0.64124000  0.64110000  1.0
  H  H27  1  0.10036000  0.85877000  0.85889000  1.0
  H  H28  1  0.39959000  0.35878000  0.35888000  1.0
  H  H29  1  0.89958000  0.14122000  0.14111000  1.0
  H  H30  1  0.14759000  0.19514000  0.61147000  1.0
  H  H31  1  0.64760000  0.30486000  0.88852000  1.0
  H  H32  1  0.85241000  0.80485000  0.38853000  1.0
  H  H33  1  0.35240000  0.69514000  0.11148000  1.0
  H  H34  1  0.39565000  0.74475000  0.71297000  1.0
  H  H35  1  0.89565000  0.75526000  0.78703000  1.0
  H  H36  1  0.60432000  0.25526000  0.28703000  1.0
  H  H37  1  0.10432000  0.24474000  0.21297000  1.0
  H  H38  1  0.33619000  0.92631000  0.05960000  1.0
  H  H39  1  0.83619000  0.57370000  0.44040000  1.0
  H  H40  1  0.66373000  0.07356000  0.94030000  1.0
  H  H41  1  0.16373000  0.42645000  0.55971000  1.0
  H  H42  1  0.34892000  0.02801000  0.00014000  1.0
  H  H43  1  0.84908000  0.47202000  0.49988000  1.0
  H  H44  1  0.65263000  0.97159000  0.99963000  1.0
  H  H45  1  0.15278000  0.52846000  0.50039000  1.0
  C  C46  1  0.99087000  0.28646000  0.74305000  1.0
  C  C47  1  0.49086000  0.21355000  0.75695000  1.0
  C  C48  1  0.00911000  0.71352000  0.25695000  1.0
  C  C49  1  0.50911000  0.78648000  0.24305000  1.0
  C  C50  1  0.99141000  0.18538000  0.79917000  1.0
  C  C51  1  0.49139000  0.31462000  0.70082000  1.0
  C  C52  1  0.00858000  0.81461000  0.20084000  1.0
  C  C53  1  0.50858000  0.68538000  0.29915000  1.0
  C  C54  1  0.82802000  0.88395000  0.63319000  1.0
  C  C55  1  0.32802000  0.61605000  0.86681000  1.0
  C  C56  1  0.17197000  0.11605000  0.36682000  1.0
  C  C57  1  0.67197000  0.38395000  0.13318000  1.0
  C  C58  1  0.04136000  0.15918000  0.87243000  1.0
  C  C59  1  0.54136000  0.34082000  0.62756000  1.0
  C  C60  1  0.95858000  0.84086000  0.12759000  1.0
  C  C61  1  0.45858000  0.65912000  0.37241000  1.0
  C  C62  1  0.99155000  0.94492000  0.60547000  1.0
  C  C63  1  0.49155000  0.55509000  0.89452000  1.0
  C  C64  1  0.00844000  0.05508000  0.39454000  1.0
  C  C65  1  0.50845000  0.44492000  0.10546000  1.0
  C  C66  1  0.56344000  0.89045000  0.69923000  1.0
  C  C67  1  0.06344000  0.60956000  0.80077000  1.0
  C  C68  1  0.43655000  0.10955000  0.30078000  1.0
  C  C69  1  0.93655000  0.39045000  0.19922000  1.0
  C  C70  1  0.27354000  0.96351000  0.54263000  1.0
  C  C71  1  0.77354000  0.53649000  0.95737000  1.0
  C  C72  1  0.72643000  0.03649000  0.45736000  1.0
  C  C73  1  0.22643000  0.46351000  0.04264000  1.0
  C  C74  1  0.28557000  0.07155000  0.55806000  1.0
  C  C75  1  0.78557000  0.42846000  0.94194000  1.0
  C  C76  1  0.71441000  0.92845000  0.44193000  1.0
  C  C77  1  0.21441000  0.57154000  0.05807000  1.0
  C  C78  1  0.79109000  0.77561000  0.62141000  1.0
  C  C79  1  0.29109000  0.72439000  0.87859000  1.0
  C  C80  1  0.20888000  0.22440000  0.37859000  1.0
  C  C81  1  0.70888000  0.27560000  0.12141000  1.0
  C  C82  1  0.12566000  0.89902000  0.56658000  1.0
  C  C83  1  0.62565000  0.60099000  0.93342000  1.0
  C  C84  1  0.87433000  0.10098000  0.43342000  1.0
  C  C85  1  0.37433000  0.39902000  0.06658000  1.0
  C  C86  1  0.63442000  0.72483000  0.64991000  1.0
  C  C87  1  0.13442000  0.77517000  0.85009000  1.0
  C  C88  1  0.36554000  0.27518000  0.35009000  1.0
  C  C89  1  0.86555000  0.22482000  0.14991000  1.0
  C  C90  1  0.14722000  0.11153000  0.59721000  1.0
  C  C91  1  0.64722000  0.38847000  0.90279000  1.0
  C  C92  1  0.85279000  0.88846000  0.40280000  1.0
  C  C93  1  0.35278000  0.61154000  0.09720000  1.0
  C  C94  1  0.51894000  0.78257000  0.68998000  1.0
  C  C95  1  0.01894000  0.71743000  0.81002000  1.0
  C  C96  1  0.48103000  0.21743000  0.31002000  1.0
  C  C97  1  0.98103000  0.28257000  0.18998000  1.0
  C  C98  1  0.11805000  0.21690000  0.93073000  1.0
  C  C99  1  0.61803000  0.28309000  0.56927000  1.0
  C  C100  1  0.88180000  0.78321000  0.06928000  1.0
  C  C101  1  0.38179000  0.71677000  0.43072000  1.0
  N  N102  1  0.92272000  0.01043000  0.83609000  1.0
  N  N103  1  0.42272000  0.48957000  0.66390000  1.0
  N  N104  1  0.07726000  0.98957000  0.16397000  1.0
  N  N105  1  0.57726000  0.51042000  0.33603000  1.0
  N  N106  1  0.92074000  0.09134000  0.77993000  1.0
  N  N107  1  0.42075000  0.40866000  0.72007000  1.0
  N  N108  1  0.07924000  0.90863000  0.22011000  1.0
  N  N109  1  0.57925000  0.59136000  0.27989000  1.0
  N  N110  1  0.71359000  0.93956000  0.67113000  1.0
  N  N111  1  0.21360000  0.56045000  0.82887000  1.0
  N  N112  1  0.28641000  0.06044000  0.32890000  1.0
  N  N113  1  0.78641000  0.43956000  0.17111000  1.0
  N  N114  1  0.99672000  0.05091000  0.89222000  1.0
  N  N115  1  0.49670000  0.44908000  0.60778000  1.0
  N  N116  1  0.00323000  0.94913000  0.10783000  1.0
  N  N117  1  0.50322000  0.55086000  0.39216000  1.0
  N  N118  1  0.00455000  0.04987000  0.61988000  1.0
  N  N119  1  0.50455000  0.45013000  0.88012000  1.0
  N  N120  1  0.99547000  0.95012000  0.38013000  1.0
  N  N121  1  0.49546000  0.54988000  0.11987000  1.0
  O  O122  1  0.92336000  0.27517000  0.68151000  1.0
  O  O123  1  0.42336000  0.22483000  0.81849000  1.0
  O  O124  1  0.07660000  0.72479000  0.31850000  1.0
  O  O125  1  0.57662000  0.77520000  0.18150000  1.0
  O  O126  1  0.05388000  0.37640000  0.75925000  1.0
  O  O127  1  0.55388000  0.12361000  0.74075000  1.0
  O  O128  1  0.94610000  0.62359000  0.24074000  1.0
  O  O129  1  0.44611000  0.87640000  0.25927000  1.0
  O  O130  1  0.31449000  0.94979000  0.00758000  1.0
  O  O131  1  0.81442000  0.55021000  0.49242000  1.0
  O  O132  1  0.68463000  0.05021000  0.99239000  1.0
  O  O133  1  0.18454000  0.44979000  0.50761000  1.0
  O  O134  1  0.17555000  0.31532000  0.91690000  1.0
  O  O135  1  0.67554000  0.18468000  0.58310000  1.0
  O  O136  1  0.82445000  0.68475000  0.08307000  1.0
  O  O137  1  0.32445000  0.81523000  0.41694000  1.0
  O  O138  1  0.11734000  0.16161000  0.99527000  1.0
  O  O139  1  0.61730000  0.33837000  0.50473000  1.0
  O  O140  1  0.88226000  0.83862000  0.00477000  1.0
  O  O141  1  0.38224000  0.66137000  0.49523000  1.0
