# generated using pymatgen
data_CoH26C25S2(NO)4
_symmetry_space_group_name_H-M   'P 1'
_cell_length_a   11.98830000
_cell_length_b   12.04110000
_cell_length_c   24.65650000
_cell_angle_alpha   89.88370000
_cell_angle_beta   90.04020000
_cell_angle_gamma   89.90730000
_symmetry_Int_Tables_number   1
_chemical_formula_structural   CoH26C25S2(NO)4
_chemical_formula_sum   'Co4 H104 C100 S8 N16 O16'
_cell_volume   3559.21008165
_cell_formula_units_Z   4
loop_
 _symmetry_equiv_pos_site_id
 _symmetry_equiv_pos_as_xyz
  1  'x, y, z'
loop_
 _atom_site_type_symbol
 _atom_site_label
 _atom_site_symmetry_multiplicity
 _atom_site_fract_x
 _atom_site_fract_y
 _atom_site_fract_z
 _atom_site_occupancy
  Co  Co0  1  0.25002000  0.25013000  0.08352000  1.0
  Co  Co1  1  0.74990000  0.74999000  0.58345000  1.0
  Co  Co2  1  0.74999000  0.74992000  0.91651000  1.0
  Co  Co3  1  0.25006000  0.24997000  0.41958000  1.0
  H  H4  1  0.41640000  0.43187000  0.10996000  1.0
  H  H5  1  0.08388000  0.06870000  0.10957000  1.0
  H  H6  1  0.56780000  0.91581000  0.61044000  1.0
  H  H7  1  0.93222000  0.58475000  0.61022000  1.0
  H  H8  1  0.58380000  0.56844000  0.89017000  1.0
  H  H9  1  0.91587000  0.93107000  0.89066000  1.0
  H  H10  1  0.43220000  0.07954000  0.38681000  1.0
  H  H11  1  0.06782000  0.42016000  0.38671000  1.0
  H  H12  1  0.43874000  0.58678000  0.17596000  1.0
  H  H13  1  0.06152000  0.91379000  0.17573000  1.0
  H  H14  1  0.41296000  0.93789000  0.67700000  1.0
  H  H15  1  0.08689000  0.56257000  0.67690000  1.0
  H  H16  1  0.56213000  0.41287000  0.82441000  1.0
  H  H17  1  0.93768000  0.08650000  0.82467000  1.0
  H  H18  1  0.58721000  0.05810000  0.31969000  1.0
  H  H19  1  0.91266000  0.44171000  0.31958000  1.0
  H  H20  1  0.13754000  0.46920000  0.25428000  1.0
  H  H21  1  0.36254000  0.03120000  0.25420000  1.0
  H  H22  1  0.53150000  0.63643000  0.75438000  1.0
  H  H23  1  0.96774000  0.86327000  0.75410000  1.0
  H  H24  1  0.86335000  0.53073000  0.74615000  1.0
  H  H25  1  0.63667000  0.96882000  0.74624000  1.0
  H  H26  1  0.47397000  0.36600000  0.24654000  1.0
  H  H27  1  0.02614000  0.13431000  0.24665000  1.0
  H  H28  1  0.12997000  0.32093000  0.18531000  1.0
  H  H29  1  0.37013000  0.17973000  0.18517000  1.0
  H  H30  1  0.67989000  0.62938000  0.68500000  1.0
  H  H31  1  0.81925000  0.87036000  0.68473000  1.0
  H  H32  1  0.86997000  0.67980000  0.81477000  1.0
  H  H33  1  0.62994000  0.81954000  0.81494000  1.0
  H  H34  1  0.32856000  0.37425000  0.31792000  1.0
  H  H35  1  0.17175000  0.12594000  0.31802000  1.0
  H  H36  1  0.20488000  0.57694000  0.31999000  1.0
  H  H37  1  0.29542000  0.92306000  0.31989000  1.0
  H  H38  1  0.42339000  0.70256000  0.82039000  1.0
  H  H39  1  0.07622000  0.79739000  0.82022000  1.0
  H  H40  1  0.79776000  0.42247000  0.68114000  1.0
  H  H41  1  0.70226000  0.07751000  0.68120000  1.0
  H  H42  1  0.57633000  0.29736000  0.17841000  1.0
  H  H43  1  0.92360000  0.20277000  0.17855000  1.0
  H  H44  1  0.13720000  0.66811000  0.27207000  1.0
  H  H45  1  0.36306000  0.83213000  0.27206000  1.0
  H  H46  1  0.33088000  0.63699000  0.77260000  1.0
  H  H47  1  0.16871000  0.86316000  0.77240000  1.0
  H  H48  1  0.86417000  0.33038000  0.72896000  1.0
  H  H49  1  0.63589000  0.16937000  0.72891000  1.0
  H  H50  1  0.66938000  0.36268000  0.22609000  1.0
  H  H51  1  0.83067000  0.13724000  0.22628000  1.0
  H  H52  1  0.18275000  0.84519000  0.39462000  1.0
  H  H53  1  0.31763000  0.65460000  0.39476000  1.0
  H  H54  1  0.15297000  0.68450000  0.89543000  1.0
  H  H55  1  0.34680000  0.81532000  0.89539000  1.0
  H  H56  1  0.81491000  0.15360000  0.60616000  1.0
  H  H57  1  0.68501000  0.34648000  0.60601000  1.0
  H  H58  1  0.84653000  0.31561000  0.10295000  1.0
  H  H59  1  0.65347000  0.18460000  0.10292000  1.0
  H  H60  1  0.08884000  0.83037000  0.33878000  1.0
  H  H61  1  0.41154000  0.66976000  0.33896000  1.0
  H  H62  1  0.16817000  0.59010000  0.83991000  1.0
  H  H63  1  0.33152000  0.90993000  0.83979000  1.0
  H  H64  1  0.91019000  0.16730000  0.66167000  1.0
  H  H65  1  0.58988000  0.33256000  0.66154000  1.0
  H  H66  1  0.83211000  0.40957000  0.15868000  1.0
  H  H67  1  0.66788000  0.09045000  0.15875000  1.0
  H  H68  1  0.89851000  0.89916000  0.50923000  1.0
  H  H69  1  0.60208000  0.60046000  0.50954000  1.0
  H  H70  1  0.09865000  0.39613000  0.00911000  1.0
  H  H71  1  0.40126000  0.10339000  0.00894000  1.0
  H  H72  1  0.10188000  0.09932000  0.49183000  1.0
  H  H73  1  0.39777000  0.40078000  0.49171000  1.0
  H  H74  1  0.90134000  0.60483000  0.99046000  1.0
  H  H75  1  0.59888000  0.89572000  0.99066000  1.0
  H  H76  1  0.03608000  0.88989000  0.43494000  1.0
  H  H77  1  0.46455000  0.60999000  0.43522000  1.0
  H  H78  1  0.10745000  0.53426000  0.93518000  1.0
  H  H79  1  0.39244000  0.96543000  0.93505000  1.0
  H  H80  1  0.96402000  0.10791000  0.56634000  1.0
  H  H81  1  0.53572000  0.39200000  0.56627000  1.0
  H  H82  1  0.89233000  0.46649000  0.06425000  1.0
  H  H83  1  0.60773000  0.03388000  0.06439000  1.0
  H  H84  1  0.99034000  0.53329000  0.43560000  1.0
  H  H85  1  0.50970000  0.96664000  0.43577000  1.0
  H  H86  1  0.46608000  0.49197000  0.93682000  1.0
  H  H87  1  0.03375000  0.00767000  0.93656000  1.0
  H  H88  1  0.00642000  0.46498000  0.56496000  1.0
  H  H89  1  0.49386000  0.03487000  0.56509000  1.0
  H  H90  1  0.53367000  0.50866000  0.06243000  1.0
  H  H91  1  0.96650000  0.99184000  0.06281000  1.0
  H  H92  1  0.85441000  0.55896000  0.51031000  1.0
  H  H93  1  0.64561000  0.94080000  0.51048000  1.0
  H  H94  1  0.44077000  0.35441000  0.01077000  1.0
  H  H95  1  0.05926000  0.14505000  0.01044000  1.0
  H  H96  1  0.14331000  0.43956000  0.48998000  1.0
  H  H97  1  0.35687000  0.06048000  0.49006000  1.0
  H  H98  1  0.55915000  0.64651000  0.98862000  1.0
  H  H99  1  0.94090000  0.85408000  0.98908000  1.0
  H  H100  1  0.44219000  0.11274000  0.09982000  1.0
  H  H101  1  0.05780000  0.38715000  0.09976000  1.0
  H  H102  1  0.88762000  0.94120000  0.59962000  1.0
  H  H103  1  0.61239000  0.55871000  0.59974000  1.0
  H  H104  1  0.55775000  0.88753000  0.90009000  1.0
  H  H105  1  0.94223000  0.61269000  0.90015000  1.0
  H  H106  1  0.10971000  0.05336000  0.40527000  1.0
  H  H107  1  0.39036000  0.44667000  0.40521000  1.0
  C  C108  1  0.35545000  0.44435000  0.14205000  1.0
  C  C109  1  0.14481000  0.05632000  0.14172000  1.0
  C  C110  1  0.55552000  0.85482000  0.64246000  1.0
  C  C111  1  0.94422000  0.64556000  0.64224000  1.0
  C  C112  1  0.64486000  0.55584000  0.85815000  1.0
  C  C113  1  0.85488000  0.94351000  0.85856000  1.0
  C  C114  1  0.44661000  0.14238000  0.35579000  1.0
  C  C115  1  0.05346000  0.35747000  0.35572000  1.0
  C  C116  1  0.36847000  0.52982000  0.17900000  1.0
  C  C117  1  0.13177000  0.97076000  0.17879000  1.0
  C  C118  1  0.47012000  0.86765000  0.67973000  1.0
  C  C119  1  0.02965000  0.63273000  0.67959000  1.0
  C  C120  1  0.63225000  0.47001000  0.82137000  1.0
  C  C121  1  0.86757000  0.02935000  0.82164000  1.0
  C  C122  1  0.53146000  0.12959000  0.31818000  1.0
  C  C123  1  0.96849000  0.37030000  0.31810000  1.0
  C  C124  1  0.28861000  0.54316000  0.22018000  1.0
  C  C125  1  0.21157000  0.95727000  0.22004000  1.0
  C  C126  1  0.45707000  0.78760000  0.72075000  1.0
  C  C127  1  0.04255000  0.71253000  0.72059000  1.0
  C  C128  1  0.71242000  0.45666000  0.78037000  1.0
  C  C129  1  0.78751000  0.04284000  0.78053000  1.0
  C  C130  1  0.54520000  0.21161000  0.27816000  1.0
  C  C131  1  0.95476000  0.28843000  0.27815000  1.0
  C  C132  1  0.20128000  0.46613000  0.22294000  1.0
  C  C133  1  0.29883000  0.03436000  0.22279000  1.0
  C  C134  1  0.53435000  0.70031000  0.72315000  1.0
  C  C135  1  0.96502000  0.79957000  0.72289000  1.0
  C  C136  1  0.79950000  0.53390000  0.77745000  1.0
  C  C137  1  0.70048000  0.96557000  0.77761000  1.0
  C  C138  1  0.47023000  0.30094000  0.27714000  1.0
  C  C139  1  0.02987000  0.19923000  0.27720000  1.0
  C  C140  1  0.19676000  0.38211000  0.18434000  1.0
  C  C141  1  0.30339000  0.11856000  0.18413000  1.0
  C  C142  1  0.61842000  0.69606000  0.68433000  1.0
  C  C143  1  0.88086000  0.80385000  0.68405000  1.0
  C  C144  1  0.80348000  0.61833000  0.81582000  1.0
  C  C145  1  0.69640000  0.88098000  0.81607000  1.0
  C  C146  1  0.38772000  0.30544000  0.31673000  1.0
  C  C147  1  0.11249000  0.19467000  0.31679000  1.0
  C  C148  1  0.21559000  0.65019000  0.29369000  1.0
  C  C149  1  0.28469000  0.84994000  0.29364000  1.0
  C  C150  1  0.34966000  0.71453000  0.79433000  1.0
  C  C151  1  0.14994000  0.78554000  0.79420000  1.0
  C  C152  1  0.78606000  0.34911000  0.70727000  1.0
  C  C153  1  0.71400000  0.15072000  0.70729000  1.0
  C  C154  1  0.65044000  0.28539000  0.20422000  1.0
  C  C155  1  0.84951000  0.21462000  0.20431000  1.0
  C  C156  1  0.25016000  0.74999000  0.32835000  1.0
  C  C157  1  0.24981000  0.75003000  0.82914000  1.0
  C  C158  1  0.75006000  0.24999000  0.67255000  1.0
  C  C159  1  0.74996000  0.25001000  0.16929000  1.0
  C  C160  1  0.15170000  0.78699000  0.36370000  1.0
  C  C161  1  0.34865000  0.71295000  0.36381000  1.0
  C  C162  1  0.21149000  0.65270000  0.86471000  1.0
  C  C163  1  0.28820000  0.84725000  0.86464000  1.0
  C  C164  1  0.84729000  0.21122000  0.63702000  1.0
  C  C165  1  0.65276000  0.28877000  0.63695000  1.0
  C  C166  1  0.78840000  0.34726000  0.13387000  1.0
  C  C167  1  0.71160000  0.15287000  0.13392000  1.0
  C  C168  1  0.92254000  0.81887000  0.49238000  1.0
  C  C169  1  0.57795000  0.68086000  0.49271000  1.0
  C  C170  1  0.17927000  0.42099000  0.99257000  1.0
  C  C171  1  0.32067000  0.07851000  0.99232000  1.0
  C  C172  1  0.07685000  0.17933000  0.50868000  1.0
  C  C173  1  0.42293000  0.32071000  0.50861000  1.0
  C  C174  1  0.82067000  0.57988000  0.00688000  1.0
  C  C175  1  0.67948000  0.92071000  0.00719000  1.0
  C  C176  1  0.99869000  0.81342000  0.44990000  1.0
  C  C177  1  0.50177000  0.68645000  0.45019000  1.0
  C  C178  1  0.18453000  0.49776000  0.95038000  1.0
  C  C179  1  0.31540000  0.00190000  0.95019000  1.0
  C  C180  1  0.00064000  0.18450000  0.55112000  1.0
  C  C181  1  0.49921000  0.31545000  0.55107000  1.0
  C  C182  1  0.81529000  0.50297000  0.04898000  1.0
  C  C183  1  0.68476000  0.99746000  0.04921000  1.0
  C  C184  1  0.02648000  0.70907000  0.42875000  1.0
  C  C185  1  0.47374000  0.79083000  0.42893000  1.0
  C  C186  1  0.28932000  0.52691000  0.92978000  1.0
  C  C187  1  0.21055000  0.97286000  0.92960000  1.0
  C  C188  1  0.97232000  0.28895000  0.57188000  1.0
  C  C189  1  0.52773000  0.21094000  0.57192000  1.0
  C  C190  1  0.71040000  0.47367000  0.06940000  1.0
  C  C191  1  0.78969000  0.02668000  0.06965000  1.0
  C  C192  1  0.97290000  0.61608000  0.45101000  1.0
  C  C193  1  0.52718000  0.88375000  0.45120000  1.0
  C  C194  1  0.38294000  0.47371000  0.95201000  1.0
  C  C195  1  0.11689000  0.02591000  0.95175000  1.0
  C  C196  1  0.02485000  0.38240000  0.54958000  1.0
  C  C197  1  0.47533000  0.11752000  0.54966000  1.0
  C  C198  1  0.61680000  0.52697000  0.04723000  1.0
  C  C199  1  0.88338000  0.97354000  0.04760000  1.0
  C  C200  1  0.89806000  0.63043000  0.49327000  1.0
  C  C201  1  0.60209000  0.86929000  0.49351000  1.0
  C  C202  1  0.36876000  0.39798000  0.99386000  1.0
  C  C203  1  0.13116000  0.10148000  0.99352000  1.0
  C  C204  1  0.09980000  0.36836000  0.50741000  1.0
  C  C205  1  0.40031000  0.13165000  0.50745000  1.0
  C  C206  1  0.63111000  0.60283000  0.00548000  1.0
  C  C207  1  0.86905000  0.89778000  0.00595000  1.0
  S  S208  1  0.43837000  0.22139000  0.08614000  1.0
  S  S209  1  0.06160000  0.27855000  0.08618000  1.0
  S  S210  1  0.77854000  0.93791000  0.58593000  1.0
  S  S211  1  0.72158000  0.56207000  0.58632000  1.0
  S  S212  1  0.56141000  0.77876000  0.91354000  1.0
  S  S213  1  0.93860000  0.72142000  0.91348000  1.0
  S  S214  1  0.22077000  0.05126000  0.41387000  1.0
  S  S215  1  0.27926000  0.44866000  0.41363000  1.0
  N  N216  1  0.27016000  0.37106000  0.14325000  1.0
  N  N217  1  0.23010000  0.12974000  0.14288000  1.0
  N  N218  1  0.62908000  0.76961000  0.64331000  1.0
  N  N219  1  0.87033000  0.73057000  0.64300000  1.0
  N  N220  1  0.72991000  0.62936000  0.85683000  1.0
  N  N221  1  0.76980000  0.86986000  0.85728000  1.0
  N  N222  1  0.37599000  0.22961000  0.35642000  1.0
  N  N223  1  0.12420000  0.27034000  0.35641000  1.0
  N  N224  1  0.87261000  0.73015000  0.51521000  1.0
  N  N225  1  0.62784000  0.76950000  0.51556000  1.0
  N  N226  1  0.26860000  0.37152000  0.01553000  1.0
  N  N227  1  0.23134000  0.12778000  0.01512000  1.0
  N  N228  1  0.12576000  0.26850000  0.48587000  1.0
  N  N229  1  0.37416000  0.23158000  0.48584000  1.0
  N  N230  1  0.73135000  0.62931000  0.98388000  1.0
  N  N231  1  0.76883000  0.87148000  0.98438000  1.0
  O  O232  1  0.30273000  0.62975000  0.25455000  1.0
  O  O233  1  0.19751000  0.87052000  0.25446000  1.0
  O  O234  1  0.37041000  0.80168000  0.75541000  1.0
  O  O235  1  0.12924000  0.69849000  0.75535000  1.0
  O  O236  1  0.69873000  0.36973000  0.74618000  1.0
  O  O237  1  0.80130000  0.12988000  0.74626000  1.0
  O  O238  1  0.63054000  0.19759000  0.24286000  1.0
  O  O239  1  0.86931000  0.30237000  0.24283000  1.0
  O  O240  1  0.10078000  0.69089000  0.38833000  1.0
  O  O241  1  0.39947000  0.80903000  0.38841000  1.0
  O  O242  1  0.30761000  0.60238000  0.88985000  1.0
  O  O243  1  0.19217000  0.89752000  0.88973000  1.0
  O  O244  1  0.89773000  0.30700000  0.61223000  1.0
  O  O245  1  0.60241000  0.19293000  0.61231000  1.0
  O  O246  1  0.69210000  0.39792000  0.10912000  1.0
  O  O247  1  0.80793000  0.10234000  0.10930000  1.0
