# generated using pymatgen
data_UH4C4O7
_symmetry_space_group_name_H-M   'P 1'
_cell_length_a   6.61164000
_cell_length_b   9.61113000
_cell_length_c   13.50450000
_cell_angle_alpha   78.78490000
_cell_angle_beta   87.30010000
_cell_angle_gamma   85.71570000
_symmetry_Int_Tables_number   1
_chemical_formula_structural   UH4C4O7
_chemical_formula_sum   'U4 H16 C16 O28'
_cell_volume   838.94289970
_cell_formula_units_Z   4
loop_
 _symmetry_equiv_pos_site_id
 _symmetry_equiv_pos_as_xyz
  1  'x, y, z'
loop_
 _atom_site_type_symbol
 _atom_site_label
 _atom_site_symmetry_multiplicity
 _atom_site_fract_x
 _atom_site_fract_y
 _atom_site_fract_z
 _atom_site_occupancy
  U  U0  1  0.38853000  0.60671000  0.80861000  1.0
  U  U1  1  0.61147000  0.39329000  0.19138000  1.0
  U  U2  1  0.03617000  0.15920000  0.74286000  1.0
  U  U3  1  0.96383000  0.84080000  0.25714000  1.0
  H  H4  1  0.03785000  0.82363000  0.82082000  1.0
  H  H5  1  0.96215000  0.17637000  0.17918000  1.0
  H  H6  1  0.00313000  0.77150000  0.71806000  1.0
  H  H7  1  0.99687000  0.22850000  0.28194000  1.0
  H  H8  1  0.72682000  0.56931000  0.95682000  1.0
  H  H9  1  0.27318000  0.43070000  0.04317000  1.0
  H  H10  1  0.83172000  0.64519000  0.84916000  1.0
  H  H11  1  0.16828000  0.35481000  0.15083000  1.0
  H  H12  1  0.67585000  0.61440000  0.55391000  1.0
  H  H13  1  0.32415000  0.38561000  0.44609000  1.0
  H  H14  1  0.32126000  0.65966000  0.52672000  1.0
  H  H15  1  0.67873000  0.34035000  0.47328000  1.0
  H  H16  1  0.21174000  0.03511000  0.02830000  1.0
  H  H17  1  0.78826000  0.96489000  0.97171000  1.0
  H  H18  1  0.44766000  0.19857000  0.94454000  1.0
  H  H19  1  0.55234000  0.80142000  0.05546000  1.0
  C  C20  1  0.66317000  0.41518000  0.65421000  1.0
  C  C21  1  0.33684000  0.58483000  0.34580000  1.0
  C  C22  1  0.60084000  0.51490000  0.55817000  1.0
  C  C23  1  0.39916000  0.48511000  0.44183000  1.0
  C  C24  1  0.36749000  0.54601000  0.53924000  1.0
  C  C25  1  0.63251000  0.45400000  0.46076000  1.0
  C  C26  1  0.23789000  0.46624000  0.62299000  1.0
  C  C27  1  0.76211000  0.53376000  0.37701000  1.0
  C  C28  1  0.25209000  0.89253000  0.92628000  1.0
  C  C29  1  0.74791000  0.10747000  0.07372000  1.0
  C  C30  1  0.33807000  0.98197000  0.99171000  1.0
  C  C31  1  0.66192000  0.01803000  0.00829000  1.0
  C  C32  1  0.49457000  0.08921000  0.93607000  1.0
  C  C33  1  0.50542000  0.91078000  0.06393000  1.0
  C  C34  1  0.53734000  0.09280000  0.82483000  1.0
  C  C35  1  0.46266000  0.90720000  0.17517000  1.0
  O  O36  1  0.48340000  0.74063000  0.70850000  1.0
  O  O37  1  0.51659000  0.25936000  0.29150000  1.0
  O  O38  1  0.30115000  0.47751000  0.91686000  1.0
  O  O39  1  0.69885000  0.52250000  0.08314000  1.0
  O  O40  1  0.05521000  0.03942000  0.65454000  1.0
  O  O41  1  0.94479000  0.96058000  0.34546000  1.0
  O  O42  1  0.01815000  0.26596000  0.83916000  1.0
  O  O43  1  0.98186000  0.73403000  0.16084000  1.0
  O  O44  1  0.58222000  0.43484000  0.73891000  1.0
  O  O45  1  0.41777000  0.56515000  0.26109000  1.0
  O  O46  1  0.79547000  0.31612000  0.64604000  1.0
  O  O47  1  0.20453000  0.68388000  0.35396000  1.0
  O  O48  1  0.18129000  0.52911000  0.69637000  1.0
  O  O49  1  0.81870000  0.47089000  0.30363000  1.0
  O  O50  1  0.19996000  0.34025000  0.62018000  1.0
  O  O51  1  0.80005000  0.65974000  0.37982000  1.0
  O  O52  1  0.34102000  0.77344000  0.91867000  1.0
  O  O53  1  0.65898000  0.22656000  0.08132000  1.0
  O  O54  1  0.09081000  0.94165000  0.87810000  1.0
  O  O55  1  0.90918000  0.05834000  0.12190000  1.0
  O  O56  1  0.38898000  0.11340000  0.76635000  1.0
  O  O57  1  0.61102000  0.88659000  0.23365000  1.0
  O  O58  1  0.71981000  0.07439000  0.79388000  1.0
  O  O59  1  0.28020000  0.92562000  0.20612000  1.0
  O  O60  1  0.02979000  0.73565000  0.78939000  1.0
  O  O61  1  0.97021000  0.26435000  0.21060000  1.0
  O  O62  1  0.70895000  0.59990000  0.88285000  1.0
  O  O63  1  0.29105000  0.40010000  0.11714000  1.0
