# generated using pymatgen
data_NaH6AuC8(SN2)2
_symmetry_space_group_name_H-M   'P 1'
_cell_length_a   7.99447000
_cell_length_b   7.99453000
_cell_length_c   10.85870000
_cell_angle_alpha   102.44500000
_cell_angle_beta   102.44500000
_cell_angle_gamma   114.45800000
_symmetry_Int_Tables_number   1
_chemical_formula_structural   NaH6AuC8(SN2)2
_chemical_formula_sum   'Na2 H12 Au2 C16 S4 N8'
_cell_volume   579.49923939
_cell_formula_units_Z   2
loop_
 _symmetry_equiv_pos_site_id
 _symmetry_equiv_pos_as_xyz
  1  'x, y, z'
loop_
 _atom_site_type_symbol
 _atom_site_label
 _atom_site_symmetry_multiplicity
 _atom_site_fract_x
 _atom_site_fract_y
 _atom_site_fract_z
 _atom_site_occupancy
  Na  Na0  1  0.32718000  0.67284000  0.00001000  1.0
  Na  Na1  1  0.57721000  0.42276000  0.50000000  1.0
  H  H2  1  0.37743000  0.25545000  0.96234000  1.0
  H  H3  1  0.74460000  0.62262000  0.03768000  1.0
  H  H4  1  0.95741000  0.33537000  0.46192000  1.0
  H  H5  1  0.66458000  0.04256000  0.53807000  1.0
  H  H6  1  0.33380000  0.97769000  0.77223000  1.0
  H  H7  1  0.02232000  0.66624000  0.22776000  1.0
  H  H8  1  0.04504000  0.18868000  0.27195000  1.0
  H  H9  1  0.81130000  0.95496000  0.72803000  1.0
  H  H10  1  0.30799000  0.02452000  0.54605000  1.0
  H  H11  1  0.97549000  0.69199000  0.45396000  1.0
  H  H12  1  0.77200000  0.98779000  0.04583000  1.0
  H  H13  1  0.01223000  0.22799000  0.95414000  1.0
  Au  Au14  1  0.34380000  0.65621000  0.50000000  1.0
  Au  Au15  1  0.09412000  0.90589000  0.00000000  1.0
  C  C16  1  0.33843000  0.43276000  0.71833000  1.0
  C  C17  1  0.56721000  0.66150000  0.28167000  1.0
  C  C18  1  0.53612000  0.13006000  0.21811000  1.0
  C  C19  1  0.86992000  0.46388000  0.78189000  1.0
  C  C20  1  0.35851000  0.26093000  0.86074000  1.0
  C  C21  1  0.73909000  0.64150000  0.13928000  1.0
  C  C22  1  0.85028000  0.25249000  0.36039000  1.0
  C  C23  1  0.74749000  0.14971000  0.63960000  1.0
  C  C24  1  0.33595000  0.10814000  0.75623000  1.0
  C  C25  1  0.89190000  0.66414000  0.24379000  1.0
  C  C26  1  0.89859000  0.17047000  0.25593000  1.0
  C  C27  1  0.82952000  0.10141000  0.74405000  1.0
  C  C28  1  0.32072000  0.13493000  0.63266000  1.0
  C  C29  1  0.86506000  0.67923000  0.36734000  1.0
  C  C30  1  0.74822000  0.06178000  0.13245000  1.0
  C  C31  1  0.93821000  0.25178000  0.86755000  1.0
  S  S32  1  0.33262000  0.64441000  0.70679000  1.0
  S  S33  1  0.35557000  0.66732000  0.29319000  1.0
  S  S34  1  0.31297000  0.12436000  0.20652000  1.0
  S  S35  1  0.87564000  0.68703000  0.79349000  1.0
  N  N36  1  0.35643000  0.42034000  0.84251000  1.0
  N  N37  1  0.57969000  0.64361000  0.15750000  1.0
  N  N38  1  0.67271000  0.23642000  0.34225000  1.0
  N  N39  1  0.76361000  0.32731000  0.65774000  1.0
  N  N40  1  0.32638000  0.29720000  0.61243000  1.0
  N  N41  1  0.70282000  0.67366000  0.38759000  1.0
  N  N42  1  0.56578000  0.03605000  0.11226000  1.0
  N  N43  1  0.96388000  0.43420000  0.88775000  1.0
