# generated using pymatgen
data_Cd2H14C24Br4N4O9
_symmetry_space_group_name_H-M   'P 1'
_cell_length_a   11.23720000
_cell_length_b   11.67490000
_cell_length_c   24.50470000
_cell_angle_alpha   90.00010000
_cell_angle_beta   90.00000000
_cell_angle_gamma   94.02440000
_symmetry_Int_Tables_number   1
_chemical_formula_structural   Cd2H14C24Br4N4O9
_chemical_formula_sum   'Cd8 H56 C96 Br16 N16 O36'
_cell_volume   3206.92266682
_cell_formula_units_Z   4
loop_
 _symmetry_equiv_pos_site_id
 _symmetry_equiv_pos_as_xyz
  1  'x, y, z'
loop_
 _atom_site_type_symbol
 _atom_site_label
 _atom_site_symmetry_multiplicity
 _atom_site_fract_x
 _atom_site_fract_y
 _atom_site_fract_z
 _atom_site_occupancy
  Cd  Cd0  1  0.60339000  0.36529000  0.38162000  1.0
  Cd  Cd1  1  0.89661000  0.63471000  0.88162000  1.0
  Cd  Cd2  1  0.39661000  0.63471000  0.61838000  1.0
  Cd  Cd3  1  0.10339000  0.36529000  0.11838000  1.0
  Cd  Cd4  1  0.36755000  0.13996000  0.34510000  1.0
  Cd  Cd5  1  0.13245000  0.86004000  0.84510000  1.0
  Cd  Cd6  1  0.63245000  0.86004000  0.65490000  1.0
  Cd  Cd7  1  0.86755000  0.13996000  0.15490000  1.0
  H  H8  1  0.64409000  0.14392000  0.33246000  1.0
  H  H9  1  0.85591000  0.85608000  0.83246000  1.0
  H  H10  1  0.35591000  0.85608000  0.66754000  1.0
  H  H11  1  0.14409000  0.14392000  0.16754000  1.0
  H  H12  1  0.60629000  0.13572000  0.39666000  1.0
  H  H13  1  0.89371000  0.86428000  0.89666000  1.0
  H  H14  1  0.39371000  0.86428000  0.60334000  1.0
  H  H15  1  0.10629000  0.13571000  0.10334000  1.0
  H  H16  1  0.39331000  0.49549000  0.51089000  1.0
  H  H17  1  0.10669000  0.50451000  0.01088000  1.0
  H  H18  1  0.60668000  0.50451000  0.48912000  1.0
  H  H19  1  0.89331000  0.49549000  0.98911000  1.0
  H  H20  1  0.33133000  0.37417000  0.66818000  1.0
  H  H21  1  0.16867000  0.62583000  0.16818000  1.0
  H  H22  1  0.66867000  0.62583000  0.33182000  1.0
  H  H23  1  0.83134000  0.37417000  0.83182000  1.0
  H  H24  1  0.33383000  0.12978000  0.53525000  1.0
  H  H25  1  0.16617000  0.87022000  0.03525000  1.0
  H  H26  1  0.66617000  0.87022000  0.46475000  1.0
  H  H27  1  0.83383000  0.12978000  0.96475000  1.0
  H  H28  1  0.26324000  0.34842000  0.22181000  1.0
  H  H29  1  0.23676000  0.65158000  0.72181000  1.0
  H  H30  1  0.73676000  0.65158000  0.77819000  1.0
  H  H31  1  0.76324000  0.34842000  0.27819000  1.0
  H  H32  1  0.36915000  0.41503000  0.06211000  1.0
  H  H33  1  0.13085000  0.58497000  0.56211000  1.0
  H  H34  1  0.63085000  0.58497000  0.93789000  1.0
  H  H35  1  0.86915000  0.41503000  0.43789000  1.0
  H  H36  1  0.63669000  0.43151000  0.18999000  1.0
  H  H37  1  0.86331000  0.56849000  0.68998000  1.0
  H  H38  1  0.36331000  0.56849000  0.81001000  1.0
  H  H39  1  0.13669000  0.43151000  0.31002000  1.0
  H  H40  1  0.65781000  0.36322000  0.56626000  1.0
  H  H41  1  0.84219000  0.63678000  0.06626000  1.0
  H  H42  1  0.34219000  0.63678000  0.43374000  1.0
  H  H43  1  0.15781000  0.36322000  0.93374000  1.0
  H  H44  1  0.63496000  0.12030000  0.70047000  1.0
  H  H45  1  0.86504000  0.87970000  0.20047000  1.0
  H  H46  1  0.36504000  0.87970000  0.29953000  1.0
  H  H47  1  0.13496000  0.12030000  0.79953000  1.0
  H  H48  1  0.63024000  0.99688000  0.54178000  1.0
  H  H49  1  0.86976000  0.00312000  0.04178000  1.0
  H  H50  1  0.36976000  0.00312000  0.45822000  1.0
  H  H51  1  0.13023000  0.99688000  0.95822000  1.0
  H  H52  1  0.60856000  0.10420000  0.22160000  1.0
  H  H53  1  0.89144000  0.89581000  0.72160000  1.0
  H  H54  1  0.39143000  0.89581000  0.77840000  1.0
  H  H55  1  0.10856000  0.10420000  0.27840000  1.0
  H  H56  1  0.68619000  0.15356000  0.05739000  1.0
  H  H57  1  0.81381000  0.84644000  0.55739000  1.0
  H  H58  1  0.31381000  0.84644000  0.94261000  1.0
  H  H59  1  0.18619000  0.15356000  0.44261000  1.0
  H  H60  1  0.31620000  0.11825000  0.10717000  1.0
  H  H61  1  0.18380000  0.88175000  0.60717000  1.0
  H  H62  1  0.68380000  0.88175000  0.89283000  1.0
  H  H63  1  0.81621000  0.11825000  0.39283000  1.0
  C  C64  1  0.37378000  0.42123000  0.53704000  1.0
  C  C65  1  0.12622000  0.57877000  0.03704000  1.0
  C  C66  1  0.62622000  0.57877000  0.46296000  1.0
  C  C67  1  0.87378000  0.42123000  0.96296000  1.0
  C  C68  1  0.33895000  0.35371000  0.62493000  1.0
  C  C69  1  0.16105000  0.64630000  0.12493000  1.0
  C  C70  1  0.66105000  0.64630000  0.37507000  1.0
  C  C71  1  0.83895000  0.35370000  0.87506000  1.0
  C  C72  1  0.32779000  0.24060000  0.60612000  1.0
  C  C73  1  0.17221000  0.75940000  0.10612000  1.0
  C  C74  1  0.67221000  0.75940000  0.39388000  1.0
  C  C75  1  0.82779000  0.24060000  0.89388000  1.0
  C  C76  1  0.33981000  0.21769000  0.55057000  1.0
  C  C77  1  0.16020000  0.78231000  0.05057000  1.0
  C  C78  1  0.66020000  0.78231000  0.44943000  1.0
  C  C79  1  0.83980000  0.21769000  0.94943000  1.0
  C  C80  1  0.36419000  0.31050000  0.51525000  1.0
  C  C81  1  0.13581000  0.68950000  0.01525000  1.0
  C  C82  1  0.63581000  0.68950000  0.48475000  1.0
  C  C83  1  0.86419000  0.31050000  0.98475000  1.0
  C  C84  1  0.38941000  0.29446000  0.45544000  1.0
  C  C85  1  0.11059000  0.70554000  0.95544000  1.0
  C  C86  1  0.61059000  0.70554000  0.54456000  1.0
  C  C87  1  0.88941000  0.29446000  0.04456000  1.0
  C  C88  1  0.33638000  0.37131000  0.19396000  1.0
  C  C89  1  0.16362000  0.62869000  0.69396000  1.0
  C  C90  1  0.66362000  0.62869000  0.80604000  1.0
  C  C91  1  0.83638000  0.37131000  0.30604000  1.0
  C  C92  1  0.39544000  0.40949000  0.10483000  1.0
  C  C93  1  0.10456000  0.59051000  0.60483000  1.0
  C  C94  1  0.60456000  0.59051000  0.89517000  1.0
  C  C95  1  0.89544000  0.40949000  0.39517000  1.0
  C  C96  1  0.51412000  0.42804000  0.12131000  1.0
  C  C97  1  0.98588000  0.57196000  0.62131000  1.0
  C  C98  1  0.48588000  0.57196000  0.87869000  1.0
  C  C99  1  0.01412000  0.42804000  0.37869000  1.0
  C  C100  1  0.54458000  0.41798000  0.17622000  1.0
  C  C101  1  0.95542000  0.58201000  0.67622000  1.0
  C  C102  1  0.45542000  0.58201000  0.82378000  1.0
  C  C103  1  0.04458000  0.41798000  0.32378000  1.0
  C  C104  1  0.45297000  0.38783000  0.21332000  1.0
  C  C105  1  0.04703000  0.61217000  0.71332000  1.0
  C  C106  1  0.54703000  0.61217000  0.78668000  1.0
  C  C107  1  0.95297000  0.38783000  0.28668000  1.0
  C  C108  1  0.47497000  0.36841000  0.27311000  1.0
  C  C109  1  0.02503000  0.63159000  0.77311000  1.0
  C  C110  1  0.52503000  0.63159000  0.72689000  1.0
  C  C111  1  0.97497000  0.36841000  0.22689000  1.0
  C  C112  1  0.65207000  0.27605000  0.58225000  1.0
  C  C113  1  0.84793000  0.72395000  0.08225000  1.0
  C  C114  1  0.34793000  0.72395000  0.41775000  1.0
  C  C115  1  0.15207000  0.27605000  0.91775000  1.0
  C  C116  1  0.64790000  0.25398000  0.63808000  1.0
  C  C117  1  0.85209000  0.74602000  0.13808000  1.0
  C  C118  1  0.35210000  0.74602000  0.36192000  1.0
  C  C119  1  0.14790000  0.25398000  0.86192000  1.0
  C  C120  1  0.63907000  0.14103000  0.65709000  1.0
  C  C121  1  0.86094000  0.85897000  0.15709000  1.0
  C  C122  1  0.36094000  0.85897000  0.34291000  1.0
  C  C123  1  0.13906000  0.14103000  0.84291000  1.0
  C  C124  1  0.63704000  0.07183000  0.56826000  1.0
  C  C125  1  0.86296000  0.92817000  0.06826000  1.0
  C  C126  1  0.36296000  0.92817000  0.43174000  1.0
  C  C127  1  0.13704000  0.07183000  0.93174000  1.0
  C  C128  1  0.64735000  0.18252000  0.54646000  1.0
  C  C129  1  0.85265000  0.81748000  0.04646000  1.0
  C  C130  1  0.35265000  0.81748000  0.45354000  1.0
  C  C131  1  0.14735000  0.18252000  0.95354000  1.0
  C  C132  1  0.64991000  0.19940000  0.48540000  1.0
  C  C133  1  0.85009000  0.80060000  0.98540000  1.0
  C  C134  1  0.35009000  0.80060000  0.51460000  1.0
  C  C135  1  0.14991000  0.19940000  0.01460000  1.0
  C  C136  1  0.57414000  0.11315000  0.18029000  1.0
  C  C137  1  0.92585000  0.88686000  0.68029000  1.0
  C  C138  1  0.42585000  0.88686000  0.81971000  1.0
  C  C139  1  0.07414000  0.11315000  0.31971000  1.0
  C  C140  1  0.61757000  0.14094000  0.08855000  1.0
  C  C141  1  0.88244000  0.85906000  0.58855000  1.0
  C  C142  1  0.38243000  0.85905000  0.91145000  1.0
  C  C143  1  0.11757000  0.14094000  0.41145000  1.0
  C  C144  1  0.49669000  0.13712000  0.07568000  1.0
  C  C145  1  0.00331000  0.86288000  0.57568000  1.0
  C  C146  1  0.50331000  0.86288000  0.92432000  1.0
  C  C147  1  0.99669000  0.13712000  0.42432000  1.0
  C  C148  1  0.41111000  0.12087000  0.11658000  1.0
  C  C149  1  0.08889000  0.87913000  0.61658000  1.0
  C  C150  1  0.58889000  0.87913000  0.88342000  1.0
  C  C151  1  0.91111000  0.12087000  0.38342000  1.0
  C  C152  1  0.45095000  0.10800000  0.17020000  1.0
  C  C153  1  0.04905000  0.89200000  0.67020000  1.0
  C  C154  1  0.54905000  0.89200000  0.82980000  1.0
  C  C155  1  0.95095000  0.10800000  0.32980000  1.0
  C  C156  1  0.36493000  0.09399000  0.21777000  1.0
  C  C157  1  0.13507000  0.90602000  0.71777000  1.0
  C  C158  1  0.63507000  0.90601000  0.78223000  1.0
  C  C159  1  0.86493000  0.09399000  0.28223000  1.0
  Br  Br160  1  0.30130000  0.11917000  0.65686000  1.0
  Br  Br161  1  0.19870000  0.88083000  0.15686000  1.0
  Br  Br162  1  0.69871000  0.88084000  0.34315000  1.0
  Br  Br163  1  0.80129000  0.11917000  0.84314000  1.0
  Br  Br164  1  0.63232000  0.46445000  0.06759000  1.0
  Br  Br165  1  0.86768000  0.53555000  0.56758000  1.0
  Br  Br166  1  0.36768000  0.53555000  0.93242000  1.0
  Br  Br167  1  0.13232000  0.46445000  0.43242000  1.0
  Br  Br168  1  0.65263000  0.37652000  0.68917000  1.0
  Br  Br169  1  0.84737000  0.62348000  0.18917000  1.0
  Br  Br170  1  0.34737000  0.62348000  0.31083000  1.0
  Br  Br171  1  0.15263000  0.37652000  0.81083000  1.0
  Br  Br172  1  0.45352000  0.15919000  0.00164000  1.0
  Br  Br173  1  0.04648000  0.84081000  0.50164000  1.0
  Br  Br174  1  0.54648000  0.84081000  0.99836000  1.0
  Br  Br175  1  0.95352000  0.15919000  0.49836000  1.0
  N  N176  1  0.36134000  0.44186000  0.59045000  1.0
  N  N177  1  0.13866000  0.55814000  0.09045000  1.0
  N  N178  1  0.63866000  0.55814000  0.40955000  1.0
  N  N179  1  0.86134000  0.44186000  0.90955000  1.0
  N  N180  1  0.30873000  0.38254000  0.14119000  1.0
  N  N181  1  0.19126000  0.61746000  0.64119000  1.0
  N  N182  1  0.69126000  0.61746000  0.85881000  1.0
  N  N183  1  0.80873000  0.38254000  0.35881000  1.0
  N  N184  1  0.63383000  0.05206000  0.62223000  1.0
  N  N185  1  0.86617000  0.94794000  0.12223000  1.0
  N  N186  1  0.36617000  0.94794000  0.37777000  1.0
  N  N187  1  0.13383000  0.05206000  0.87777000  1.0
  N  N188  1  0.65540000  0.13021000  0.14031000  1.0
  N  N189  1  0.84460000  0.86980000  0.64031000  1.0
  N  N190  1  0.34459000  0.86979000  0.85969000  1.0
  N  N191  1  0.15541000  0.13021000  0.35969000  1.0
  O  O192  1  0.37425000  0.19254000  0.43701000  1.0
  O  O193  1  0.12575000  0.80746000  0.93701000  1.0
  O  O194  1  0.62575000  0.80746000  0.56299000  1.0
  O  O195  1  0.87425000  0.19254000  0.06299000  1.0
  O  O196  1  0.42711000  0.38278000  0.42889000  1.0
  O  O197  1  0.07289000  0.61722000  0.92889000  1.0
  O  O198  1  0.57289000  0.61722000  0.57111000  1.0
  O  O199  1  0.92711000  0.38278000  0.07111000  1.0
  O  O200  1  0.57652000  0.40543000  0.29146000  1.0
  O  O201  1  0.92348000  0.59456000  0.79146000  1.0
  O  O202  1  0.42348000  0.59457000  0.70854000  1.0
  O  O203  1  0.07652000  0.40543000  0.20854000  1.0
  O  O204  1  0.39091000  0.31782000  0.30031000  1.0
  O  O205  1  0.10908000  0.68218000  0.80031000  1.0
  O  O206  1  0.60909000  0.68218000  0.69969000  1.0
  O  O207  1  0.89091000  0.31782000  0.19969000  1.0
  O  O208  1  0.64077000  0.10958000  0.45604000  1.0
  O  O209  1  0.85922000  0.89042000  0.95604000  1.0
  O  O210  1  0.35922000  0.89042000  0.54396000  1.0
  O  O211  1  0.14077000  0.10958000  0.04396000  1.0
  O  O212  1  0.65960000  0.30307000  0.46878000  1.0
  O  O213  1  0.84040000  0.69693000  0.96878000  1.0
  O  O214  1  0.34040000  0.69693000  0.53122000  1.0
  O  O215  1  0.15960000  0.30307000  0.03122000  1.0
  O  O216  1  0.25576000  0.10903000  0.21082000  1.0
  O  O217  1  0.24425000  0.89098000  0.71082000  1.0
  O  O218  1  0.74425000  0.89098000  0.78918000  1.0
  O  O219  1  0.75575000  0.10902000  0.28918000  1.0
  O  O220  1  0.41343000  0.06818000  0.26287000  1.0
  O  O221  1  0.08657000  0.93182000  0.76287000  1.0
  O  O222  1  0.58657000  0.93182000  0.73713000  1.0
  O  O223  1  0.91343000  0.06818000  0.23714000  1.0
  O  O224  1  0.58235000  0.16629000  0.35903000  1.0
  O  O225  1  0.91765000  0.83371000  0.85903000  1.0
  O  O226  1  0.41765000  0.83371000  0.64097000  1.0
  O  O227  1  0.08235000  0.16629000  0.14097000  1.0
