# generated using pymatgen
data_Zn2H26C51(O2F3)6
_symmetry_space_group_name_H-M   'P 1'
_cell_length_a   7.15673000
_cell_length_b   18.98510000
_cell_length_c   20.60170000
_cell_angle_alpha   73.74000000
_cell_angle_beta   89.99980000
_cell_angle_gamma   89.99990000
_symmetry_Int_Tables_number   1
_chemical_formula_structural   Zn2H26C51(O2F3)6
_chemical_formula_sum   'Zn4 H52 C102 O24 F36'
_cell_volume   2687.21407998
_cell_formula_units_Z   2
loop_
 _symmetry_equiv_pos_site_id
 _symmetry_equiv_pos_as_xyz
  1  'x, y, z'
loop_
 _atom_site_type_symbol
 _atom_site_label
 _atom_site_symmetry_multiplicity
 _atom_site_fract_x
 _atom_site_fract_y
 _atom_site_fract_z
 _atom_site_occupancy
  Zn  Zn0  1  0.67694000  0.47356000  0.97530000  1.0
  Zn  Zn1  1  0.67694000  0.02644000  0.52470000  1.0
  Zn  Zn2  1  0.32306000  0.52644000  0.02471000  1.0
  Zn  Zn3  1  0.32306000  0.97356000  0.47530000  1.0
  H  H4  1  0.59435000  0.33698000  0.96963000  1.0
  H  H5  1  0.59435000  0.16302000  0.53037000  1.0
  H  H6  1  0.40565000  0.66302000  0.03037000  1.0
  H  H7  1  0.40566000  0.83698000  0.46963000  1.0
  H  H8  1  0.82946000  0.22359000  0.89528000  1.0
  H  H9  1  0.82946000  0.27640000  0.60472000  1.0
  H  H10  1  0.17054000  0.77641000  0.10472000  1.0
  H  H11  1  0.17054000  0.72359000  0.39528000  1.0
  H  H12  1  0.03794000  0.18331000  0.81751000  1.0
  H  H13  1  0.03794000  0.31669000  0.68249000  1.0
  H  H14  1  0.96205000  0.81669000  0.18249000  1.0
  H  H15  1  0.96205000  0.68331000  0.31751000  1.0
  H  H16  1  0.37405000  0.37795000  0.79513000  1.0
  H  H17  1  0.37406000  0.12205000  0.70487000  1.0
  H  H18  1  0.62594000  0.62205000  0.20487000  1.0
  H  H19  1  0.62594000  0.87795000  0.29513000  1.0
  H  H20  1  0.15590000  0.41961000  0.86887000  1.0
  H  H21  1  0.15591000  0.08039000  0.63113000  1.0
  H  H22  1  0.84410000  0.58039000  0.13113000  1.0
  H  H23  1  0.84410000  0.91961000  0.36887000  1.0
  H  H24  1  0.98207000  0.40771000  0.16074000  1.0
  H  H25  1  0.98207000  0.09229000  0.33926000  1.0
  H  H26  1  0.01793000  0.59229000  0.83925000  1.0
  H  H27  1  0.01793000  0.90771000  0.66075000  1.0
  H  H28  1  0.11856000  0.38807000  0.27500000  1.0
  H  H29  1  0.11856000  0.11193000  0.22500000  1.0
  H  H30  1  0.88144000  0.61193000  0.72500000  1.0
  H  H31  1  0.88144000  0.88806000  0.77500000  1.0
  H  H32  1  0.60940000  0.46871000  0.34143000  1.0
  H  H33  1  0.60940000  0.03129000  0.15857000  1.0
  H  H34  1  0.39061000  0.53129000  0.65857000  1.0
  H  H35  1  0.39060000  0.96871000  0.84143000  1.0
  H  H36  1  0.47207000  0.48292000  0.22881000  1.0
  H  H37  1  0.47207000  0.01708000  0.27119000  1.0
  H  H38  1  0.52793000  0.51709000  0.77119000  1.0
  H  H39  1  0.52793000  0.98292000  0.72881000  1.0
  H  H40  1  0.83284000  0.28956000  0.37769000  1.0
  H  H41  1  0.83283000  0.21044000  0.12231000  1.0
  H  H42  1  0.16717000  0.71044000  0.62231000  1.0
  H  H43  1  0.16717000  0.78956000  0.87769000  1.0
  H  H44  1  0.97065000  0.16502000  0.41710000  1.0
  H  H45  1  0.97064000  0.33498000  0.08291000  1.0
  H  H46  1  0.02936000  0.83498000  0.58291000  1.0
  H  H47  1  0.02936000  0.66502000  0.91710000  1.0
  H  H48  1  0.46446000  0.25775000  0.48048000  1.0
  H  H49  1  0.46445000  0.24226000  0.01952000  1.0
  H  H50  1  0.53555000  0.74225000  0.51952000  1.0
  H  H51  1  0.53554000  0.75774000  0.98048000  1.0
  H  H52  1  0.32631000  0.37932000  0.44543000  1.0
  H  H53  1  0.32631000  0.12068000  0.05457000  1.0
  H  H54  1  0.67370000  0.62068000  0.55458000  1.0
  H  H55  1  0.67369000  0.87932000  0.94543000  1.0
  C  C56  1  0.83816000  0.35427000  0.92498000  1.0
  C  C57  1  0.83816000  0.14572000  0.57502000  1.0
  C  C58  1  0.16184000  0.64572000  0.07502000  1.0
  C  C59  1  0.16184000  0.85428000  0.42498000  1.0
  C  C60  1  0.97640000  0.32527000  0.88560000  1.0
  C  C61  1  0.97640000  0.17473000  0.61440000  1.0
  C  C62  1  0.02360000  0.67473000  0.11440000  1.0
  C  C63  1  0.02360000  0.82527000  0.38560000  1.0
  C  C64  1  0.94746000  0.25752000  0.87253000  1.0
  C  C65  1  0.94747000  0.24248000  0.62747000  1.0
  C  C66  1  0.05253000  0.74248000  0.12747000  1.0
  C  C67  1  0.05253000  0.75752000  0.37253000  1.0
  C  C68  1  0.06627000  0.23485000  0.82900000  1.0
  C  C69  1  0.06628000  0.26515000  0.67099000  1.0
  C  C70  1  0.93372000  0.76515000  0.17099000  1.0
  C  C71  1  0.93373000  0.73485000  0.32901000  1.0
  C  C72  1  0.21876000  0.27833000  0.79892000  1.0
  C  C73  1  0.21876000  0.22167000  0.70107000  1.0
  C  C74  1  0.78124000  0.72167000  0.20107000  1.0
  C  C75  1  0.78124000  0.77833000  0.29893000  1.0
  C  C76  1  0.25414000  0.34382000  0.81562000  1.0
  C  C77  1  0.25415000  0.15618000  0.68437000  1.0
  C  C78  1  0.74585000  0.65618000  0.18438000  1.0
  C  C79  1  0.74585000  0.84382000  0.31562000  1.0
  C  C80  1  0.13248000  0.36747000  0.85794000  1.0
  C  C81  1  0.13249000  0.13253000  0.64206000  1.0
  C  C82  1  0.86752000  0.63253000  0.14206000  1.0
  C  C83  1  0.86752000  0.86747000  0.35794000  1.0
  C  C84  1  0.34150000  0.25000000  0.75000000  1.0
  C  C85  1  0.65850000  0.75000000  0.25000000  1.0
  C  C86  1  0.46845000  0.18874000  0.79527000  1.0
  C  C87  1  0.46845000  0.31126000  0.70472000  1.0
  C  C88  1  0.53155000  0.81126000  0.20473000  1.0
  C  C89  1  0.53155000  0.68874000  0.29528000  1.0
  C  C90  1  0.63645000  0.46090000  0.11874000  1.0
  C  C91  1  0.63645000  0.03910000  0.38126000  1.0
  C  C92  1  0.36355000  0.53910000  0.88126000  1.0
  C  C93  1  0.36355000  0.96090000  0.61874000  1.0
  C  C94  1  0.71759000  0.44586000  0.18811000  1.0
  C  C95  1  0.71759000  0.05414000  0.31189000  1.0
  C  C96  1  0.28241000  0.55414000  0.81189000  1.0
  C  C97  1  0.28241000  0.94586000  0.68811000  1.0
  C  C98  1  0.90035000  0.41927000  0.20121000  1.0
  C  C99  1  0.90034000  0.08073000  0.29879000  1.0
  C  C100  1  0.09965000  0.58073000  0.79879000  1.0
  C  C101  1  0.09966000  0.91926000  0.70121000  1.0
  C  C102  1  0.97704000  0.40946000  0.26507000  1.0
  C  C103  1  0.97703000  0.09054000  0.23493000  1.0
  C  C104  1  0.02296000  0.59054000  0.73493000  1.0
  C  C105  1  0.02296000  0.90946000  0.76507000  1.0
  C  C106  1  0.87475000  0.42734000  0.31650000  1.0
  C  C107  1  0.87474000  0.07266000  0.18350000  1.0
  C  C108  1  0.12525000  0.57266000  0.68350000  1.0
  C  C109  1  0.12525000  0.92734000  0.81650000  1.0
  C  C110  1  0.69221000  0.45375000  0.30316000  1.0
  C  C111  1  0.69221000  0.04625000  0.19684000  1.0
  C  C112  1  0.30779000  0.54625000  0.69684000  1.0
  C  C113  1  0.30779000  0.95375000  0.80316000  1.0
  C  C114  1  0.61398000  0.46223000  0.23958000  1.0
  C  C115  1  0.61398000  0.03777000  0.26042000  1.0
  C  C116  1  0.38602000  0.53777000  0.76042000  1.0
  C  C117  1  0.38602000  0.96223000  0.73958000  1.0
  C  C118  1  0.97358000  0.41898000  0.38447000  1.0
  C  C119  1  0.97358000  0.08102000  0.11554000  1.0
  C  C120  1  0.02642000  0.58102000  0.61553000  1.0
  C  C121  1  0.02642000  0.91898000  0.88447000  1.0
  C  C122  1  0.83768000  0.42247000  0.44276000  1.0
  C  C123  1  0.83768000  0.07753000  0.05724000  1.0
  C  C124  1  0.16233000  0.57753000  0.55724000  1.0
  C  C125  1  0.16233000  0.92247000  0.94276000  1.0
  C  C126  1  0.11307000  0.48472000  0.37255000  1.0
  C  C127  1  0.11306000  0.01528000  0.12745000  1.0
  C  C128  1  0.88694000  0.51528000  0.62745000  1.0
  C  C129  1  0.88694000  0.98472000  0.87255000  1.0
  C  C130  1  0.06996000  0.34376000  0.40787000  1.0
  C  C131  1  0.06996000  0.15624000  0.09213000  1.0
  C  C132  1  0.93004000  0.65624000  0.59213000  1.0
  C  C133  1  0.93004000  0.84376000  0.90787000  1.0
  C  C134  1  0.97108000  0.28246000  0.40069000  1.0
  C  C135  1  0.97107000  0.21754000  0.09931000  1.0
  C  C136  1  0.02893000  0.71754000  0.59931000  1.0
  C  C137  1  0.02893000  0.78246000  0.90069000  1.0
  C  C138  1  0.04809000  0.21263000  0.42221000  1.0
  C  C139  1  0.04808000  0.28737000  0.07779000  1.0
  C  C140  1  0.95192000  0.78737000  0.57779000  1.0
  C  C141  1  0.95192000  0.71263000  0.92222000  1.0
  C  C142  1  0.22731000  0.20278000  0.45080000  1.0
  C  C143  1  0.22730000  0.29722000  0.04920000  1.0
  C  C144  1  0.77270000  0.79722000  0.54920000  1.0
  C  C145  1  0.77270000  0.70278000  0.95080000  1.0
  C  C146  1  0.32532000  0.26368000  0.45848000  1.0
  C  C147  1  0.32531000  0.23632000  0.04152000  1.0
  C  C148  1  0.67469000  0.73632000  0.54152000  1.0
  C  C149  1  0.67469000  0.76368000  0.95848000  1.0
  C  C150  1  0.24688000  0.33351000  0.43781000  1.0
  C  C151  1  0.24687000  0.16649000  0.06219000  1.0
  C  C152  1  0.75313000  0.66648000  0.56219000  1.0
  C  C153  1  0.75313000  0.83351000  0.93781000  1.0
  C  C154  1  0.31028000  0.12765000  0.47111000  1.0
  C  C155  1  0.31027000  0.37235000  0.02889000  1.0
  C  C156  1  0.68972000  0.87235000  0.52889000  1.0
  C  C157  1  0.68972000  0.62765000  0.97111000  1.0
  O  O158  1  0.86199000  0.41528000  0.93629000  1.0
  O  O159  1  0.86198000  0.08471000  0.56371000  1.0
  O  O160  1  0.13801000  0.58471000  0.06371000  1.0
  O  O161  1  0.13801000  0.91529000  0.43629000  1.0
  O  O162  1  0.69065000  0.31243000  0.94478000  1.0
  O  O163  1  0.69065000  0.18757000  0.55522000  1.0
  O  O164  1  0.30935000  0.68757000  0.05523000  1.0
  O  O165  1  0.30935000  0.81244000  0.44477000  1.0
  O  O166  1  0.73563000  0.44367000  0.07404000  1.0
  O  O167  1  0.73563000  0.05633000  0.42596000  1.0
  O  O168  1  0.26437000  0.55633000  0.92596000  1.0
  O  O169  1  0.26436000  0.94367000  0.57404000  1.0
  O  O170  1  0.47651000  0.49138000  0.10978000  1.0
  O  O171  1  0.47649000  0.00862000  0.39022000  1.0
  O  O172  1  0.52350000  0.50862000  0.89022000  1.0
  O  O173  1  0.52350000  0.99138000  0.60978000  1.0
  O  O174  1  0.47264000  0.11885000  0.49900000  1.0
  O  O175  1  0.47264000  0.38114000  0.00100000  1.0
  O  O176  1  0.52736000  0.88114000  0.50100000  1.0
  O  O177  1  0.52736000  0.61886000  0.99900000  1.0
  O  O178  1  0.21619000  0.07635000  0.45886000  1.0
  O  O179  1  0.21620000  0.42365000  0.04115000  1.0
  O  O180  1  0.78381000  0.92364000  0.54115000  1.0
  O  O181  1  0.78381000  0.57635000  0.95886000  1.0
  F  F182  1  0.54397000  0.21052000  0.84704000  1.0
  F  F183  1  0.54397000  0.28949000  0.65295000  1.0
  F  F184  1  0.45603000  0.78949000  0.15296000  1.0
  F  F185  1  0.45603000  0.71051000  0.34705000  1.0
  F  F186  1  0.36883000  0.12674000  0.82385000  1.0
  F  F187  1  0.36883000  0.37326000  0.67614000  1.0
  F  F188  1  0.63117000  0.87326000  0.17615000  1.0
  F  F189  1  0.63117000  0.62674000  0.32385000  1.0
  F  F190  1  0.61342000  0.16925000  0.76079000  1.0
  F  F191  1  0.61341000  0.33075000  0.73920000  1.0
  F  F192  1  0.38658000  0.83075000  0.23920000  1.0
  F  F193  1  0.38658000  0.66925000  0.26080000  1.0
  F  F194  1  0.76084000  0.48998000  0.43474000  1.0
  F  F195  1  0.76083000  0.01002000  0.06526000  1.0
  F  F196  1  0.23917000  0.51002000  0.56526000  1.0
  F  F197  1  0.23916000  0.98998000  0.93474000  1.0
  F  F198  1  0.92616000  0.40356000  0.50351000  1.0
  F  F199  1  0.92616000  0.09644000  0.99648000  1.0
  F  F200  1  0.07384000  0.59644000  0.49649000  1.0
  F  F201  1  0.07384000  0.90356000  0.00351000  1.0
  F  F202  1  0.69323000  0.37418000  0.44772000  1.0
  F  F203  1  0.69323000  0.12583000  0.05228000  1.0
  F  F204  1  0.30677000  0.62583000  0.55228000  1.0
  F  F205  1  0.30677000  0.87418000  0.94772000  1.0
  F  F206  1  0.19257000  0.49205000  0.43025000  1.0
  F  F207  1  0.19256000  0.00795000  0.06975000  1.0
  F  F208  1  0.80744000  0.50795000  0.56974000  1.0
  F  F209  1  0.80744000  0.99205000  0.93025000  1.0
  F  F210  1  0.25598000  0.47730000  0.33105000  1.0
  F  F211  1  0.25597000  0.02270000  0.16895000  1.0
  F  F212  1  0.74403000  0.52270000  0.66894000  1.0
  F  F213  1  0.74402000  0.97730000  0.83105000  1.0
  F  F214  1  0.02744000  0.54953000  0.34200000  1.0
  F  F215  1  0.02743000  0.95047000  0.15800000  1.0
  F  F216  1  0.97257000  0.45047000  0.65800000  1.0
  F  F217  1  0.97256000  0.04953000  0.84200000  1.0
