# generated using pymatgen
data_ZnH8C12O5
_symmetry_space_group_name_H-M   'P 1'
_cell_length_a   7.01883000
_cell_length_b   9.64194000
_cell_length_c   15.69300000
_cell_angle_alpha   99.07320000
_cell_angle_beta   90.00000000
_cell_angle_gamma   90.00000000
_symmetry_Int_Tables_number   1
_chemical_formula_structural   ZnH8C12O5
_chemical_formula_sum   'Zn4 H32 C48 O20'
_cell_volume   1048.73752473
_cell_formula_units_Z   4
loop_
 _symmetry_equiv_pos_site_id
 _symmetry_equiv_pos_as_xyz
  1  'x, y, z'
loop_
 _atom_site_type_symbol
 _atom_site_label
 _atom_site_symmetry_multiplicity
 _atom_site_fract_x
 _atom_site_fract_y
 _atom_site_fract_z
 _atom_site_occupancy
  Zn  Zn0  1  0.40121000  0.23939000  0.50041000  1.0
  Zn  Zn1  1  0.90121000  0.26061000  0.49959000  1.0
  Zn  Zn2  1  0.59879000  0.76061000  0.49959000  1.0
  Zn  Zn3  1  0.09879000  0.73939000  0.50041000  1.0
  H  H4  1  0.17225000  0.43071000  0.45005000  1.0
  H  H5  1  0.67225000  0.06929000  0.54995000  1.0
  H  H6  1  0.82775000  0.56929000  0.54994000  1.0
  H  H7  1  0.32775000  0.93071000  0.45005000  1.0
  H  H8  1  0.17137000  0.45706000  0.55002000  1.0
  H  H9  1  0.67137000  0.04294000  0.44998000  1.0
  H  H10  1  0.82863000  0.54294000  0.44998000  1.0
  H  H11  1  0.32863000  0.95706000  0.55002000  1.0
  H  H12  1  0.91180000  0.25750000  0.25742000  1.0
  H  H13  1  0.41180000  0.24250000  0.74258000  1.0
  H  H14  1  0.08820000  0.74250000  0.74258000  1.0
  H  H15  1  0.58820000  0.75750000  0.25742000  1.0
  H  H16  1  0.91960000  0.22442000  0.09705000  1.0
  H  H17  1  0.41960000  0.27558000  0.90295000  1.0
  H  H18  1  0.08041000  0.77558000  0.90295000  1.0
  H  H19  1  0.58040000  0.72442000  0.09706000  1.0
  H  H20  1  0.64766000  0.30759000  0.01636000  1.0
  H  H21  1  0.14766000  0.19241000  0.98364000  1.0
  H  H22  1  0.35235000  0.69241000  0.98364000  1.0
  H  H23  1  0.85234000  0.80759000  0.01636000  1.0
  H  H24  1  0.34506000  0.43429000  0.01597000  1.0
  H  H25  1  0.84506000  0.06572000  0.98403000  1.0
  H  H26  1  0.65494000  0.56572000  0.98402000  1.0
  H  H27  1  0.15494000  0.93428000  0.01597000  1.0
  H  H28  1  0.07683000  0.56537000  0.09467000  1.0
  H  H29  1  0.57682000  0.93464000  0.90533000  1.0
  H  H30  1  0.92318000  0.43463000  0.90533000  1.0
  H  H31  1  0.42318000  0.06536000  0.09467000  1.0
  H  H32  1  0.08544000  0.62038000  0.25555000  1.0
  H  H33  1  0.58544000  0.87962000  0.74445000  1.0
  H  H34  1  0.91456000  0.37962000  0.74445000  1.0
  H  H35  1  0.41456000  0.12038000  0.25555000  1.0
  C  C36  1  0.79872000  0.30092000  0.22204000  1.0
  C  C37  1  0.29872000  0.19908000  0.77795000  1.0
  C  C38  1  0.20128000  0.69908000  0.77796000  1.0
  C  C39  1  0.70128000  0.80092000  0.22205000  1.0
  C  C40  1  0.80035000  0.28044000  0.13114000  1.0
  C  C41  1  0.30036000  0.21956000  0.86885000  1.0
  C  C42  1  0.19965000  0.71956000  0.86886000  1.0
  C  C43  1  0.69964000  0.78044000  0.13115000  1.0
  C  C44  1  0.65038000  0.32754000  0.08678000  1.0
  C  C45  1  0.15038000  0.17246000  0.91322000  1.0
  C  C46  1  0.34962000  0.67246000  0.91322000  1.0
  C  C47  1  0.84962000  0.82754000  0.08678000  1.0
  C  C48  1  0.49713000  0.40320000  0.13169000  1.0
  C  C49  1  0.99713000  0.09681000  0.86831000  1.0
  C  C50  1  0.50288000  0.59681000  0.86831000  1.0
  C  C51  1  0.00287000  0.90319000  0.13170000  1.0
  C  C52  1  0.49782000  0.42915000  0.22442000  1.0
  C  C53  1  0.99782000  0.07085000  0.77558000  1.0
  C  C54  1  0.50218000  0.57085000  0.77557000  1.0
  C  C55  1  0.00218000  0.92915000  0.22443000  1.0
  C  C56  1  0.64876000  0.36978000  0.26816000  1.0
  C  C57  1  0.14876000  0.13022000  0.73184000  1.0
  C  C58  1  0.35124000  0.63022000  0.73184000  1.0
  C  C59  1  0.85124000  0.86978000  0.26817000  1.0
  C  C60  1  0.64230000  0.35801000  0.36213000  1.0
  C  C61  1  0.14230000  0.14199000  0.63787000  1.0
  C  C62  1  0.35769000  0.64199000  0.63787000  1.0
  C  C63  1  0.85770000  0.85801000  0.36213000  1.0
  C  C64  1  0.34336000  0.45393000  0.08631000  1.0
  C  C65  1  0.84336000  0.04608000  0.91368000  1.0
  C  C66  1  0.65664000  0.54607000  0.91368000  1.0
  C  C67  1  0.15664000  0.95392000  0.08632000  1.0
  C  C68  1  0.19493000  0.52733000  0.12981000  1.0
  C  C69  1  0.69493000  0.97267000  0.87019000  1.0
  C  C70  1  0.80507000  0.47267000  0.87019000  1.0
  C  C71  1  0.30507000  0.02733000  0.12981000  1.0
  C  C72  1  0.19777000  0.55714000  0.22071000  1.0
  C  C73  1  0.69777000  0.94286000  0.77929000  1.0
  C  C74  1  0.80223000  0.44286000  0.77929000  1.0
  C  C75  1  0.30223000  0.05714000  0.22071000  1.0
  C  C76  1  0.34751000  0.51269000  0.26738000  1.0
  C  C77  1  0.84751000  0.98731000  0.73262000  1.0
  C  C78  1  0.65249000  0.48731000  0.73262000  1.0
  C  C79  1  0.15249000  0.01269000  0.26738000  1.0
  C  C80  1  0.35508000  0.57357000  0.36127000  1.0
  C  C81  1  0.85509000  0.92643000  0.63873000  1.0
  C  C82  1  0.64491000  0.42643000  0.63873000  1.0
  C  C83  1  0.14491000  0.07358000  0.36127000  1.0
  O  O84  1  0.48548000  0.31990000  0.39120000  1.0
  O  O85  1  0.98548000  0.18010000  0.60880000  1.0
  O  O86  1  0.51452000  0.68010000  0.60880000  1.0
  O  O87  1  0.01452000  0.81991000  0.39120000  1.0
  O  O88  1  0.79804000  0.37770000  0.40495000  1.0
  O  O89  1  0.29804000  0.12230000  0.59505000  1.0
  O  O90  1  0.20196000  0.62230000  0.59505000  1.0
  O  O91  1  0.70196000  0.87770000  0.40495000  1.0
  O  O92  1  0.51218000  0.62720000  0.38963000  1.0
  O  O93  1  0.01218000  0.87280000  0.61037000  1.0
  O  O94  1  0.48782000  0.37280000  0.61037000  1.0
  O  O95  1  0.98782000  0.12720000  0.38963000  1.0
  O  O96  1  0.20046000  0.57501000  0.40476000  1.0
  O  O97  1  0.70046000  0.92499000  0.59524000  1.0
  O  O98  1  0.79953000  0.42499000  0.59524000  1.0
  O  O99  1  0.29954000  0.07501000  0.40476000  1.0
  O  O100  1  0.16014000  0.37758000  0.50013000  1.0
  O  O101  1  0.66014000  0.12242000  0.49987000  1.0
  O  O102  1  0.83986000  0.62242000  0.49987000  1.0
  O  O103  1  0.33986000  0.87758000  0.50013000  1.0
