# generated using pymatgen
data_Zn3P4H30C24(NO4)4
_symmetry_space_group_name_H-M   'P 1'
_cell_length_a   6.49835000
_cell_length_b   11.31400000
_cell_length_c   13.71550000
_cell_angle_alpha   109.39900000
_cell_angle_beta   90.02210000
_cell_angle_gamma   106.65800000
_symmetry_Int_Tables_number   1
_chemical_formula_structural   Zn3P4H30C24(NO4)4
_chemical_formula_sum   'Zn3 P4 H30 C24 N4 O16'
_cell_volume   906.11694659
_cell_formula_units_Z   1
loop_
 _symmetry_equiv_pos_site_id
 _symmetry_equiv_pos_as_xyz
  1  'x, y, z'
loop_
 _atom_site_type_symbol
 _atom_site_label
 _atom_site_symmetry_multiplicity
 _atom_site_fract_x
 _atom_site_fract_y
 _atom_site_fract_z
 _atom_site_occupancy
  Zn  Zn0  1  0.70430000  0.78578000  0.72418000  1.0
  Zn  Zn1  1  0.91844000  0.21432000  0.27590000  1.0
  Zn  Zn2  1  0.40447000  0.99988000  0.99998000  1.0
  P  P3  1  0.23526000  0.85654000  0.77357000  1.0
  P  P4  1  0.37874000  0.14343000  0.22638000  1.0
  P  P5  1  0.65474000  0.08385000  0.82694000  1.0
  P  P6  1  0.57118000  0.91595000  0.17296000  1.0
  H  H7  1  0.54214000  0.45092000  0.34923000  1.0
  H  H8  1  0.09130000  0.54915000  0.65088000  1.0
  H  H9  1  0.77065000  0.92370000  0.55379000  1.0
  H  H10  1  0.84723000  0.07637000  0.44619000  1.0
  H  H11  1  0.74637000  0.85179000  0.35717000  1.0
  H  H12  1  0.89401000  0.14821000  0.64284000  1.0
  H  H13  1  0.62296000  0.61106000  0.25530000  1.0
  H  H14  1  0.01137000  0.38894000  0.74478000  1.0
  H  H15  1  0.60312000  0.55891000  0.81227000  1.0
  H  H16  1  0.04377000  0.44116000  0.18785000  1.0
  H  H17  1  0.38788000  0.19770000  0.54735000  1.0
  H  H18  1  0.19025000  0.80251000  0.45269000  1.0
  H  H19  1  0.45590000  0.30936000  0.74118000  1.0
  H  H20  1  0.14620000  0.69073000  0.25886000  1.0
  H  H21  1  0.45230000  0.33087000  0.43378000  1.0
  H  H22  1  0.12159000  0.66933000  0.56631000  1.0
  H  H23  1  0.69506000  0.83969000  0.94190000  1.0
  H  H24  1  0.85467000  0.16014000  0.05808000  1.0
  H  H25  1  0.92249000  0.83318000  0.89839000  1.0
  H  H26  1  0.08873000  0.16674000  0.10158000  1.0
  H  H27  1  0.67331000  0.28891000  0.88067000  1.0
  H  H28  1  0.38443000  0.71102000  0.11933000  1.0
  H  H29  1  0.20594000  0.98428000  0.61681000  1.0
  H  H30  1  0.22205000  0.01557000  0.38304000  1.0
  H  H31  1  0.43258000  0.92388000  0.60493000  1.0
  H  H32  1  0.50897000  0.07600000  0.39497000  1.0
  H  H33  1  0.47425000  0.09579000  0.63871000  1.0
  H  H34  1  0.37901000  0.90409000  0.36110000  1.0
  H  H35  1  0.11240000  0.07857000  0.79961000  1.0
  H  H36  1  0.03417000  0.92148000  0.20031000  1.0
  C  C37  1  0.58873000  0.55626000  0.39231000  1.0
  C  C38  1  0.03243000  0.44381000  0.60780000  1.0
  C  C39  1  0.71779000  0.82009000  0.50452000  1.0
  C  C40  1  0.89783000  0.17997000  0.49550000  1.0
  C  C41  1  0.56507000  0.51645000  0.56349000  1.0
  C  C42  1  0.04857000  0.48373000  0.43665000  1.0
  C  C43  1  0.70417000  0.78011000  0.39655000  1.0
  C  C44  1  0.92380000  0.21989000  0.60347000  1.0
  C  C45  1  0.60674000  0.60456000  0.50138000  1.0
  C  C46  1  0.00210000  0.39555000  0.49874000  1.0
  C  C47  1  0.63614000  0.64538000  0.33988000  1.0
  C  C48  1  0.99048000  0.35463000  0.66020000  1.0
  C  C49  1  0.56740000  0.50290000  0.72910000  1.0
  C  C50  1  0.06431000  0.49724000  0.27103000  1.0
  C  C51  1  0.45058000  0.30427000  0.58182000  1.0
  C  C52  1  0.14635000  0.69592000  0.41826000  1.0
  C  C53  1  0.48871000  0.36613000  0.68941000  1.0
  C  C54  1  0.12245000  0.63402000  0.31069000  1.0
  C  C55  1  0.48832000  0.37918000  0.51762000  1.0
  C  C56  1  0.10924000  0.62101000  0.48247000  1.0
  C  C57  1  0.37338000  0.02093000  0.76402000  1.0
  C  C58  1  0.35272000  0.97901000  0.23584000  1.0
  C  C59  1  0.37296000  0.00555000  0.64869000  1.0
  C  C60  1  0.36781000  0.99434000  0.35113000  1.0
  N  N61  1  0.60499000  0.57540000  0.66750000  1.0
  N  N62  1  0.02935000  0.42473000  0.33262000  1.0
  N  N63  1  0.66740000  0.73492000  0.55558000  1.0
  N  N64  1  0.93260000  0.26520000  0.44449000  1.0
  O  O65  1  0.79719000  0.01177000  0.76043000  1.0
  O  O66  1  0.78579000  0.98795000  0.23942000  1.0
  O  O67  1  0.02288000  0.80178000  0.70378000  1.0
  O  O68  1  0.22095000  0.19809000  0.29610000  1.0
  O  O69  1  0.38643000  0.77329000  0.73838000  1.0
  O  O70  1  0.61301000  0.22674000  0.26173000  1.0
  O  O71  1  0.18780000  0.88023000  0.88893000  1.0
  O  O72  1  0.30777000  0.11979000  0.11100000  1.0
  O  O73  1  0.76220000  0.79608000  0.88159000  1.0
  O  O74  1  0.96541000  0.20374000  0.11841000  1.0
  O  O75  1  0.74176000  0.23426000  0.82879000  1.0
  O  O76  1  0.50764000  0.76554000  0.17117000  1.0
  O  O77  1  0.65281000  0.09127000  0.94046000  1.0
  O  O78  1  0.56176000  0.90848000  0.05943000  1.0
  O  O79  1  0.27045000  0.11726000  0.81890000  1.0
  O  O80  1  0.15351000  0.88276000  0.18095000  1.0
