# generated using pymatgen
data_ZnH8C11N3O5
_symmetry_space_group_name_H-M   'P 1'
_cell_length_a   7.11020000
_cell_length_b   9.91678000
_cell_length_c   34.95080000
_cell_angle_alpha   90.00000000
_cell_angle_beta   90.00020000
_cell_angle_gamma   89.99970000
_symmetry_Int_Tables_number   1
_chemical_formula_structural   ZnH8C11N3O5
_chemical_formula_sum   'Zn8 H64 C88 N24 O40'
_cell_volume   2464.39101418
_cell_formula_units_Z   8
loop_
 _symmetry_equiv_pos_site_id
 _symmetry_equiv_pos_as_xyz
  1  'x, y, z'
loop_
 _atom_site_type_symbol
 _atom_site_label
 _atom_site_symmetry_multiplicity
 _atom_site_fract_x
 _atom_site_fract_y
 _atom_site_fract_z
 _atom_site_occupancy
  Zn  Zn0  1  0.02116000  0.47600000  0.38942000  1.0
  Zn  Zn1  1  0.02116000  0.02400000  0.11058000  1.0
  Zn  Zn2  1  0.47884000  0.52400000  0.88942000  1.0
  Zn  Zn3  1  0.47884000  0.97600000  0.61058000  1.0
  Zn  Zn4  1  0.97884000  0.52400000  0.61058000  1.0
  Zn  Zn5  1  0.97883000  0.97600000  0.88942000  1.0
  Zn  Zn6  1  0.52117000  0.47600000  0.11058000  1.0
  Zn  Zn7  1  0.52116000  0.02400000  0.38942000  1.0
  H  H8  1  0.12393000  0.40380000  0.30964000  1.0
  H  H9  1  0.12393000  0.09620000  0.19036000  1.0
  H  H10  1  0.37607000  0.59620000  0.80964000  1.0
  H  H11  1  0.37607000  0.90380000  0.69036000  1.0
  H  H12  1  0.87608000  0.59620000  0.69036000  1.0
  H  H13  1  0.87607000  0.90380000  0.80964000  1.0
  H  H14  1  0.62393000  0.40380000  0.19036000  1.0
  H  H15  1  0.62393000  0.09620000  0.30964000  1.0
  H  H16  1  0.14150000  0.51649000  0.24565000  1.0
  H  H17  1  0.14150000  0.98351000  0.25435000  1.0
  H  H18  1  0.35850000  0.48351000  0.74565000  1.0
  H  H19  1  0.35850000  0.01649000  0.75435000  1.0
  H  H20  1  0.85849000  0.48351000  0.75435000  1.0
  H  H21  1  0.85849000  0.01649000  0.74565000  1.0
  H  H22  1  0.64151000  0.51649000  0.25435000  1.0
  H  H23  1  0.64151000  0.98351000  0.24565000  1.0
  H  H24  1  0.00888000  0.89197000  0.30347000  1.0
  H  H25  1  0.00888000  0.60803000  0.19653000  1.0
  H  H26  1  0.49112000  0.10802000  0.80347000  1.0
  H  H27  1  0.49112000  0.39197000  0.69653000  1.0
  H  H28  1  0.99112000  0.10803000  0.69653000  1.0
  H  H29  1  0.99112000  0.39197000  0.80347000  1.0
  H  H30  1  0.50888000  0.89197000  0.19653000  1.0
  H  H31  1  0.50889000  0.60803000  0.30347000  1.0
  H  H32  1  0.99862000  0.76431000  0.36381000  1.0
  H  H33  1  0.99862000  0.73569000  0.13619000  1.0
  H  H34  1  0.50138000  0.23569000  0.86381000  1.0
  H  H35  1  0.50138000  0.26431000  0.63619000  1.0
  H  H36  1  0.00138000  0.23569000  0.63619000  1.0
  H  H37  1  0.00137000  0.26431000  0.86381000  1.0
  H  H38  1  0.49863000  0.76431000  0.13619000  1.0
  H  H39  1  0.49862000  0.73569000  0.36381000  1.0
  H  H40  1  0.26238000  0.24220000  0.51643000  1.0
  H  H41  1  0.26238000  0.25780000  0.98357000  1.0
  H  H42  1  0.23762000  0.75780000  0.01643000  1.0
  H  H43  1  0.23762000  0.74220000  0.48357000  1.0
  H  H44  1  0.73762000  0.75780000  0.48357000  1.0
  H  H45  1  0.73762000  0.74220000  0.01643000  1.0
  H  H46  1  0.76238000  0.24220000  0.98357000  1.0
  H  H47  1  0.76238000  0.25780000  0.51643000  1.0
  H  H48  1  0.17867000  0.44594000  0.47621000  1.0
  H  H49  1  0.17867000  0.05406000  0.02379000  1.0
  H  H50  1  0.32133000  0.55406000  0.97621000  1.0
  H  H51  1  0.32133000  0.94594000  0.52379000  1.0
  H  H52  1  0.82133000  0.55406000  0.52379000  1.0
  H  H53  1  0.82133000  0.94594000  0.97621000  1.0
  H  H54  1  0.67867000  0.44594000  0.02379000  1.0
  H  H55  1  0.67867000  0.05406000  0.47621000  1.0
  H  H56  1  0.28695000  0.61944000  0.42643000  1.0
  H  H57  1  0.28695000  0.88056000  0.07357000  1.0
  H  H58  1  0.21305000  0.38056000  0.92643000  1.0
  H  H59  1  0.21304000  0.11944000  0.57357000  1.0
  H  H60  1  0.71305000  0.38056000  0.57357000  1.0
  H  H61  1  0.71305000  0.11944000  0.92643000  1.0
  H  H62  1  0.78695000  0.61944000  0.07357000  1.0
  H  H63  1  0.78696000  0.88056000  0.42643000  1.0
  H  H64  1  0.09539000  0.70798000  0.42573000  1.0
  H  H65  1  0.09538000  0.79202000  0.07427000  1.0
  H  H66  1  0.40462000  0.29202000  0.92573000  1.0
  H  H67  1  0.40461000  0.20798000  0.57427000  1.0
  H  H68  1  0.90461000  0.29202000  0.57427000  1.0
  H  H69  1  0.90461000  0.20798000  0.92573000  1.0
  H  H70  1  0.59538000  0.70798000  0.07427000  1.0
  H  H71  1  0.59539000  0.79202000  0.42573000  1.0
  C  C72  1  0.09912000  0.51159000  0.30634000  1.0
  C  C73  1  0.09912000  0.98841000  0.19366000  1.0
  C  C74  1  0.40088000  0.48841000  0.80634000  1.0
  C  C75  1  0.40088000  0.01159000  0.69366000  1.0
  C  C76  1  0.90088000  0.48841000  0.69366000  1.0
  C  C77  1  0.90088000  0.01159000  0.80634000  1.0
  C  C78  1  0.59912000  0.51159000  0.19366000  1.0
  C  C79  1  0.59912000  0.98841000  0.30634000  1.0
  C  C80  1  0.10725000  0.57542000  0.27102000  1.0
  C  C81  1  0.10725000  0.92459000  0.22898000  1.0
  C  C82  1  0.39275000  0.42459000  0.77102000  1.0
  C  C83  1  0.39275000  0.07541000  0.72898000  1.0
  C  C84  1  0.89275000  0.42459000  0.72898000  1.0
  C  C85  1  0.89275000  0.07541000  0.77102000  1.0
  C  C86  1  0.60725000  0.57541000  0.22898000  1.0
  C  C87  1  0.60725000  0.92459000  0.27102000  1.0
  C  C88  1  0.07388000  0.71483000  0.26860000  1.0
  C  C89  1  0.07388000  0.78517000  0.23140000  1.0
  C  C90  1  0.42612000  0.28517000  0.76860000  1.0
  C  C91  1  0.42612000  0.21483000  0.73140000  1.0
  C  C92  1  0.92612000  0.28517000  0.73140000  1.0
  C  C93  1  0.92612000  0.21483000  0.76860000  1.0
  C  C94  1  0.57388000  0.71483000  0.23140000  1.0
  C  C95  1  0.57388000  0.78517000  0.26860000  1.0
  C  C96  1  0.03723000  0.78409000  0.30279000  1.0
  C  C97  1  0.03723000  0.71592000  0.19721000  1.0
  C  C98  1  0.46277000  0.21591000  0.80279000  1.0
  C  C99  1  0.46277000  0.28409000  0.69721000  1.0
  C  C100  1  0.96277000  0.21592000  0.69721000  1.0
  C  C101  1  0.96277000  0.28408000  0.80279000  1.0
  C  C102  1  0.53723000  0.78408000  0.19721000  1.0
  C  C103  1  0.53723000  0.71591000  0.30279000  1.0
  C  C104  1  0.03017000  0.71306000  0.33700000  1.0
  C  C105  1  0.03017000  0.78693000  0.16300000  1.0
  C  C106  1  0.46983000  0.28694000  0.83700000  1.0
  C  C107  1  0.46983000  0.21306000  0.66300000  1.0
  C  C108  1  0.96983000  0.28694000  0.66300000  1.0
  C  C109  1  0.96983000  0.21306000  0.83700000  1.0
  C  C110  1  0.53017000  0.71306000  0.16300000  1.0
  C  C111  1  0.53017000  0.78693000  0.33700000  1.0
  C  C112  1  0.06183000  0.20129000  0.41695000  1.0
  C  C113  1  0.06183000  0.29871000  0.08305000  1.0
  C  C114  1  0.43817000  0.79871000  0.91695000  1.0
  C  C115  1  0.43818000  0.70129000  0.58305000  1.0
  C  C116  1  0.93817000  0.79871000  0.58305000  1.0
  C  C117  1  0.93818000  0.70129000  0.91695000  1.0
  C  C118  1  0.56183000  0.20129000  0.08305000  1.0
  C  C119  1  0.56182000  0.29871000  0.41695000  1.0
  C  C120  1  0.12428000  0.08994000  0.43837000  1.0
  C  C121  1  0.12428000  0.41006000  0.06163000  1.0
  C  C122  1  0.37572000  0.91006000  0.93837000  1.0
  C  C123  1  0.37573000  0.58994000  0.56163000  1.0
  C  C124  1  0.87572000  0.91006000  0.56163000  1.0
  C  C125  1  0.87573000  0.58994000  0.93837000  1.0
  C  C126  1  0.62427000  0.08994000  0.06163000  1.0
  C  C127  1  0.62428000  0.41006000  0.43837000  1.0
  C  C128  1  0.20739000  0.23059000  0.48756000  1.0
  C  C129  1  0.20739000  0.26942000  0.01244000  1.0
  C  C130  1  0.29261000  0.76942000  0.98756000  1.0
  C  C131  1  0.29261000  0.73058000  0.51244000  1.0
  C  C132  1  0.79261000  0.76942000  0.51244000  1.0
  C  C133  1  0.79261000  0.73058000  0.98756000  1.0
  C  C134  1  0.70739000  0.23058000  0.01244000  1.0
  C  C135  1  0.70739000  0.26941000  0.48756000  1.0
  C  C136  1  0.15928000  0.34329000  0.46576000  1.0
  C  C137  1  0.15928000  0.15671000  0.03424000  1.0
  C  C138  1  0.34072000  0.65671000  0.96576000  1.0
  C  C139  1  0.34072000  0.84329000  0.53424000  1.0
  C  C140  1  0.84072000  0.65671000  0.53424000  1.0
  C  C141  1  0.84072000  0.84329000  0.96576000  1.0
  C  C142  1  0.65928000  0.34329000  0.03424000  1.0
  C  C143  1  0.65928000  0.15671000  0.46576000  1.0
  C  C144  1  0.95841000  0.18994000  0.37901000  1.0
  C  C145  1  0.95841000  0.31007000  0.12099000  1.0
  C  C146  1  0.54159000  0.81006000  0.87901000  1.0
  C  C147  1  0.54159000  0.68993000  0.62099000  1.0
  C  C148  1  0.04159000  0.81006000  0.62099000  1.0
  C  C149  1  0.04160000  0.68993000  0.87901000  1.0
  C  C150  1  0.45841000  0.18994000  0.12099000  1.0
  C  C151  1  0.45841000  0.31007000  0.37901000  1.0
  C  C152  1  0.13455000  0.94925000  0.42195000  1.0
  C  C153  1  0.13455000  0.55075000  0.07805000  1.0
  C  C154  1  0.36545000  0.05075000  0.92195000  1.0
  C  C155  1  0.36545000  0.44925000  0.57805000  1.0
  C  C156  1  0.86545000  0.05075000  0.57805000  1.0
  C  C157  1  0.86546000  0.44925000  0.92195000  1.0
  C  C158  1  0.63454000  0.94925000  0.07805000  1.0
  C  C159  1  0.63455000  0.55075000  0.42195000  1.0
  N  N160  1  0.05916000  0.57917000  0.33872000  1.0
  N  N161  1  0.05916000  0.92084000  0.16128000  1.0
  N  N162  1  0.44084000  0.42083000  0.83872000  1.0
  N  N163  1  0.44084000  0.07916000  0.66128000  1.0
  N  N164  1  0.94084000  0.42084000  0.66128000  1.0
  N  N165  1  0.94084000  0.07916000  0.83872000  1.0
  N  N166  1  0.55916000  0.57916000  0.16128000  1.0
  N  N167  1  0.55916000  0.92084000  0.33872000  1.0
  N  N168  1  0.08628000  0.32631000  0.43069000  1.0
  N  N169  1  0.08628000  0.17370000  0.06931000  1.0
  N  N170  1  0.41372000  0.67370000  0.93069000  1.0
  N  N171  1  0.41372000  0.82630000  0.56931000  1.0
  N  N172  1  0.91372000  0.67369000  0.56931000  1.0
  N  N173  1  0.91372000  0.82631000  0.93069000  1.0
  N  N174  1  0.58628000  0.32631000  0.06931000  1.0
  N  N175  1  0.58628000  0.17369000  0.43069000  1.0
  N  N176  1  0.19436000  0.10475000  0.47381000  1.0
  N  N177  1  0.19436000  0.39525000  0.02619000  1.0
  N  N178  1  0.30564000  0.89525000  0.97381000  1.0
  N  N179  1  0.30565000  0.60475000  0.52619000  1.0
  N  N180  1  0.80564000  0.89525000  0.52619000  1.0
  N  N181  1  0.80565000  0.60475000  0.97381000  1.0
  N  N182  1  0.69435000  0.10475000  0.02619000  1.0
  N  N183  1  0.69436000  0.39525000  0.47381000  1.0
  O  O184  1  0.93166000  0.30108000  0.36113000  1.0
  O  O185  1  0.93166000  0.19892000  0.13887000  1.0
  O  O186  1  0.56834000  0.69892000  0.86113000  1.0
  O  O187  1  0.56834000  0.80108000  0.63887000  1.0
  O  O188  1  0.06834000  0.69892000  0.63887000  1.0
  O  O189  1  0.06834000  0.80108000  0.86113000  1.0
  O  O190  1  0.43167000  0.30108000  0.13887000  1.0
  O  O191  1  0.43166000  0.19892000  0.36113000  1.0
  O  O192  1  0.90056000  0.07525000  0.36963000  1.0
  O  O193  1  0.90056000  0.42474000  0.13037000  1.0
  O  O194  1  0.59944000  0.92475000  0.86963000  1.0
  O  O195  1  0.59944000  0.57526000  0.63037000  1.0
  O  O196  1  0.09944000  0.92475000  0.63037000  1.0
  O  O197  1  0.09944000  0.57526000  0.86963000  1.0
  O  O198  1  0.40056000  0.07525000  0.13037000  1.0
  O  O199  1  0.40056000  0.42474000  0.36963000  1.0
  O  O200  1  0.27323000  0.92376000  0.40038000  1.0
  O  O201  1  0.27324000  0.57625000  0.09962000  1.0
  O  O202  1  0.22676000  0.07625000  0.90038000  1.0
  O  O203  1  0.22677000  0.42375000  0.59962000  1.0
  O  O204  1  0.72677000  0.07624000  0.59962000  1.0
  O  O205  1  0.72677000  0.42375000  0.90038000  1.0
  O  O206  1  0.77323000  0.92375000  0.09962000  1.0
  O  O207  1  0.77323000  0.57624000  0.40038000  1.0
  O  O208  1  0.01550000  0.86178000  0.43256000  1.0
  O  O209  1  0.01550000  0.63822000  0.06744000  1.0
  O  O210  1  0.48450000  0.13822000  0.93256000  1.0
  O  O211  1  0.48450000  0.36177000  0.56744000  1.0
  O  O212  1  0.98450000  0.13822000  0.56744000  1.0
  O  O213  1  0.98451000  0.36178000  0.93256000  1.0
  O  O214  1  0.51549000  0.86177000  0.06744000  1.0
  O  O215  1  0.51550000  0.63822000  0.43256000  1.0
  O  O216  1  0.14691000  0.61367000  0.42575000  1.0
  O  O217  1  0.14690000  0.88633000  0.07425000  1.0
  O  O218  1  0.35310000  0.38633000  0.92575000  1.0
  O  O219  1  0.35309000  0.11367000  0.57425000  1.0
  O  O220  1  0.85309000  0.38633000  0.57425000  1.0
  O  O221  1  0.85309000  0.11366000  0.92575000  1.0
  O  O222  1  0.64691000  0.61366000  0.07425000  1.0
  O  O223  1  0.64691000  0.88633000  0.42575000  1.0
