# generated using pymatgen
data_HoH45C40S3N8O17
_symmetry_space_group_name_H-M   'P 1'
_cell_length_a   9.35656000
_cell_length_b   16.59990000
_cell_length_c   17.32100803
_cell_angle_alpha   101.51311307
_cell_angle_beta   104.70624519
_cell_angle_gamma   93.70390000
_symmetry_Int_Tables_number   1
_chemical_formula_structural   HoH45C40S3N8O17
_chemical_formula_sum   'Ho2 H90 C80 S6 N16 O34'
_cell_volume   2530.84565693
_cell_formula_units_Z   2
loop_
 _symmetry_equiv_pos_site_id
 _symmetry_equiv_pos_as_xyz
  1  'x, y, z'
loop_
 _atom_site_type_symbol
 _atom_site_label
 _atom_site_symmetry_multiplicity
 _atom_site_fract_x
 _atom_site_fract_y
 _atom_site_fract_z
 _atom_site_occupancy
  Ho  Ho0  1  0.26062000  0.50111000  0.99733000  1.0
  Ho  Ho1  1  0.73937000  0.49889000  0.00266000  1.0
  H  H2  1  0.13210000  0.31109000  0.97173000  1.0
  H  H3  1  0.86790000  0.68892000  0.02827000  1.0
  H  H4  1  0.10466000  0.34205000  0.88757000  1.0
  H  H5  1  0.89535000  0.65795000  0.11243000  1.0
  H  H6  1  0.17995000  0.67006000  0.98995000  1.0
  H  H7  1  0.82005000  0.32994000  0.01005000  1.0
  H  H8  1  0.07437000  0.63561000  0.03916000  1.0
  H  H9  1  0.92563000  0.36439000  0.96084000  1.0
  H  H10  1  0.27276000  0.63729000  0.46621000  1.0
  H  H11  1  0.72723000  0.36272000  0.53379000  1.0
  H  H12  1  0.15776000  0.42817000  0.78923000  1.0
  H  H13  1  0.84224000  0.57183000  0.21076000  1.0
  H  H14  1  0.81465000  0.88365000  0.58475000  1.0
  H  H15  1  0.18535000  0.11634000  0.41525000  1.0
  H  H16  1  0.68842000  0.57254000  0.83840000  1.0
  H  H17  1  0.31158000  0.42746000  0.16160000  1.0
  H  H18  1  0.40302000  0.07534000  0.75008000  1.0
  H  H19  1  0.59698000  0.92466000  0.24993000  1.0
  H  H20  1  0.30567000  0.64336000  0.77532000  1.0
  H  H21  1  0.69432000  0.35664000  0.22467000  1.0
  H  H22  1  0.31275000  0.84225000  0.51544000  1.0
  H  H23  1  0.68724000  0.15776000  0.48456000  1.0
  H  H24  1  0.30350000  0.75475000  0.43372000  1.0
  H  H25  1  0.69647000  0.24526000  0.56628000  1.0
  H  H26  1  0.14258000  0.80533000  0.43754000  1.0
  H  H27  1  0.85742000  0.19468000  0.56247000  1.0
  H  H28  1  0.29999000  0.50580000  0.47484000  1.0
  H  H29  1  0.70001000  0.49421000  0.52516000  1.0
  H  H30  1  0.24312000  0.38492000  0.53167000  1.0
  H  H31  1  0.75689000  0.61509000  0.46832000  1.0
  H  H32  1  0.04253000  0.53959000  0.69462000  1.0
  H  H33  1  0.95747000  0.46041000  0.30539000  1.0
  H  H34  1  0.09535000  0.65934000  0.63763000  1.0
  H  H35  1  0.90465000  0.34066000  0.36238000  1.0
  H  H36  1  0.39417000  0.33912000  0.73399000  1.0
  H  H37  1  0.60584000  0.66088000  0.26601000  1.0
  H  H38  1  0.39524000  0.44694000  0.73967000  1.0
  H  H39  1  0.60476000  0.55306000  0.26033000  1.0
  H  H40  1  0.73009000  0.07682000  0.61574000  1.0
  H  H41  1  0.26992000  0.92318000  0.38426000  1.0
  H  H42  1  0.82575000  0.00617000  0.56146000  1.0
  H  H43  1  0.17425000  0.99382000  0.43854000  1.0
  H  H44  1  0.64125000  0.02314000  0.51308000  1.0
  H  H45  1  0.35876000  0.97686000  0.48692000  1.0
  H  H46  1  0.87096000  0.75477000  0.59163000  1.0
  H  H47  1  0.12904000  0.24523000  0.40837000  1.0
  H  H48  1  0.81983000  0.62299000  0.63016000  1.0
  H  H49  1  0.18017000  0.37701000  0.36984000  1.0
  H  H50  1  0.45578000  0.71642000  0.71693000  1.0
  H  H51  1  0.54422000  0.28358000  0.28307000  1.0
  H  H52  1  0.50550000  0.84885000  0.67745000  1.0
  H  H53  1  0.49449000  0.15115000  0.32255000  1.0
  H  H54  1  0.85619000  0.48154000  0.73312000  1.0
  H  H55  1  0.14382000  0.51846000  0.26688000  1.0
  H  H56  1  0.93607000  0.58691000  0.77499000  1.0
  H  H57  1  0.06393000  0.41309000  0.22501000  1.0
  H  H58  1  0.56140000  0.26857000  0.87242000  1.0
  H  H59  1  0.43861000  0.73143000  0.12759000  1.0
  H  H60  1  0.49712000  0.20640000  0.76987000  1.0
  H  H61  1  0.50288000  0.79360000  0.23013000  1.0
  H  H62  1  0.36840000  0.25015000  0.82126000  1.0
  H  H63  1  0.63160000  0.74984000  0.17875000  1.0
  H  H64  1  0.30077000  0.94309000  0.69087000  1.0
  H  H65  1  0.69923000  0.05691000  0.30913000  1.0
  H  H66  1  0.20591000  0.80616000  0.70342000  1.0
  H  H67  1  0.79410000  0.19384000  0.29658000  1.0
  H  H68  1  0.32400000  0.89092000  0.96621000  1.0
  H  H69  1  0.67601000  0.10908000  0.03379000  1.0
  H  H70  1  0.41282000  0.03187000  0.95308000  1.0
  H  H71  1  0.58719000  0.96813000  0.04692000  1.0
  H  H72  1  0.55922000  0.70674000  0.85731000  1.0
  H  H73  1  0.44079000  0.29326000  0.14269000  1.0
  H  H74  1  0.48182000  0.75045000  0.93757000  1.0
  H  H75  1  0.51817000  0.24955000  0.06242000  1.0
  H  H76  1  0.83828000  0.85672000  0.08294000  1.0
  H  H77  1  0.16171000  0.14328000  0.91706000  1.0
  H  H78  1  0.84079000  0.97620000  0.01705000  1.0
  H  H79  1  0.15920000  0.02380000  0.98295000  1.0
  H  H80  1  0.86128000  0.80439000  0.79777000  1.0
  H  H81  1  0.13874000  0.19561000  0.20224000  1.0
  H  H82  1  0.86067000  0.69326000  0.87349000  1.0
  H  H83  1  0.13935000  0.30675000  0.12652000  1.0
  H  H84  1  0.75246000  0.16274000  0.85547000  1.0
  H  H85  1  0.24754000  0.83726000  0.14453000  1.0
  H  H86  1  0.71500000  0.04367000  0.91848000  1.0
  H  H87  1  0.28500000  0.95632000  0.08151000  1.0
  H  H88  1  0.00925000  0.92010000  0.79097000  1.0
  H  H89  1  0.99076000  0.07990000  0.20903000  1.0
  H  H90  1  0.02716000  0.04236000  0.73002000  1.0
  H  H91  1  0.97285000  0.95764000  0.26999000  1.0
  C  C92  1  0.24287000  0.78655000  0.47483000  1.0
  C  C93  1  0.75712000  0.21346000  0.52518000  1.0
  C  C94  1  0.19454000  0.73404000  0.52746000  1.0
  C  C95  1  0.80545000  0.26597000  0.47255000  1.0
  C  C96  1  0.19891000  0.59011000  0.55138000  1.0
  C  C97  1  0.80106000  0.40989000  0.44861000  1.0
  C  C98  1  0.24183000  0.51266000  0.52257000  1.0
  C  C99  1  0.75815000  0.48735000  0.47742000  1.0
  C  C100  1  0.21078000  0.44505000  0.55433000  1.0
  C  C101  1  0.78923000  0.55496000  0.44567000  1.0
  C  C102  1  0.13652000  0.45438000  0.61545000  1.0
  C  C103  1  0.86347000  0.54562000  0.38455000  1.0
  C  C104  1  0.09761000  0.53183000  0.64595000  1.0
  C  C105  1  0.90237000  0.46818000  0.35404000  1.0
  C  C106  1  0.12775000  0.59967000  0.61449000  1.0
  C  C107  1  0.87225000  0.40033000  0.38551000  1.0
  C  C108  1  0.35756000  0.39553000  0.76413000  1.0
  C  C109  1  0.64244000  0.60447000  0.23587000  1.0
  C  C110  1  0.43454000  0.41581000  0.85564000  1.0
  C  C111  1  0.56547000  0.58419000  0.14437000  1.0
  C  C112  1  0.71682000  0.01769000  0.57137000  1.0
  C  C113  1  0.28318000  0.98231000  0.42863000  1.0
  C  C114  1  0.64709000  0.95106000  0.60299000  1.0
  C  C115  1  0.35292000  0.04894000  0.39701000  1.0
  C  C116  1  0.68946000  0.81022000  0.63098000  1.0
  C  C117  1  0.31053000  0.18978000  0.36902000  1.0
  C  C118  1  0.77917000  0.74646000  0.61890000  1.0
  C  C119  1  0.22082000  0.25354000  0.38110000  1.0
  C  C120  1  0.75131000  0.67232000  0.64116000  1.0
  C  C121  1  0.24867000  0.32768000  0.35883000  1.0
  C  C122  1  0.63456000  0.66133000  0.67655000  1.0
  C  C123  1  0.36545000  0.33867000  0.32346000  1.0
  C  C124  1  0.54712000  0.72509000  0.68993000  1.0
  C  C125  1  0.45287000  0.27491000  0.31007000  1.0
  C  C126  1  0.57370000  0.79945000  0.66746000  1.0
  C  C127  1  0.42629000  0.20055000  0.33254000  1.0
  C  C128  1  0.86447000  0.53563000  0.78318000  1.0
  C  C129  1  0.13553000  0.46437000  0.21682000  1.0
  C  C130  1  0.94688000  0.51403000  0.86274000  1.0
  C  C131  1  0.05313000  0.48597000  0.13727000  1.0
  C  C132  1  0.47327000  0.22224000  0.82960000  1.0
  C  C133  1  0.52673000  0.77776000  0.17040000  1.0
  C  C134  1  0.45382000  0.14844000  0.86571000  1.0
  C  C135  1  0.54619000  0.85156000  0.13429000  1.0
  C  C136  1  0.36176000  0.99689000  0.82148000  1.0
  C  C137  1  0.63824000  0.00311000  0.17852000  1.0
  C  C138  1  0.30407000  0.93230000  0.75143000  1.0
  C  C139  1  0.69594000  0.06770000  0.24857000  1.0
  C  C140  1  0.25209000  0.85475000  0.75864000  1.0
  C  C141  1  0.74792000  0.14525000  0.24136000  1.0
  C  C142  1  0.25800000  0.84097000  0.83650000  1.0
  C  C143  1  0.74200000  0.15903000  0.16350000  1.0
  C  C144  1  0.31701000  0.90390000  0.90634000  1.0
  C  C145  1  0.68300000  0.09610000  0.09366000  1.0
  C  C146  1  0.36875000  0.98196000  0.89932000  1.0
  C  C147  1  0.63125000  0.01804000  0.10068000  1.0
  C  C148  1  0.47214000  0.69602000  0.88746000  1.0
  C  C149  1  0.52785000  0.30398000  0.11253000  1.0
  C  C150  1  0.49823000  0.62185000  0.92701000  1.0
  C  C151  1  0.50177000  0.37815000  0.07299000  1.0
  C  C152  1  0.84221000  0.84748000  0.01949000  1.0
  C  C153  1  0.15778000  0.15251000  0.98051000  1.0
  C  C154  1  0.84249000  0.91424000  0.98208000  1.0
  C  C155  1  0.15750000  0.08576000  0.01792000  1.0
  C  C156  1  0.85053000  0.90108000  0.90082000  1.0
  C  C157  1  0.14948000  0.09892000  0.09918000  1.0
  C  C158  1  0.85559000  0.81956000  0.86093000  1.0
  C  C159  1  0.14443000  0.18045000  0.13908000  1.0
  C  C160  1  0.85516000  0.75673000  0.90334000  1.0
  C  C161  1  0.14484000  0.24327000  0.09666000  1.0
  C  C162  1  0.80565000  0.10708000  0.84117000  1.0
  C  C163  1  0.19434000  0.89291000  0.15882000  1.0
  C  C164  1  0.78658000  0.04085000  0.87751000  1.0
  C  C165  1  0.21343000  0.95914000  0.12249000  1.0
  C  C166  1  0.85947000  0.97098000  0.86044000  1.0
  C  C167  1  0.14054000  0.02902000  0.13956000  1.0
  C  C168  1  0.94710000  0.97162000  0.80569000  1.0
  C  C169  1  0.05291000  0.02838000  0.19431000  1.0
  C  C170  1  0.95792000  0.04062000  0.77207000  1.0
  C  C171  1  0.04207000  0.95938000  0.22792000  1.0
  S  S172  1  0.09097000  0.36890000  0.65579000  1.0
  S  S173  1  0.90905000  0.63110000  0.34421000  1.0
  S  S174  1  0.59400000  0.56543000  0.70228000  1.0
  S  S175  1  0.40599000  0.43457000  0.29771000  1.0
  S  S176  1  0.19739000  0.74104000  0.84551000  1.0
  S  S177  1  0.80261000  0.25896000  0.15448000  1.0
  N  N178  1  0.23068000  0.65457000  0.51487000  1.0
  N  N179  1  0.76931000  0.34544000  0.48514000  1.0
  N  N180  1  0.19583000  0.38453000  0.75011000  1.0
  N  N181  1  0.80418000  0.61548000  0.24989000  1.0
  N  N182  1  0.72264000  0.88279000  0.60570000  1.0
  N  N183  1  0.27735000  0.11721000  0.39430000  1.0
  N  N184  1  0.71768000  0.55883000  0.78390000  1.0
  N  N185  1  0.28233000  0.44117000  0.21610000  1.0
  N  N186  1  0.40726000  0.07411000  0.80904000  1.0
  N  N187  1  0.59274000  0.92589000  0.19096000  1.0
  N  N188  1  0.32625000  0.68521000  0.82988000  1.0
  N  N189  1  0.67376000  0.31479000  0.17011000  1.0
  N  N190  1  0.84919000  0.76962000  0.98146000  1.0
  N  N191  1  0.15081000  0.23038000  0.01854000  1.0
  N  N192  1  0.88947000  0.10804000  0.78880000  1.0
  N  N193  1  0.11051000  0.89196000  0.21119000  1.0
  O  O194  1  0.09997000  0.35871000  0.94408000  1.0
  O  O195  1  0.90003000  0.64129000  0.05592000  1.0
  O  O196  1  0.17056000  0.63119000  0.02494000  1.0
  O  O197  1  0.82944000  0.36882000  0.97506000  1.0
  O  O198  1  0.12837000  0.76251000  0.57863000  1.0
  O  O199  1  0.87161000  0.23750000  0.42137000  1.0
  O  O200  1  0.94025000  0.37136000  0.66339000  1.0
  O  O201  1  0.05975000  0.62864000  0.33660000  1.0
  O  O202  1  0.13057000  0.29584000  0.60842000  1.0
  O  O203  1  0.86944000  0.70416000  0.39157000  1.0
  O  O204  1  0.35157000  0.42106000  0.90382000  1.0
  O  O205  1  0.64843000  0.57893000  0.09618000  1.0
  O  O206  1  0.57482000  0.42713000  0.87704000  1.0
  O  O207  1  0.42518000  0.57287000  0.12296000  1.0
  O  O208  1  0.53008000  0.95814000  0.62358000  1.0
  O  O209  1  0.46993000  0.04186000  0.37643000  1.0
  O  O210  1  0.45542000  0.57019000  0.72514000  1.0
  O  O211  1  0.54458000  0.42980000  0.27486000  1.0
  O  O212  1  0.60631000  0.50096000  0.63514000  1.0
  O  O213  1  0.39369000  0.49904000  0.36486000  1.0
  O  O214  1  0.08039000  0.49855000  0.86875000  1.0
  O  O215  1  0.91961000  0.50145000  0.13125000  1.0
  O  O216  1  0.88282000  0.51487000  0.91869000  1.0
  O  O217  1  0.11718000  0.48513000  0.08131000  1.0
  O  O218  1  0.47265000  0.15450000  0.94003000  1.0
  O  O219  1  0.52737000  0.84549000  0.05998000  1.0
  O  O220  1  0.19146000  0.74976000  0.92972000  1.0
  O  O221  1  0.80855000  0.25023000  0.07028000  1.0
  O  O222  1  0.06611000  0.70672000  0.77859000  1.0
  O  O223  1  0.93389000  0.29328000  0.22141000  1.0
  O  O224  1  0.39449000  0.59309000  0.95172000  1.0
  O  O225  1  0.60551000  0.40691000  0.04828000  1.0
  O  O226  1  0.62470000  0.59587000  0.93269000  1.0
  O  O227  1  0.37531000  0.40413000  0.06732000  1.0
