# generated using pymatgen
data_CdH8C10S2N2O3
_symmetry_space_group_name_H-M   'P 1'
_cell_length_a   6.54819000
_cell_length_b   10.08020000
_cell_length_c   18.13150000
_cell_angle_alpha   105.14300000
_cell_angle_beta   89.99990000
_cell_angle_gamma   89.99940000
_symmetry_Int_Tables_number   1
_chemical_formula_structural   CdH8C10S2N2O3
_chemical_formula_sum   'Cd4 H32 C40 S8 N8 O12'
_cell_volume   1155.25018678
_cell_formula_units_Z   4
loop_
 _symmetry_equiv_pos_site_id
 _symmetry_equiv_pos_as_xyz
  1  'x, y, z'
loop_
 _atom_site_type_symbol
 _atom_site_label
 _atom_site_symmetry_multiplicity
 _atom_site_fract_x
 _atom_site_fract_y
 _atom_site_fract_z
 _atom_site_occupancy
  Cd  Cd0  1  0.80911000  0.31734000  0.19365000  1.0
  Cd  Cd1  1  0.30912000  0.18266000  0.30635000  1.0
  Cd  Cd2  1  0.19088000  0.68266000  0.80635000  1.0
  Cd  Cd3  1  0.69088000  0.81734000  0.69365000  1.0
  H  H4  1  0.77972000  0.01780000  0.07409000  1.0
  H  H5  1  0.27971000  0.48220000  0.42591000  1.0
  H  H6  1  0.22028000  0.98220000  0.92591000  1.0
  H  H7  1  0.72029000  0.51780000  0.57409000  1.0
  H  H8  1  0.71780000  0.90987000  0.93323000  1.0
  H  H9  1  0.21779000  0.59014000  0.56677000  1.0
  H  H10  1  0.28220000  0.09013000  0.06677000  1.0
  H  H11  1  0.78220000  0.40986000  0.43324000  1.0
  H  H12  1  0.65841000  0.06753000  0.84886000  1.0
  H  H13  1  0.15841000  0.43248000  0.65114000  1.0
  H  H14  1  0.34160000  0.93247000  0.15114000  1.0
  H  H15  1  0.84159000  0.56752000  0.34886000  1.0
  H  H16  1  0.68563000  0.31861000  0.90284000  1.0
  H  H17  1  0.18562000  0.18139000  0.59717000  1.0
  H  H18  1  0.31437000  0.68139000  0.09716000  1.0
  H  H19  1  0.81438000  0.81860000  0.40283000  1.0
  H  H20  1  0.72431000  0.51774000  0.95008000  1.0
  H  H21  1  0.22430000  0.98225000  0.54993000  1.0
  H  H22  1  0.27570000  0.48226000  0.04992000  1.0
  H  H23  1  0.77571000  0.01774000  0.45008000  1.0
  H  H24  1  0.76698000  0.76206000  0.01449000  1.0
  H  H25  1  0.26698000  0.73793000  0.48551000  1.0
  H  H26  1  0.23303000  0.23794000  0.98551000  1.0
  H  H27  1  0.73303000  0.26206000  0.51449000  1.0
  H  H28  1  0.82656000  0.83423000  0.15812000  1.0
  H  H29  1  0.32656000  0.66577000  0.34188000  1.0
  H  H30  1  0.17344000  0.16577000  0.84188000  1.0
  H  H31  1  0.67344000  0.33423000  0.65812000  1.0
  H  H32  1  0.84487000  0.65108000  0.22700000  1.0
  H  H33  1  0.34487000  0.84892000  0.27300000  1.0
  H  H34  1  0.15512000  0.34891000  0.77300000  1.0
  H  H35  1  0.65512000  0.15108000  0.72700000  1.0
  C  C36  1  0.75737000  0.07995000  0.03367000  1.0
  C  C37  1  0.25737000  0.42005000  0.46633000  1.0
  C  C38  1  0.24262000  0.92005000  0.96633000  1.0
  C  C39  1  0.74262000  0.57995000  0.53367000  1.0
  C  C40  1  0.72271000  0.02112000  0.95625000  1.0
  C  C41  1  0.22271000  0.47888000  0.54375000  1.0
  C  C42  1  0.27729000  0.97888000  0.04375000  1.0
  C  C43  1  0.77729000  0.52112000  0.45625000  1.0
  C  C44  1  0.69291000  0.10886000  0.90916000  1.0
  C  C45  1  0.19291000  0.39115000  0.59084000  1.0
  C  C46  1  0.30709000  0.89114000  0.09084000  1.0
  C  C47  1  0.80709000  0.60885000  0.40916000  1.0
  C  C48  1  0.70497000  0.25033000  0.93993000  1.0
  C  C49  1  0.20497000  0.24968000  0.56008000  1.0
  C  C50  1  0.29504000  0.74968000  0.06007000  1.0
  C  C51  1  0.79503000  0.75032000  0.43992000  1.0
  C  C52  1  0.74235000  0.30222000  0.01825000  1.0
  C  C53  1  0.24234000  0.19778000  0.48176000  1.0
  C  C54  1  0.25766000  0.69778000  0.98175000  1.0
  C  C55  1  0.75766000  0.80221000  0.51824000  1.0
  C  C56  1  0.76121000  0.45186000  0.05435000  1.0
  C  C57  1  0.26121000  0.04815000  0.44565000  1.0
  C  C58  1  0.23879000  0.54815000  0.94565000  1.0
  C  C59  1  0.73879000  0.95186000  0.55435000  1.0
  C  C60  1  0.74955000  0.54872000  0.01145000  1.0
  C  C61  1  0.24955000  0.95128000  0.48855000  1.0
  C  C62  1  0.25046000  0.45128000  0.98854000  1.0
  C  C63  1  0.75046000  0.04872000  0.51145000  1.0
  C  C64  1  0.77364000  0.68731000  0.04824000  1.0
  C  C65  1  0.27364000  0.81269000  0.45176000  1.0
  C  C66  1  0.22636000  0.31269000  0.95176000  1.0
  C  C67  1  0.72637000  0.18731000  0.54824000  1.0
  C  C68  1  0.80712000  0.72718000  0.12682000  1.0
  C  C69  1  0.30711000  0.77282000  0.37318000  1.0
  C  C70  1  0.19289000  0.27282000  0.87318000  1.0
  C  C71  1  0.69289000  0.22718000  0.62682000  1.0
  C  C72  1  0.81682000  0.62524000  0.16570000  1.0
  C  C73  1  0.31682000  0.87476000  0.33430000  1.0
  C  C74  1  0.18318000  0.37476000  0.83430000  1.0
  C  C75  1  0.68318000  0.12524000  0.66570000  1.0
  S  S76  1  0.99687000  0.10994000  0.22045000  1.0
  S  S77  1  0.49686000  0.39006000  0.27955000  1.0
  S  S78  1  0.00313000  0.89006000  0.77955000  1.0
  S  S79  1  0.50313000  0.60994000  0.72045000  1.0
  S  S80  1  0.27402000  0.44050000  0.20667000  1.0
  S  S81  1  0.77402000  0.05951000  0.29333000  1.0
  S  S82  1  0.72597000  0.55950000  0.79333000  1.0
  S  S83  1  0.22597000  0.94050000  0.70667000  1.0
  N  N84  1  0.76485000  0.21624000  0.06370000  1.0
  N  N85  1  0.26484000  0.28376000  0.43630000  1.0
  N  N86  1  0.23515000  0.78376000  0.93630000  1.0
  N  N87  1  0.73515000  0.71624000  0.56370000  1.0
  N  N88  1  0.79571000  0.49153000  0.13026000  1.0
  N  N89  1  0.29570000  0.00847000  0.36974000  1.0
  N  N90  1  0.20429000  0.50847000  0.86974000  1.0
  N  N91  1  0.70430000  0.99153000  0.63026000  1.0
  O  O92  1  0.09042000  0.46148000  0.25711000  1.0
  O  O93  1  0.59042000  0.03853000  0.24289000  1.0
  O  O94  1  0.90958000  0.53852000  0.74289000  1.0
  O  O95  1  0.40958000  0.96148000  0.75711000  1.0
  O  O96  1  0.34291000  0.56657000  0.18913000  1.0
  O  O97  1  0.84291000  0.93343000  0.31087000  1.0
  O  O98  1  0.65709000  0.43343000  0.81087000  1.0
  O  O99  1  0.15709000  0.06657000  0.68913000  1.0
  O  O100  1  0.25045000  0.32246000  0.13973000  1.0
  O  O101  1  0.75045000  0.17755000  0.36027000  1.0
  O  O102  1  0.74955000  0.67754000  0.86027000  1.0
  O  O103  1  0.24956000  0.82246000  0.63973000  1.0
