# generated using pymatgen
data_CuH14C20(NO)4
_symmetry_space_group_name_H-M   'P 1'
_cell_length_a   13.22610000
_cell_length_b   13.42000000
_cell_length_c   21.01560000
_cell_angle_alpha   89.99990000
_cell_angle_beta   107.74800000
_cell_angle_gamma   89.99940000
_symmetry_Int_Tables_number   1
_chemical_formula_structural   CuH14C20(NO)4
_chemical_formula_sum   'Cu6 H84 C120 N24 O24'
_cell_volume   3552.61737308
_cell_formula_units_Z   6
loop_
 _symmetry_equiv_pos_site_id
 _symmetry_equiv_pos_as_xyz
  1  'x, y, z'
loop_
 _atom_site_type_symbol
 _atom_site_label
 _atom_site_symmetry_multiplicity
 _atom_site_fract_x
 _atom_site_fract_y
 _atom_site_fract_z
 _atom_site_occupancy
  Cu  Cu0  1  0.71116000  0.51609000  0.49460000  1.0
  Cu  Cu1  1  0.28884000  0.01609000  0.00540000  1.0
  Cu  Cu2  1  0.28883000  0.48391000  0.50539000  1.0
  Cu  Cu3  1  0.71117000  0.98391000  0.99460000  1.0
  Cu  Cu4  1  0.50000000  0.50000000  0.00000000  1.0
  Cu  Cu5  1  0.50001000  0.00001000  0.50000000  1.0
  H  H6  1  0.73747000  0.38932000  0.30512000  1.0
  H  H7  1  0.66888000  0.30768000  0.19506000  1.0
  H  H8  1  0.45745000  0.13103000  0.26973000  1.0
  H  H9  1  0.52891000  0.21253000  0.38069000  1.0
  H  H10  1  0.37491000  0.07175000  0.15928000  1.0
  H  H11  1  0.49012000  0.15145000  0.99962000  1.0
  H  H12  1  0.82066000  0.73170000  0.71957000  1.0
  H  H13  1  0.80447000  0.71382000  0.83411000  1.0
  H  H14  1  0.52640000  0.53103000  0.75402000  1.0
  H  H15  1  0.55367000  0.53798000  0.64266000  1.0
  H  H16  1  0.67771000  0.67510000  0.02287000  1.0
  H  H17  1  0.53959000  0.48137000  0.86089000  1.0
  H  H18  1  0.67882000  0.61066000  0.19992000  1.0
  H  H19  1  0.80892000  0.63216000  0.31160000  1.0
  H  H20  1  0.98259000  0.37642000  0.27605000  1.0
  H  H21  1  0.84578000  0.35210000  0.16594000  1.0
  H  H22  1  0.12899000  0.43634000  0.36085000  1.0
  H  H23  1  0.08625000  0.61130000  0.51705000  1.0
  H  H24  1  0.59598000  0.25024000  0.09984000  1.0
  H  H25  1  0.73106000  0.73520000  0.92422000  1.0
  H  H26  1  0.90994000  0.60818000  0.42222000  1.0
  H  H27  1  0.26253000  0.88931000  0.19488000  1.0
  H  H28  1  0.33111000  0.80768000  0.30494000  1.0
  H  H29  1  0.54255000  0.63104000  0.23028000  1.0
  H  H30  1  0.47109000  0.71253000  0.11931000  1.0
  H  H31  1  0.62509000  0.57175000  0.34073000  1.0
  H  H32  1  0.50986000  0.65145000  0.50038000  1.0
  H  H33  1  0.17933000  0.23169000  0.78042000  1.0
  H  H34  1  0.19553000  0.21382000  0.66589000  1.0
  H  H35  1  0.47360000  0.03102000  0.74599000  1.0
  H  H36  1  0.44632000  0.03797000  0.85735000  1.0
  H  H37  1  0.32229000  0.17511000  0.47713000  1.0
  H  H38  1  0.46042000  0.98136000  0.63911000  1.0
  H  H39  1  0.32119000  0.11066000  0.30008000  1.0
  H  H40  1  0.19109000  0.13217000  0.18840000  1.0
  H  H41  1  0.01742000  0.87643000  0.22396000  1.0
  H  H42  1  0.15423000  0.85211000  0.33407000  1.0
  H  H43  1  0.87102000  0.93635000  0.13915000  1.0
  H  H44  1  0.91375000  0.11130000  0.98295000  1.0
  H  H45  1  0.40402000  0.75024000  0.40016000  1.0
  H  H46  1  0.26893000  0.23519000  0.57578000  1.0
  H  H47  1  0.09006000  0.10819000  0.07778000  1.0
  H  H48  1  0.26253000  0.61069000  0.69488000  1.0
  H  H49  1  0.33111000  0.69233000  0.80494000  1.0
  H  H50  1  0.54255000  0.86896000  0.73027000  1.0
  H  H51  1  0.47108000  0.78748000  0.61931000  1.0
  H  H52  1  0.62509000  0.92824000  0.84072000  1.0
  H  H53  1  0.50987000  0.84855000  0.00038000  1.0
  H  H54  1  0.17931000  0.26831000  0.28042000  1.0
  H  H55  1  0.19551000  0.28619000  0.16588000  1.0
  H  H56  1  0.47360000  0.46896000  0.24599000  1.0
  H  H57  1  0.44632000  0.46200000  0.35735000  1.0
  H  H58  1  0.32229000  0.32490000  0.97713000  1.0
  H  H59  1  0.46041000  0.51864000  0.13911000  1.0
  H  H60  1  0.32118000  0.38933000  0.80008000  1.0
  H  H61  1  0.19108000  0.36783000  0.68840000  1.0
  H  H62  1  0.01740000  0.62357000  0.72395000  1.0
  H  H63  1  0.15421000  0.64789000  0.83406000  1.0
  H  H64  1  0.87100000  0.56365000  0.63915000  1.0
  H  H65  1  0.91374000  0.38870000  0.48294000  1.0
  H  H66  1  0.40402000  0.74977000  0.90016000  1.0
  H  H67  1  0.26894000  0.26481000  0.07578000  1.0
  H  H68  1  0.09005000  0.39182000  0.57778000  1.0
  H  H69  1  0.73747000  0.11069000  0.80512000  1.0
  H  H70  1  0.66889000  0.19234000  0.69506000  1.0
  H  H71  1  0.45744000  0.36896000  0.76972000  1.0
  H  H72  1  0.52890000  0.28747000  0.88068000  1.0
  H  H73  1  0.37490000  0.42825000  0.65927000  1.0
  H  H74  1  0.49013000  0.34856000  0.49962000  1.0
  H  H75  1  0.82070000  0.76831000  0.21959000  1.0
  H  H76  1  0.80450000  0.78619000  0.33412000  1.0
  H  H77  1  0.52640000  0.96895000  0.25402000  1.0
  H  H78  1  0.55368000  0.96201000  0.14266000  1.0
  H  H79  1  0.67772000  0.82490000  0.52287000  1.0
  H  H80  1  0.53960000  0.01864000  0.36089000  1.0
  H  H81  1  0.67882000  0.88935000  0.69992000  1.0
  H  H82  1  0.80893000  0.86784000  0.81160000  1.0
  H  H83  1  0.98259000  0.12359000  0.77605000  1.0
  H  H84  1  0.84579000  0.14791000  0.66594000  1.0
  H  H85  1  0.12900000  0.06367000  0.86085000  1.0
  H  H86  1  0.08626000  0.88870000  0.01705000  1.0
  H  H87  1  0.59598000  0.24977000  0.59984000  1.0
  H  H88  1  0.73107000  0.76480000  0.42422000  1.0
  H  H89  1  0.90995000  0.89182000  0.92222000  1.0
  C  C90  1  0.67696000  0.33177000  0.29731000  1.0
  C  C91  1  0.63783000  0.28594000  0.23535000  1.0
  C  C92  1  0.55623000  0.21497000  0.22376000  1.0
  C  C93  1  0.51992000  0.18683000  0.27761000  1.0
  C  C94  1  0.55958000  0.23199000  0.33968000  1.0
  C  C95  1  0.63667000  0.30723000  0.34965000  1.0
  C  C96  1  0.66592000  0.36710000  0.41252000  1.0
  C  C97  1  0.50787000  0.17423000  0.15736000  1.0
  C  C98  1  0.42294000  0.10968000  0.13322000  1.0
  C  C99  1  0.47847000  0.14837000  0.04847000  1.0
  C  C100  1  0.75760000  0.68645000  0.72815000  1.0
  C  C101  1  0.74626000  0.67824000  0.79182000  1.0
  C  C102  1  0.66329000  0.62185000  0.80242000  1.0
  C  C103  1  0.59319000  0.57247000  0.74739000  1.0
  C  C104  1  0.60706000  0.57737000  0.68482000  1.0
  C  C105  1  0.68880000  0.63501000  0.67426000  1.0
  C  C106  1  0.70578000  0.63574000  0.60670000  1.0
  C  C107  1  0.64683000  0.61128000  0.86733000  1.0
  C  C108  1  0.65563000  0.63953000  0.97402000  1.0
  C  C109  1  0.58570000  0.54281000  0.88815000  1.0
  C  C110  1  0.74407000  0.55814000  0.21768000  1.0
  C  C111  1  0.81853000  0.57048000  0.28023000  1.0
  C  C112  1  0.90589000  0.50603000  0.30222000  1.0
  C  C113  1  0.91582000  0.42783000  0.25972000  1.0
  C  C114  1  0.83979000  0.41408000  0.19812000  1.0
  C  C115  1  0.75267000  0.47873000  0.17648000  1.0
  C  C116  1  0.66728000  0.45867000  0.11183000  1.0
  C  C117  1  0.98732000  0.51944000  0.36612000  1.0
  C  C118  1  0.08980000  0.48344000  0.38766000  1.0
  C  C119  1  0.07117000  0.57417000  0.46924000  1.0
  C  C120  1  0.32304000  0.83177000  0.20269000  1.0
  C  C121  1  0.36216000  0.78594000  0.26465000  1.0
  C  C122  1  0.44377000  0.71497000  0.27624000  1.0
  C  C123  1  0.48008000  0.68684000  0.22239000  1.0
  C  C124  1  0.44042000  0.73199000  0.16032000  1.0
  C  C125  1  0.36333000  0.80723000  0.15035000  1.0
  C  C126  1  0.33407000  0.86710000  0.08749000  1.0
  C  C127  1  0.49212000  0.67423000  0.34264000  1.0
  C  C128  1  0.57706000  0.60968000  0.36678000  1.0
  C  C129  1  0.52152000  0.64837000  0.45153000  1.0
  C  C130  1  0.24239000  0.18644000  0.77184000  1.0
  C  C131  1  0.25374000  0.17823000  0.70818000  1.0
  C  C132  1  0.33671000  0.12183000  0.69758000  1.0
  C  C133  1  0.40681000  0.07246000  0.75261000  1.0
  C  C134  1  0.39294000  0.07736000  0.81519000  1.0
  C  C135  1  0.31119000  0.13500000  0.82574000  1.0
  C  C136  1  0.29422000  0.13575000  0.89331000  1.0
  C  C137  1  0.35317000  0.11127000  0.63267000  1.0
  C  C138  1  0.34437000  0.13953000  0.52598000  1.0
  C  C139  1  0.41430000  0.04280000  0.61185000  1.0
  C  C140  1  0.25594000  0.05815000  0.28232000  1.0
  C  C141  1  0.18147000  0.07049000  0.21976000  1.0
  C  C142  1  0.09412000  0.00605000  0.19778000  1.0
  C  C143  1  0.08419000  0.92785000  0.24028000  1.0
  C  C144  1  0.16022000  0.91409000  0.30188000  1.0
  C  C145  1  0.24734000  0.97873000  0.32352000  1.0
  C  C146  1  0.33273000  0.95867000  0.38817000  1.0
  C  C147  1  0.01269000  0.01945000  0.13388000  1.0
  C  C148  1  0.91021000  0.98345000  0.11234000  1.0
  C  C149  1  0.92883000  0.07418000  0.03076000  1.0
  C  C150  1  0.32304000  0.66823000  0.70269000  1.0
  C  C151  1  0.36216000  0.71406000  0.76464000  1.0
  C  C152  1  0.44377000  0.78503000  0.77624000  1.0
  C  C153  1  0.48008000  0.81316000  0.72239000  1.0
  C  C154  1  0.44042000  0.76801000  0.66031000  1.0
  C  C155  1  0.36332000  0.69277000  0.65034000  1.0
  C  C156  1  0.33406000  0.63291000  0.58748000  1.0
  C  C157  1  0.49213000  0.82577000  0.84264000  1.0
  C  C158  1  0.57707000  0.89032000  0.86678000  1.0
  C  C159  1  0.52153000  0.85163000  0.95153000  1.0
  C  C160  1  0.24238000  0.31355000  0.27184000  1.0
  C  C161  1  0.25373000  0.32176000  0.20817000  1.0
  C  C162  1  0.33671000  0.37815000  0.19758000  1.0
  C  C163  1  0.40680000  0.42752000  0.25262000  1.0
  C  C164  1  0.39293000  0.42261000  0.31518000  1.0
  C  C165  1  0.31118000  0.36499000  0.32574000  1.0
  C  C166  1  0.29421000  0.36425000  0.39330000  1.0
  C  C167  1  0.35317000  0.38872000  0.13267000  1.0
  C  C168  1  0.34437000  0.36047000  0.02598000  1.0
  C  C169  1  0.41429000  0.45720000  0.11185000  1.0
  C  C170  1  0.25593000  0.44185000  0.78232000  1.0
  C  C171  1  0.18146000  0.42950000  0.71976000  1.0
  C  C172  1  0.09410000  0.49395000  0.69778000  1.0
  C  C173  1  0.08418000  0.57215000  0.74028000  1.0
  C  C174  1  0.16020000  0.58591000  0.80188000  1.0
  C  C175  1  0.24733000  0.52126000  0.82352000  1.0
  C  C176  1  0.33272000  0.54133000  0.88817000  1.0
  C  C177  1  0.01268000  0.48055000  0.63388000  1.0
  C  C178  1  0.91019000  0.51655000  0.61234000  1.0
  C  C179  1  0.92882000  0.42582000  0.53076000  1.0
  C  C180  1  0.67696000  0.16824000  0.79731000  1.0
  C  C181  1  0.63784000  0.21406000  0.73535000  1.0
  C  C182  1  0.55623000  0.28504000  0.72376000  1.0
  C  C183  1  0.51991000  0.31316000  0.77761000  1.0
  C  C184  1  0.55957000  0.26801000  0.83968000  1.0
  C  C185  1  0.63667000  0.19277000  0.84965000  1.0
  C  C186  1  0.66593000  0.13289000  0.91251000  1.0
  C  C187  1  0.50787000  0.32578000  0.65736000  1.0
  C  C188  1  0.42293000  0.39032000  0.63322000  1.0
  C  C189  1  0.47847000  0.35163000  0.54847000  1.0
  C  C190  1  0.75763000  0.81355000  0.22816000  1.0
  C  C191  1  0.74628000  0.82176000  0.29183000  1.0
  C  C192  1  0.66330000  0.87815000  0.30242000  1.0
  C  C193  1  0.59320000  0.92752000  0.24739000  1.0
  C  C194  1  0.60707000  0.92262000  0.18482000  1.0
  C  C195  1  0.68883000  0.86499000  0.17426000  1.0
  C  C196  1  0.70581000  0.86425000  0.10670000  1.0
  C  C197  1  0.64684000  0.88872000  0.36733000  1.0
  C  C198  1  0.65563000  0.86047000  0.47403000  1.0
  C  C199  1  0.58571000  0.95720000  0.38815000  1.0
  C  C200  1  0.74408000  0.94186000  0.71768000  1.0
  C  C201  1  0.81854000  0.92952000  0.78023000  1.0
  C  C202  1  0.90590000  0.99397000  0.80222000  1.0
  C  C203  1  0.91582000  0.07217000  0.75972000  1.0
  C  C204  1  0.83980000  0.08592000  0.69812000  1.0
  C  C205  1  0.75268000  0.02128000  0.67648000  1.0
  C  C206  1  0.66729000  0.04135000  0.61183000  1.0
  C  C207  1  0.98732000  0.98056000  0.86612000  1.0
  C  C208  1  0.08980000  0.01656000  0.88766000  1.0
  C  C209  1  0.07118000  0.92583000  0.96924000  1.0
  N  N210  1  0.14053000  0.51736000  0.45122000  1.0
  N  N211  1  0.59173000  0.56130000  0.95354000  1.0
  N  N212  1  0.40573000  0.09455000  0.06576000  1.0
  N  N213  1  0.54067000  0.19719000  0.10230000  1.0
  N  N214  1  0.69049000  0.67086000  0.92305000  1.0
  N  N215  1  0.97811000  0.57745000  0.41886000  1.0
  N  N216  1  0.85948000  0.01737000  0.04878000  1.0
  N  N217  1  0.40828000  0.06130000  0.54646000  1.0
  N  N218  1  0.59427000  0.59455000  0.43424000  1.0
  N  N219  1  0.45933000  0.69719000  0.39770000  1.0
  N  N220  1  0.30950000  0.17085000  0.57696000  1.0
  N  N221  1  0.02190000  0.07745000  0.08114000  1.0
  N  N222  1  0.85947000  0.48263000  0.54878000  1.0
  N  N223  1  0.40827000  0.43870000  0.04646000  1.0
  N  N224  1  0.59427000  0.90545000  0.93424000  1.0
  N  N225  1  0.45933000  0.80281000  0.89770000  1.0
  N  N226  1  0.30950000  0.32914000  0.07695000  1.0
  N  N227  1  0.02188000  0.42254000  0.58114000  1.0
  N  N228  1  0.14053000  0.98264000  0.95123000  1.0
  N  N229  1  0.59173000  0.93870000  0.45354000  1.0
  N  N230  1  0.40572000  0.40546000  0.56576000  1.0
  N  N231  1  0.54066000  0.30281000  0.60230000  1.0
  N  N232  1  0.69050000  0.82914000  0.42305000  1.0
  N  N233  1  0.97812000  0.92255000  0.91886000  1.0
  O  O234  1  0.73177000  0.44125000  0.41610000  1.0
  O  O235  1  0.62424000  0.35043000  0.45767000  1.0
  O  O236  1  0.67152000  0.55473000  0.57301000  1.0
  O  O237  1  0.75317000  0.70580000  0.58872000  1.0
  O  O238  1  0.60761000  0.53412000  0.08660000  1.0
  O  O239  1  0.65700000  0.37259000  0.08698000  1.0
  O  O240  1  0.26821000  0.94125000  0.08390000  1.0
  O  O241  1  0.37575000  0.85044000  0.04233000  1.0
  O  O242  1  0.32847000  0.05474000  0.92700000  1.0
  O  O243  1  0.24683000  0.20582000  0.91128000  1.0
  O  O244  1  0.39240000  0.03413000  0.41340000  1.0
  O  O245  1  0.34301000  0.87260000  0.41302000  1.0
  O  O246  1  0.26822000  0.55875000  0.58389000  1.0
  O  O247  1  0.37573000  0.64959000  0.54232000  1.0
  O  O248  1  0.32847000  0.44525000  0.42699000  1.0
  O  O249  1  0.24679000  0.29419000  0.41127000  1.0
  O  O250  1  0.39239000  0.46586000  0.91340000  1.0
  O  O251  1  0.34301000  0.62739000  0.91301000  1.0
  O  O252  1  0.73178000  0.05874000  0.91610000  1.0
  O  O253  1  0.62423000  0.14954000  0.95767000  1.0
  O  O254  1  0.67154000  0.94525000  0.07301000  1.0
  O  O255  1  0.75322000  0.79419000  0.08873000  1.0
  O  O256  1  0.60762000  0.96589000  0.58660000  1.0
  O  O257  1  0.65701000  0.12742000  0.58698000  1.0
