# generated using pymatgen
data_CdH8C12N7O3
_symmetry_space_group_name_H-M   'P 1'
_cell_length_a   6.26098000
_cell_length_b   10.71580000
_cell_length_c   11.33750000
_cell_angle_alpha   107.91400000
_cell_angle_beta   96.35790000
_cell_angle_gamma   104.90700000
_symmetry_Int_Tables_number   1
_chemical_formula_structural   CdH8C12N7O3
_chemical_formula_sum   'Cd2 H16 C24 N14 O6'
_cell_volume   684.34005332
_cell_formula_units_Z   2
loop_
 _symmetry_equiv_pos_site_id
 _symmetry_equiv_pos_as_xyz
  1  'x, y, z'
loop_
 _atom_site_type_symbol
 _atom_site_label
 _atom_site_symmetry_multiplicity
 _atom_site_fract_x
 _atom_site_fract_y
 _atom_site_fract_z
 _atom_site_occupancy
  Cd  Cd0  1  0.31626000  0.68841000  0.30660000  1.0
  Cd  Cd1  1  0.68374000  0.31159000  0.69340000  1.0
  H  H2  1  0.22962000  0.96347000  0.50049000  1.0
  H  H3  1  0.77037000  0.03653000  0.49951000  1.0
  H  H4  1  0.06954000  0.01992000  0.69546000  1.0
  H  H5  1  0.93046000  0.98008000  0.30453000  1.0
  H  H6  1  0.05448000  0.86618000  0.82625000  1.0
  H  H7  1  0.94552000  0.13382000  0.17376000  1.0
  H  H8  1  0.20220000  0.66577000  0.75712000  1.0
  H  H9  1  0.79781000  0.33423000  0.24289000  1.0
  H  H10  1  0.37082000  0.17197000  0.20250000  1.0
  H  H11  1  0.62918000  0.82803000  0.79750000  1.0
  H  H12  1  0.25746000  0.09372000  0.97125000  1.0
  H  H13  1  0.74255000  0.90628000  0.02875000  1.0
  H  H14  1  0.19438000  0.26320000  0.86862000  1.0
  H  H15  1  0.80562000  0.73680000  0.13138000  1.0
  H  H16  1  0.23852000  0.50375000  0.00819000  1.0
  H  H17  1  0.76148000  0.49625000  0.99181000  1.0
  C  C18  1  0.22253000  0.90086000  0.56056000  1.0
  C  C19  1  0.77747000  0.09914000  0.43944000  1.0
  C  C20  1  0.13388000  0.93210000  0.66985000  1.0
  C  C21  1  0.86612000  0.06789000  0.33015000  1.0
  C  C22  1  0.12529000  0.84682000  0.74143000  1.0
  C  C23  1  0.87472000  0.15318000  0.25857000  1.0
  C  C24  1  0.20989000  0.73555000  0.70416000  1.0
  C  C25  1  0.79012000  0.26445000  0.29585000  1.0
  C  C26  1  0.30555000  0.71493000  0.59694000  1.0
  C  C27  1  0.69445000  0.28507000  0.40306000  1.0
  C  C28  1  0.41166000  0.60404000  0.55319000  1.0
  C  C29  1  0.58834000  0.39596000  0.44681000  1.0
  C  C30  1  0.45182000  0.44034000  0.37000000  1.0
  C  C31  1  0.54818000  0.55966000  0.62999000  1.0
  C  C32  1  0.37965000  0.38324000  0.22956000  1.0
  C  C33  1  0.62035000  0.61676000  0.77044000  1.0
  C  C34  1  0.34766000  0.24546000  0.15821000  1.0
  C  C35  1  0.65234000  0.75454000  0.84179000  1.0
  C  C36  1  0.28023000  0.20056000  0.02710000  1.0
  C  C37  1  0.71977000  0.79944000  0.97290000  1.0
  C  C38  1  0.24369000  0.29351000  0.97064000  1.0
  C  C39  1  0.75631000  0.70649000  0.02936000  1.0
  C  C40  1  0.26978000  0.42792000  0.04791000  1.0
  C  C41  1  0.73022000  0.57208000  0.95209000  1.0
  N  N42  1  0.30419000  0.79415000  0.52415000  1.0
  N  N43  1  0.69581000  0.20585000  0.47584000  1.0
  N  N44  1  0.37238000  0.54306000  0.42741000  1.0
  N  N45  1  0.62762000  0.45694000  0.57259000  1.0
  N  N46  1  0.33526000  0.47158000  0.17416000  1.0
  N  N47  1  0.66473000  0.52842000  0.82584000  1.0
  N  N48  1  0.27992000  0.85895000  0.15757000  1.0
  N  N49  1  0.72008000  0.14104000  0.84243000  1.0
  N  N50  1  0.71796000  0.76233000  0.35972000  1.0
  N  N51  1  0.28205000  0.23767000  0.64028000  1.0
  N  N52  1  0.81863000  0.68388000  0.32108000  1.0
  N  N53  1  0.18137000  0.31613000  0.67892000  1.0
  N  N54  1  0.91870000  0.60494000  0.28172000  1.0
  N  N55  1  0.08131000  0.39507000  0.71828000  1.0
  O  O56  1  0.30182000  0.73875000  0.11103000  1.0
  O  O57  1  0.69819000  0.26125000  0.88896000  1.0
  O  O58  1  0.26823000  0.90186000  0.27505000  1.0
  O  O59  1  0.73176000  0.09813000  0.72494000  1.0
  O  O60  1  0.26933000  0.93108000  0.09091000  1.0
  O  O61  1  0.73067000  0.06892000  0.90908000  1.0
