# generated using pymatgen
data_Cd6H12C48S7(NO2)12
_symmetry_space_group_name_H-M   'P 1'
_cell_length_a   13.10600000
_cell_length_b   13.10510000
_cell_length_c   13.10570000
_cell_angle_alpha   98.31440000
_cell_angle_beta   98.31710000
_cell_angle_gamma   98.31780000
_symmetry_Int_Tables_number   1
_chemical_formula_structural   Cd6H12C48S7(NO2)12
_chemical_formula_sum   'Cd6 H12 C48 S7 N12 O24'
_cell_volume   2172.14548673
_cell_formula_units_Z   1
loop_
 _symmetry_equiv_pos_site_id
 _symmetry_equiv_pos_as_xyz
  1  'x, y, z'
loop_
 _atom_site_type_symbol
 _atom_site_label
 _atom_site_symmetry_multiplicity
 _atom_site_fract_x
 _atom_site_fract_y
 _atom_site_fract_z
 _atom_site_occupancy
  Cd  Cd0  1  0.40175000  0.30582000  0.53565000  1.0
  Cd  Cd1  1  0.30584000  0.53564000  0.40175000  1.0
  Cd  Cd2  1  0.53565000  0.40175000  0.30585000  1.0
  Cd  Cd3  1  0.59825000  0.69418000  0.46435000  1.0
  Cd  Cd4  1  0.69416000  0.46436000  0.59824000  1.0
  Cd  Cd5  1  0.46435000  0.59825000  0.69415000  1.0
  H  H6  1  0.52704000  0.00652000  0.23213000  1.0
  H  H7  1  0.00651000  0.23210000  0.52706000  1.0
  H  H8  1  0.23215000  0.52706000  0.00654000  1.0
  H  H9  1  0.47296000  0.99348000  0.76786000  1.0
  H  H10  1  0.99349000  0.76790000  0.47294000  1.0
  H  H11  1  0.76785000  0.47294000  0.99346000  1.0
  H  H12  1  0.47202000  0.82312000  0.25462000  1.0
  H  H13  1  0.82313000  0.25463000  0.47209000  1.0
  H  H14  1  0.25466000  0.47207000  0.82313000  1.0
  H  H15  1  0.52798000  0.17689000  0.74538000  1.0
  H  H16  1  0.17687000  0.74537000  0.52792000  1.0
  H  H17  1  0.74534000  0.52793000  0.17687000  1.0
  C  C18  1  0.48813000  0.18281000  0.32782000  1.0
  C  C19  1  0.18278000  0.32776000  0.48812000  1.0
  C  C20  1  0.32780000  0.48812000  0.18280000  1.0
  C  C21  1  0.51188000  0.81719000  0.67218000  1.0
  C  C22  1  0.81722000  0.67224000  0.51187000  1.0
  C  C23  1  0.67220000  0.51188000  0.81720000  1.0
  C  C24  1  0.45136000  0.07587000  0.35003000  1.0
  C  C25  1  0.07586000  0.35000000  0.45137000  1.0
  C  C26  1  0.35004000  0.45137000  0.07588000  1.0
  C  C27  1  0.54865000  0.92413000  0.64997000  1.0
  C  C28  1  0.92414000  0.64999000  0.54863000  1.0
  C  C29  1  0.64995000  0.54862000  0.92412000  1.0
  C  C30  1  0.47821000  0.99049000  0.29052000  1.0
  C  C31  1  0.99047000  0.29050000  0.47824000  1.0
  C  C32  1  0.29054000  0.47824000  0.99049000  1.0
  C  C33  1  0.52179000  0.00951000  0.70948000  1.0
  C  C34  1  0.00953000  0.70950000  0.52176000  1.0
  C  C35  1  0.70945000  0.52176000  0.00951000  1.0
  C  C36  1  0.44597000  0.88599000  0.30276000  1.0
  C  C37  1  0.88600000  0.30277000  0.44601000  1.0
  C  C38  1  0.30278000  0.44600000  0.88600000  1.0
  C  C39  1  0.55403000  0.11401000  0.69723000  1.0
  C  C40  1  0.11400000  0.69723000  0.55399000  1.0
  C  C41  1  0.69722000  0.55399000  0.11400000  1.0
  C  C42  1  0.38282000  0.86223000  0.37500000  1.0
  C  C43  1  0.86224000  0.37502000  0.38287000  1.0
  C  C44  1  0.37502000  0.38285000  0.86224000  1.0
  C  C45  1  0.61718000  0.13778000  0.62499000  1.0
  C  C46  1  0.13776000  0.62498000  0.61713000  1.0
  C  C47  1  0.62497000  0.61715000  0.13776000  1.0
  C  C48  1  0.35128000  0.94668000  0.43690000  1.0
  C  C49  1  0.94671000  0.43690000  0.35131000  1.0
  C  C50  1  0.43691000  0.35129000  0.94670000  1.0
  C  C51  1  0.64873000  0.05332000  0.56310000  1.0
  C  C52  1  0.05329000  0.56310000  0.64869000  1.0
  C  C53  1  0.56309000  0.64870000  0.05330000  1.0
  C  C54  1  0.38721000  0.05379000  0.42591000  1.0
  C  C55  1  0.05379000  0.42589000  0.38723000  1.0
  C  C56  1  0.42591000  0.38721000  0.05380000  1.0
  C  C57  1  0.61279000  0.94621000  0.57409000  1.0
  C  C58  1  0.94621000  0.57411000  0.61277000  1.0
  C  C59  1  0.57409000  0.61279000  0.94620000  1.0
  C  C60  1  0.34780000  0.75136000  0.38591000  1.0
  C  C61  1  0.75140000  0.38594000  0.34783000  1.0
  C  C62  1  0.38594000  0.34782000  0.75139000  1.0
  C  C63  1  0.65220000  0.24864000  0.61409000  1.0
  C  C64  1  0.24860000  0.61406000  0.65217000  1.0
  C  C65  1  0.61406000  0.65218000  0.24861000  1.0
  S  S66  1  0.28129000  0.05594000  0.56228000  1.0
  S  S67  1  0.05596000  0.56225000  0.28128000  1.0
  S  S68  1  0.56224000  0.28125000  0.05595000  1.0
  S  S69  1  0.71871000  0.94406000  0.43772000  1.0
  S  S70  1  0.94404000  0.43775000  0.71872000  1.0
  S  S71  1  0.43775000  0.71875000  0.94405000  1.0
  S  S72  1  0.50000000  0.50000000  0.50000000  1.0
  N  N73  1  0.35231000  0.12263000  0.49424000  1.0
  N  N74  1  0.12264000  0.49421000  0.35231000  1.0
  N  N75  1  0.49422000  0.35228000  0.12264000  1.0
  N  N76  1  0.64770000  0.87737000  0.50576000  1.0
  N  N77  1  0.87736000  0.50580000  0.64769000  1.0
  N  N78  1  0.50578000  0.64772000  0.87736000  1.0
  N  N79  1  0.29038000  0.93930000  0.51151000  1.0
  N  N80  1  0.93933000  0.51151000  0.29040000  1.0
  N  N81  1  0.51150000  0.29039000  0.93932000  1.0
  N  N82  1  0.70963000  0.06070000  0.48849000  1.0
  N  N83  1  0.06067000  0.48849000  0.70959000  1.0
  N  N84  1  0.48849000  0.70961000  0.06068000  1.0
  O  O85  1  0.45167000  0.26190000  0.37226000  1.0
  O  O86  1  0.26186000  0.37223000  0.45166000  1.0
  O  O87  1  0.37223000  0.45164000  0.26189000  1.0
  O  O88  1  0.54833000  0.73810000  0.62773000  1.0
  O  O89  1  0.73814000  0.62777000  0.54834000  1.0
  O  O90  1  0.62777000  0.54836000  0.73811000  1.0
  O  O91  1  0.55039000  0.19337000  0.26464000  1.0
  O  O92  1  0.19335000  0.26456000  0.55037000  1.0
  O  O93  1  0.26463000  0.55038000  0.19336000  1.0
  O  O94  1  0.44961000  0.80663000  0.73536000  1.0
  O  O95  1  0.80665000  0.73544000  0.44963000  1.0
  O  O96  1  0.73537000  0.44961000  0.80664000  1.0
  O  O97  1  0.25259000  0.71848000  0.38277000  1.0
  O  O98  1  0.71854000  0.38281000  0.25262000  1.0
  O  O99  1  0.38280000  0.25260000  0.71853000  1.0
  O  O100  1  0.74741000  0.28152000  0.61723000  1.0
  O  O101  1  0.28146000  0.61719000  0.74738000  1.0
  O  O102  1  0.61720000  0.74740000  0.28147000  1.0
  O  O103  1  0.41796000  0.69210000  0.39630000  1.0
  O  O104  1  0.69210000  0.39632000  0.41797000  1.0
  O  O105  1  0.39633000  0.41796000  0.69209000  1.0
  O  O106  1  0.58204000  0.30791000  0.60370000  1.0
  O  O107  1  0.30790000  0.60368000  0.58203000  1.0
  O  O108  1  0.60367000  0.58204000  0.30791000  1.0
