# generated using pymatgen
data_ZnH12C21N(O2F)2
_symmetry_space_group_name_H-M   'P 1'
_cell_length_a   11.30220000
_cell_length_b   18.16025175
_cell_length_c   19.71670000
_cell_angle_alpha   89.33530876
_cell_angle_beta   89.43250000
_cell_angle_gamma   72.78028208
_symmetry_Int_Tables_number   1
_chemical_formula_structural   ZnH12C21N(O2F)2
_chemical_formula_sum   'Zn2 H24 C42 N2 O8 F4'
_cell_volume   3865.12494489
_cell_formula_units_Z   2
loop_
 _symmetry_equiv_pos_site_id
 _symmetry_equiv_pos_as_xyz
  1  'x, y, z'
loop_
 _atom_site_type_symbol
 _atom_site_label
 _atom_site_symmetry_multiplicity
 _atom_site_fract_x
 _atom_site_fract_y
 _atom_site_fract_z
 _atom_site_occupancy
  Zn  Zn0  1  0.93968000  0.57922000  0.49616000  1.0
  Zn  Zn1  1  0.06018000  0.42076000  0.50073000  1.0
  H  H2  1  0.43854000  0.43323000  0.49282000  1.0
  H  H3  1  0.56080000  0.56729000  0.49093000  1.0
  H  H4  1  0.78495000  0.86539000  0.41836000  1.0
  H  H5  1  0.21494000  0.13587000  0.58256000  1.0
  H  H6  1  0.56693000  0.79742000  0.57610000  1.0
  H  H7  1  0.43362000  0.20155000  0.42387000  1.0
  H  H8  1  0.71843000  0.66483000  0.57075000  1.0
  H  H9  1  0.28214000  0.33422000  0.42773000  1.0
  H  H10  1  0.54836000  0.92429000  0.60762000  1.0
  H  H11  1  0.45105000  0.07555000  0.39315000  1.0
  H  H12  1  0.41145000  0.05801000  0.60998000  1.0
  H  H13  1  0.58801000  0.94189000  0.39080000  1.0
  H  H14  1  0.32653000  0.61015000  0.49203000  1.0
  H  H15  1  0.67286000  0.39047000  0.49636000  1.0
  H  H16  1  0.12824000  0.37680000  0.28094000  1.0
  H  H17  1  0.87023000  0.62187000  0.71550000  1.0
  H  H18  1  0.13216000  0.37868000  0.15448000  1.0
  H  H19  1  0.86607000  0.62071000  0.84192000  1.0
  H  H20  1  0.88769000  0.61143000  0.15581000  1.0
  H  H21  1  0.11415000  0.38901000  0.84169000  1.0
  H  H22  1  0.88885000  0.60886000  0.28251000  1.0
  H  H23  1  0.11424000  0.39098000  0.71502000  1.0
  H  H24  1  0.80768000  0.55228000  0.06584000  1.0
  H  H25  1  0.19232000  0.44821000  0.93120000  1.0
  C  C26  1  0.99329000  0.50705000  0.63162000  1.0
  C  C27  1  0.00786000  0.49185000  0.36523000  1.0
  C  C28  1  0.00848000  0.49270000  0.28914000  1.0
  C  C29  1  0.99237000  0.50652000  0.70774000  1.0
  C  C30  1  0.89356000  0.53018000  0.03714000  1.0
  C  C31  1  0.10640000  0.47030000  0.95986000  1.0
  C  C32  1  0.88964000  0.53301000  0.96692000  1.0
  C  C33  1  0.11031000  0.46746000  0.03005000  1.0
  C  C34  1  0.99438000  0.50342000  0.92559000  1.0
  C  C35  1  0.00555000  0.49696000  0.07139000  1.0
  C  C36  1  0.84066000  0.74833000  0.45439000  1.0
  C  C37  1  0.15935000  0.25242000  0.54515000  1.0
  C  C38  1  0.76361000  0.82372000  0.45275000  1.0
  C  C39  1  0.23644000  0.17703000  0.54766000  1.0
  C  C40  1  0.66262000  0.84369000  0.49769000  1.0
  C  C41  1  0.33746000  0.15638000  0.50279000  1.0
  C  C42  1  0.64558000  0.78559000  0.54126000  1.0
  C  C43  1  0.35483000  0.21390000  0.45861000  1.0
  C  C44  1  0.72798000  0.71196000  0.53859000  1.0
  C  C45  1  0.27241000  0.28754000  0.46041000  1.0
  C  C46  1  0.52578000  0.95689000  0.56027000  1.0
  C  C47  1  0.47374000  0.04301000  0.44050000  1.0
  C  C48  1  0.78867000  0.46851000  0.49750000  1.0
  C  C49  1  0.21043000  0.53232000  0.49493000  1.0
  C  C50  1  0.44851000  0.03237000  0.56159000  1.0
  C  C51  1  0.55101000  0.96756000  0.43919000  1.0
  C  C52  1  0.42111000  0.07675000  0.50175000  1.0
  C  C53  1  0.57860000  0.92321000  0.49904000  1.0
  C  C54  1  0.66843000  0.45134000  0.49507000  1.0
  C  C55  1  0.33089000  0.54929000  0.49245000  1.0
  C  C56  1  0.55891000  0.50741000  0.49219000  1.0
  C  C57  1  0.44048000  0.49312000  0.49200000  1.0
  C  C58  1  0.07677000  0.42802000  0.25274000  1.0
  C  C59  1  0.92261000  0.57104000  0.74390000  1.0
  C  C60  1  0.07841000  0.42931000  0.18217000  1.0
  C  C61  1  0.92074000  0.57015000  0.81445000  1.0
  C  C62  1  0.00928000  0.49507000  0.14619000  1.0
  C  C63  1  0.99078000  0.50493000  0.85078000  1.0
  C  C64  1  0.94015000  0.55959000  0.18307000  1.0
  C  C65  1  0.06110000  0.44049000  0.81417000  1.0
  C  C66  1  0.94057000  0.55868000  0.25360000  1.0
  C  C67  1  0.06127000  0.44108000  0.74363000  1.0
  N  N68  1  0.82578000  0.69338000  0.49538000  1.0
  N  N69  1  0.17430000  0.30673000  0.50340000  1.0
  O  O70  1  0.93796000  0.57025000  0.60164000  1.0
  O  O71  1  0.05800000  0.42766000  0.39497000  1.0
  O  O72  1  0.04982000  0.44379000  0.60281000  1.0
  O  O73  1  0.95665000  0.55595000  0.39411000  1.0
  O  O74  1  0.78654000  0.53910000  0.49787000  1.0
  O  O75  1  0.21209000  0.46184000  0.49364000  1.0
  O  O76  1  0.88562000  0.41025000  0.49930000  1.0
  O  O77  1  0.11375000  0.59060000  0.49852000  1.0
  F  F78  1  0.77635000  0.56396000  0.93751000  1.0
  F  F79  1  0.22356000  0.43652000  0.05952000  1.0
  F  F80  1  0.93885000  0.72815000  0.41221000  1.0
  F  F81  1  0.06094000  0.27320000  0.58713000  1.0
