# generated using pymatgen
data_ZnH6(CN2)4
_symmetry_space_group_name_H-M   'P 1'
_cell_length_a   10.48200000
_cell_length_b   15.47320000
_cell_length_c   17.56820000
_cell_angle_alpha   109.36300000
_cell_angle_beta   90.00000000
_cell_angle_gamma   89.99990000
_symmetry_Int_Tables_number   1
_chemical_formula_structural   ZnH6(CN2)4
_chemical_formula_sum   'Zn8 H48 C32 N64'
_cell_volume   2688.21777364
_cell_formula_units_Z   8
loop_
 _symmetry_equiv_pos_site_id
 _symmetry_equiv_pos_as_xyz
  1  'x, y, z'
loop_
 _atom_site_type_symbol
 _atom_site_label
 _atom_site_symmetry_multiplicity
 _atom_site_fract_x
 _atom_site_fract_y
 _atom_site_fract_z
 _atom_site_occupancy
  Zn  Zn0  1  0.70602000  0.30280000  0.18695000  1.0
  Zn  Zn1  1  0.75582000  0.72030000  0.32384000  1.0
  Zn  Zn2  1  0.20602000  0.19720000  0.31305000  1.0
  Zn  Zn3  1  0.25582000  0.77970000  0.17616000  1.0
  Zn  Zn4  1  0.29398000  0.69720000  0.81305000  1.0
  Zn  Zn5  1  0.24417000  0.27970000  0.67616000  1.0
  Zn  Zn6  1  0.79398000  0.80280000  0.68695000  1.0
  Zn  Zn7  1  0.74417000  0.22030000  0.82384000  1.0
  H  H8  1  0.96212000  0.56154000  0.26435000  1.0
  H  H9  1  0.93541000  0.45403000  0.18689000  1.0
  H  H10  1  0.95583000  0.45922000  0.28914000  1.0
  H  H11  1  0.48487000  0.37838000  0.38578000  1.0
  H  H12  1  0.62957000  0.31509000  0.36090000  1.0
  H  H13  1  0.49793000  0.27030000  0.40070000  1.0
  H  H14  1  0.92809000  0.74891000  0.11762000  1.0
  H  H15  1  0.84160000  0.66334000  0.14157000  1.0
  H  H16  1  0.99859000  0.63960000  0.09755000  1.0
  H  H17  1  0.67500000  0.09200000  0.94966000  1.0
  H  H18  1  0.54800000  0.15922000  0.93129000  1.0
  H  H19  1  0.56727000  0.15149000  0.02927000  1.0
  H  H20  1  0.46212000  0.93846000  0.23565000  1.0
  H  H21  1  0.43541000  0.04597000  0.31310000  1.0
  H  H22  1  0.45582000  0.04078000  0.21085000  1.0
  H  H23  1  0.98488000  0.12161000  0.11422000  1.0
  H  H24  1  0.12957000  0.18490000  0.13910000  1.0
  H  H25  1  0.99794000  0.22969000  0.09929000  1.0
  H  H26  1  0.42808000  0.75110000  0.38239000  1.0
  H  H27  1  0.34160000  0.83666000  0.35843000  1.0
  H  H28  1  0.49858000  0.86041000  0.40245000  1.0
  H  H29  1  0.17501000  0.40800000  0.55034000  1.0
  H  H30  1  0.04800000  0.34078000  0.56871000  1.0
  H  H31  1  0.06727000  0.34851000  0.47073000  1.0
  H  H32  1  0.03787000  0.43847000  0.73565000  1.0
  H  H33  1  0.06460000  0.54598000  0.81310000  1.0
  H  H34  1  0.04419000  0.54078000  0.71085000  1.0
  H  H35  1  0.51513000  0.62162000  0.61422000  1.0
  H  H36  1  0.37044000  0.68491000  0.63911000  1.0
  H  H37  1  0.50207000  0.72971000  0.59931000  1.0
  H  H38  1  0.07191000  0.25109000  0.88239000  1.0
  H  H39  1  0.15839000  0.33666000  0.85842000  1.0
  H  H40  1  0.00140000  0.36040000  0.90244000  1.0
  H  H41  1  0.32499000  0.90800000  0.05034000  1.0
  H  H42  1  0.45200000  0.84077000  0.06871000  1.0
  H  H43  1  0.43273000  0.84851000  0.97074000  1.0
  H  H44  1  0.53788000  0.06153000  0.76434000  1.0
  H  H45  1  0.56460000  0.95402000  0.68689000  1.0
  H  H46  1  0.54418000  0.95922000  0.78913000  1.0
  H  H47  1  0.01513000  0.87839000  0.88578000  1.0
  H  H48  1  0.87043000  0.81510000  0.86091000  1.0
  H  H49  1  0.00206000  0.77031000  0.90071000  1.0
  H  H50  1  0.57192000  0.24890000  0.61761000  1.0
  H  H51  1  0.65839000  0.16334000  0.64158000  1.0
  H  H52  1  0.50140000  0.13960000  0.59756000  1.0
  H  H53  1  0.82500000  0.59199000  0.44966000  1.0
  H  H54  1  0.95201000  0.65923000  0.43130000  1.0
  H  H55  1  0.93274000  0.65149000  0.52927000  1.0
  C  C56  1  0.77535000  0.50621000  0.26263000  1.0
  C  C57  1  0.91530000  0.49482000  0.24996000  1.0
  C  C58  1  0.47653000  0.26345000  0.27811000  1.0
  C  C59  1  0.52528000  0.30910000  0.36105000  1.0
  C  C60  1  0.99534000  0.72225000  0.22147000  1.0
  C  C61  1  0.93741000  0.69076000  0.14004000  1.0
  C  C62  1  0.70265000  0.23645000  0.99742000  1.0
  C  C63  1  0.61865000  0.15477000  0.97601000  1.0
  C  C64  1  0.27535000  0.99379000  0.23737000  1.0
  C  C65  1  0.41530000  0.00518000  0.25003000  1.0
  C  C66  1  0.97653000  0.23655000  0.22189000  1.0
  C  C67  1  0.02528000  0.19089000  0.13894000  1.0
  C  C68  1  0.49534000  0.77775000  0.27853000  1.0
  C  C69  1  0.43740000  0.80925000  0.35996000  1.0
  C  C70  1  0.20265000  0.26354000  0.50258000  1.0
  C  C71  1  0.11865000  0.34523000  0.52399000  1.0
  C  C72  1  0.22465000  0.49379000  0.73737000  1.0
  C  C73  1  0.08471000  0.50518000  0.75003000  1.0
  C  C74  1  0.52347000  0.73655000  0.72190000  1.0
  C  C75  1  0.47473000  0.69090000  0.63895000  1.0
  C  C76  1  0.00466000  0.27773000  0.77852000  1.0
  C  C77  1  0.06259000  0.30924000  0.85995000  1.0
  C  C78  1  0.29735000  0.76354000  0.00258000  1.0
  C  C79  1  0.38135000  0.84523000  0.02399000  1.0
  C  C80  1  0.72465000  0.00620000  0.76263000  1.0
  C  C81  1  0.58471000  0.99481000  0.74996000  1.0
  C  C82  1  0.02346000  0.76345000  0.77811000  1.0
  C  C83  1  0.97472000  0.80911000  0.86106000  1.0
  C  C84  1  0.50466000  0.22227000  0.72148000  1.0
  C  C85  1  0.56259000  0.19076000  0.64005000  1.0
  C  C86  1  0.79735000  0.73645000  0.49742000  1.0
  C  C87  1  0.88135000  0.65477000  0.47601000  1.0
  N  N88  1  0.71281000  0.58562000  0.29509000  1.0
  N  N89  1  0.58670000  0.56511000  0.29750000  1.0
  N  N90  1  0.57278000  0.47685000  0.26755000  1.0
  N  N91  1  0.68924000  0.43811000  0.24492000  1.0
  N  N92  1  0.54215000  0.25006000  0.20932000  1.0
  N  N93  1  0.46282000  0.20690000  0.14707000  1.0
  N  N94  1  0.35370000  0.19383000  0.17608000  1.0
  N  N95  1  0.35898000  0.22869000  0.25812000  1.0
  N  N96  1  0.93482000  0.73471000  0.29176000  1.0
  N  N97  1  0.02348000  0.76343000  0.35190000  1.0
  N  N98  1  0.13309000  0.76857000  0.31976000  1.0
  N  N99  1  0.11904000  0.74285000  0.23814000  1.0
  N  N100  1  0.74081000  0.28818000  0.07155000  1.0
  N  N101  1  0.81826000  0.35517000  0.06238000  1.0
  N  N102  1  0.82659000  0.34484000  0.98628000  1.0
  N  N103  1  0.75563000  0.27116000  0.94409000  1.0
  N  N104  1  0.21281000  0.91438000  0.20491000  1.0
  N  N105  1  0.08670000  0.93489000  0.20250000  1.0
  N  N106  1  0.07278000  0.02314000  0.23245000  1.0
  N  N107  1  0.18924000  0.06189000  0.25508000  1.0
  N  N108  1  0.04215000  0.24994000  0.29068000  1.0
  N  N109  1  0.96282000  0.29311000  0.35292000  1.0
  N  N110  1  0.85370000  0.30617000  0.32391000  1.0
  N  N111  1  0.85898000  0.27131000  0.24188000  1.0
  N  N112  1  0.43483000  0.76529000  0.20824000  1.0
  N  N113  1  0.52348000  0.73657000  0.14811000  1.0
  N  N114  1  0.63309000  0.73143000  0.18024000  1.0
  N  N115  1  0.61904000  0.75715000  0.26187000  1.0
  N  N116  1  0.24081000  0.21182000  0.42845000  1.0
  N  N117  1  0.31826000  0.14483000  0.43762000  1.0
  N  N118  1  0.32659000  0.15515000  0.51372000  1.0
  N  N119  1  0.25563000  0.22884000  0.55591000  1.0
  N  N120  1  0.28719000  0.41438000  0.70491000  1.0
  N  N121  1  0.41330000  0.43489000  0.70250000  1.0
  N  N122  1  0.42723000  0.52314000  0.73245000  1.0
  N  N123  1  0.31077000  0.56189000  0.75508000  1.0
  N  N124  1  0.45786000  0.74995000  0.79068000  1.0
  N  N125  1  0.53718000  0.79311000  0.85293000  1.0
  N  N126  1  0.64630000  0.80618000  0.82392000  1.0
  N  N127  1  0.64103000  0.77131000  0.74189000  1.0
  N  N128  1  0.06516000  0.26528000  0.70823000  1.0
  N  N129  1  0.97651000  0.23657000  0.64810000  1.0
  N  N130  1  0.86689000  0.23143000  0.68023000  1.0
  N  N131  1  0.88095000  0.25714000  0.76186000  1.0
  N  N132  1  0.25920000  0.71182000  0.92845000  1.0
  N  N133  1  0.18174000  0.64483000  0.93762000  1.0
  N  N134  1  0.17341000  0.65515000  0.01372000  1.0
  N  N135  1  0.24437000  0.72884000  0.05591000  1.0
  N  N136  1  0.78719000  0.08562000  0.79509000  1.0
  N  N137  1  0.91330000  0.06511000  0.79750000  1.0
  N  N138  1  0.92723000  0.97686000  0.76755000  1.0
  N  N139  1  0.81077000  0.93811000  0.74492000  1.0
  N  N140  1  0.95786000  0.75006000  0.70932000  1.0
  N  N141  1  0.03719000  0.70690000  0.64708000  1.0
  N  N142  1  0.14630000  0.69383000  0.67609000  1.0
  N  N143  1  0.14102000  0.72870000  0.75812000  1.0
  N  N144  1  0.56517000  0.23472000  0.79176000  1.0
  N  N145  1  0.47651000  0.26344000  0.85190000  1.0
  N  N146  1  0.36690000  0.26858000  0.81977000  1.0
  N  N147  1  0.38095000  0.24286000  0.73814000  1.0
  N  N148  1  0.75919000  0.78817000  0.57155000  1.0
  N  N149  1  0.68173000  0.85516000  0.56238000  1.0
  N  N150  1  0.67340000  0.84484000  0.48629000  1.0
  N  N151  1  0.74437000  0.77115000  0.44409000  1.0
