# generated using pymatgen
data_AlH12C21NO9
_symmetry_space_group_name_H-M   'P 1'
_cell_length_a   4.13220000
_cell_length_b   23.33150791
_cell_length_c   23.33030000
_cell_angle_alpha   120.00086199
_cell_angle_beta   90.00010000
_cell_angle_gamma   89.99900004
_symmetry_Int_Tables_number   1
_chemical_formula_structural   AlH12C21NO9
_chemical_formula_sum   'Al3 H36 C63 N3 O27'
_cell_volume   1947.92093022
_cell_formula_units_Z   3
loop_
 _symmetry_equiv_pos_site_id
 _symmetry_equiv_pos_as_xyz
  1  'x, y, z'
loop_
 _atom_site_type_symbol
 _atom_site_label
 _atom_site_symmetry_multiplicity
 _atom_site_fract_x
 _atom_site_fract_y
 _atom_site_fract_z
 _atom_site_occupancy
  Al  Al0  1  0.00682000  0.49982000  0.50018000  1.0
  Al  Al1  1  0.00685000  0.16646000  0.83296000  1.0
  Al  Al2  1  0.00678000  0.83369000  0.16686000  1.0
  H  H3  1  0.20042000  0.92036000  0.05129000  1.0
  H  H4  1  0.20835000  0.92273000  0.94684000  1.0
  H  H5  1  0.81376000  0.74876000  0.85947000  1.0
  H  H6  1  0.81379000  0.94401000  0.91791000  1.0
  H  H7  1  0.20049000  0.96425000  0.74632000  1.0
  H  H8  1  0.20833000  0.85743000  0.74394000  1.0
  H  H9  1  0.81379000  0.80721000  0.72264000  1.0
  H  H10  1  0.20048000  0.61539000  0.70241000  1.0
  H  H11  1  0.20833000  0.71984000  0.80924000  1.0
  H  H12  1  0.80789000  0.37062000  0.94873000  1.0
  H  H13  1  0.79824000  0.47688000  0.05368000  1.0
  H  H14  1  0.19409000  0.38861000  0.13959000  1.0
  H  H15  1  0.19406000  0.52707000  0.08234000  1.0
  H  H16  1  0.80788000  0.71791000  0.25523000  1.0
  H  H17  1  0.79826000  0.61296000  0.25653000  1.0
  H  H18  1  0.19406000  0.58431000  0.27805000  1.0
  H  H19  1  0.80788000  0.41144000  0.29602000  1.0
  H  H20  1  0.79824000  0.41013000  0.18976000  1.0
  H  H21  1  0.80788000  0.07821000  0.62925000  1.0
  H  H22  1  0.79704000  0.07690000  0.52291000  1.0
  H  H23  1  0.19260000  0.25101000  0.61143000  1.0
  H  H24  1  0.19260000  0.05527000  0.47293000  1.0
  H  H25  1  0.80786000  0.03741000  0.28228000  1.0
  H  H26  1  0.79702000  0.14375000  0.38730000  1.0
  H  H27  1  0.19259000  0.19376000  0.41567000  1.0
  H  H28  1  0.80786000  0.38439000  0.58845000  1.0
  H  H29  1  0.79701000  0.27938000  0.58979000  1.0
  H  H30  1  0.98999000  0.76013000  0.00776000  1.0
  H  H31  1  0.99009000  0.08094000  0.90654000  1.0
  H  H32  1  0.99008000  0.65891000  0.58572000  1.0
  H  H33  1  0.01980000  0.25248000  0.99089000  1.0
  H  H34  1  0.01978000  0.67577000  0.09492000  1.0
  H  H35  1  0.01979000  0.57174000  0.41418000  1.0
  H  H36  1  0.02021000  0.23837000  0.74766000  1.0
  H  H37  1  0.02018000  0.91903000  0.32407000  1.0
  H  H38  1  0.02021000  0.34261000  0.42828000  1.0
  C  C39  1  0.50452000  0.41252000  0.50220000  1.0
  C  C40  1  0.50693000  0.58858000  0.58845000  1.0
  C  C41  1  0.50485000  0.49787000  0.41047000  1.0
  C  C42  1  0.50697000  0.07820000  0.83347000  1.0
  C  C43  1  0.50454000  0.16445000  0.74365000  1.0
  C  C44  1  0.50484000  0.25618000  0.92072000  1.0
  C  C45  1  0.50687000  0.83320000  0.07809000  1.0
  C  C46  1  0.50450000  0.92302000  0.25416000  1.0
  C  C47  1  0.50482000  0.74594000  0.16881000  1.0
  C  C48  1  0.34113000  0.88358000  0.00943000  1.0
  C  C49  1  0.33927000  0.88421000  0.95026000  1.0
  C  C50  1  0.50255000  0.83455000  0.89471000  1.0
  C  C51  1  0.67849000  0.78676000  0.90103000  1.0
  C  C52  1  0.69511000  0.78800000  0.96129000  1.0
  C  C53  1  0.51507000  0.83542000  0.01553000  1.0
  C  C54  1  0.67854000  0.94758000  0.87991000  1.0
  C  C55  1  0.69519000  0.00660000  0.87867000  1.0
  C  C56  1  0.51519000  0.01342000  0.83126000  1.0
  C  C57  1  0.34116000  0.95917000  0.78310000  1.0
  C  C58  1  0.33929000  0.89937000  0.78246000  1.0
  C  C59  1  0.50258000  0.89348000  0.83212000  1.0
  C  C60  1  0.67852000  0.76564000  0.71908000  1.0
  C  C61  1  0.69517000  0.70538000  0.66005000  1.0
  C  C62  1  0.51516000  0.65116000  0.65324000  1.0
  C  C63  1  0.34115000  0.65725000  0.70750000  1.0
  C  C64  1  0.33928000  0.71642000  0.76730000  1.0
  C  C65  1  0.50257000  0.77196000  0.77319000  1.0
  C  C66  1  0.66713000  0.37520000  0.99037000  1.0
  C  C67  1  0.66773000  0.43472000  0.04983000  1.0
  C  C68  1  0.50383000  0.44005000  0.10508000  1.0
  C  C69  1  0.32906000  0.38560000  0.09824000  1.0
  C  C70  1  0.31377000  0.32682000  0.03772000  1.0
  C  C71  1  0.49363000  0.32063000  0.98367000  1.0
  C  C72  1  0.32904000  0.56842000  0.12069000  1.0
  C  C73  1  0.31375000  0.62895000  0.12244000  1.0
  C  C74  1  0.49360000  0.68298000  0.17029000  1.0
  C  C75  1  0.66713000  0.67628000  0.21817000  1.0
  C  C76  1  0.66773000  0.61681000  0.21822000  1.0
  C  C77  1  0.50383000  0.56158000  0.16830000  1.0
  C  C78  1  0.32904000  0.54597000  0.28106000  1.0
  C  C79  1  0.31376000  0.54423000  0.33984000  1.0
  C  C80  1  0.49362000  0.49637000  0.34602000  1.0
  C  C81  1  0.66714000  0.44850000  0.29145000  1.0
  C  C82  1  0.66773000  0.44844000  0.23193000  1.0
  C  C83  1  0.50383000  0.49836000  0.22660000  1.0
  C  C84  1  0.66666667  0.11519000  0.62465000  1.0
  C  C85  1  0.66666667  0.11515000  0.56515000  1.0
  C  C86  1  0.50222000  0.16506000  0.55993000  1.0
  C  C87  1  0.32784000  0.21269000  0.61444000  1.0
  C  C88  1  0.31366000  0.21098000  0.67323000  1.0
  C  C89  1  0.49362000  0.16307000  0.67926000  1.0
  C  C90  1  0.32785000  0.05225000  0.43159000  1.0
  C  C91  1  0.31364000  0.99346000  0.37110000  1.0
  C  C92  1  0.49361000  0.98741000  0.31714000  1.0
  C  C93  1  0.66658000  0.04201000  0.32386000  1.0
  C  C94  1  0.66666667  0.10152000  0.38332000  1.0
  C  C95  1  0.50220000  0.10675000  0.43845000  1.0
  C  C96  1  0.32782000  0.23509000  0.45398000  1.0
  C  C97  1  0.31364000  0.29558000  0.45568000  1.0
  C  C98  1  0.49361000  0.34952000  0.50358000  1.0
  C  C99  1  0.66657000  0.34281000  0.55148000  1.0
  C  C100  1  0.66666667  0.28335000  0.55152000  1.0
  C  C101  1  0.50220000  0.22822000  0.50162000  1.0
  N  N102  1  0.49364000  0.83333000  0.83334000  1.0
  N  N103  1  0.51126000  0.49999000  0.16665667  1.0
  N  N104  1  0.50891000  0.16668000  0.50001333  1.0
  O  O105  1  0.74754000  0.52681000  0.44866000  1.0
  O  O106  1  0.74618000  0.42148000  0.47278000  1.0
  O  O107  1  0.73997000  0.54811000  0.57506000  1.0
  O  O108  1  0.27392000  0.47078000  0.42439000  1.0
  O  O109  1  0.26663000  0.57923000  0.54974000  1.0
  O  O110  1  0.27388000  0.45347000  0.52980000  1.0
  O  O111  1  0.27391000  0.24226000  0.87971000  1.0
  O  O112  1  0.26669000  0.11692000  0.86283000  1.0
  O  O113  1  0.27394000  0.13683000  0.75698000  1.0
  O  O114  1  0.74753000  0.21798000  0.91146000  1.0
  O  O115  1  0.74623000  0.19385000  0.78202000  1.0
  O  O116  1  0.74003000  0.09159000  0.80639000  1.0
  O  O117  1  0.27390000  0.78694000  0.19590000  1.0
  O  O118  1  0.26658000  0.80383000  0.08744000  1.0
  O  O119  1  0.27385000  0.90966000  0.21320000  1.0
  O  O120  1  0.74752000  0.75519000  0.13987000  1.0
  O  O121  1  0.74614000  0.88464000  0.24519000  1.0
  O  O122  1  0.73993000  0.86028000  0.11858000  1.0
  O  O123  1  0.88235000  0.74130000  0.96437000  1.0
  O  O124  1  0.88246000  0.05637000  0.92537000  1.0
  O  O125  1  0.88244000  0.70230000  0.61028000  1.0
  O  O126  1  0.12819000  0.27665000  0.03423000  1.0
  O  O127  1  0.12817000  0.63244000  0.07576000  1.0
  O  O128  1  0.12818000  0.59091000  0.39001000  1.0
  O  O129  1  0.12868000  0.25766000  0.72358000  1.0
  O  O130  1  0.12867000  0.94310000  0.36743000  1.0
  O  O131  1  0.12867000  0.29925000  0.40900000  1.0
