# generated using pymatgen
data_AgH4C6SN2
_symmetry_space_group_name_H-M   'P 1'
_cell_length_a   6.16482000
_cell_length_b   9.39850260
_cell_length_c   12.12140000
_cell_angle_alpha   79.73625469
_cell_angle_beta   89.98420000
_cell_angle_gamma   70.87425008
_symmetry_Int_Tables_number   1
_chemical_formula_structural   AgH4C6SN2
_chemical_formula_sum   'Ag4 H16 C24 S4 N8'
_cell_volume   651.65376337
_cell_formula_units_Z   4
loop_
 _symmetry_equiv_pos_site_id
 _symmetry_equiv_pos_as_xyz
  1  'x, y, z'
loop_
 _atom_site_type_symbol
 _atom_site_label
 _atom_site_symmetry_multiplicity
 _atom_site_fract_x
 _atom_site_fract_y
 _atom_site_fract_z
 _atom_site_occupancy
  Ag  Ag0  1  0.84602000  0.41270000  0.06045000  1.0
  Ag  Ag1  1  0.25883000  0.58722000  0.43954000  1.0
  Ag  Ag2  1  0.15400000  0.58730000  0.93955000  1.0
  Ag  Ag3  1  0.74116000  0.41277000  0.56046000  1.0
  H  H4  1  0.58804000  0.30195000  0.90127000  1.0
  H  H5  1  0.88985000  0.69814000  0.59862000  1.0
  H  H6  1  0.41196000  0.69805000  0.09873000  1.0
  H  H7  1  0.11014000  0.30187000  0.40138000  1.0
  H  H8  1  0.65478000  0.13934000  0.75649000  1.0
  H  H9  1  0.79408000  0.86056000  0.74350000  1.0
  H  H10  1  0.34522000  0.86065000  0.24351000  1.0
  H  H11  1  0.20590000  0.13944000  0.25651000  1.0
  H  H12  1  0.38080000  0.98788000  0.85317000  1.0
  H  H13  1  0.36895000  0.01199000  0.64693000  1.0
  H  H14  1  0.61921000  0.01212000  0.14683000  1.0
  H  H15  1  0.63106000  0.98800000  0.35307000  1.0
  H  H16  1  0.28365000  0.15858000  0.99544000  1.0
  H  H17  1  0.44232000  0.84143000  0.50452000  1.0
  H  H18  1  0.71637000  0.84141000  0.00456000  1.0
  H  H19  1  0.55766000  0.15857000  0.49547000  1.0
  C  C20  1  0.76156000  0.22873000  0.88989000  1.0
  C  C21  1  0.99029000  0.77120000  0.61008000  1.0
  C  C22  1  0.23845000  0.77127000  0.11011000  1.0
  C  C23  1  0.00970000  0.22880000  0.38993000  1.0
  C  C24  1  0.80003000  0.13660000  0.80913000  1.0
  C  C25  1  0.93660000  0.86329000  0.69083000  1.0
  C  C26  1  0.19999000  0.86339000  0.19088000  1.0
  C  C27  1  0.06339000  0.13671000  0.30918000  1.0
  C  C28  1  0.02558000  0.04846000  0.79294000  1.0
  C  C29  1  0.07417000  0.95135000  0.70708000  1.0
  C  C30  1  0.97441000  0.95156000  0.20706000  1.0
  C  C31  1  0.92581000  0.04866000  0.29292000  1.0
  C  C32  1  0.20311000  0.05741000  0.86067000  1.0
  C  C33  1  0.26069000  0.94256000  0.63928000  1.0
  C  C34  1  0.79689000  0.94259000  0.13933000  1.0
  C  C35  1  0.73930000  0.05744000  0.36071000  1.0
  C  C36  1  0.14976000  0.15047000  0.94061000  1.0
  C  C37  1  0.30038000  0.84944000  0.55937000  1.0
  C  C38  1  0.85024000  0.84953000  0.05938000  1.0
  C  C39  1  0.69962000  0.15056000  0.44062000  1.0
  C  C40  1  0.63749000  0.58857000  0.77530000  1.0
  C  C41  1  0.22612000  0.41146000  0.72471000  1.0
  C  C42  1  0.36253000  0.41143000  0.22469000  1.0
  C  C43  1  0.77388000  0.58855000  0.27528000  1.0
  S  S44  1  0.59739000  0.66075000  0.88926000  1.0
  S  S45  1  0.25816000  0.33923000  0.61078000  1.0
  S  S46  1  0.40262000  0.33925000  0.11074000  1.0
  S  S47  1  0.74185000  0.66076000  0.38922000  1.0
  N  N48  1  0.93262000  0.23589000  0.95538000  1.0
  N  N49  1  0.16845000  0.76415000  0.54449000  1.0
  N  N50  1  0.06738000  0.76411000  0.04462000  1.0
  N  N51  1  0.83154000  0.23584000  0.45552000  1.0
  N  N52  1  0.66383000  0.53671000  0.69250000  1.0
  N  N53  1  0.20038000  0.46345000  0.80747000  1.0
  N  N54  1  0.33617000  0.46330000  0.30750000  1.0
  N  N55  1  0.79963000  0.53656000  0.19253000  1.0
