# generated using pymatgen
data_DyH9C5(NO4)2
_symmetry_space_group_name_H-M   'P 1'
_cell_length_a   6.56117000
_cell_length_b   6.70188000
_cell_length_c   6.70183000
_cell_angle_alpha   64.23890000
_cell_angle_beta   73.12000000
_cell_angle_gamma   73.12050000
_symmetry_Int_Tables_number   1
_chemical_formula_structural   DyH9C5(NO4)2
_chemical_formula_sum   'Dy1 H9 C5 N2 O8'
_cell_volume   249.32053015
_cell_formula_units_Z   1
loop_
 _symmetry_equiv_pos_site_id
 _symmetry_equiv_pos_as_xyz
  1  'x, y, z'
loop_
 _atom_site_type_symbol
 _atom_site_label
 _atom_site_symmetry_multiplicity
 _atom_site_fract_x
 _atom_site_fract_y
 _atom_site_fract_z
 _atom_site_occupancy
  Dy  Dy0  1  0.00000000  0.99449000  0.00551000  1.0
  H  H1  1  0.13001000  0.85190000  0.52802000  1.0
  H  H2  1  0.86998000  0.47197000  0.14810000  1.0
  H  H3  1  0.50000000  0.07718000  0.92281000  1.0
  H  H4  1  0.17694000  0.44556000  0.53556000  1.0
  H  H5  1  0.82306000  0.46443000  0.55445000  1.0
  H  H6  1  0.59965000  0.19980000  0.36399000  1.0
  H  H7  1  0.40035000  0.63600000  0.80021000  1.0
  H  H8  1  0.47150000  0.49130000  0.26361000  1.0
  H  H9  1  0.52851000  0.73639000  0.50871000  1.0
  C  C10  1  0.96100000  0.94809000  0.53292000  1.0
  C  C11  1  0.03899000  0.46707000  0.05192000  1.0
  C  C12  1  0.50000000  0.92304000  0.07697000  1.0
  C  C13  1  0.29651000  0.29128000  0.53461000  1.0
  C  C14  1  0.70351000  0.46536000  0.70874000  1.0
  N  N15  1  0.46938000  0.32796000  0.37346000  1.0
  N  N16  1  0.53063000  0.62654000  0.67205000  1.0
  O  O17  1  0.86884000  0.00981000  0.69479000  1.0
  O  O18  1  0.13115000  0.30520000  0.99019000  1.0
  O  O19  1  0.87314000  0.98899000  0.36858000  1.0
  O  O20  1  0.12685000  0.63141000  0.01102000  1.0
  O  O21  1  0.33238000  0.83315000  0.15518000  1.0
  O  O22  1  0.66762000  0.84481000  0.16684000  1.0
  O  O23  1  0.26410000  0.09966000  0.67810000  1.0
  O  O24  1  0.73589000  0.32191000  0.90035000  1.0
