# generated using pymatgen
data_CdH28C40(NO4)2
_symmetry_space_group_name_H-M   'P 1'
_cell_length_a   9.56554000
_cell_length_b   12.21650000
_cell_length_c   28.79150000
_cell_angle_alpha   90.00010000
_cell_angle_beta   90.00010000
_cell_angle_gamma   90.00000000
_symmetry_Int_Tables_number   1
_chemical_formula_structural   CdH28C40(NO4)2
_chemical_formula_sum   'Cd4 H112 C160 N8 O32'
_cell_volume   3364.50039093
_cell_formula_units_Z   4
loop_
 _symmetry_equiv_pos_site_id
 _symmetry_equiv_pos_as_xyz
  1  'x, y, z'
loop_
 _atom_site_type_symbol
 _atom_site_label
 _atom_site_symmetry_multiplicity
 _atom_site_fract_x
 _atom_site_fract_y
 _atom_site_fract_z
 _atom_site_occupancy
  Cd  Cd0  1  0.49834000  0.15184000  0.97305000  1.0
  Cd  Cd1  1  0.49834000  0.84816000  0.02695000  1.0
  Cd  Cd2  1  0.99834000  0.84817000  0.47305000  1.0
  Cd  Cd3  1  0.99833000  0.15184000  0.52695000  1.0
  H  H4  1  0.24681000  0.50098000  0.91674000  1.0
  H  H5  1  0.24682000  0.49901000  0.08325000  1.0
  H  H6  1  0.74681000  0.49901000  0.41675000  1.0
  H  H7  1  0.74681000  0.50098000  0.58326000  1.0
  H  H8  1  0.19692000  0.63196000  0.85099000  1.0
  H  H9  1  0.19692000  0.36803000  0.14901000  1.0
  H  H10  1  0.69692000  0.36803000  0.35099000  1.0
  H  H11  1  0.69692000  0.63197000  0.64902000  1.0
  H  H12  1  0.42944000  0.42378000  0.75808000  1.0
  H  H13  1  0.42943000  0.57622000  0.24192000  1.0
  H  H14  1  0.92943000  0.57622000  0.25809000  1.0
  H  H15  1  0.92944000  0.42378000  0.74192000  1.0
  H  H16  1  0.47503000  0.29410000  0.82394000  1.0
  H  H17  1  0.47502000  0.70590000  0.17606000  1.0
  H  H18  1  0.97502000  0.70590000  0.32395000  1.0
  H  H19  1  0.97502000  0.29410000  0.67606000  1.0
  H  H20  1  0.26314000  0.51830000  0.70728000  1.0
  H  H21  1  0.26313000  0.48169000  0.29272000  1.0
  H  H22  1  0.76314000  0.48170000  0.20729000  1.0
  H  H23  1  0.76313000  0.51830000  0.79272000  1.0
  H  H24  1  0.42510000  0.58737000  0.71792000  1.0
  H  H25  1  0.42510000  0.41263000  0.28208000  1.0
  H  H26  1  0.92511000  0.41263000  0.21792000  1.0
  H  H27  1  0.92510000  0.58737000  0.78208000  1.0
  H  H28  1  0.29698000  0.96737000  0.68337000  1.0
  H  H29  1  0.29698000  0.03262000  0.31662000  1.0
  H  H30  1  0.79699000  0.03263000  0.18338000  1.0
  H  H31  1  0.79699000  0.96738000  0.81662000  1.0
  H  H32  1  0.08162000  0.94538000  0.63608000  1.0
  H  H33  1  0.08162000  0.05462000  0.36392000  1.0
  H  H34  1  0.58163000  0.05462000  0.13609000  1.0
  H  H35  1  0.58162000  0.94538000  0.86391000  1.0
  H  H36  1  0.97777000  0.76025000  0.62540000  1.0
  H  H37  1  0.97777000  0.23975000  0.37460000  1.0
  H  H38  1  0.47777000  0.23975000  0.12540000  1.0
  H  H39  1  0.47777000  0.76025000  0.87460000  1.0
  H  H40  1  0.08792000  0.59908000  0.66337000  1.0
  H  H41  1  0.08792000  0.40092000  0.33663000  1.0
  H  H42  1  0.58792000  0.40092000  0.16337000  1.0
  H  H43  1  0.58792000  0.59909000  0.83663000  1.0
  H  H44  1  0.40992000  0.82572000  0.76741000  1.0
  H  H45  1  0.40993000  0.17428000  0.23259000  1.0
  H  H46  1  0.90993000  0.17428000  0.26741000  1.0
  H  H47  1  0.90992000  0.82571000  0.73259000  1.0
  H  H48  1  0.51046000  0.74079000  0.73040000  1.0
  H  H49  1  0.51047000  0.25921000  0.26960000  1.0
  H  H50  1  0.01047000  0.25921000  0.23040000  1.0
  H  H51  1  0.01046000  0.74079000  0.76960000  1.0
  H  H52  1  0.51469000  0.75897000  0.64941000  1.0
  H  H53  1  0.51469000  0.24103000  0.35059000  1.0
  H  H54  1  0.01470000  0.24103000  0.14941000  1.0
  H  H55  1  0.01470000  0.75897000  0.85059000  1.0
  H  H56  1  0.70682000  0.05281000  0.70208000  1.0
  H  H57  1  0.70683000  0.94718000  0.29792000  1.0
  H  H58  1  0.20683000  0.94719000  0.20208000  1.0
  H  H59  1  0.20683000  0.05281000  0.79792000  1.0
  H  H60  1  0.66444000  0.77003000  0.57945000  1.0
  H  H61  1  0.66444000  0.22996000  0.42055000  1.0
  H  H62  1  0.16444000  0.22997000  0.07945000  1.0
  H  H63  1  0.16444000  0.77003000  0.92055000  1.0
  H  H64  1  0.85869000  0.06251000  0.63158000  1.0
  H  H65  1  0.85869000  0.93749000  0.36842000  1.0
  H  H66  1  0.35869000  0.93749000  0.13158000  1.0
  H  H67  1  0.35869000  0.06251000  0.86842000  1.0
  H  H68  1  0.44198000  0.37016000  0.03889000  1.0
  H  H69  1  0.44198000  0.62984000  0.96111000  1.0
  H  H70  1  0.94198000  0.62985000  0.53889000  1.0
  H  H71  1  0.94198000  0.37016000  0.46111000  1.0
  H  H72  1  0.57734000  0.52096000  0.07812000  1.0
  H  H73  1  0.57734000  0.47904000  0.92188000  1.0
  H  H74  1  0.07733000  0.47904000  0.57812000  1.0
  H  H75  1  0.07734000  0.52096000  0.42188000  1.0
  H  H76  1  0.83656000  0.52133000  0.07229000  1.0
  H  H77  1  0.83655000  0.47867000  0.92771000  1.0
  H  H78  1  0.33655000  0.47867000  0.57229000  1.0
  H  H79  1  0.33656000  0.52133000  0.42771000  1.0
  H  H80  1  0.05447000  0.43568000  0.03870000  1.0
  H  H81  1  0.05447000  0.56432000  0.96130000  1.0
  H  H82  1  0.55447000  0.56431000  0.53870000  1.0
  H  H83  1  0.55447000  0.43569000  0.46131000  1.0
  H  H84  1  0.16535000  0.29030000  0.99091000  1.0
  H  H85  1  0.16535000  0.70970000  0.00909000  1.0
  H  H86  1  0.66535000  0.70970000  0.49091000  1.0
  H  H87  1  0.66535000  0.29031000  0.50909000  1.0
  H  H88  1  0.14142000  0.11834000  0.94477000  1.0
  H  H89  1  0.14143000  0.88166000  0.05523000  1.0
  H  H90  1  0.64143000  0.88166000  0.44477000  1.0
  H  H91  1  0.64142000  0.11834000  0.55523000  1.0
  H  H92  1  0.98529000  0.97315000  0.91119000  1.0
  H  H93  1  0.98530000  0.02685000  0.08881000  1.0
  H  H94  1  0.48530000  0.02685000  0.41119000  1.0
  H  H95  1  0.48529000  0.97315000  0.58881000  1.0
  H  H96  1  0.72685000  0.98288000  0.92701000  1.0
  H  H97  1  0.72686000  0.01712000  0.07299000  1.0
  H  H98  1  0.22685000  0.01712000  0.42701000  1.0
  H  H99  1  0.22685000  0.98288000  0.57299000  1.0
  H  H100  1  0.35032000  0.10487000  0.74274000  1.0
  H  H101  1  0.35031000  0.89513000  0.25726000  1.0
  H  H102  1  0.85032000  0.89514000  0.24273000  1.0
  H  H103  1  0.85032000  0.10486000  0.75726000  1.0
  H  H104  1  0.58389000  0.18643000  0.74697000  1.0
  H  H105  1  0.58388000  0.81356000  0.25302000  1.0
  H  H106  1  0.08388000  0.81356000  0.24698000  1.0
  H  H107  1  0.08388000  0.18644000  0.75302000  1.0
  H  H108  1  0.66626000  0.32359000  0.68892000  1.0
  H  H109  1  0.66625000  0.67641000  0.31108000  1.0
  H  H110  1  0.16624000  0.67640000  0.18892000  1.0
  H  H111  1  0.16624000  0.32359000  0.81108000  1.0
  H  H112  1  0.51447000  0.38757000  0.62522000  1.0
  H  H113  1  0.51447000  0.61243000  0.37478000  1.0
  H  H114  1  0.01445000  0.61242000  0.12522000  1.0
  H  H115  1  0.01447000  0.38757000  0.87478000  1.0
  C  C116  1  0.38519000  0.31198000  0.91336000  1.0
  C  C117  1  0.38518000  0.68802000  0.08664000  1.0
  C  C118  1  0.88518000  0.68802000  0.41336000  1.0
  C  C119  1  0.88518000  0.31198000  0.58664000  1.0
  C  C120  1  0.36068000  0.38887000  0.87371000  1.0
  C  C121  1  0.36067000  0.61113000  0.12629000  1.0
  C  C122  1  0.86067000  0.61113000  0.37371000  1.0
  C  C123  1  0.86068000  0.38887000  0.62629000  1.0
  C  C124  1  0.28384000  0.48505000  0.88157000  1.0
  C  C125  1  0.28384000  0.51494000  0.11843000  1.0
  C  C126  1  0.78384000  0.51494000  0.38157000  1.0
  C  C127  1  0.78384000  0.48506000  0.61844000  1.0
  C  C128  1  0.25618000  0.55699000  0.84562000  1.0
  C  C129  1  0.25617000  0.44300000  0.15438000  1.0
  C  C130  1  0.75618000  0.44300000  0.34562000  1.0
  C  C131  1  0.75618000  0.55700000  0.65438000  1.0
  C  C132  1  0.30703000  0.53481000  0.80081000  1.0
  C  C133  1  0.30701000  0.46518000  0.19918000  1.0
  C  C134  1  0.80702000  0.46518000  0.30082000  1.0
  C  C135  1  0.80703000  0.53482000  0.69919000  1.0
  C  C136  1  0.38784000  0.44088000  0.79254000  1.0
  C  C137  1  0.38783000  0.55912000  0.20746000  1.0
  C  C138  1  0.88784000  0.55912000  0.29255000  1.0
  C  C139  1  0.88784000  0.44089000  0.70746000  1.0
  C  C140  1  0.41351000  0.36830000  0.82922000  1.0
  C  C141  1  0.41350000  0.63170000  0.17078000  1.0
  C  C142  1  0.91351000  0.63170000  0.32922000  1.0
  C  C143  1  0.91351000  0.36831000  0.67078000  1.0
  C  C144  1  0.31029000  0.59468000  0.72039000  1.0
  C  C145  1  0.31029000  0.40532000  0.27961000  1.0
  C  C146  1  0.81029000  0.40532000  0.22039000  1.0
  C  C147  1  0.81029000  0.59468000  0.77961000  1.0
  C  C148  1  0.25401000  0.69216000  0.69480000  1.0
  C  C149  1  0.25401000  0.30784000  0.30520000  1.0
  C  C150  1  0.75402000  0.30784000  0.19480000  1.0
  C  C151  1  0.75401000  0.69216000  0.80520000  1.0
  C  C152  1  0.31379000  0.79685000  0.70071000  1.0
  C  C153  1  0.31379000  0.20314000  0.29929000  1.0
  C  C154  1  0.81380000  0.20315000  0.20072000  1.0
  C  C155  1  0.81380000  0.79685000  0.79929000  1.0
  C  C156  1  0.25084000  0.88660000  0.67904000  1.0
  C  C157  1  0.25084000  0.11340000  0.32096000  1.0
  C  C158  1  0.75084000  0.11340000  0.17904000  1.0
  C  C159  1  0.75084000  0.88660000  0.82096000  1.0
  C  C160  1  0.13034000  0.87428000  0.65226000  1.0
  C  C161  1  0.13034000  0.12572000  0.34774000  1.0
  C  C162  1  0.63035000  0.12572000  0.15226000  1.0
  C  C163  1  0.63034000  0.87429000  0.84774000  1.0
  C  C164  1  0.07198000  0.77055000  0.64620000  1.0
  C  C165  1  0.07198000  0.22945000  0.35380000  1.0
  C  C166  1  0.57199000  0.22945000  0.14621000  1.0
  C  C167  1  0.57198000  0.77055000  0.85380000  1.0
  C  C168  1  0.13390000  0.68027000  0.66751000  1.0
  C  C169  1  0.13390000  0.31973000  0.33249000  1.0
  C  C170  1  0.63391000  0.31973000  0.16751000  1.0
  C  C171  1  0.63390000  0.68027000  0.83249000  1.0
  C  C172  1  0.44122000  0.81284000  0.73111000  1.0
  C  C173  1  0.44122000  0.18716000  0.26889000  1.0
  C  C174  1  0.94123000  0.18716000  0.23111000  1.0
  C  C175  1  0.94122000  0.81284000  0.76889000  1.0
  C  C176  1  0.60220000  0.90551000  0.68066000  1.0
  C  C177  1  0.60220000  0.09449000  0.31934000  1.0
  C  C178  1  0.10221000  0.09449000  0.18066000  1.0
  C  C179  1  0.10221000  0.90550000  0.81934000  1.0
  C  C180  1  0.59100000  0.82455000  0.64627000  1.0
  C  C181  1  0.59100000  0.17544000  0.35373000  1.0
  C  C182  1  0.09101000  0.17545000  0.14627000  1.0
  C  C183  1  0.09100000  0.82455000  0.85373000  1.0
  C  C184  1  0.69947000  0.99082000  0.67503000  1.0
  C  C185  1  0.69947000  0.00917000  0.32497000  1.0
  C  C186  1  0.19947000  0.00918000  0.17503000  1.0
  C  C187  1  0.19947000  0.99082000  0.82497000  1.0
  C  C188  1  0.67486000  0.83092000  0.60685000  1.0
  C  C189  1  0.67486000  0.16908000  0.39315000  1.0
  C  C190  1  0.17487000  0.16908000  0.10685000  1.0
  C  C191  1  0.17487000  0.83092000  0.89315000  1.0
  C  C192  1  0.78439000  0.99546000  0.63591000  1.0
  C  C193  1  0.78439000  0.00454000  0.36408000  1.0
  C  C194  1  0.28439000  0.00454000  0.13591000  1.0
  C  C195  1  0.28439000  0.99546000  0.86409000  1.0
  C  C196  1  0.77208000  0.91560000  0.60102000  1.0
  C  C197  1  0.77207000  0.08440000  0.39898000  1.0
  C  C198  1  0.27208000  0.08441000  0.10102000  1.0
  C  C199  1  0.27208000  0.91560000  0.89898000  1.0
  C  C200  1  0.86059000  0.91817000  0.55832000  1.0
  C  C201  1  0.86059000  0.08183000  0.44168000  1.0
  C  C202  1  0.36059000  0.08183000  0.05832000  1.0
  C  C203  1  0.36060000  0.91816000  0.94168000  1.0
  C  C204  1  0.55590000  0.37142000  0.03842000  1.0
  C  C205  1  0.55590000  0.62858000  0.96158000  1.0
  C  C206  1  0.05590000  0.62859000  0.53842000  1.0
  C  C207  1  0.05591000  0.37142000  0.46158000  1.0
  C  C208  1  0.63205000  0.45579000  0.05994000  1.0
  C  C209  1  0.63205000  0.54422000  0.94006000  1.0
  C  C210  1  0.13205000  0.54422000  0.55994000  1.0
  C  C211  1  0.13206000  0.45578000  0.44006000  1.0
  C  C212  1  0.77604000  0.45541000  0.05659000  1.0
  C  C213  1  0.77604000  0.54459000  0.94340000  1.0
  C  C214  1  0.27603000  0.54460000  0.55659000  1.0
  C  C215  1  0.27604000  0.45541000  0.44341000  1.0
  C  C216  1  0.84381000  0.37173000  0.03137000  1.0
  C  C217  1  0.84381000  0.62827000  0.96863000  1.0
  C  C218  1  0.34381000  0.62827000  0.53137000  1.0
  C  C219  1  0.34381000  0.37173000  0.46863000  1.0
  C  C220  1  0.99163000  0.36995000  0.02374000  1.0
  C  C221  1  0.99163000  0.63004000  0.97626000  1.0
  C  C222  1  0.49163000  0.63005000  0.52374000  1.0
  C  C223  1  0.49163000  0.36996000  0.47627000  1.0
  C  C224  1  0.05293000  0.29024000  0.99742000  1.0
  C  C225  1  0.05293000  0.70976000  0.00258000  1.0
  C  C226  1  0.55293000  0.70977000  0.49742000  1.0
  C  C227  1  0.55293000  0.29024000  0.50258000  1.0
  C  C228  1  0.97009000  0.20446000  0.97753000  1.0
  C  C229  1  0.97010000  0.79554000  0.02246000  1.0
  C  C230  1  0.47010000  0.79554000  0.47754000  1.0
  C  C231  1  0.47009000  0.20447000  0.52247000  1.0
  C  C232  1  0.02879000  0.11977000  0.95044000  1.0
  C  C233  1  0.02880000  0.88023000  0.04956000  1.0
  C  C234  1  0.52880000  0.88023000  0.45044000  1.0
  C  C235  1  0.52879000  0.11977000  0.54956000  1.0
  C  C236  1  0.94288000  0.03977000  0.93193000  1.0
  C  C237  1  0.94289000  0.96023000  0.06806000  1.0
  C  C238  1  0.44289000  0.96023000  0.43194000  1.0
  C  C239  1  0.44288000  0.03978000  0.56807000  1.0
  C  C240  1  0.79838000  0.04460000  0.94061000  1.0
  C  C241  1  0.79838000  0.95541000  0.05939000  1.0
  C  C242  1  0.29838000  0.95540000  0.44061000  1.0
  C  C243  1  0.29838000  0.04460000  0.55940000  1.0
  C  C244  1  0.82282000  0.20291000  0.98436000  1.0
  C  C245  1  0.82282000  0.79709000  0.01564000  1.0
  C  C246  1  0.32282000  0.79709000  0.48436000  1.0
  C  C247  1  0.32282000  0.20292000  0.51564000  1.0
  C  C248  1  0.75834000  0.28910000  0.01132000  1.0
  C  C249  1  0.75834000  0.71090000  0.98867000  1.0
  C  C250  1  0.25834000  0.71090000  0.51133000  1.0
  C  C251  1  0.25834000  0.28910000  0.48868000  1.0
  C  C252  1  0.28358000  0.20115000  0.68233000  1.0
  C  C253  1  0.28356000  0.79885000  0.31767000  1.0
  C  C254  1  0.78356000  0.79885000  0.18232000  1.0
  C  C255  1  0.78357000  0.20115000  0.81767000  1.0
  C  C256  1  0.38334000  0.16655000  0.71767000  1.0
  C  C257  1  0.38333000  0.83345000  0.28233000  1.0
  C  C258  1  0.88333000  0.83345000  0.21767000  1.0
  C  C259  1  0.88334000  0.16654000  0.78233000  1.0
  C  C260  1  0.51287000  0.21123000  0.71924000  1.0
  C  C261  1  0.51286000  0.78877000  0.28075000  1.0
  C  C262  1  0.01286000  0.78876000  0.21924000  1.0
  C  C263  1  0.01286000  0.21123000  0.78075000  1.0
  C  C264  1  0.56005000  0.29207000  0.68558000  1.0
  C  C265  1  0.56004000  0.70792000  0.31442000  1.0
  C  C266  1  0.06004000  0.70792000  0.18558000  1.0
  C  C267  1  0.06005000  0.29208000  0.81442000  1.0
  C  C268  1  0.47730000  0.32787000  0.65052000  1.0
  C  C269  1  0.47730000  0.67213000  0.34948000  1.0
  C  C270  1  0.97729000  0.67213000  0.15051000  1.0
  C  C271  1  0.97730000  0.32787000  0.84948000  1.0
  C  C272  1  0.33427000  0.28745000  0.64583000  1.0
  C  C273  1  0.33426000  0.71255000  0.35417000  1.0
  C  C274  1  0.83426000  0.71255000  0.14583000  1.0
  C  C275  1  0.83427000  0.28745000  0.85417000  1.0
  N  N276  1  0.61744000  0.29027000  0.01545000  1.0
  N  N277  1  0.61745000  0.70973000  0.98454000  1.0
  N  N278  1  0.11745000  0.70974000  0.51545000  1.0
  N  N279  1  0.11745000  0.29027000  0.48455000  1.0
  N  N280  1  0.74045000  0.12383000  0.96581000  1.0
  N  N281  1  0.74046000  0.87617000  0.03418000  1.0
  N  N282  1  0.24046000  0.87617000  0.46582000  1.0
  N  N283  1  0.24045000  0.12383000  0.53419000  1.0
  O  O284  1  0.82032000  0.85951000  0.52402000  1.0
  O  O285  1  0.82032000  0.14049000  0.47598000  1.0
  O  O286  1  0.32032000  0.14049000  0.02402000  1.0
  O  O287  1  0.32032000  0.85950000  0.97598000  1.0
  O  O288  1  0.35931000  0.34439000  0.95409000  1.0
  O  O289  1  0.35932000  0.65561000  0.04591000  1.0
  O  O290  1  0.85931000  0.65561000  0.45409000  1.0
  O  O291  1  0.85932000  0.34440000  0.54591000  1.0
  O  O292  1  0.97289000  0.97466000  0.55804000  1.0
  O  O293  1  0.97289000  0.02534000  0.44195000  1.0
  O  O294  1  0.47289000  0.02534000  0.05804000  1.0
  O  O295  1  0.47289000  0.97466000  0.94196000  1.0
  O  O296  1  0.43356000  0.21651000  0.90326000  1.0
  O  O297  1  0.43354000  0.78349000  0.09674000  1.0
  O  O298  1  0.93354000  0.78349000  0.40326000  1.0
  O  O299  1  0.93354000  0.21651000  0.59674000  1.0
  O  O300  1  0.27080000  0.61092000  0.76836000  1.0
  O  O301  1  0.27080000  0.38907000  0.23164000  1.0
  O  O302  1  0.77081000  0.38907000  0.26836000  1.0
  O  O303  1  0.77081000  0.61093000  0.73164000  1.0
  O  O304  1  0.52268000  0.90852000  0.72000000  1.0
  O  O305  1  0.52268000  0.09148000  0.28000000  1.0
  O  O306  1  0.02269000  0.09148000  0.22000000  1.0
  O  O307  1  0.02269000  0.90852000  0.78000000  1.0
  O  O308  1  0.16189000  0.16781000  0.68103000  1.0
  O  O309  1  0.16189000  0.83219000  0.31897000  1.0
  O  O310  1  0.66189000  0.83220000  0.18103000  1.0
  O  O311  1  0.66189000  0.16780000  0.81897000  1.0
  O  O312  1  0.25310000  0.31940000  0.61554000  1.0
  O  O313  1  0.25310000  0.68059000  0.38446000  1.0
  O  O314  1  0.75308000  0.68059000  0.11554000  1.0
  O  O315  1  0.75309000  0.31941000  0.88446000  1.0
