# generated using pymatgen
data_CuH8C9S2IN4
_symmetry_space_group_name_H-M   'P 1'
_cell_length_a   9.17978000
_cell_length_b   9.17980000
_cell_length_c   16.10850000
_cell_angle_alpha   96.21080000
_cell_angle_beta   96.21080000
_cell_angle_gamma   101.41600000
_symmetry_Int_Tables_number   1
_chemical_formula_structural   CuH8C9S2IN4
_chemical_formula_sum   'Cu4 H32 C36 S8 I4 N16'
_cell_volume   1311.02354802
_cell_formula_units_Z   4
loop_
 _symmetry_equiv_pos_site_id
 _symmetry_equiv_pos_as_xyz
  1  'x, y, z'
loop_
 _atom_site_type_symbol
 _atom_site_label
 _atom_site_symmetry_multiplicity
 _atom_site_fract_x
 _atom_site_fract_y
 _atom_site_fract_z
 _atom_site_occupancy
  Cu  Cu0  1  0.43210000  0.90705000  0.57185000  1.0
  Cu  Cu1  1  0.09296000  0.56790000  0.92815000  1.0
  Cu  Cu2  1  0.56789000  0.09295000  0.42815000  1.0
  Cu  Cu3  1  0.90705000  0.43210000  0.07184000  1.0
  H  H4  1  0.01556000  0.17009000  0.65115000  1.0
  H  H5  1  0.82990000  0.98444000  0.84885000  1.0
  H  H6  1  0.98444000  0.82990000  0.34885000  1.0
  H  H7  1  0.17010000  0.01557000  0.15115000  1.0
  H  H8  1  0.09279000  0.17945000  0.80724000  1.0
  H  H9  1  0.82055000  0.90722000  0.69276000  1.0
  H  H10  1  0.90722000  0.82055000  0.19276000  1.0
  H  H11  1  0.17945000  0.09279000  0.30724000  1.0
  H  H12  1  0.17545000  0.05902000  0.55210000  1.0
  H  H13  1  0.94098000  0.82455000  0.94790000  1.0
  H  H14  1  0.82454000  0.94098000  0.44790000  1.0
  H  H15  1  0.05903000  0.17546000  0.05210000  1.0
  H  H16  1  0.26265000  0.31771000  0.91803000  1.0
  H  H17  1  0.68229000  0.73735000  0.58197000  1.0
  H  H18  1  0.73735000  0.68229000  0.08197000  1.0
  H  H19  1  0.31771000  0.26265000  0.41803000  1.0
  H  H20  1  0.69737000  0.53490000  0.86335000  1.0
  H  H21  1  0.46509000  0.30263000  0.63665000  1.0
  H  H22  1  0.30263000  0.46509000  0.13665000  1.0
  H  H23  1  0.53490000  0.69736000  0.36334000  1.0
  H  H24  1  0.52282000  0.29715000  0.88267000  1.0
  H  H25  1  0.70285000  0.47718000  0.61733000  1.0
  H  H26  1  0.47719000  0.70285000  0.11734000  1.0
  H  H27  1  0.29714000  0.52282000  0.38266000  1.0
  H  H28  1  0.48501000  0.07417000  0.90288000  1.0
  H  H29  1  0.92582000  0.51499000  0.59712000  1.0
  H  H30  1  0.51499000  0.92583000  0.09712000  1.0
  H  H31  1  0.07417000  0.48500000  0.40288000  1.0
  H  H32  1  0.60092000  0.93818000  0.90742000  1.0
  H  H33  1  0.06181000  0.39909000  0.59258000  1.0
  H  H34  1  0.39909000  0.06181000  0.09258000  1.0
  H  H35  1  0.93819000  0.60091000  0.40742000  1.0
  C  C36  1  0.34948000  0.02049000  0.73439000  1.0
  C  C37  1  0.97951000  0.65053000  0.76561000  1.0
  C  C38  1  0.65052000  0.97951000  0.26561000  1.0
  C  C39  1  0.02049000  0.34947000  0.23439000  1.0
  C  C40  1  0.11368000  0.12966000  0.67493000  1.0
  C  C41  1  0.87034000  0.88633000  0.82507000  1.0
  C  C42  1  0.88633000  0.87035000  0.32507000  1.0
  C  C43  1  0.12966000  0.11368000  0.17492000  1.0
  C  C44  1  0.15570000  0.13278000  0.76087000  1.0
  C  C45  1  0.86722000  0.84431000  0.73914000  1.0
  C  C46  1  0.84431000  0.86722000  0.23914000  1.0
  C  C47  1  0.13278000  0.15570000  0.26086000  1.0
  C  C48  1  0.19948000  0.06797000  0.62064000  1.0
  C  C49  1  0.93203000  0.80052000  0.87936000  1.0
  C  C50  1  0.80051000  0.93203000  0.37936000  1.0
  C  C51  1  0.06798000  0.19949000  0.12064000  1.0
  C  C52  1  0.34540000  0.41454000  0.90750000  1.0
  C  C53  1  0.58545000  0.65460000  0.59250000  1.0
  C  C54  1  0.65460000  0.58545000  0.09250000  1.0
  C  C55  1  0.41454000  0.34540000  0.40750000  1.0
  C  C56  1  0.40374000  0.66864000  0.90176000  1.0
  C  C57  1  0.33136000  0.59627000  0.59824000  1.0
  C  C58  1  0.59627000  0.33136000  0.09824000  1.0
  C  C59  1  0.66864000  0.40373000  0.40176000  1.0
  C  C60  1  0.58359000  0.53550000  0.87732000  1.0
  C  C61  1  0.46448000  0.41641000  0.62268000  1.0
  C  C62  1  0.41642000  0.46449000  0.12268000  1.0
  C  C63  1  0.53550000  0.58358000  0.37732000  1.0
  C  C64  1  0.48725000  0.40349000  0.88851000  1.0
  C  C65  1  0.59650000  0.51275000  0.61149000  1.0
  C  C66  1  0.51276000  0.59650000  0.11149000  1.0
  C  C67  1  0.40349000  0.48724000  0.38851000  1.0
  C  C68  1  0.49522000  0.96094000  0.87915000  1.0
  C  C69  1  0.03905000  0.50478000  0.62085000  1.0
  C  C70  1  0.50478000  0.03906000  0.12085000  1.0
  C  C71  1  0.96094000  0.49522000  0.37915000  1.0
  S  S72  1  0.50261000  0.94384000  0.76689000  1.0
  S  S73  1  0.05616000  0.49739000  0.73310000  1.0
  S  S74  1  0.49739000  0.05616000  0.23310000  1.0
  S  S75  1  0.94384000  0.50261000  0.26690000  1.0
  S  S76  1  0.33901000  0.83582000  0.91102000  1.0
  S  S77  1  0.16417000  0.66100000  0.58898000  1.0
  S  S78  1  0.66100000  0.16418000  0.08898000  1.0
  S  S79  1  0.83582000  0.33900000  0.41102000  1.0
  I  I80  1  0.69875000  0.09612000  0.58432000  1.0
  I  I81  1  0.90388000  0.30125000  0.91568000  1.0
  I  I82  1  0.30125000  0.90388000  0.41568000  1.0
  I  I83  1  0.09611000  0.69875000  0.08431000  1.0
  N  N84  1  0.31795000  0.01274000  0.64927000  1.0
  N  N85  1  0.98726000  0.68206000  0.85073000  1.0
  N  N86  1  0.68205000  0.98726000  0.35073000  1.0
  N  N87  1  0.01274000  0.31795000  0.14927000  1.0
  N  N88  1  0.27344000  0.07878000  0.79098000  1.0
  N  N89  1  0.92122000  0.72657000  0.70902000  1.0
  N  N90  1  0.72657000  0.92122000  0.20902000  1.0
  N  N91  1  0.07878000  0.27343000  0.29098000  1.0
  N  N92  1  0.30072000  0.54608000  0.91335000  1.0
  N  N93  1  0.45391000  0.69929000  0.58665000  1.0
  N  N94  1  0.69929000  0.45391000  0.08665000  1.0
  N  N95  1  0.54608000  0.30071000  0.41334000  1.0
  N  N96  1  0.54268000  0.66819000  0.88452000  1.0
  N  N97  1  0.33180000  0.45733000  0.61549000  1.0
  N  N98  1  0.45733000  0.33180000  0.11548000  1.0
  N  N99  1  0.66819000  0.54267000  0.38451000  1.0
