# generated using pymatgen
data_Al2H24(C11O4)3
_symmetry_space_group_name_H-M   'P 1'
_cell_length_a   3.98443000
_cell_length_b   17.22710000
_cell_length_c   17.22766040
_cell_angle_alpha   119.99877187
_cell_angle_beta   89.99989991
_cell_angle_gamma   89.99740000
_symmetry_Int_Tables_number   1
_chemical_formula_structural   Al2H24(C11O4)3
_chemical_formula_sum   'Al2 H24 C33 O12'
_cell_volume   1024.09603281
_cell_formula_units_Z   1
loop_
 _symmetry_equiv_pos_site_id
 _symmetry_equiv_pos_as_xyz
  1  'x, y, z'
loop_
 _atom_site_type_symbol
 _atom_site_label
 _atom_site_symmetry_multiplicity
 _atom_site_fract_x
 _atom_site_fract_y
 _atom_site_fract_z
 _atom_site_occupancy
  Al  Al0  1  0.01849000  0.00000000  0.50000000  1.0
  Al  Al1  1  0.98277000  0.33333000  0.16666000  1.0
  H  H2  1  0.43291000  0.58311000  0.16657000  1.0
  H  H3  1  0.76721000  0.58592000  0.47059000  1.0
  H  H4  1  0.32059000  0.58292000  0.47484000  1.0
  H  H5  1  0.30204000  0.75117000  0.55618000  1.0
  H  H6  1  0.74867000  0.75472000  0.55425000  1.0
  H  H7  1  0.43299000  0.33343000  0.41652000  1.0
  H  H8  1  0.76727000  0.02940000  0.11534000  1.0
  H  H9  1  0.32064000  0.02514000  0.10808000  1.0
  H  H10  1  0.30202000  0.94379000  0.19498000  1.0
  H  H11  1  0.74870000  0.94573000  0.20048000  1.0
  H  H12  1  0.43302000  0.08346000  0.91690000  1.0
  H  H13  1  0.76715000  0.38468000  0.91408000  1.0
  H  H14  1  0.32050000  0.39193000  0.91708000  1.0
  H  H15  1  0.30190000  0.30502000  0.74883000  1.0
  H  H16  1  0.74854000  0.29954000  0.74528000  1.0
  H  H17  1  0.73281000  0.77182000  0.21396000  1.0
  H  H18  1  0.35460000  0.82651000  0.26598000  1.0
  H  H19  1  0.34347000  0.71990000  0.16587000  1.0
  H  H20  1  0.73284000  0.28605000  0.55785000  1.0
  H  H21  1  0.35460000  0.23404000  0.56052000  1.0
  H  H22  1  0.34347000  0.33414000  0.55402000  1.0
  H  H23  1  0.73290000  0.94215000  0.72820000  1.0
  H  H24  1  0.35470000  0.93947000  0.67351000  1.0
  H  H25  1  0.34351000  0.94598000  0.78012000  1.0
  C  C26  1  0.51536000  0.06801000  0.63774000  1.0
  C  C27  1  0.51538000  0.86227000  0.43027000  1.0
  C  C28  1  0.51536000  0.06974000  0.43200000  1.0
  C  C29  1  0.48288000  0.47087000  0.23426000  1.0
  C  C30  1  0.48297000  0.26573000  0.23660000  1.0
  C  C31  1  0.48292000  0.26339000  0.02912000  1.0
  C  C32  1  0.48655000  0.57043000  0.28396000  1.0
  C  C33  1  0.50145000  0.76272000  0.37832000  1.0
  C  C34  1  0.51484000  0.62022000  0.37677000  1.0
  C  C35  1  0.48101000  0.71366000  0.28359000  1.0
  C  C36  1  0.50894000  0.71355000  0.42231000  1.0
  C  C37  1  0.46204000  0.61977000  0.23930000  1.0
  C  C38  1  0.53488000  0.61520000  0.46215000  1.0
  C  C39  1  0.52496000  0.72132000  0.51402000  1.0
  C  C40  1  0.48654000  0.21604000  0.28647000  1.0
  C  C41  1  0.50151000  0.12168000  0.38440000  1.0
  C  C42  1  0.51487000  0.12321000  0.24344000  1.0
  C  C43  1  0.48103000  0.21640000  0.43006000  1.0
  C  C44  1  0.50902000  0.07768000  0.29124000  1.0
  C  C45  1  0.46209000  0.26070000  0.38047000  1.0
  C  C46  1  0.53489000  0.03783000  0.15305000  1.0
  C  C47  1  0.52498000  0.98596000  0.20731000  1.0
  C  C48  1  0.48656000  0.21353000  0.92957000  1.0
  C  C49  1  0.50145000  0.11560000  0.73728000  1.0
  C  C50  1  0.51484000  0.25656000  0.87979000  1.0
  C  C51  1  0.48108000  0.06994000  0.78634000  1.0
  C  C52  1  0.50893000  0.20878000  0.78646000  1.0
  C  C53  1  0.46209000  0.11953000  0.88022000  1.0
  C  C54  1  0.53478000  0.34697000  0.88481000  1.0
  C  C55  1  0.52488000  0.29271000  0.77868000  1.0
  C  C56  1  0.47581000  0.76058000  0.22964000  1.0
  C  C57  1  0.47583000  0.27036000  0.53092000  1.0
  C  C58  1  0.47590000  0.96907000  0.73944000  1.0
  O  O59  1  0.28687000  0.01094000  0.41349000  1.0
  O  O60  1  0.28687000  0.08651000  0.59745000  1.0
  O  O61  1  0.28690000  0.90256000  0.48907000  1.0
  O  O62  1  0.75623000  0.08587000  0.48678000  1.0
  O  O63  1  0.75627000  0.90093000  0.41416000  1.0
  O  O64  1  0.75625000  0.01321000  0.59908000  1.0
  O  O65  1  0.24801000  0.24628000  0.06866000  1.0
  O  O66  1  0.24799000  0.43132000  0.17761000  1.0
  O  O67  1  0.24804000  0.32237000  0.25371000  1.0
  O  O68  1  0.71693000  0.32062000  0.06824000  1.0
  O  O69  1  0.71701000  0.24760000  0.17937000  1.0
  O  O70  1  0.71692000  0.43176000  0.25238000  1.0
