# generated using pymatgen
data_CuPH12C9BrN3
_symmetry_space_group_name_H-M   'P 1'
_cell_length_a   7.24457000
_cell_length_b   7.90661000
_cell_length_c   12.42340000
_cell_angle_alpha   74.47370000
_cell_angle_beta   89.71060000
_cell_angle_gamma   64.55250000
_symmetry_Int_Tables_number   1
_chemical_formula_structural   CuPH12C9BrN3
_chemical_formula_sum   'Cu2 P2 H24 C18 Br2 N6'
_cell_volume   614.15689148
_cell_formula_units_Z   2
loop_
 _symmetry_equiv_pos_site_id
 _symmetry_equiv_pos_as_xyz
  1  'x, y, z'
loop_
 _atom_site_type_symbol
 _atom_site_label
 _atom_site_symmetry_multiplicity
 _atom_site_fract_x
 _atom_site_fract_y
 _atom_site_fract_z
 _atom_site_occupancy
  Cu  Cu0  1  0.88472000  0.18591000  0.89225000  1.0
  Cu  Cu1  1  0.11528000  0.81409000  0.10774000  1.0
  P  P2  1  0.70193000  0.17355000  0.75792000  1.0
  P  P3  1  0.29807000  0.82646000  0.24208000  1.0
  H  H4  1  0.66654000  0.24037000  0.55220000  1.0
  H  H5  1  0.33345000  0.75964000  0.44780000  1.0
  H  H6  1  0.66542000  0.43858000  0.59561000  1.0
  H  H7  1  0.33457000  0.56143000  0.40439000  1.0
  H  H8  1  0.62330000  0.93194000  0.70297000  1.0
  H  H9  1  0.37671000  0.06806000  0.29703000  1.0
  H  H10  1  0.88974000  0.86565000  0.71955000  1.0
  H  H11  1  0.11027000  0.13435000  0.28044000  1.0
  H  H12  1  0.18179000  0.54338000  0.80007000  1.0
  H  H13  1  0.81821000  0.45661000  0.19993000  1.0
  H  H14  1  0.42786000  0.45811000  0.87561000  1.0
  H  H15  1  0.57214000  0.54188000  0.12439000  1.0
  H  H16  1  0.89089000  0.79909000  0.93126000  1.0
  H  H17  1  0.10911000  0.20091000  0.06874000  1.0
  H  H18  1  0.62682000  0.85139000  0.91564000  1.0
  H  H19  1  0.37317000  0.14862000  0.08436000  1.0
  H  H20  1  0.04085000  0.25092000  0.66386000  1.0
  H  H21  1  0.95915000  0.74909000  0.33614000  1.0
  H  H22  1  0.05671000  0.04746000  0.62407000  1.0
  H  H23  1  0.94328000  0.95255000  0.37593000  1.0
  H  H24  1  0.33939000  0.32734000  0.67584000  1.0
  H  H25  1  0.66061000  0.67266000  0.32416000  1.0
  H  H26  1  0.37967000  0.19571000  0.82040000  1.0
  H  H27  1  0.62033000  0.80427000  0.17960000  1.0
  C  C28  1  0.74020000  0.27850000  0.61303000  1.0
  C  C29  1  0.25979000  0.72151000  0.38697000  1.0
  C  C30  1  0.74674000  0.92664000  0.75689000  1.0
  C  C31  1  0.25326000  0.07336000  0.24311000  1.0
  C  C32  1  0.34744000  0.48747000  0.79283000  1.0
  C  C33  1  0.65257000  0.51253000  0.20718000  1.0
  C  C34  1  0.77137000  0.79694000  0.87775000  1.0
  C  C35  1  0.22863000  0.20306000  0.12225000  1.0
  C  C36  1  0.97185000  0.20798000  0.60350000  1.0
  C  C37  1  0.02815000  0.79203000  0.39649000  1.0
  C  C38  1  0.37676000  0.64283000  0.71247000  1.0
  C  C39  1  0.62324000  0.35716000  0.28753000  1.0
  C  C40  1  0.42059000  0.29831000  0.75809000  1.0
  C  C41  1  0.57941000  0.70168000  0.24191000  1.0
  C  C42  1  0.00888000  0.29200000  0.49140000  1.0
  C  C43  1  0.99112000  0.70800000  0.50861000  1.0
  C  C44  1  0.82828000  0.59537000  0.88424000  1.0
  C  C45  1  0.17172000  0.40462000  0.11576000  1.0
  Br  Br46  1  0.24301000  0.90880000  0.92026000  1.0
  Br  Br47  1  0.75700000  0.09120000  0.07974000  1.0
  N  N48  1  0.39877000  0.76554000  0.64529000  1.0
  N  N49  1  0.60124000  0.23445000  0.35472000  1.0
  N  N50  1  0.03463000  0.36240000  0.40093000  1.0
  N  N51  1  0.96537000  0.63760000  0.59907000  1.0
  N  N52  1  0.87653000  0.43169000  0.89064000  1.0
  N  N53  1  0.12348000  0.56832000  0.10936000  1.0
