# generated using pymatgen
data_CuH26C30NO6
_symmetry_space_group_name_H-M   'P 1'
_cell_length_a   10.40110000
_cell_length_b   13.47998354
_cell_length_c   13.80794687
_cell_angle_alpha   64.21771038
_cell_angle_beta   68.92375355
_cell_angle_gamma   75.77211610
_symmetry_Int_Tables_number   1
_chemical_formula_structural   CuH26C30NO6
_chemical_formula_sum   'Cu2 H52 C60 N2 O12'
_cell_volume   1617.40160191
_cell_formula_units_Z   2
loop_
 _symmetry_equiv_pos_site_id
 _symmetry_equiv_pos_as_xyz
  1  'x, y, z'
loop_
 _atom_site_type_symbol
 _atom_site_label
 _atom_site_symmetry_multiplicity
 _atom_site_fract_x
 _atom_site_fract_y
 _atom_site_fract_z
 _atom_site_occupancy
  Cu  Cu0  1  0.59420000  0.49419000  0.91170000  1.0
  Cu  Cu1  1  0.40580000  0.50581000  0.08829000  1.0
  H  H2  1  0.54986000  0.75446000  0.11625000  1.0
  H  H3  1  0.45013000  0.24553000  0.88375000  1.0
  H  H4  1  0.62914000  0.92412000  0.09917000  1.0
  H  H5  1  0.37086000  0.07586000  0.90084000  1.0
  H  H6  1  0.73440000  0.06080000  0.90900000  1.0
  H  H7  1  0.26560000  0.93919000  0.09103000  1.0
  H  H8  1  0.76480000  0.02714000  0.73970000  1.0
  H  H9  1  0.23522000  0.97287000  0.26030000  1.0
  H  H10  1  0.82262000  0.96143000  0.60465000  1.0
  H  H11  1  0.17738000  0.03857000  0.39536000  1.0
  H  H12  1  0.64402000  0.01188000  0.64155000  1.0
  H  H13  1  0.35597000  0.98812000  0.35847000  1.0
  H  H14  1  0.85007000  0.86896000  0.30466000  1.0
  H  H15  1  0.14992000  0.13105000  0.69535000  1.0
  H  H16  1  0.00714000  0.92282000  0.34729000  1.0
  H  H17  1  0.99286000  0.07718000  0.65272000  1.0
  H  H18  1  0.98649000  0.89918000  0.48891000  1.0
  H  H19  1  0.01353000  0.10083000  0.51109000  1.0
  H  H20  1  0.93144000  0.03071000  0.39697000  1.0
  H  H21  1  0.06857000  0.96929000  0.60304000  1.0
  H  H22  1  0.71863000  0.79095000  0.25937000  1.0
  H  H23  1  0.28136000  0.20907000  0.74064000  1.0
  H  H24  1  0.53964000  0.83823000  0.29207000  1.0
  H  H25  1  0.46035000  0.16179000  0.70794000  1.0
  H  H26  1  0.59806000  0.70216000  0.37255000  1.0
  H  H27  1  0.40192000  0.29786000  0.62745000  1.0
  H  H28  1  0.34526000  0.89123000  0.66778000  1.0
  H  H29  1  0.65474000  0.10878000  0.33223000  1.0
  H  H30  1  0.45687000  0.94054000  0.70375000  1.0
  H  H31  1  0.54314000  0.05947000  0.29625000  1.0
  H  H32  1  0.45086000  0.79613000  0.75215000  1.0
  H  H33  1  0.54912000  0.20387000  0.24786000  1.0
  H  H34  1  0.31670000  0.86026000  0.54222000  1.0
  H  H35  1  0.68330000  0.13975000  0.45779000  1.0
  H  H36  1  0.39493000  0.76600000  0.47321000  1.0
  H  H37  1  0.60506000  0.23403000  0.52678000  1.0
  H  H38  1  0.15972000  0.75562000  0.56653000  1.0
  H  H39  1  0.84028000  0.24438000  0.43346000  1.0
  H  H40  1  0.91750000  0.72422000  0.68479000  1.0
  H  H41  1  0.08251000  0.27578000  0.31519000  1.0
  H  H42  1  0.86312000  0.63511000  0.89172000  1.0
  H  H43  1  0.13688000  0.36489000  0.10826000  1.0
  H  H44  1  0.05510000  0.58000000  0.98101000  1.0
  H  H45  1  0.94488000  0.41998000  0.01898000  1.0
  H  H46  1  0.68899000  0.65866000  0.67294000  1.0
  H  H47  1  0.31103000  0.34134000  0.32705000  1.0
  H  H48  1  0.85775000  0.67012000  0.49023000  1.0
  H  H49  1  0.14225000  0.32987000  0.50978000  1.0
  H  H50  1  0.00595000  0.32705000  0.65492000  1.0
  H  H51  1  0.99403000  0.67294000  0.34507000  1.0
  H  H52  1  0.82964000  0.33235000  0.83129000  1.0
  H  H53  1  0.17034000  0.66763000  0.16871000  1.0
  C  C54  1  0.56615000  0.68924000  0.95835000  1.0
  C  C55  1  0.43386000  0.31076000  0.04164000  1.0
  C  C56  1  0.61516000  0.79347000  0.93965000  1.0
  C  C57  1  0.38484000  0.20653000  0.06035000  1.0
  C  C58  1  0.59936000  0.81457000  0.03437000  1.0
  C  C59  1  0.40064000  0.18542000  0.96563000  1.0
  C  C60  1  0.64373000  0.90876000  0.02460000  1.0
  C  C61  1  0.35627000  0.09123000  0.97541000  1.0
  C  C62  1  0.70245000  0.98521000  0.91810000  1.0
  C  C63  1  0.29755000  0.01478000  0.08192000  1.0
  C  C64  1  0.71856000  0.96683000  0.82229000  1.0
  C  C65  1  0.28145000  0.03316000  0.17773000  1.0
  C  C66  1  0.67741000  0.87051000  0.83188000  1.0
  C  C67  1  0.32259000  0.12949000  0.16813000  1.0
  C  C68  1  0.71670000  0.93913000  0.63272000  1.0
  C  C69  1  0.28330000  0.06087000  0.36729000  1.0
  C  C70  1  0.69228000  0.90387000  0.55198000  1.0
  C  C71  1  0.30771000  0.09614000  0.44803000  1.0
  C  C72  1  0.79735000  0.90340000  0.45325000  1.0
  C  C73  1  0.20265000  0.09661000  0.54676000  1.0
  C  C74  1  0.76955000  0.86793000  0.38217000  1.0
  C  C75  1  0.23045000  0.13207000  0.61785000  1.0
  C  C76  1  0.64332000  0.83002000  0.40724000  1.0
  C  C77  1  0.35668000  0.16999000  0.59277000  1.0
  C  C78  1  0.53867000  0.83170000  0.50562000  1.0
  C  C79  1  0.46133000  0.16831000  0.49438000  1.0
  C  C80  1  0.56152000  0.87077000  0.57712000  1.0
  C  C81  1  0.43849000  0.12924000  0.42288000  1.0
  C  C82  1  0.93758000  0.94074000  0.42052000  1.0
  C  C83  1  0.06242000  0.05926000  0.57949000  1.0
  C  C84  1  0.62379000  0.78823000  0.32897000  1.0
  C  C85  1  0.37621000  0.21179000  0.67103000  1.0
  C  C86  1  0.44773000  0.87515000  0.68042000  1.0
  C  C87  1  0.55227000  0.12486000  0.31958000  1.0
  C  C88  1  0.40050000  0.79263000  0.53629000  1.0
  C  C89  1  0.59950000  0.20739000  0.46370000  1.0
  C  C90  1  0.24483000  0.68459000  0.70717000  1.0
  C  C91  1  0.75517000  0.31542000  0.29281000  1.0
  C  C92  1  0.13658000  0.71793000  0.65771000  1.0
  C  C93  1  0.86342000  0.28207000  0.34228000  1.0
  C  C94  1  0.00044000  0.69975000  0.72402000  1.0
  C  C95  1  0.99957000  0.30025000  0.27596000  1.0
  C  C96  1  0.96942000  0.64996000  0.84082000  1.0
  C  C97  1  0.03058000  0.35004000  0.15916000  1.0
  C  C98  1  0.07629000  0.61827000  0.89002000  1.0
  C  C99  1  0.92371000  0.38172000  0.10997000  1.0
  C  C100  1  0.21480000  0.63288000  0.82567000  1.0
  C  C101  1  0.78521000  0.36711000  0.17432000  1.0
  C  C102  1  0.32243000  0.59020000  0.88713000  1.0
  C  C103  1  0.67757000  0.40979000  0.11286000  1.0
  C  C104  1  0.76149000  0.58703000  0.66492000  1.0
  C  C105  1  0.23852000  0.41296000  0.33508000  1.0
  C  C106  1  0.85709000  0.59234000  0.56239000  1.0
  C  C107  1  0.14291000  0.40766000  0.43760000  1.0
  C  C108  1  0.94883000  0.49880000  0.55409000  1.0
  C  C109  1  0.05116000  0.50119000  0.44591000  1.0
  C  C110  1  0.93840000  0.40322000  0.65348000  1.0
  C  C111  1  0.06158000  0.59677000  0.34651000  1.0
  C  C112  1  0.84013000  0.40512000  0.75275000  1.0
  C  C113  1  0.15985000  0.59487000  0.24724000  1.0
  N  N114  1  0.75247000  0.49511000  0.75890000  1.0
  N  N115  1  0.24752000  0.50488000  0.24110000  1.0
  O  O116  1  0.63281000  0.64212000  0.88946000  1.0
  O  O117  1  0.36734000  0.35779000  0.11064000  1.0
  O  O118  1  0.46356000  0.65441000  0.04476000  1.0
  O  O119  1  0.53632000  0.34568000  0.95512000  1.0
  O  O120  1  0.69288000  0.84849000  0.74058000  1.0
  O  O121  1  0.30714000  0.15150000  0.25943000  1.0
  O  O122  1  0.37896000  0.70217000  0.64434000  1.0
  O  O123  1  0.62104000  0.29784000  0.35565000  1.0
  O  O124  1  0.44605000  0.56501000  0.83441000  1.0
  O  O125  1  0.55397000  0.43510000  0.16556000  1.0
  O  O126  1  0.27952000  0.57906000  0.99007000  1.0
  O  O127  1  0.72044000  0.42082000  0.00995000  1.0
