# generated using pymatgen
data_CoH17C27N3O10
_symmetry_space_group_name_H-M   'P 1'
_cell_length_a   9.95104000
_cell_length_b   12.35090000
_cell_length_c   12.61600000
_cell_angle_alpha   112.42500000
_cell_angle_beta   102.83100000
_cell_angle_gamma   104.24500000
_symmetry_Int_Tables_number   1
_chemical_formula_structural   CoH17C27N3O10
_chemical_formula_sum   'Co2 H34 C54 N6 O20'
_cell_volume   1299.99339320
_cell_formula_units_Z   2
loop_
 _symmetry_equiv_pos_site_id
 _symmetry_equiv_pos_as_xyz
  1  'x, y, z'
loop_
 _atom_site_type_symbol
 _atom_site_label
 _atom_site_symmetry_multiplicity
 _atom_site_fract_x
 _atom_site_fract_y
 _atom_site_fract_z
 _atom_site_occupancy
  Co  Co0  1  0.94324000  0.07369000  0.34963000  1.0
  Co  Co1  1  0.05678000  0.92634000  0.65036000  1.0
  H  H2  1  0.62867000  0.10940000  0.24937000  1.0
  H  H3  1  0.37132000  0.89059000  0.75063000  1.0
  H  H4  1  0.98022000  0.86828000  0.33388000  1.0
  H  H5  1  0.01977000  0.13172000  0.66612000  1.0
  H  H6  1  0.86960000  0.87785000  0.40242000  1.0
  H  H7  1  0.13040000  0.12216000  0.59759000  1.0
  H  H8  1  0.45316000  0.05164000  0.34845000  1.0
  H  H9  1  0.54684000  0.94835000  0.65154000  1.0
  H  H10  1  0.37227000  0.26201000  0.67274000  1.0
  H  H11  1  0.62774000  0.73798000  0.32725000  1.0
  H  H12  1  0.81368000  0.26813000  0.69687000  1.0
  H  H13  1  0.18632000  0.73187000  0.30313000  1.0
  H  H14  1  0.75443000  0.47391000  0.22086000  1.0
  H  H15  1  0.24558000  0.52609000  0.77914000  1.0
  H  H16  1  0.50868000  0.08347000  0.96250000  1.0
  H  H17  1  0.49132000  0.91653000  0.03750000  1.0
  H  H18  1  0.50907000  0.13206000  0.79039000  1.0
  H  H19  1  0.49093000  0.86794000  0.20961000  1.0
  H  H20  1  0.09913000  0.37328000  0.52118000  1.0
  H  H21  1  0.90087000  0.62671000  0.47882000  1.0
  H  H22  1  0.17476000  0.55922000  0.48345000  1.0
  H  H23  1  0.82523000  0.44077000  0.51655000  1.0
  H  H24  1  0.11386000  0.52602000  0.26555000  1.0
  H  H25  1  0.88614000  0.47399000  0.73445000  1.0
  H  H26  1  0.00107000  0.36990000  0.03774000  1.0
  H  H27  1  0.99894000  0.63012000  0.96227000  1.0
  H  H28  1  0.86917000  0.14853000  0.87453000  1.0
  H  H29  1  0.13084000  0.85148000  0.12547000  1.0
  H  H30  1  0.75343000  0.91810000  0.81616000  1.0
  H  H31  1  0.24657000  0.08191000  0.18383000  1.0
  H  H32  1  0.70155000  0.75148000  0.88761000  1.0
  H  H33  1  0.29846000  0.24854000  0.11240000  1.0
  H  H34  1  0.78580000  0.81733000  0.11172000  1.0
  H  H35  1  0.21420000  0.18268000  0.88828000  1.0
  C  C36  1  0.64533000  0.15723000  0.51565000  1.0
  C  C37  1  0.35465000  0.84276000  0.48434000  1.0
  C  C38  1  0.49515000  0.11382000  0.44661000  1.0
  C  C39  1  0.50482000  0.88617000  0.55338000  1.0
  C  C40  1  0.39585000  0.14894000  0.50266000  1.0
  C  C41  1  0.60415000  0.85105000  0.49734000  1.0
  C  C42  1  0.44768000  0.23102000  0.62843000  1.0
  C  C43  1  0.55233000  0.76897000  0.37157000  1.0
  C  C44  1  0.59744000  0.27281000  0.69604000  1.0
  C  C45  1  0.40254000  0.72717000  0.30395000  1.0
  C  C46  1  0.69697000  0.23564000  0.64240000  1.0
  C  C47  1  0.30303000  0.76435000  0.35761000  1.0
  C  C48  1  0.75207000  0.12280000  0.45572000  1.0
  C  C49  1  0.24792000  0.87720000  0.54427000  1.0
  C  C50  1  0.23517000  0.10002000  0.42663000  1.0
  C  C51  1  0.76481000  0.89998000  0.57337000  1.0
  C  C52  1  0.63368000  0.33075000  0.90699000  1.0
  C  C53  1  0.36632000  0.66925000  0.09302000  1.0
  C  C54  1  0.69875000  0.42640000  0.02977000  1.0
  C  C55  1  0.30125000  0.57360000  0.97023000  1.0
  C  C56  1  0.69931000  0.39925000  0.12683000  1.0
  C  C57  1  0.30069000  0.60075000  0.87317000  1.0
  C  C58  1  0.63064000  0.27543000  0.10343000  1.0
  C  C59  1  0.36936000  0.72457000  0.89657000  1.0
  C  C60  1  0.56130000  0.18047000  0.98162000  1.0
  C  C61  1  0.43869000  0.81953000  0.01837000  1.0
  C  C62  1  0.56227000  0.20733000  0.88426000  1.0
  C  C63  1  0.43773000  0.79266000  0.11574000  1.0
  C  C64  1  0.64396000  0.24828000  0.20964000  1.0
  C  C65  1  0.35603000  0.75171000  0.79036000  1.0
  C  C66  1  0.07521000  0.36135000  0.42791000  1.0
  C  C67  1  0.92479000  0.63865000  0.57209000  1.0
  C  C68  1  0.11695000  0.46577000  0.40549000  1.0
  C  C69  1  0.88305000  0.53422000  0.59451000  1.0
  C  C70  1  0.08425000  0.44703000  0.28587000  1.0
  C  C71  1  0.91576000  0.55299000  0.71415000  1.0
  C  C72  1  0.01082000  0.32357000  0.18839000  1.0
  C  C73  1  0.98919000  0.67643000  0.81162000  1.0
  C  C74  1  0.97435000  0.22469000  0.22031000  1.0
  C  C75  1  0.02566000  0.77532000  0.77970000  1.0
  C  C76  1  0.97143000  0.29330000  0.06139000  1.0
  C  C77  1  0.02858000  0.70671000  0.93861000  1.0
  C  C78  1  0.89824000  0.17166000  0.97113000  1.0
  C  C79  1  0.10176000  0.82834000  0.02887000  1.0
  C  C80  1  0.86006000  0.07002000  0.00116000  1.0
  C  C81  1  0.13994000  0.92998000  0.99884000  1.0
  C  C82  1  0.78533000  0.94206000  0.91309000  1.0
  C  C83  1  0.21466000  0.05792000  0.08690000  1.0
  C  C84  1  0.75746000  0.85116000  0.95228000  1.0
  C  C85  1  0.24254000  0.14885000  0.04772000  1.0
  C  C86  1  0.80416000  0.88692000  0.07834000  1.0
  C  C87  1  0.19584000  0.11308000  0.92166000  1.0
  C  C88  1  0.90090000  0.09745000  0.12607000  1.0
  C  C89  1  0.09911000  0.90256000  0.87394000  1.0
  N  N90  1  0.00529000  0.24353000  0.33808000  1.0
  N  N91  1  0.99472000  0.75648000  0.66192000  1.0
  N  N92  1  0.87408000  0.00690000  0.16309000  1.0
  N  N93  1  0.12593000  0.99310000  0.83690000  1.0
  N  N94  1  0.77070000  0.55686000  0.05733000  1.0
  N  N95  1  0.22930000  0.44313000  0.94267000  1.0
  O  O96  1  0.88485000  0.15048000  0.51930000  1.0
  O  O97  1  0.11517000  0.84952000  0.48071000  1.0
  O  O98  1  0.70943000  0.06496000  0.33783000  1.0
  O  O99  1  0.29056000  0.93504000  0.66217000  1.0
  O  O100  1  0.18655000  0.01973000  0.31601000  1.0
  O  O101  1  0.81345000  0.98028000  0.68399000  1.0
  O  O102  1  0.15102000  0.14595000  0.48064000  1.0
  O  O103  1  0.84898000  0.85405000  0.51935000  1.0
  O  O104  1  0.59130000  0.12482000  0.17623000  1.0
  O  O105  1  0.40869000  0.87518000  0.82377000  1.0
  O  O106  1  0.70199000  0.33106000  0.31684000  1.0
  O  O107  1  0.29801000  0.66894000  0.68317000  1.0
  O  O108  1  0.70525000  0.59777000  0.99486000  1.0
  O  O109  1  0.29475000  0.40223000  0.00514000  1.0
  O  O110  1  0.89270000  0.61966000  0.14258000  1.0
  O  O111  1  0.10730000  0.38034000  0.85742000  1.0
  O  O112  1  0.65389000  0.36415000  0.81906000  1.0
  O  O113  1  0.34612000  0.63586000  0.18095000  1.0
  O  O114  1  0.89128000  0.88921000  0.33274000  1.0
  O  O115  1  0.10871000  0.11079000  0.66725000  1.0
