# generated using pymatgen
data_ZnH5C10N3O4
_symmetry_space_group_name_H-M   'P 1'
_cell_length_a   10.91900000
_cell_length_b   12.21950000
_cell_length_c   14.79610000
_cell_angle_alpha   89.99990000
_cell_angle_beta   70.50500000
_cell_angle_gamma   89.99990000
_symmetry_Int_Tables_number   1
_chemical_formula_structural   ZnH5C10N3O4
_chemical_formula_sum   'Zn4 H20 C40 N12 O16'
_cell_volume   1860.98781781
_cell_formula_units_Z   4
loop_
 _symmetry_equiv_pos_site_id
 _symmetry_equiv_pos_as_xyz
  1  'x, y, z'
loop_
 _atom_site_type_symbol
 _atom_site_label
 _atom_site_symmetry_multiplicity
 _atom_site_fract_x
 _atom_site_fract_y
 _atom_site_fract_z
 _atom_site_occupancy
  Zn  Zn0  1  0.10540000  0.58028000  0.47020000  1.0
  Zn  Zn1  1  0.89460000  0.08028000  0.02980000  1.0
  Zn  Zn2  1  0.89460000  0.41972000  0.52980000  1.0
  Zn  Zn3  1  0.10540000  0.91972000  0.97020000  1.0
  H  H4  1  0.01921000  0.26306000  0.75424000  1.0
  H  H5  1  0.98079000  0.76307000  0.74576000  1.0
  H  H6  1  0.98079000  0.73694000  0.24576000  1.0
  H  H7  1  0.01921000  0.23694000  0.25425000  1.0
  H  H8  1  0.58553000  0.43889000  0.60448000  1.0
  H  H9  1  0.41447000  0.93889000  0.89552000  1.0
  H  H10  1  0.41447000  0.56111000  0.39552000  1.0
  H  H11  1  0.58553000  0.06111000  0.10448000  1.0
  H  H12  1  0.37870000  0.38802000  0.55986000  1.0
  H  H13  1  0.62129000  0.88803000  0.94013000  1.0
  H  H14  1  0.62129000  0.61196000  0.44013000  1.0
  H  H15  1  0.37871000  0.11198000  0.05986000  1.0
  H  H16  1  0.38125000  0.14535000  0.77256000  1.0
  H  H17  1  0.61876000  0.64534000  0.72744000  1.0
  H  H18  1  0.61876000  0.85466000  0.22744000  1.0
  H  H19  1  0.38125000  0.35465000  0.27257000  1.0
  H  H20  1  0.57906000  0.09400000  0.62857000  1.0
  H  H21  1  0.42093000  0.59400000  0.87143000  1.0
  H  H22  1  0.42094000  0.90600000  0.37143000  1.0
  H  H23  1  0.57906000  0.40600000  0.12857000  1.0
  C  C24  1  0.12494000  0.26446000  0.72887000  1.0
  C  C25  1  0.87505000  0.76446000  0.77113000  1.0
  C  C26  1  0.87506000  0.73554000  0.27113000  1.0
  C  C27  1  0.12495000  0.23554000  0.22887000  1.0
  C  C28  1  0.12363000  0.12438000  0.85507000  1.0
  C  C29  1  0.87637000  0.62437000  0.64493000  1.0
  C  C30  1  0.87637000  0.87563000  0.14493000  1.0
  C  C31  1  0.12363000  0.37562000  0.35507000  1.0
  C  C32  1  0.12139000  0.39996000  0.60045000  1.0
  C  C33  1  0.87861000  0.89997000  0.89954000  1.0
  C  C34  1  0.87861000  0.60003000  0.39954000  1.0
  C  C35  1  0.12139000  0.10004000  0.10045000  1.0
  C  C36  1  0.61565000  0.35415000  0.60224000  1.0
  C  C37  1  0.38435000  0.85416000  0.89776000  1.0
  C  C38  1  0.38435000  0.64584000  0.39776000  1.0
  C  C39  1  0.61565000  0.14584000  0.10224000  1.0
  C  C40  1  0.32803000  0.33485000  0.61978000  1.0
  C  C41  1  0.67196000  0.83485000  0.88021000  1.0
  C  C42  1  0.67197000  0.66515000  0.38021000  1.0
  C  C43  1  0.32803000  0.16515000  0.11978000  1.0
  C  C44  1  0.39525000  0.26720000  0.66291000  1.0
  C  C45  1  0.60474000  0.76720000  0.83708000  1.0
  C  C46  1  0.60475000  0.73280000  0.33708000  1.0
  C  C47  1  0.39526000  0.23280000  0.16292000  1.0
  C  C48  1  0.32923000  0.19816000  0.73841000  1.0
  C  C49  1  0.67077000  0.69815000  0.76159000  1.0
  C  C50  1  0.67078000  0.80184000  0.26159000  1.0
  C  C51  1  0.32923000  0.30184000  0.23841000  1.0
  C  C52  1  0.19341000  0.19775000  0.77219000  1.0
  C  C53  1  0.80659000  0.69775000  0.72781000  1.0
  C  C54  1  0.80660000  0.80225000  0.22781000  1.0
  C  C55  1  0.19341000  0.30225000  0.27219000  1.0
  C  C56  1  0.19222000  0.33222000  0.65220000  1.0
  C  C57  1  0.80778000  0.83224000  0.84779000  1.0
  C  C58  1  0.80778000  0.66777000  0.34779000  1.0
  C  C59  1  0.19222000  0.16777000  0.15220000  1.0
  C  C60  1  0.61482000  0.17722000  0.61528000  1.0
  C  C61  1  0.38518000  0.67722000  0.88473000  1.0
  C  C62  1  0.38519000  0.82278000  0.38473000  1.0
  C  C63  1  0.61482000  0.32278000  0.11527000  1.0
  N  N64  1  0.73698000  0.31906000  0.57514000  1.0
  N  N65  1  0.26302000  0.81905000  0.92486000  1.0
  N  N66  1  0.26302000  0.68095000  0.42487000  1.0
  N  N67  1  0.73698000  0.18095000  0.07513000  1.0
  N  N68  1  0.53408000  0.26678000  0.62865000  1.0
  N  N69  1  0.46592000  0.76677000  0.87135000  1.0
  N  N70  1  0.46592000  0.73323000  0.37135000  1.0
  N  N71  1  0.53408000  0.23322000  0.12865000  1.0
  N  N72  1  0.73755000  0.20699000  0.58297000  1.0
  N  N73  1  0.26245000  0.70699000  0.91704000  1.0
  N  N74  1  0.26246000  0.79301000  0.41704000  1.0
  N  N75  1  0.73754000  0.29301000  0.08296000  1.0
  O  O76  1  0.18270000  0.48139000  0.55316000  1.0
  O  O77  1  0.81729000  0.98140000  0.94684000  1.0
  O  O78  1  0.81729000  0.51860000  0.44684000  1.0
  O  O79  1  0.18270000  0.01861000  0.05316000  1.0
  O  O80  1  0.18534000  0.03996000  0.86597000  1.0
  O  O81  1  0.81466000  0.53995000  0.63403000  1.0
  O  O82  1  0.81466000  0.96005000  0.13402000  1.0
  O  O83  1  0.18534000  0.46004000  0.36597000  1.0
  O  O84  1  0.00782000  0.36812000  0.60728000  1.0
  O  O85  1  0.99217000  0.86813000  0.89272000  1.0
  O  O86  1  0.99217000  0.63187000  0.39272000  1.0
  O  O87  1  0.00782000  0.13188000  0.10728000  1.0
  O  O88  1  0.01031000  0.15388000  0.90670000  1.0
  O  O89  1  0.98968000  0.65387000  0.59331000  1.0
  O  O90  1  0.98969000  0.84613000  0.09331000  1.0
  O  O91  1  0.01032000  0.34612000  0.40670000  1.0
