# generated using pymatgen
data_AgH10C9SN2O3
_symmetry_space_group_name_H-M   'P 1'
_cell_length_a   7.36803000
_cell_length_b   7.88104000
_cell_length_c   9.84585000
_cell_angle_alpha   110.38600000
_cell_angle_beta   93.11540000
_cell_angle_gamma   93.26830000
_symmetry_Int_Tables_number   1
_chemical_formula_structural   AgH10C9SN2O3
_chemical_formula_sum   'Ag2 H20 C18 S2 N4 O6'
_cell_volume   533.36101470
_cell_formula_units_Z   2
loop_
 _symmetry_equiv_pos_site_id
 _symmetry_equiv_pos_as_xyz
  1  'x, y, z'
loop_
 _atom_site_type_symbol
 _atom_site_label
 _atom_site_symmetry_multiplicity
 _atom_site_fract_x
 _atom_site_fract_y
 _atom_site_fract_z
 _atom_site_occupancy
  Ag  Ag0  1  0.45211000  0.35470000  0.28650000  1.0
  Ag  Ag1  1  0.54789000  0.64530000  0.71349000  1.0
  H  H2  1  0.14964000  0.93058000  0.14894000  1.0
  H  H3  1  0.85036000  0.06942000  0.85106000  1.0
  H  H4  1  0.41119000  0.96387000  0.32978000  1.0
  H  H5  1  0.58881000  0.03613000  0.67022000  1.0
  H  H6  1  0.39983000  0.16161000  0.58883000  1.0
  H  H7  1  0.60017000  0.83839000  0.41117000  1.0
  H  H8  1  0.12734000  0.33324000  0.67102000  1.0
  H  H9  1  0.87266000  0.66676000  0.32898000  1.0
  H  H10  1  0.18682000  0.60320000  0.14702000  1.0
  H  H11  1  0.81318000  0.39680000  0.85298000  1.0
  H  H12  1  0.17414000  0.46904000  0.95918000  1.0
  H  H13  1  0.82586000  0.53095000  0.04081000  1.0
  H  H14  1  0.52125000  0.61048000  0.16376000  1.0
  H  H15  1  0.47875000  0.38952000  0.83624000  1.0
  H  H16  1  0.43923000  0.69253000  0.02776000  1.0
  H  H17  1  0.56077000  0.30747000  0.97223000  1.0
  H  H18  1  0.27456000  0.22493000  0.01851000  1.0
  H  H19  1  0.72544000  0.77507000  0.98148000  1.0
  H  H20  1  0.12093000  0.31013000  0.13271000  1.0
  H  H21  1  0.87907000  0.68987000  0.86728000  1.0
  C  C22  1  0.99560000  0.11320000  0.31260000  1.0
  C  C23  1  0.00440000  0.88680000  0.68740000  1.0
  C  C24  1  0.14398000  0.01511000  0.26282000  1.0
  C  C25  1  0.85602000  0.98489000  0.73719000  1.0
  C  C26  1  0.29045000  0.03513000  0.36571000  1.0
  C  C27  1  0.70955000  0.96487000  0.63429000  1.0
  C  C28  1  0.28381000  0.14702000  0.51128000  1.0
  C  C29  1  0.71619000  0.85298000  0.48872000  1.0
  C  C30  1  0.13184000  0.24364000  0.55854000  1.0
  C  C31  1  0.86816000  0.75636000  0.44147000  1.0
  C  C32  1  0.98715000  0.22668000  0.45659000  1.0
  C  C33  1  0.01285000  0.77332000  0.54341000  1.0
  C  C34  1  0.81561000  0.32311000  0.47828000  1.0
  C  C35  1  0.18439000  0.67689000  0.52173000  1.0
  C  C36  1  0.25349000  0.49859000  0.06436000  1.0
  C  C37  1  0.74651000  0.50141000  0.93564000  1.0
  C  C38  1  0.44713000  0.56917000  0.05506000  1.0
  C  C39  1  0.55286000  0.43083000  0.94494000  1.0
  S  S40  1  0.79569000  0.13274000  0.21353000  1.0
  S  S41  1  0.20431000  0.86726000  0.78647000  1.0
  N  N42  1  0.70898000  0.28206000  0.35115000  1.0
  N  N43  1  0.29102000  0.71794000  0.64885000  1.0
  N  N44  1  0.24960000  0.33569000  0.10636000  1.0
  N  N45  1  0.75040000  0.66431000  0.89364000  1.0
  O  O46  1  0.67868000  0.96394000  0.16121000  1.0
  O  O47  1  0.32132000  0.03606000  0.83879000  1.0
  O  O48  1  0.77880000  0.42821000  0.59898000  1.0
  O  O49  1  0.22119000  0.57178000  0.40102000  1.0
  O  O50  1  0.84283000  0.20902000  0.10357000  1.0
  O  O51  1  0.15717000  0.79099000  0.89644000  1.0
