# generated using pymatgen
data_CoH16PdC12N2(ClO4)2
_symmetry_space_group_name_H-M   'P 1'
_cell_length_a   5.47196000
_cell_length_b   6.73878000
_cell_length_c   12.37690000
_cell_angle_alpha   102.62800000
_cell_angle_beta   98.30920000
_cell_angle_gamma   94.45250000
_symmetry_Int_Tables_number   1
_chemical_formula_structural   CoH16PdC12N2(ClO4)2
_chemical_formula_sum   'Co1 H16 Pd1 C12 N2 Cl2 O8'
_cell_volume   437.84625125
_cell_formula_units_Z   1
loop_
 _symmetry_equiv_pos_site_id
 _symmetry_equiv_pos_as_xyz
  1  'x, y, z'
loop_
 _atom_site_type_symbol
 _atom_site_label
 _atom_site_symmetry_multiplicity
 _atom_site_fract_x
 _atom_site_fract_y
 _atom_site_fract_z
 _atom_site_occupancy
  Co  Co0  1  0.00000000  0.50000000  0.50000000  1.0
  H  H1  1  0.83014000  0.65749000  0.25568000  1.0
  H  H2  1  0.16985000  0.34251000  0.74433000  1.0
  H  H3  1  0.44623000  0.18441000  0.22988000  1.0
  H  H4  1  0.55378000  0.81560000  0.77012000  1.0
  H  H5  1  0.11753000  0.95091000  0.08927000  1.0
  H  H6  1  0.88248000  0.04910000  0.91072000  1.0
  H  H7  1  0.48938000  0.44420000  0.11749000  1.0
  H  H8  1  0.51060000  0.55579000  0.88252000  1.0
  H  H9  1  0.23743000  0.18796000  0.47310000  1.0
  H  H10  1  0.76257000  0.81204000  0.52690000  1.0
  H  H11  1  0.46569000  0.35366000  0.55129000  1.0
  H  H12  1  0.53433000  0.64634000  0.44871000  1.0
  H  H13  1  0.15830000  0.53365000  0.30876000  1.0
  H  H14  1  0.84170000  0.46635000  0.69123000  1.0
  H  H15  1  0.14492000  0.76234000  0.37698000  1.0
  H  H16  1  0.85508000  0.23766000  0.62302000  1.0
  Pd  Pd17  1  0.00000000  0.50000000  0.00000000  1.0
  C  C18  1  0.66762000  0.94060000  0.25487000  1.0
  C  C19  1  0.33238000  0.05940000  0.74513000  1.0
  C  C20  1  0.27913000  0.89241000  0.12804000  1.0
  C  C21  1  0.72087000  0.10759000  0.87196000  1.0
  C  C22  1  0.67865000  0.73066000  0.22078000  1.0
  C  C23  1  0.32133000  0.26933000  0.77922000  1.0
  C  C24  1  0.48760000  0.60883000  0.14336000  1.0
  C  C25  1  0.51240000  0.39117000  0.85665000  1.0
  C  C26  1  0.46372000  0.02175000  0.20598000  1.0
  C  C27  1  0.53627000  0.97825000  0.79401000  1.0
  C  C28  1  0.86582000  0.07534000  0.34305000  1.0
  C  C29  1  0.13418000  0.92466000  0.65695000  1.0
  N  N30  1  0.28922000  0.68853000  0.09874000  1.0
  N  N31  1  0.71078000  0.31147000  0.90126000  1.0
  Cl  Cl32  1  0.98844000  0.31990000  0.13872000  1.0
  Cl  Cl33  1  0.01156000  0.68011000  0.86128000  1.0
  O  O34  1  0.81723000  0.25736000  0.37927000  1.0
  O  O35  1  0.18277000  0.74264000  0.62072000  1.0
  O  O36  1  0.06420000  0.00160000  0.37513000  1.0
  O  O37  1  0.93580000  0.99840000  0.62487000  1.0
  O  O38  1  0.20026000  0.62616000  0.38427000  1.0
  O  O39  1  0.79974000  0.37384000  0.61572000  1.0
  O  O40  1  0.28360000  0.32327000  0.52883000  1.0
  O  O41  1  0.71640000  0.67674000  0.47117000  1.0
