# generated using pymatgen
data_TbAgH12C14N2O11
_symmetry_space_group_name_H-M   'P 1'
_cell_length_a   7.29954000
_cell_length_b   13.91590000
_cell_length_c   19.33390000
_cell_angle_alpha   76.89200000
_cell_angle_beta   89.99940000
_cell_angle_gamma   89.99900000
_symmetry_Int_Tables_number   1
_chemical_formula_structural   TbAgH12C14N2O11
_chemical_formula_sum   'Tb4 Ag4 H48 C56 N8 O44'
_cell_volume   1912.75957722
_cell_formula_units_Z   4
loop_
 _symmetry_equiv_pos_site_id
 _symmetry_equiv_pos_as_xyz
  1  'x, y, z'
loop_
 _atom_site_type_symbol
 _atom_site_label
 _atom_site_symmetry_multiplicity
 _atom_site_fract_x
 _atom_site_fract_y
 _atom_site_fract_z
 _atom_site_occupancy
  Tb  Tb0  1  0.43719000  0.29914000  0.85629000  1.0
  Tb  Tb1  1  0.93719000  0.20086000  0.64371000  1.0
  Tb  Tb2  1  0.56282000  0.70087000  0.14371000  1.0
  Tb  Tb3  1  0.06280000  0.79913000  0.35629000  1.0
  Ag  Ag4  1  0.94548000  0.37361000  0.02022000  1.0
  Ag  Ag5  1  0.44547000  0.12639000  0.47979000  1.0
  Ag  Ag6  1  0.05453000  0.62638000  0.97979000  1.0
  Ag  Ag7  1  0.55450000  0.87360000  0.52022000  1.0
  H  H8  1  0.31920000  0.10051000  0.13458000  1.0
  H  H9  1  0.81916000  0.39950000  0.36542000  1.0
  H  H10  1  0.68084000  0.89950000  0.86542000  1.0
  H  H11  1  0.18080000  0.60049000  0.63458000  1.0
  H  H12  1  0.60280000  0.99455000  0.14946000  1.0
  H  H13  1  0.10275000  0.50546000  0.35053000  1.0
  H  H14  1  0.39724000  0.00546000  0.85054000  1.0
  H  H15  1  0.89719000  0.49454000  0.64946000  1.0
  H  H16  1  0.82419000  0.01431000  0.04626000  1.0
  H  H17  1  0.32416000  0.48569000  0.45373000  1.0
  H  H18  1  0.17584000  0.98570000  0.95374000  1.0
  H  H19  1  0.67580000  0.51431000  0.54626000  1.0
  H  H20  1  0.07468000  0.66054000  0.80786000  1.0
  H  H21  1  0.57466000  0.83946000  0.69214000  1.0
  H  H22  1  0.92535000  0.33946000  0.19215000  1.0
  H  H23  1  0.42527000  0.16055000  0.30784000  1.0
  H  H24  1  0.31475000  0.75378000  0.86140000  1.0
  H  H25  1  0.81476000  0.74622000  0.63861000  1.0
  H  H26  1  0.68526000  0.24622000  0.13861000  1.0
  H  H27  1  0.18520000  0.25377000  0.36140000  1.0
  H  H28  1  0.59482000  0.66038000  0.91741000  1.0
  H  H29  1  0.09483000  0.83961000  0.58261000  1.0
  H  H30  1  0.40519000  0.33962000  0.08260000  1.0
  H  H31  1  0.90515000  0.16037000  0.41741000  1.0
  H  H32  1  0.57044000  0.46229000  0.73190000  1.0
  H  H33  1  0.07044000  0.03772000  0.76811000  1.0
  H  H34  1  0.42957000  0.53773000  0.26811000  1.0
  H  H35  1  0.92955000  0.96229000  0.23190000  1.0
  H  H36  1  0.76082000  0.44266000  0.77295000  1.0
  H  H37  1  0.26082000  0.05735000  0.72705000  1.0
  H  H38  1  0.23919000  0.55735000  0.22705000  1.0
  H  H39  1  0.73916000  0.94266000  0.27294000  1.0
  H  H40  1  0.35451000  0.27036000  0.70669000  1.0
  H  H41  1  0.85451000  0.22965000  0.79331000  1.0
  H  H42  1  0.64549000  0.72965000  0.29331000  1.0
  H  H43  1  0.14550000  0.77036000  0.20669000  1.0
  H  H44  1  0.52450000  0.19783000  0.73509000  1.0
  H  H45  1  0.02450000  0.30218000  0.76492000  1.0
  H  H46  1  0.47550000  0.80217000  0.26491000  1.0
  H  H47  1  0.97551000  0.69783000  0.23508000  1.0
  H  H48  1  0.11457000  0.14525000  0.88239000  1.0
  H  H49  1  0.61457000  0.35475000  0.61760000  1.0
  H  H50  1  0.88544000  0.85475000  0.11760000  1.0
  H  H51  1  0.38543000  0.64525000  0.38239000  1.0
  H  H52  1  0.21766000  0.15587000  0.80958000  1.0
  H  H53  1  0.71764000  0.34413000  0.69042000  1.0
  H  H54  1  0.78237000  0.84414000  0.19042000  1.0
  H  H55  1  0.28235000  0.65586000  0.30958000  1.0
  C  C56  1  0.22916000  0.24185000  0.01207000  1.0
  C  C57  1  0.72914000  0.25816000  0.48794000  1.0
  C  C58  1  0.77087000  0.75816000  0.98794000  1.0
  C  C59  1  0.27083000  0.74183000  0.51207000  1.0
  C  C60  1  0.38539000  0.16986000  0.02630000  1.0
  C  C61  1  0.88537000  0.33014000  0.47370000  1.0
  C  C62  1  0.61465000  0.83014000  0.97370000  1.0
  C  C63  1  0.11461000  0.66984000  0.52630000  1.0
  C  C64  1  0.41705000  0.10451000  0.09152000  1.0
  C  C65  1  0.91701000  0.39550000  0.40849000  1.0
  C  C66  1  0.58299000  0.89550000  0.90848000  1.0
  C  C67  1  0.08295000  0.60450000  0.59151000  1.0
  C  C68  1  0.57533000  0.04673000  0.09945000  1.0
  C  C69  1  0.07529000  0.45327000  0.40054000  1.0
  C  C70  1  0.42470000  0.95327000  0.90055000  1.0
  C  C71  1  0.92466000  0.54672000  0.59946000  1.0
  C  C72  1  0.69735000  0.05643000  0.04263000  1.0
  C  C73  1  0.19732000  0.44357000  0.45736000  1.0
  C  C74  1  0.30268000  0.94358000  0.95736000  1.0
  C  C75  1  0.80264000  0.55643000  0.54263000  1.0
  C  C76  1  0.65319000  0.12257000  0.97902000  1.0
  C  C77  1  0.15319000  0.37743000  0.52097000  1.0
  C  C78  1  0.34682000  0.87744000  0.02098000  1.0
  C  C79  1  0.84680000  0.62256000  0.47902000  1.0
  C  C80  1  0.77424000  0.13998000  0.91426000  1.0
  C  C81  1  0.27424000  0.36001000  0.58574000  1.0
  C  C82  1  0.22577000  0.86002000  0.08574000  1.0
  C  C83  1  0.72575000  0.63997000  0.41425000  1.0
  C  C84  1  0.10324000  0.46448000  0.79820000  1.0
  C  C85  1  0.60322000  0.03553000  0.70181000  1.0
  C  C86  1  0.89679000  0.53552000  0.20180000  1.0
  C  C87  1  0.39674000  0.96447000  0.29819000  1.0
  C  C88  1  0.23235000  0.52626000  0.83114000  1.0
  C  C89  1  0.73233000  0.97375000  0.66886000  1.0
  C  C90  1  0.76768000  0.47375000  0.16886000  1.0
  C  C91  1  0.26763000  0.02625000  0.33114000  1.0
  C  C92  1  0.19991000  0.62520000  0.83162000  1.0
  C  C93  1  0.69991000  0.87480000  0.66838000  1.0
  C  C94  1  0.80011000  0.37480000  0.16838000  1.0
  C  C95  1  0.30006000  0.12520000  0.33161000  1.0
  C  C96  1  0.33258000  0.67579000  0.86186000  1.0
  C  C97  1  0.83259000  0.82420000  0.63815000  1.0
  C  C98  1  0.66743000  0.32421000  0.13815000  1.0
  C  C99  1  0.16739000  0.17579000  0.36185000  1.0
  C  C100  1  0.48811000  0.62513000  0.89276000  1.0
  C  C101  1  0.98811000  0.87487000  0.60724000  1.0
  C  C102  1  0.51191000  0.37487000  0.10724000  1.0
  C  C103  1  0.01187000  0.12512000  0.39277000  1.0
  C  C104  1  0.50481000  0.52525000  0.89278000  1.0
  C  C105  1  0.00482000  0.97474000  0.60722000  1.0
  C  C106  1  0.49521000  0.47475000  0.10722000  1.0
  C  C107  1  0.99517000  0.02524000  0.39278000  1.0
  C  C108  1  0.65516000  0.45989000  0.93023000  1.0
  C  C109  1  0.15515000  0.04011000  0.56977000  1.0
  C  C110  1  0.34487000  0.54012000  0.06977000  1.0
  C  C111  1  0.84483000  0.95987000  0.43023000  1.0
  N  N112  1  0.50059000  0.17727000  0.97141000  1.0
  N  N113  1  0.00058000  0.32272000  0.52859000  1.0
  N  N114  1  0.49943000  0.82273000  0.02859000  1.0
  N  N115  1  0.99941000  0.67726000  0.47141000  1.0
  N  N116  1  0.38185000  0.47828000  0.86086000  1.0
  N  N117  1  0.88185000  0.02172000  0.63914000  1.0
  N  N118  1  0.61817000  0.52172000  0.13914000  1.0
  N  N119  1  0.11814000  0.97827000  0.36087000  1.0
  O  O120  1  0.22291000  0.29938000  0.95070000  1.0
  O  O121  1  0.72291000  0.20062000  0.54930000  1.0
  O  O122  1  0.77710000  0.70062000  0.04930000  1.0
  O  O123  1  0.27708000  0.79936000  0.45070000  1.0
  O  O124  1  0.11888000  0.24448000  0.06260000  1.0
  O  O125  1  0.61886000  0.25553000  0.43740000  1.0
  O  O126  1  0.88114000  0.75553000  0.93740000  1.0
  O  O127  1  0.38111000  0.74446000  0.56260000  1.0
  O  O128  1  0.70944000  0.20027000  0.85897000  1.0
  O  O129  1  0.20943000  0.29973000  0.64102000  1.0
  O  O130  1  0.29058000  0.79974000  0.14103000  1.0
  O  O131  1  0.79057000  0.70027000  0.35897000  1.0
  O  O132  1  0.92542000  0.09639000  0.91846000  1.0
  O  O133  1  0.42542000  0.40359000  0.58152000  1.0
  O  O134  1  0.07459000  0.90361000  0.08153000  1.0
  O  O135  1  0.57457000  0.59639000  0.41846000  1.0
  O  O136  1  0.16822000  0.38120000  0.79173000  1.0
  O  O137  1  0.66823000  0.11881000  0.70827000  1.0
  O  O138  1  0.83180000  0.61880000  0.20827000  1.0
  O  O139  1  0.33176000  0.88119000  0.29173000  1.0
  O  O140  1  0.94679000  0.49899000  0.77998000  1.0
  O  O141  1  0.44678000  0.00102000  0.72002000  1.0
  O  O142  1  0.05324000  0.50101000  0.22001000  1.0
  O  O143  1  0.55319000  0.99899000  0.27997000  1.0
  O  O144  1  0.65494000  0.37076000  0.92451000  1.0
  O  O145  1  0.15493000  0.12923000  0.57548000  1.0
  O  O146  1  0.34509000  0.62924000  0.07548000  1.0
  O  O147  1  0.84507000  0.87075000  0.42452000  1.0
  O  O148  1  0.76808000  0.49624000  0.96753000  1.0
  O  O149  1  0.26807000  0.00376000  0.53247000  1.0
  O  O150  1  0.23194000  0.50377000  0.03248000  1.0
  O  O151  1  0.73191000  0.99622000  0.46753000  1.0
  O  O152  1  0.63909000  0.41166000  0.76462000  1.0
  O  O153  1  0.13909000  0.08836000  0.73538000  1.0
  O  O154  1  0.36092000  0.58835000  0.23538000  1.0
  O  O155  1  0.86090000  0.91165000  0.26462000  1.0
  O  O156  1  0.43894000  0.24691000  0.74807000  1.0
  O  O157  1  0.93894000  0.25310000  0.75192000  1.0
  O  O158  1  0.56106000  0.75309000  0.25192000  1.0
  O  O159  1  0.06107000  0.74691000  0.24807000  1.0
  O  O160  1  0.23505000  0.16438000  0.85833000  1.0
  O  O161  1  0.73504000  0.33562000  0.64167000  1.0
  O  O162  1  0.76497000  0.83563000  0.14167000  1.0
  O  O163  1  0.26495000  0.66437000  0.35833000  1.0
