# generated using pymatgen
data_Zn4H32C44O29
_symmetry_space_group_name_H-M   'P 1'
_cell_length_a   17.78030000
_cell_length_b   18.65570000
_cell_length_c   23.25010000
_cell_angle_alpha   66.40170000
_cell_angle_beta   69.73410000
_cell_angle_gamma   89.98340000
_symmetry_Int_Tables_number   1
_chemical_formula_structural   Zn4H32C44O29
_chemical_formula_sum   'Zn8 H64 C88 O58'
_cell_volume   6543.27345571
_cell_formula_units_Z   2
loop_
 _symmetry_equiv_pos_site_id
 _symmetry_equiv_pos_as_xyz
  1  'x, y, z'
loop_
 _atom_site_type_symbol
 _atom_site_label
 _atom_site_symmetry_multiplicity
 _atom_site_fract_x
 _atom_site_fract_y
 _atom_site_fract_z
 _atom_site_occupancy
  Zn  Zn0  1  0.11937000  0.53531000  0.94353000  1.0
  Zn  Zn1  1  0.97408000  0.56210000  0.05029000  1.0
  Zn  Zn2  1  0.97872000  0.38870000  0.04845000  1.0
  Zn  Zn3  1  0.93494000  0.52606000  0.93864000  1.0
  Zn  Zn4  1  0.38502000  0.98294000  0.04894000  1.0
  Zn  Zn5  1  0.52972000  0.11698000  0.93876000  1.0
  Zn  Zn6  1  0.52333000  0.94389000  0.93996000  1.0
  Zn  Zn7  1  0.57004000  0.96995000  0.05011000  1.0
  H  H8  1  0.19312000  0.30465000  0.91237000  1.0
  H  H9  1  0.12893000  0.23134000  0.99277000  1.0
  H  H10  1  0.22285000  0.14610000  0.97856000  1.0
  H  H11  1  0.29204000  0.22381000  0.90366000  1.0
  H  H12  1  0.21582000  0.13330000  0.09200000  1.0
  H  H13  1  0.29107000  0.18747000  0.09894000  1.0
  H  H14  1  0.13553000  0.23103000  0.10083000  1.0
  H  H15  1  0.21711000  0.29132000  0.09437000  1.0
  H  H16  1  0.30597000  0.39422000  0.90510000  1.0
  H  H17  1  0.31047000  0.39657000  0.97873000  1.0
  H  H18  1  0.39322000  0.29843000  0.99012000  1.0
  H  H19  1  0.40004000  0.30649000  0.91049000  1.0
  H  H20  1  0.89157000  0.79033000  0.91938000  1.0
  H  H21  1  0.87032000  0.77379000  0.00436000  1.0
  H  H22  1  0.79204000  0.87567000  0.98661000  1.0
  H  H23  1  0.79842000  0.87762000  0.90820000  1.0
  H  H24  1  0.69508000  0.76729000  0.09500000  1.0
  H  H25  1  0.61496000  0.71105000  0.09520000  1.0
  H  H26  1  0.76326000  0.65794000  0.10211000  1.0
  H  H27  1  0.69256000  0.61334000  0.08375000  1.0
  H  H28  1  0.79204000  0.71852000  0.89563000  1.0
  H  H29  1  0.71993000  0.63694000  0.96194000  1.0
  H  H30  1  0.62191000  0.71755000  0.98060000  1.0
  H  H31  1  0.68725000  0.79449000  0.90456000  1.0
  H  H32  1  0.15933000  0.80255000  0.93902000  1.0
  H  H33  1  0.24002000  0.76538000  0.89495000  1.0
  H  H34  1  0.33630000  0.85313000  0.89243000  1.0
  H  H35  1  0.25546000  0.89697000  0.92767000  1.0
  H  H36  1  0.39346000  0.74846000  0.96817000  1.0
  H  H37  1  0.34158000  0.70784000  0.05721000  1.0
  H  H38  1  0.30717000  0.66179000  0.95960000  1.0
  H  H39  1  0.26479000  0.61390000  0.04899000  1.0
  H  H40  1  0.09783000  0.73620000  0.06882000  1.0
  H  H41  1  0.14746000  0.66584000  0.11276000  1.0
  H  H42  1  0.22468000  0.77026000  0.10905000  1.0
  H  H43  1  0.18431000  0.84060000  0.05584000  1.0
  H  H44  1  0.89520000  0.25677000  0.93948000  1.0
  H  H45  1  0.85818000  0.33704000  0.89007000  1.0
  H  H46  1  0.76330000  0.24986000  0.89059000  1.0
  H  H47  1  0.80789000  0.17082000  0.93224000  1.0
  H  H48  1  0.63879000  0.28916000  0.95869000  1.0
  H  H49  1  0.60609000  0.24738000  0.04804000  1.0
  H  H50  1  0.73453000  0.38488000  0.94745000  1.0
  H  H51  1  0.69313000  0.34997000  0.03638000  1.0
  H  H52  1  0.83454000  0.20244000  0.06898000  1.0
  H  H53  1  0.74642000  0.23506000  0.10780000  1.0
  H  H54  1  0.66967000  0.13252000  0.10870000  1.0
  H  H55  1  0.75743000  0.10848000  0.06053000  1.0
  H  H56  1  0.55845000  0.81923000  0.26764000  1.0
  H  H57  1  0.19920000  0.91915000  0.24988000  1.0
  H  H58  1  0.15538000  0.86772000  0.40431000  1.0
  H  H59  1  0.43724000  0.71317000  0.42560000  1.0
  H  H60  1  0.35514000  0.77717000  0.58444000  1.0
  H  H61  1  0.07442000  0.64436000  0.56416000  1.0
  H  H62  1  0.95306000  0.59508000  0.71754000  1.0
  H  H63  1  0.31041000  0.67327000  0.74166000  1.0
  H  H64  1  0.68199000  0.95860000  0.73223000  1.0
  H  H65  1  0.58157000  0.30834000  0.72900000  1.0
  H  H66  1  0.63948000  0.35185000  0.56730000  1.0
  H  H67  1  0.78866000  0.07303000  0.57700000  1.0
  H  H68  1  0.71795000  0.15308000  0.41169000  1.0
  H  H69  1  0.86798000  0.43076000  0.41516000  1.0
  H  H70  1  0.91859000  0.54394000  0.25771000  1.0
  H  H71  1  0.82215000  0.19757000  0.25390000  1.0
  C  C72  1  0.14061000  0.64255000  0.00255000  1.0
  C  C73  1  0.91290000  0.41128000  0.17408000  1.0
  C  C74  1  0.14953000  0.37109000  0.99861000  1.0
  C  C75  1  0.85937000  0.36070000  0.99503000  1.0
  C  C76  1  0.08709000  0.59250000  0.81637000  1.0
  C  C77  1  0.85399000  0.63488000  0.99468000  1.0
  C  C78  1  0.36418000  0.14920000  0.99419000  1.0
  C  C79  1  0.58813000  0.09156000  0.81471000  1.0
  C  C80  1  0.35349000  0.87079000  0.99745000  1.0
  C  C81  1  0.63905000  0.85723000  0.99592000  1.0
  C  C82  1  0.42036000  0.91361000  0.17462000  1.0
  C  C83  1  0.64610000  0.13489000  0.99739000  1.0
  C  C84  1  0.38302000  0.87388000  0.25070000  1.0
  C  C85  1  0.43005000  0.87058000  0.28913000  1.0
  C  C86  1  0.39503000  0.83108000  0.36008000  1.0
  C  C87  1  0.31079000  0.80095000  0.39312000  1.0
  C  C88  1  0.26332000  0.80753000  0.35383000  1.0
  C  C89  1  0.30021000  0.84064000  0.28300000  1.0
  C  C90  1  0.27358000  0.76500000  0.46477000  1.0
  C  C91  1  0.24005000  0.73420000  0.52648000  1.0
  C  C92  1  0.20176000  0.69866000  0.59806000  1.0
  C  C93  1  0.24778000  0.66525000  0.63854000  1.0
  C  C94  1  0.20932000  0.62734000  0.70925000  1.0
  C  C95  1  0.12629000  0.62877000  0.74037000  1.0
  C  C96  1  0.08074000  0.66465000  0.70078000  1.0
  C  C97  1  0.11736000  0.69631000  0.62990000  1.0
  C  C98  1  0.62750000  0.12949000  0.73893000  1.0
  C  C99  1  0.62991000  0.08415000  0.70264000  1.0
  C  C100  1  0.66978000  0.11875000  0.63201000  1.0
  C  C101  1  0.70092000  0.20086000  0.59683000  1.0
  C  C102  1  0.69513000  0.24672000  0.63373000  1.0
  C  C103  1  0.66180000  0.21018000  0.70473000  1.0
  C  C104  1  0.73728000  0.23667000  0.52529000  1.0
  C  C105  1  0.76808000  0.26715000  0.46349000  1.0
  C  C106  1  0.80353000  0.30259000  0.39190000  1.0
  C  C107  1  0.83494000  0.25586000  0.35652000  1.0
  C  C108  1  0.87341000  0.29187000  0.28576000  1.0
  C  C109  1  0.87418000  0.37314000  0.24985000  1.0
  C  C110  1  0.83961000  0.41938000  0.28432000  1.0
  C  C111  1  0.80766000  0.38503000  0.35527000  1.0
  C  C112  1  0.19104000  0.26429000  0.96290000  1.0
  C  C113  1  0.25365000  0.20730000  0.95709000  1.0
  C  C114  1  0.30850000  0.21079000  0.99543000  1.0
  C  C115  1  0.25320000  0.19174000  0.06935000  1.0
  C  C116  1  0.19974000  0.25688000  0.07073000  1.0
  C  C117  1  0.20995000  0.31370000  0.99773000  1.0
  C  C118  1  0.29811000  0.35658000  0.95778000  1.0
  C  C119  1  0.35668000  0.29500000  0.96133000  1.0
  C  C120  1  0.84217000  0.77577000  0.96862000  1.0
  C  C121  1  0.78470000  0.83832000  0.96188000  1.0
  C  C122  1  0.69557000  0.79624000  0.99484000  1.0
  C  C123  1  0.67997000  0.73593000  0.06828000  1.0
  C  C124  1  0.73149000  0.66928000  0.06720000  1.0
  C  C125  1  0.79377000  0.69260000  0.99447000  1.0
  C  C126  1  0.74827000  0.69681000  0.94816000  1.0
  C  C127  1  0.68366000  0.75165000  0.95471000  1.0
  C  C128  1  0.21618000  0.77926000  0.93902000  1.0
  C  C129  1  0.27851000  0.84049000  0.93524000  1.0
  C  C130  1  0.29439000  0.80837000  0.00183000  1.0
  C  C131  1  0.33305000  0.73254000  0.00868000  1.0
  C  C132  1  0.27767000  0.67166000  0.00522000  1.0
  C  C133  1  0.19704000  0.70182000  0.00460000  1.0
  C  C134  1  0.15785000  0.72014000  0.06638000  1.0
  C  C135  1  0.21335000  0.78744000  0.06213000  1.0
  C  C136  1  0.83974000  0.28138000  0.93651000  1.0
  C  C137  1  0.77985000  0.22251000  0.93509000  1.0
  C  C138  1  0.70174000  0.19415000  0.00013000  1.0
  C  C139  1  0.66008000  0.26672000  0.00076000  1.0
  C  C140  1  0.72007000  0.33160000  0.99516000  1.0
  C  C141  1  0.79899000  0.29970000  0.99876000  1.0
  C  C142  1  0.77821000  0.22237000  0.06387000  1.0
  C  C143  1  0.72491000  0.15807000  0.06244000  1.0
  C  C144  1  0.51544000  0.91710000  0.25477000  1.0
  C  C145  1  0.25296000  0.83161000  0.24242000  1.0
  C  C146  1  0.17407000  0.77325000  0.38924000  1.0
  C  C147  1  0.44534000  0.82585000  0.40184000  1.0
  C  C148  1  0.33729000  0.66578000  0.60461000  1.0
  C  C149  1  0.06847000  0.73395000  0.58711000  1.0
  C  C150  1  0.99517000  0.67750000  0.73386000  1.0
  C  C151  1  0.25528000  0.57771000  0.75108000  1.0
  C  C152  1  0.58195000  0.00107000  0.73806000  1.0
  C  C153  1  0.67131000  0.25593000  0.74365000  1.0
  C  C154  1  0.73048000  0.33373000  0.59636000  1.0
  C  C155  1  0.67415000  0.07056000  0.59236000  1.0
  C  C156  1  0.83240000  0.16838000  0.39597000  1.0
  C  C157  1  0.77195000  0.43397000  0.39334000  1.0
  C  C158  1  0.82794000  0.50328000  0.24585000  1.0
  C  C159  1  0.92166000  0.24479000  0.24970000  1.0
  O  O160  1  0.00168000  0.50367000  0.99406000  1.0
  O  O161  1  0.17242000  0.60997000  0.96274000  1.0
  O  O162  1  0.94128000  0.48460000  0.14700000  1.0
  O  O163  1  0.07637000  0.34109000  0.04004000  1.0
  O  O164  1  0.06534000  0.63113000  0.03909000  1.0
  O  O165  1  0.17534000  0.44386000  0.95740000  1.0
  O  O166  1  0.91369000  0.36661000  0.14466000  1.0
  O  O167  1  0.90522000  0.33422000  0.02801000  1.0
  O  O168  1  0.01213000  0.56369000  0.84232000  1.0
  O  O169  1  0.86186000  0.43363000  0.95773000  1.0
  O  O170  1  0.13381000  0.59473000  0.84663000  1.0
  O  O171  1  0.88811000  0.62239000  0.03725000  1.0
  O  O172  1  0.86730000  0.60483000  0.95222000  1.0
  O  O173  1  0.50202000  0.00271000  0.99583000  1.0
  O  O174  1  0.33161000  0.07647000  0.03097000  1.0
  O  O175  1  0.55851000  0.13717000  0.84226000  1.0
  O  O176  1  0.42367000  0.88941000  0.94999000  1.0
  O  O177  1  0.43901000  0.17413000  0.95625000  1.0
  O  O178  1  0.32919000  0.90029000  0.04036000  1.0
  O  O179  1  0.58829000  0.01765000  0.84388000  1.0
  O  O180  1  0.59413000  0.86631000  0.96188000  1.0
  O  O181  1  0.49502000  0.91074000  0.14734000  1.0
  O  O182  1  0.64063000  0.89507000  0.03093000  1.0
  O  O183  1  0.37251000  0.94601000  0.14560000  1.0
  O  O184  1  0.61777000  0.16268000  0.95064000  1.0
  O  O185  1  0.63283000  0.06269000  0.04043000  1.0
  O  O186  1  0.57762000  0.87485000  0.25394000  1.0
  O  O187  1  0.52710000  0.98871000  0.23228000  1.0
  O  O188  1  0.19370000  0.87659000  0.23655000  1.0
  O  O189  1  0.26426000  0.78220000  0.22014000  1.0
  O  O190  1  0.12415000  0.81983000  0.41120000  1.0
  O  O191  1  0.14756000  0.70858000  0.39737000  1.0
  O  O192  1  0.46410000  0.75317000  0.43236000  1.0
  O  O193  1  0.46892000  0.88263000  0.40759000  1.0
  O  O194  1  0.38673000  0.73545000  0.57997000  1.0
  O  O195  1  0.36441000  0.60786000  0.59997000  1.0
  O  O196  1  0.04831000  0.69159000  0.55727000  1.0
  O  O197  1  0.04687000  0.79750000  0.58023000  1.0
  O  O198  1  0.93367000  0.63623000  0.73229000  1.0
  O  O199  1  0.98285000  0.72575000  0.75735000  1.0
  O  O200  1  0.31449000  0.61696000  0.75692000  1.0
  O  O201  1  0.24296000  0.50599000  0.77470000  1.0
  O  O202  1  0.62511000  0.94029000  0.74338000  1.0
  O  O203  1  0.50864000  0.99004000  0.75677000  1.0
  O  O204  1  0.62461000  0.31325000  0.74492000  1.0
  O  O205  1  0.72215000  0.24508000  0.76868000  1.0
  O  O206  1  0.68637000  0.38223000  0.56461000  1.0
  O  O207  1  0.79373000  0.35981000  0.59515000  1.0
  O  O208  1  0.74736000  0.04895000  0.56835000  1.0
  O  O209  1  0.61612000  0.05107000  0.58283000  1.0
  O  O210  1  0.75999000  0.12145000  0.42026000  1.0
  O  O211  1  0.89119000  0.14082000  0.40514000  1.0
  O  O212  1  0.81891000  0.45525000  0.42103000  1.0
  O  O213  1  0.70598000  0.45416000  0.39876000  1.0
  O  O214  1  0.87381000  0.56312000  0.24369000  1.0
  O  O215  1  0.77577000  0.51576000  0.22220000  1.0
  O  O216  1  0.87885000  0.18985000  0.24359000  1.0
  O  O217  1  0.99497000  0.25244000  0.23123000  1.0
