# generated using pymatgen
data_AlH7C13BrNO6
_symmetry_space_group_name_H-M   'P 1'
_cell_length_a   6.60826000
_cell_length_b   11.04130000
_cell_length_c   17.03280000
_cell_angle_alpha   83.22670000
_cell_angle_beta   81.46630000
_cell_angle_gamma   73.88660000
_symmetry_Int_Tables_number   1
_chemical_formula_structural   AlH7C13BrNO6
_chemical_formula_sum   'Al2 H14 C26 Br2 N2 O12'
_cell_volume   1176.87585383
_cell_formula_units_Z   2
loop_
 _symmetry_equiv_pos_site_id
 _symmetry_equiv_pos_as_xyz
  1  'x, y, z'
loop_
 _atom_site_type_symbol
 _atom_site_label
 _atom_site_symmetry_multiplicity
 _atom_site_fract_x
 _atom_site_fract_y
 _atom_site_fract_z
 _atom_site_occupancy
  Al  Al0  1  0.50384000  0.49893000  0.49791000  1.0
  Al  Al1  1  0.00306000  0.50172000  0.49760000  1.0
  H  H2  1  0.20406000  0.65306000  0.44835000  1.0
  H  H3  1  0.81668000  0.34494000  0.53859000  1.0
  H  H4  1  0.82063000  0.55395000  0.73877000  1.0
  H  H5  1  0.76737000  0.55511000  0.88718000  1.0
  H  H6  1  0.44597000  0.45496000  0.88826000  1.0
  H  H7  1  0.56074000  0.54458000  0.10763000  1.0
  H  H8  1  0.23911000  0.44855000  0.10906000  1.0
  H  H9  1  0.18475000  0.44982000  0.25749000  1.0
  H  H10  1  0.82698000  0.75904000  0.61407000  1.0
  H  H11  1  0.93832000  0.87127000  0.70917000  1.0
  H  H12  1  0.56997000  0.22829000  0.61281000  1.0
  H  H13  1  0.80774000  0.10723000  0.70882000  1.0
  H  H14  1  0.53386000  0.45373000  0.67759000  1.0
  H  H15  1  0.47289000  0.54347000  0.31850000  1.0
  C  C16  1  0.63607000  0.72535000  0.50219000  1.0
  C  C17  1  0.81960000  0.49992000  0.35339000  1.0
  C  C18  1  0.36647000  0.27442000  0.49325000  1.0
  C  C19  1  0.18601000  0.50159000  0.64259000  1.0
  C  C20  1  0.16152000  0.50588000  0.72935000  1.0
  C  C21  1  0.95599000  0.53444000  0.77217000  1.0
  C  C22  1  0.92540000  0.53410000  0.85407000  1.0
  C  C23  1  0.10487000  0.50391000  0.89574000  1.0
  C  C24  1  0.30967000  0.47795000  0.85499000  1.0
  C  C25  1  0.34102000  0.47791000  0.77181000  1.0
  C  C26  1  0.69676000  0.52263000  0.14094000  1.0
  C  C27  1  0.90168000  0.49794000  0.10028000  1.0
  C  C28  1  0.08090000  0.46892000  0.14201000  1.0
  C  C29  1  0.04989000  0.46856000  0.22393000  1.0
  C  C30  1  0.84431000  0.49560000  0.26659000  1.0
  C  C31  1  0.66507000  0.52208000  0.22417000  1.0
  C  C32  1  0.56680000  0.86699000  0.49971000  1.0
  C  C33  1  0.63687000  0.92939000  0.55515000  1.0
  C  C34  1  0.43565000  0.93576000  0.44441000  1.0
  C  C35  1  0.77165000  0.86173000  0.61250000  1.0
  C  C36  1  0.83385000  0.92476000  0.66593000  1.0
  C  C37  1  0.43227000  0.13277000  0.49567000  1.0
  C  C38  1  0.36910000  0.06995000  0.44180000  1.0
  C  C39  1  0.56565000  0.06459000  0.55383000  1.0
  C  C40  1  0.62841000  0.12608000  0.61126000  1.0
  C  C41  1  0.76084000  0.05785000  0.66561000  1.0
  Br  Br42  1  0.20517000  0.16357000  0.36160000  1.0
  Br  Br43  1  0.35490000  0.85197000  0.36766000  1.0
  N  N44  1  0.09551000  0.49665000  0.97965000  1.0
  N  N45  1  0.91149000  0.50498000  0.01641000  1.0
  O  O46  1  0.49233000  0.66723000  0.51940000  1.0
  O  O47  1  0.98275000  0.48300000  0.38874000  1.0
  O  O48  1  0.17055000  0.32889000  0.50887000  1.0
  O  O49  1  0.37860000  0.47160000  0.60639000  1.0
  O  O50  1  0.51474000  0.32957000  0.47848000  1.0
  O  O51  1  0.02206000  0.52423000  0.60679000  1.0
  O  O52  1  0.83348000  0.67366000  0.48749000  1.0
  O  O53  1  0.62746000  0.52374000  0.38985000  1.0
  O  O54  1  0.23976000  0.56223000  0.46246000  1.0
  O  O55  1  0.76895000  0.43681000  0.53368000  1.0
  O  O56  1  0.54294000  0.44976000  0.73599000  1.0
  O  O57  1  0.46338000  0.54868000  0.26007000  1.0
