# generated using pymatgen
data_CdH14C18N2O7
_symmetry_space_group_name_H-M   'P 1'
_cell_length_a   8.61462000
_cell_length_b   10.22070000
_cell_length_c   10.84520000
_cell_angle_alpha   65.73840000
_cell_angle_beta   87.02330000
_cell_angle_gamma   89.51330000
_symmetry_Int_Tables_number   1
_chemical_formula_structural   CdH14C18N2O7
_chemical_formula_sum   'Cd2 H28 C36 N4 O14'
_cell_volume   869.29389372
_cell_formula_units_Z   2
loop_
 _symmetry_equiv_pos_site_id
 _symmetry_equiv_pos_as_xyz
  1  'x, y, z'
loop_
 _atom_site_type_symbol
 _atom_site_label
 _atom_site_symmetry_multiplicity
 _atom_site_fract_x
 _atom_site_fract_y
 _atom_site_fract_z
 _atom_site_occupancy
  Cd  Cd0  1  0.27290000  0.07022000  0.65636000  1.0
  Cd  Cd1  1  0.72709000  0.92978000  0.34364000  1.0
  H  H2  1  0.93198000  0.66590000  0.86515000  1.0
  H  H3  1  0.06802000  0.33410000  0.13485000  1.0
  H  H4  1  0.62079000  0.45486000  0.98786000  1.0
  H  H5  1  0.37921000  0.54513000  0.01213000  1.0
  H  H6  1  0.77041000  0.00803000  0.85418000  1.0
  H  H7  1  0.22959000  0.99196000  0.14582000  1.0
  H  H8  1  0.64101000  0.90994000  0.99231000  1.0
  H  H9  1  0.35899000  0.09005000  0.00769000  1.0
  H  H10  1  0.34997000  0.01684000  0.41837000  1.0
  H  H11  1  0.65004000  0.98317000  0.58163000  1.0
  H  H12  1  0.16745000  0.00336000  0.43860000  1.0
  H  H13  1  0.83256000  0.99665000  0.56140000  1.0
  H  H14  1  0.50032000  0.23379000  0.37436000  1.0
  H  H15  1  0.49968000  0.76621000  0.62564000  1.0
  H  H16  1  0.58105000  0.48084000  0.21350000  1.0
  H  H17  1  0.41894000  0.51916000  0.78650000  1.0
  H  H18  1  0.45654000  0.69291000  0.23917000  1.0
  H  H19  1  0.54345000  0.30709000  0.76083000  1.0
  H  H20  1  0.26837000  0.78247000  0.37046000  1.0
  H  H21  1  0.73163000  0.21753000  0.62954000  1.0
  H  H22  1  0.07660000  0.73346000  0.56046000  1.0
  H  H23  1  0.92340000  0.26654000  0.43953000  1.0
  H  H24  1  0.92230000  0.55201000  0.76279000  1.0
  H  H25  1  0.07769000  0.44799000  0.23721000  1.0
  H  H26  1  0.88109000  0.29470000  0.92823000  1.0
  H  H27  1  0.11891000  0.70530000  0.07177000  1.0
  H  H28  1  0.02999000  0.10484000  0.88519000  1.0
  H  H29  1  0.97001000  0.89516000  0.11481000  1.0
  C  C30  1  0.00783000  0.89018000  0.77734000  1.0
  C  C31  1  0.99218000  0.10982000  0.22267000  1.0
  C  C32  1  0.89044000  0.77304000  0.84675000  1.0
  C  C33  1  0.10956000  0.22696000  0.15325000  1.0
  C  C34  1  0.74417000  0.78715000  0.88988000  1.0
  C  C35  1  0.25583000  0.21284000  0.11012000  1.0
  C  C36  1  0.63997000  0.65892000  0.94572000  1.0
  C  C37  1  0.36003000  0.34107000  0.05428000  1.0
  C  C38  1  0.67904000  0.92411000  0.88883000  1.0
  C  C39  1  0.32096000  0.07588000  0.11117000  1.0
  C  C40  1  0.54067000  0.98576000  0.80206000  1.0
  C  C41  1  0.45933000  0.01423000  0.19794000  1.0
  C  C42  1  0.45069000  0.32682000  0.38616000  1.0
  C  C43  1  0.54931000  0.67319000  0.61384000  1.0
  C  C44  1  0.49400000  0.46663000  0.29443000  1.0
  C  C45  1  0.50600000  0.53337000  0.70557000  1.0
  C  C46  1  0.42602000  0.58275000  0.30905000  1.0
  C  C47  1  0.57397000  0.41725000  0.69095000  1.0
  C  C48  1  0.31568000  0.55807000  0.41773000  1.0
  C  C49  1  0.68432000  0.44193000  0.58228000  1.0
  C  C50  1  0.23962000  0.67225000  0.43978000  1.0
  C  C51  1  0.76038000  0.32775000  0.56022000  1.0
  C  C52  1  0.13335000  0.64487000  0.54560000  1.0
  C  C53  1  0.86664000  0.35513000  0.45440000  1.0
  C  C54  1  0.09708000  0.50064000  0.63943000  1.0
  C  C55  1  0.90292000  0.49936000  0.36057000  1.0
  C  C56  1  0.98773000  0.46639000  0.75013000  1.0
  C  C57  1  0.01226000  0.53362000  0.24987000  1.0
  C  C58  1  0.96221000  0.32516000  0.84014000  1.0
  C  C59  1  0.03779000  0.67484000  0.15987000  1.0
  C  C60  1  0.04482000  0.21790000  0.81645000  1.0
  C  C61  1  0.95518000  0.78210000  0.18355000  1.0
  C  C62  1  0.17215000  0.38415000  0.62233000  1.0
  C  C63  1  0.82785000  0.61586000  0.37767000  1.0
  C  C64  1  0.28125000  0.41327000  0.50775000  1.0
  C  C65  1  0.71875000  0.58673000  0.49225000  1.0
  N  N66  1  0.34758000  0.30118000  0.48956000  1.0
  N  N67  1  0.65242000  0.69882000  0.51044000  1.0
  N  N68  1  0.14404000  0.24633000  0.71033000  1.0
  N  N69  1  0.85596000  0.75368000  0.28967000  1.0
  O  O70  1  0.13374000  0.88256000  0.83625000  1.0
  O  O71  1  0.86626000  0.11743000  0.16376000  1.0
  O  O72  1  0.98092000  0.98745000  0.66155000  1.0
  O  O73  1  0.01908000  0.01256000  0.33846000  1.0
  O  O74  1  0.49966000  0.66969000  0.97466000  1.0
  O  O75  1  0.50035000  0.33029000  0.02534000  1.0
  O  O76  1  0.70450000  0.53503000  0.96033000  1.0
  O  O77  1  0.29551000  0.46495000  0.03967000  1.0
  O  O78  1  0.51242000  0.94558000  0.70716000  1.0
  O  O79  1  0.48758000  0.05441000  0.29284000  1.0
  O  O80  1  0.45892000  0.07769000  0.82406000  1.0
  O  O81  1  0.54108000  0.92230000  0.17594000  1.0
  O  O82  1  0.26396000  0.98618000  0.49000000  1.0
  O  O83  1  0.73605000  0.01383000  0.51001000  1.0
