# generated using pymatgen
data_ZnH12C22(NO4)2
_symmetry_space_group_name_H-M   'P 1'
_cell_length_a   5.75892000
_cell_length_b   12.23690000
_cell_length_c   13.76170000
_cell_angle_alpha   63.91400000
_cell_angle_beta   89.99950000
_cell_angle_gamma   89.99970000
_symmetry_Int_Tables_number   1
_chemical_formula_structural   ZnH12C22(NO4)2
_chemical_formula_sum   'Zn2 H24 C44 N4 O16'
_cell_volume   871.01610701
_cell_formula_units_Z   2
loop_
 _symmetry_equiv_pos_site_id
 _symmetry_equiv_pos_as_xyz
  1  'x, y, z'
loop_
 _atom_site_type_symbol
 _atom_site_label
 _atom_site_symmetry_multiplicity
 _atom_site_fract_x
 _atom_site_fract_y
 _atom_site_fract_z
 _atom_site_occupancy
  Zn  Zn0  1  1.00000000  0.99999000  0.00000000  1.0
  Zn  Zn1  1  0.49999000  0.50000000  0.50000000  1.0
  H  H2  1  0.33228000  0.17542000  0.85804000  1.0
  H  H3  1  0.83229000  0.32459000  0.64196000  1.0
  H  H4  1  0.66770000  0.82458000  0.14196000  1.0
  H  H5  1  0.16770000  0.67543000  0.35804000  1.0
  H  H6  1  0.01067000  0.09448000  0.53025000  1.0
  H  H7  1  0.51066000  0.40551000  0.96975000  1.0
  H  H8  1  0.98936000  0.90553000  0.46974000  1.0
  H  H9  1  0.48934000  0.59447000  0.03026000  1.0
  H  H10  1  0.34190000  0.95195000  0.55500000  1.0
  H  H11  1  0.84190000  0.54804000  0.94500000  1.0
  H  H12  1  0.65813000  0.04807000  0.44498000  1.0
  H  H13  1  0.15811000  0.45192000  0.05501000  1.0
  H  H14  1  0.64605000  0.81676000  0.67369000  1.0
  H  H15  1  0.14604000  0.68324000  0.82630000  1.0
  H  H16  1  0.35396000  0.18324000  0.32629000  1.0
  H  H17  1  0.85395000  0.31675000  0.17372000  1.0
  H  H18  1  0.66522000  0.77457000  0.86775000  1.0
  H  H19  1  0.16521000  0.72543000  0.63224000  1.0
  H  H20  1  0.33476000  0.22541000  0.13224000  1.0
  H  H21  1  0.83477000  0.27458000  0.36777000  1.0
  H  H22  1  0.36341000  0.85638000  0.94739000  1.0
  H  H23  1  0.86338000  0.64362000  0.55261000  1.0
  H  H24  1  0.63658000  0.14360000  0.05260000  1.0
  H  H25  1  0.13659000  0.35640000  0.44741000  1.0
  C  C26  1  0.67555000  0.11453000  0.83350000  1.0
  C  C27  1  0.17553000  0.38548000  0.66650000  1.0
  C  C28  1  0.32447000  0.88547000  0.16650000  1.0
  C  C29  1  0.82444000  0.61454000  0.33350000  1.0
  C  C30  1  0.85777000  0.07692000  0.77525000  1.0
  C  C31  1  0.35777000  0.42308000  0.72476000  1.0
  C  C32  1  0.14224000  0.92308000  0.22475000  1.0
  C  C33  1  0.64223000  0.57693000  0.27525000  1.0
  C  C34  1  0.85036000  0.11610000  0.66161000  1.0
  C  C35  1  0.35037000  0.38390000  0.83839000  1.0
  C  C36  1  0.14964000  0.88391000  0.33838000  1.0
  C  C37  1  0.64963000  0.61610000  0.16161000  1.0
  C  C38  1  0.68897000  0.21286000  0.58555000  1.0
  C  C39  1  0.18893000  0.28715000  0.91445000  1.0
  C  C40  1  0.31106000  0.78715000  0.41445000  1.0
  C  C41  1  0.81106000  0.71285000  0.08555000  1.0
  C  C42  1  0.00976000  0.06650000  0.61725000  1.0
  C  C43  1  0.50976000  0.43350000  0.88275000  1.0
  C  C44  1  0.99026000  0.93352000  0.38274000  1.0
  C  C45  1  0.49025000  0.56648000  0.11726000  1.0
  C  C46  1  0.17758000  0.98273000  0.68293000  1.0
  C  C47  1  0.67759000  0.51726000  0.81707000  1.0
  C  C48  1  0.82245000  0.01728000  0.31705000  1.0
  C  C49  1  0.32242000  0.48272000  0.18295000  1.0
  C  C50  1  0.34628000  0.93110000  0.64051000  1.0
  C  C51  1  0.84628000  0.56891000  0.85949000  1.0
  C  C52  1  0.65374000  0.06891000  0.35947000  1.0
  C  C53  1  0.15373000  0.43109000  0.14053000  1.0
  C  C54  1  0.51620000  0.85601000  0.70672000  1.0
  C  C55  1  0.01619000  0.64399000  0.79328000  1.0
  C  C56  1  0.48381000  0.14399000  0.29327000  1.0
  C  C57  1  0.98380000  0.35600000  0.20674000  1.0
  C  C58  1  0.52400000  0.83026000  0.81757000  1.0
  C  C59  1  0.02398000  0.66974000  0.68243000  1.0
  C  C60  1  0.47599000  0.16973000  0.18242000  1.0
  C  C61  1  0.97599000  0.33027000  0.31758000  1.0
  C  C62  1  0.35829000  0.87588000  0.86234000  1.0
  C  C63  1  0.85828000  0.62411000  0.63766000  1.0
  C  C64  1  0.64171000  0.12411000  0.13765000  1.0
  C  C65  1  0.14172000  0.37589000  0.36235000  1.0
  C  C66  1  0.18113000  0.95309000  0.79603000  1.0
  C  C67  1  0.68110000  0.54691000  0.70396000  1.0
  C  C68  1  0.81890000  0.04691000  0.20396000  1.0
  C  C69  1  0.31888000  0.45309000  0.29604000  1.0
  N  N70  1  0.01851000  0.00096000  0.83881000  1.0
  N  N71  1  0.51849000  0.49904000  0.66119000  1.0
  N  N72  1  0.98150000  0.99904000  0.16118000  1.0
  N  N73  1  0.48150000  0.50097000  0.33882000  1.0
  O  O74  1  0.71170000  0.09137000  0.93174000  1.0
  O  O75  1  0.21169000  0.40863000  0.56825000  1.0
  O  O76  1  0.28831000  0.90862000  0.06825000  1.0
  O  O77  1  0.78828000  0.59139000  0.43174000  1.0
  O  O78  1  0.49156000  0.16393000  0.78267000  1.0
  O  O79  1  0.99155000  0.33607000  0.71733000  1.0
  O  O80  1  0.50845000  0.83607000  0.21732000  1.0
  O  O81  1  0.00843000  0.66393000  0.28267000  1.0
  O  O82  1  0.71089000  0.32236000  0.58402000  1.0
  O  O83  1  0.21089000  0.17764000  0.91599000  1.0
  O  O84  1  0.28910000  0.67765000  0.41599000  1.0
  O  O85  1  0.78910000  0.82236000  0.08401000  1.0
  O  O86  1  0.56226000  0.19566000  0.52210000  1.0
  O  O87  1  0.06228000  0.30435000  0.97790000  1.0
  O  O88  1  0.43773000  0.80435000  0.47790000  1.0
  O  O89  1  0.93775000  0.69564000  0.02211000  1.0
