# generated using pymatgen
data_Zn2H18C25(N5O2)2
_symmetry_space_group_name_H-M   'P 1'
_cell_length_a   14.88440000
_cell_length_b   15.02350000
_cell_length_c   23.32910000
_cell_angle_alpha   91.34920000
_cell_angle_beta   90.29570000
_cell_angle_gamma   102.89500000
_symmetry_Int_Tables_number   1
_chemical_formula_structural   Zn2H18C25(N5O2)2
_chemical_formula_sum   'Zn8 H72 C100 N40 O16'
_cell_volume   5083.49172408
_cell_formula_units_Z   4
loop_
 _symmetry_equiv_pos_site_id
 _symmetry_equiv_pos_as_xyz
  1  'x, y, z'
loop_
 _atom_site_type_symbol
 _atom_site_label
 _atom_site_symmetry_multiplicity
 _atom_site_fract_x
 _atom_site_fract_y
 _atom_site_fract_z
 _atom_site_occupancy
  Zn  Zn0  1  0.56581000  0.41345000  0.93450000  1.0
  Zn  Zn1  1  0.57505000  0.42477000  0.07219000  1.0
  Zn  Zn2  1  0.06900000  0.91684000  0.42968000  1.0
  Zn  Zn3  1  0.08030000  0.93020000  0.56695000  1.0
  Zn  Zn4  1  0.41334000  0.56013000  0.07089000  1.0
  Zn  Zn5  1  0.42602000  0.56822000  0.92963000  1.0
  Zn  Zn6  1  0.91661000  0.06318000  0.56703000  1.0
  Zn  Zn7  1  0.92947000  0.07252000  0.42624000  1.0
  H  H8  1  0.40816000  0.22999000  0.91071000  1.0
  H  H9  1  0.44057000  0.23834000  0.09158000  1.0
  H  H10  1  0.91027000  0.73358000  0.41070000  1.0
  H  H11  1  0.94952000  0.74567000  0.59816000  1.0
  H  H12  1  0.23177000  0.39852000  0.08666000  1.0
  H  H13  1  0.23363000  0.42621000  0.91344000  1.0
  H  H14  1  0.73796000  0.90239000  0.59127000  1.0
  H  H15  1  0.73759000  0.93144000  0.41336000  1.0
  H  H16  1  0.23159000  0.64246000  0.90363000  1.0
  H  H17  1  0.21173000  0.61357000  0.08793000  1.0
  H  H18  1  0.73610000  0.15013000  0.40020000  1.0
  H  H19  1  0.71392000  0.11357000  0.58384000  1.0
  H  H20  1  0.63822000  0.22929000  0.09828000  1.0
  H  H21  1  0.60978000  0.20865000  0.91352000  1.0
  H  H22  1  0.14402000  0.73583000  0.59355000  1.0
  H  H23  1  0.11504000  0.71221000  0.40887000  1.0
  H  H24  1  0.74598000  0.56845000  0.90728000  1.0
  H  H25  1  0.75547000  0.58707000  0.09285000  1.0
  H  H26  1  0.25271000  0.06999000  0.40141000  1.0
  H  H27  1  0.25554000  0.09600000  0.58680000  1.0
  H  H28  1  0.55112000  0.75326000  0.10102000  1.0
  H  H29  1  0.57802000  0.75146000  0.91651000  1.0
  H  H30  1  0.05147000  0.25831000  0.59704000  1.0
  H  H31  1  0.08386000  0.25566000  0.41286000  1.0
  H  H32  1  0.66774000  0.48582000  0.21155000  1.0
  H  H33  1  0.67595000  0.46297000  0.80048000  1.0
  H  H34  1  0.17544000  0.99180000  0.70703000  1.0
  H  H35  1  0.16628000  0.95695000  0.29279000  1.0
  H  H36  1  0.48483000  0.05907000  0.04137000  1.0
  H  H37  1  0.74381000  0.06814000  0.95812000  1.0
  H  H38  1  0.98376000  0.56372000  0.52492000  1.0
  H  H39  1  0.25863000  0.57385000  0.46499000  1.0
  H  H40  1  0.48913000  0.03825000  0.96679000  1.0
  H  H41  1  0.64581000  0.06899000  0.91561000  1.0
  H  H42  1  0.00436000  0.54417000  0.45179000  1.0
  H  H43  1  0.17092000  0.57619000  0.41446000  1.0
  H  H44  1  0.45914000  0.88291000  0.98952000  1.0
  H  H45  1  0.59223000  0.91172000  0.91789000  1.0
  H  H46  1  0.96856000  0.38850000  0.47356000  1.0
  H  H47  1  0.11624000  0.41843000  0.41371000  1.0
  H  H48  1  0.48752000  0.90748000  0.06244000  1.0
  H  H49  1  0.70484000  0.90904000  0.94106000  1.0
  H  H50  1  0.98110000  0.41152000  0.54788000  1.0
  H  H51  1  0.22272000  0.41503000  0.44643000  1.0
  H  H52  1  0.63192000  0.06277000  0.10010000  1.0
  H  H53  1  0.74037000  0.09082000  0.06648000  1.0
  H  H54  1  0.11683000  0.56570000  0.59583000  1.0
  H  H55  1  0.23179000  0.59431000  0.57167000  1.0
  H  H56  1  0.65228000  0.91296000  0.09887000  1.0
  H  H57  1  0.74115000  0.93638000  0.04794000  1.0
  H  H58  1  0.13676000  0.41614000  0.59805000  1.0
  H  H59  1  0.23586000  0.44036000  0.55492000  1.0
  H  H60  1  0.36817000  0.20550000  0.18742000  1.0
  H  H61  1  0.25793000  0.10714000  0.89053000  1.0
  H  H62  1  0.87834000  0.71415000  0.69661000  1.0
  H  H63  1  0.74898000  0.61049000  0.39681000  1.0
  H  H64  1  0.53714000  0.63573000  0.68451000  1.0
  H  H65  1  0.57076000  0.74925000  0.25786000  1.0
  H  H66  1  0.02704000  0.12738000  0.17551000  1.0
  H  H67  1  0.05683000  0.24161000  0.76456000  1.0
  H  H68  1  0.11573000  0.21737000  0.09922000  1.0
  H  H69  1  0.15029000  0.33757000  0.83837000  1.0
  H  H70  1  0.62580000  0.72607000  0.60847000  1.0
  H  H71  1  0.66641000  0.84657000  0.33039000  1.0
  H  H72  1  0.91368000  0.66173000  0.08813000  1.0
  H  H73  1  0.90128000  0.62191000  0.90415000  1.0
  H  H74  1  0.41441000  0.15380000  0.58472000  1.0
  H  H75  1  0.40788000  0.14177000  0.39963000  1.0
  H  H76  1  0.08108000  0.67726000  0.08605000  1.0
  H  H77  1  0.06769000  0.63499000  0.90247000  1.0
  H  H78  1  0.58142000  0.16910000  0.58364000  1.0
  H  H79  1  0.57455000  0.15479000  0.39881000  1.0
  C  C80  1  0.37724000  0.28885000  0.91482000  1.0
  C  C81  1  0.40017000  0.28985000  0.08716000  1.0
  C  C82  1  0.87989000  0.79279000  0.41497000  1.0
  C  C83  1  0.90810000  0.79605000  0.59261000  1.0
  C  C84  1  0.29314000  0.37088000  0.08345000  1.0
  C  C85  1  0.28833000  0.38904000  0.91540000  1.0
  C  C86  1  0.79957000  0.87516000  0.58790000  1.0
  C  C87  1  0.79203000  0.89392000  0.41538000  1.0
  C  C88  1  0.23981000  0.63082000  0.94896000  1.0
  C  C89  1  0.23014000  0.61696000  0.04291000  1.0
  C  C90  1  0.74364000  0.13663000  0.44533000  1.0
  C  C91  1  0.73270000  0.11861000  0.53891000  1.0
  C  C92  1  0.62928000  0.23881000  0.05274000  1.0
  C  C93  1  0.61463000  0.22825000  0.95875000  1.0
  C  C94  1  0.13494000  0.74466000  0.54794000  1.0
  C  C95  1  0.12018000  0.73265000  0.45398000  1.0
  C  C96  1  0.28681000  0.29676000  0.90177000  1.0
  C  C97  1  0.30712000  0.28536000  0.10003000  1.0
  C  C98  1  0.78982000  0.80153000  0.40175000  1.0
  C  C99  1  0.81594000  0.79218000  0.60758000  1.0
  C  C100  1  0.18131000  0.63831000  0.99524000  1.0
  C  C101  1  0.68467000  0.14256000  0.49162000  1.0
  C  C102  1  0.62781000  0.17728000  0.00644000  1.0
  C  C103  1  0.13347000  0.68245000  0.50204000  1.0
  C  C104  1  0.73334000  0.56415000  0.95298000  1.0
  C  C105  1  0.73835000  0.57483000  0.04760000  1.0
  C  C106  1  0.23842000  0.06765000  0.44698000  1.0
  C  C107  1  0.24020000  0.08174000  0.54150000  1.0
  C  C108  1  0.55146000  0.73745000  0.05532000  1.0
  C  C109  1  0.56490000  0.73638000  0.96137000  1.0
  C  C110  1  0.05293000  0.24237000  0.55141000  1.0
  C  C111  1  0.06933000  0.24092000  0.45764000  1.0
  C  C112  1  0.52994000  0.59411000  0.81601000  1.0
  C  C113  1  0.49572000  0.58423000  0.19327000  1.0
  C  C114  1  0.02476000  0.09241000  0.30988000  1.0
  C  C115  1  0.99907000  0.08466000  0.69009000  1.0
  C  C116  1  0.60852000  0.51308000  0.20010000  1.0
  C  C117  1  0.62406000  0.50131000  0.81090000  1.0
  C  C118  1  0.11507000  0.01748000  0.69598000  1.0
  C  C119  1  0.11614000  0.99701000  0.30391000  1.0
  C  C120  1  0.79294000  0.60014000  0.99903000  1.0
  C  C121  1  0.29638000  0.10561000  0.49341000  1.0
  C  C122  1  0.58359000  0.79498000  0.00968000  1.0
  C  C123  1  0.08676000  0.29968000  0.50596000  1.0
  C  C124  1  0.60391000  0.57625000  0.78284000  1.0
  C  C125  1  0.56718000  0.57383000  0.23145000  1.0
  C  C126  1  0.09507000  0.07079000  0.27504000  1.0
  C  C127  1  0.06973000  0.07334000  0.72878000  1.0
  C  C128  1  0.52047000  0.02719000  0.00815000  1.0
  C  C129  1  0.66873000  0.04163000  0.95505000  1.0
  C  C130  1  0.02623000  0.53236000  0.49561000  1.0
  C  C131  1  0.18473000  0.54762000  0.45572000  1.0
  C  C132  1  0.51084000  0.92495000  0.01856000  1.0
  C  C133  1  0.64396000  0.93593000  0.95197000  1.0
  C  C134  1  0.01380000  0.42987000  0.50628000  1.0
  C  C135  1  0.16017000  0.44181000  0.45167000  1.0
  C  C136  1  0.66999000  0.04855000  0.06182000  1.0
  C  C137  1  0.16281000  0.55225000  0.56140000  1.0
  C  C138  1  0.62370000  0.07670000  0.00786000  1.0
  C  C139  1  0.12886000  0.58177000  0.50377000  1.0
  C  C140  1  0.60469000  0.89767000  0.00970000  1.0
  C  C141  1  0.10852000  0.40245000  0.50590000  1.0
  C  C142  1  0.67140000  0.94549000  0.05758000  1.0
  C  C143  1  0.16468000  0.44933000  0.55840000  1.0
  C  C144  1  0.29343000  0.18682000  0.18288000  1.0
  C  C145  1  0.21468000  0.13885000  0.86346000  1.0
  C  C146  1  0.80357000  0.69568000  0.69207000  1.0
  C  C147  1  0.71078000  0.64308000  0.36687000  1.0
  C  C148  1  0.75212000  0.64799000  0.73545000  1.0
  C  C149  1  0.65350000  0.58823000  0.32631000  1.0
  C  C150  1  0.24211000  0.13975000  0.22642000  1.0
  C  C151  1  0.15835000  0.08439000  0.82241000  1.0
  C  C152  1  0.65504000  0.62584000  0.73550000  1.0
  C  C153  1  0.60428000  0.62391000  0.28401000  1.0
  C  C154  1  0.14505000  0.11806000  0.22659000  1.0
  C  C155  1  0.10358000  0.11955000  0.78304000  1.0
  C  C156  1  0.61206000  0.65350000  0.68736000  1.0
  C  C157  1  0.60800000  0.71813000  0.28910000  1.0
  C  C158  1  0.10199000  0.14498000  0.17825000  1.0
  C  C159  1  0.09944000  0.21129000  0.79285000  1.0
  C  C160  1  0.15234000  0.19535000  0.13495000  1.0
  C  C161  1  0.15288000  0.26572000  0.83473000  1.0
  C  C162  1  0.66239000  0.70414000  0.64423000  1.0
  C  C163  1  0.66254000  0.77325000  0.33022000  1.0
  C  C164  1  0.24927000  0.21952000  0.13715000  1.0
  C  C165  1  0.21634000  0.23260000  0.86875000  1.0
  C  C166  1  0.75937000  0.72813000  0.64625000  1.0
  C  C167  1  0.71916000  0.73812000  0.36830000  1.0
  C  C168  1  0.94682000  0.65587000  0.04701000  1.0
  C  C169  1  0.93986000  0.63377000  0.94448000  1.0
  C  C170  1  0.44885000  0.15436000  0.54349000  1.0
  C  C171  1  0.44517000  0.14734000  0.44041000  1.0
  C  C172  1  0.04173000  0.66423000  0.04594000  1.0
  C  C173  1  0.03463000  0.64166000  0.94352000  1.0
  C  C174  1  0.54366000  0.16242000  0.54296000  1.0
  C  C175  1  0.54003000  0.15493000  0.43997000  1.0
  C  C176  1  0.08705000  0.65147000  0.99458000  1.0
  C  C177  1  0.59071000  0.15670000  0.49126000  1.0
  C  C178  1  0.89287000  0.63474000  0.99670000  1.0
  C  C179  1  0.39641000  0.14061000  0.49233000  1.0
  N  N180  1  0.42797000  0.37059000  0.93293000  1.0
  N  N181  1  0.43829000  0.37212000  0.06597000  1.0
  N  N182  1  0.93121000  0.87435000  0.43311000  1.0
  N  N183  1  0.94345000  0.87562000  0.56717000  1.0
  N  N184  1  0.37263000  0.42229000  0.06412000  1.0
  N  N185  1  0.37298000  0.43193000  0.93355000  1.0
  N  N186  1  0.87692000  0.92475000  0.56476000  1.0
  N  N187  1  0.87681000  0.93624000  0.43371000  1.0
  N  N188  1  0.31644000  0.60666000  0.96791000  1.0
  N  N189  1  0.31019000  0.59787000  0.02611000  1.0
  N  N190  1  0.81968000  0.11090000  0.46392000  1.0
  N  N191  1  0.81264000  0.09955000  0.52190000  1.0
  N  N192  1  0.61767000  0.31998000  0.03400000  1.0
  N  N193  1  0.60845000  0.31329000  0.97546000  1.0
  N  N194  1  0.12313000  0.82550000  0.52868000  1.0
  N  N195  1  0.11383000  0.81782000  0.47015000  1.0
  N  N196  1  0.65127000  0.51951000  0.97298000  1.0
  N  N197  1  0.65421000  0.52614000  0.03127000  1.0
  N  N198  1  0.15581000  0.02342000  0.46644000  1.0
  N  N199  1  0.15674000  0.03202000  0.52467000  1.0
  N  N200  1  0.51494000  0.65183000  0.03516000  1.0
  N  N201  1  0.52307000  0.65121000  0.97704000  1.0
  N  N202  1  0.01680000  0.15672000  0.53116000  1.0
  N  N203  1  0.02670000  0.15587000  0.47316000  1.0
  N  N204  1  0.51064000  0.53638000  0.85977000  1.0
  N  N205  1  0.49625000  0.53476000  0.14452000  1.0
  N  N206  1  0.00824000  0.03778000  0.35530000  1.0
  N  N207  1  0.00403000  0.04028000  0.63988000  1.0
  N  N208  1  0.56489000  0.49084000  0.14885000  1.0
  N  N209  1  0.56797000  0.47909000  0.85654000  1.0
  N  N210  1  0.07430000  0.99859000  0.64366000  1.0
  N  N211  1  0.06396000  0.97889000  0.35152000  1.0
  N  N212  1  0.80559000  0.63091000  0.78572000  1.0
  N  N213  1  0.64595000  0.48867000  0.32927000  1.0
  N  N214  1  0.29604000  0.12429000  0.27694000  1.0
  N  N215  1  0.15847000  0.98605000  0.82132000  1.0
  N  N216  1  0.47732000  0.66246000  0.81298000  1.0
  N  N217  1  0.42273000  0.63123000  0.19800000  1.0
  N  N218  1  0.97361000  0.16200000  0.30677000  1.0
  N  N219  1  0.92270000  0.12683000  0.69530000  1.0
  O  O220  1  0.78738000  0.66304000  0.83259000  1.0
  O  O221  1  0.86673000  0.58794000  0.77773000  1.0
  O  O222  1  0.56958000  0.43778000  0.31872000  1.0
  O  O223  1  0.71637000  0.46238000  0.34290000  1.0
  O  O224  1  0.27954000  0.15953000  0.32320000  1.0
  O  O225  1  0.35616000  0.07990000  0.26959000  1.0
  O  O226  1  0.08405000  0.93121000  0.81172000  1.0
  O  O227  1  0.23293000  0.96452000  0.83091000  1.0
  O  O228  1  0.49061000  0.71707000  0.77340000  1.0
  O  O229  1  0.41872000  0.66413000  0.85196000  1.0
  O  O230  1  0.37167000  0.63024000  0.15411000  1.0
  O  O231  1  0.41086000  0.67003000  0.24376000  1.0
  O  O232  1  0.98380000  0.21276000  0.26518000  1.0
  O  O233  1  0.91967000  0.16850000  0.34763000  1.0
  O  O234  1  0.87300000  0.12716000  0.65086000  1.0
  O  O235  1  0.90619000  0.16020000  0.74199000  1.0
