# generated using pymatgen
data_CoH17C18(NO)4
_symmetry_space_group_name_H-M   'P 1'
_cell_length_a   12.61900000
_cell_length_b   14.29780000
_cell_length_c   24.87520000
_cell_angle_alpha   89.99990000
_cell_angle_beta   89.99980000
_cell_angle_gamma   107.85100000
_symmetry_Int_Tables_number   1
_chemical_formula_structural   CoH17C18(NO)4
_chemical_formula_sum   'Co8 H136 C144 N32 O32'
_cell_volume   4272.01143682
_cell_formula_units_Z   8
loop_
 _symmetry_equiv_pos_site_id
 _symmetry_equiv_pos_as_xyz
  1  'x, y, z'
loop_
 _atom_site_type_symbol
 _atom_site_label
 _atom_site_symmetry_multiplicity
 _atom_site_fract_x
 _atom_site_fract_y
 _atom_site_fract_z
 _atom_site_occupancy
  Co  Co0  1  0.95085000  0.37916000  0.77677000  1.0
  Co  Co1  1  0.54916000  0.12085000  0.27677000  1.0
  Co  Co2  1  0.04916000  0.62084000  0.22323000  1.0
  Co  Co3  1  0.45084000  0.87915000  0.72323000  1.0
  Co  Co4  1  0.37745000  0.32533000  0.82332000  1.0
  Co  Co5  1  0.12253000  0.17466000  0.32332000  1.0
  Co  Co6  1  0.62254000  0.67466000  0.17669000  1.0
  Co  Co7  1  0.87745000  0.82534000  0.67669000  1.0
  H  H8  1  0.17768000  0.23272000  0.66809000  1.0
  H  H9  1  0.32232000  0.26728000  0.16810000  1.0
  H  H10  1  0.82231000  0.76728000  0.33190000  1.0
  H  H11  1  0.67767000  0.73271000  0.83190000  1.0
  H  H12  1  0.04196000  0.15091000  0.65984000  1.0
  H  H13  1  0.45803000  0.34908000  0.15985000  1.0
  H  H14  1  0.95802000  0.84908000  0.34016000  1.0
  H  H15  1  0.54196000  0.65091000  0.84016000  1.0
  H  H16  1  0.03553000  0.09957000  0.75594000  1.0
  H  H17  1  0.46447000  0.40044000  0.25593000  1.0
  H  H18  1  0.96448000  0.90044000  0.24407000  1.0
  H  H19  1  0.53552000  0.59955000  0.74407000  1.0
  H  H20  1  0.23617000  0.09562000  0.68855000  1.0
  H  H21  1  0.26382000  0.40437000  0.18855000  1.0
  H  H22  1  0.76382000  0.90437000  0.31145000  1.0
  H  H23  1  0.73618000  0.59563000  0.81145000  1.0
  H  H24  1  0.15063000  0.94734000  0.77805000  1.0
  H  H25  1  0.34936000  0.55266000  0.27806000  1.0
  H  H26  1  0.84937000  0.05266000  0.22195000  1.0
  H  H27  1  0.65063000  0.44733000  0.72195000  1.0
  H  H28  1  0.24883000  0.06042000  0.79300000  1.0
  H  H29  1  0.25116000  0.43958000  0.29300000  1.0
  H  H30  1  0.75116000  0.93959000  0.20700000  1.0
  H  H31  1  0.74884000  0.56041000  0.70701000  1.0
  H  H32  1  0.31335000  0.12730000  0.89087000  1.0
  H  H33  1  0.18665000  0.37268000  0.39088000  1.0
  H  H34  1  0.68665000  0.87267000  0.10912000  1.0
  H  H35  1  0.81335000  0.62731000  0.60912000  1.0
  H  H36  1  0.57808000  0.05500000  0.81477000  1.0
  H  H37  1  0.92193000  0.44502000  0.31480000  1.0
  H  H38  1  0.42193000  0.94503000  0.18520000  1.0
  H  H39  1  0.07807000  0.55499000  0.68523000  1.0
  H  H40  1  0.57823000  0.24277000  0.78256000  1.0
  H  H41  1  0.92175000  0.25725000  0.28258000  1.0
  H  H42  1  0.42174000  0.75726000  0.21742000  1.0
  H  H43  1  0.07823000  0.74276000  0.71744000  1.0
  H  H44  1  0.44507000  0.92267000  0.86748000  1.0
  H  H45  1  0.05497000  0.57733000  0.36751000  1.0
  H  H46  1  0.55498000  0.07734000  0.13249000  1.0
  H  H47  1  0.94505000  0.42267000  0.63251000  1.0
  H  H48  1  0.31928000  0.94045000  0.89074000  1.0
  H  H49  1  0.18075000  0.55954000  0.39077000  1.0
  H  H50  1  0.68076000  0.05953000  0.10923000  1.0
  H  H51  1  0.81927000  0.44045000  0.60925000  1.0
  H  H52  1  0.46331000  0.48996000  0.91451000  1.0
  H  H53  1  0.03667000  0.01004000  0.41451000  1.0
  H  H54  1  0.53668000  0.51004000  0.08549000  1.0
  H  H55  1  0.96331000  0.98997000  0.58549000  1.0
  H  H56  1  0.32310000  0.50261000  0.99970000  1.0
  H  H57  1  0.17688000  0.99738000  0.49970000  1.0
  H  H58  1  0.67689000  0.49739000  0.00030000  1.0
  H  H59  1  0.82311000  0.00262000  0.50031000  1.0
  H  H60  1  0.15748000  0.26669000  0.89602000  1.0
  H  H61  1  0.34249000  0.23330000  0.39601000  1.0
  H  H62  1  0.84249000  0.73331000  0.10399000  1.0
  H  H63  1  0.65750000  0.76669000  0.60398000  1.0
  H  H64  1  0.14322000  0.33875000  0.03474000  1.0
  H  H65  1  0.35676000  0.16125000  0.53473000  1.0
  H  H66  1  0.85677000  0.66126000  0.96527000  1.0
  H  H67  1  0.64324000  0.83875000  0.46526000  1.0
  H  H68  1  0.05850000  0.28306000  0.97920000  1.0
  H  H69  1  0.44148000  0.21694000  0.47919000  1.0
  H  H70  1  0.94149000  0.71694000  0.02081000  1.0
  H  H71  1  0.55851000  0.78306000  0.52080000  1.0
  H  H72  1  0.21458000  0.41466000  0.75989000  1.0
  H  H73  1  0.28544000  0.08532000  0.25988000  1.0
  H  H74  1  0.78544000  0.58532000  0.24012000  1.0
  H  H75  1  0.71457000  0.91468000  0.74012000  1.0
  H  H76  1  0.36547000  0.59481000  0.78714000  1.0
  H  H77  1  0.13454000  0.90518000  0.28715000  1.0
  H  H78  1  0.63453000  0.40518000  0.21286000  1.0
  H  H79  1  0.86546000  0.09483000  0.71286000  1.0
  H  H80  1  0.03830000  0.59623000  0.82479000  1.0
  H  H81  1  0.46171000  0.90378000  0.32480000  1.0
  H  H82  1  0.96170000  0.40377000  0.17520000  1.0
  H  H83  1  0.53829000  0.09621000  0.67520000  1.0
  H  H84  1  0.19978000  0.76201000  0.82778000  1.0
  H  H85  1  0.30023000  0.73799000  0.32779000  1.0
  H  H86  1  0.80021000  0.23798000  0.17222000  1.0
  H  H87  1  0.69976000  0.26201000  0.67221000  1.0
  H  H88  1  0.33584000  0.76023000  0.81400000  1.0
  H  H89  1  0.16418000  0.73977000  0.31401000  1.0
  H  H90  1  0.66416000  0.23977000  0.18600000  1.0
  H  H91  1  0.83582000  0.26024000  0.68600000  1.0
  H  H92  1  0.08463000  0.82395000  0.16025000  1.0
  H  H93  1  0.41536000  0.67604000  0.66025000  1.0
  H  H94  1  0.91537000  0.17605000  0.83976000  1.0
  H  H95  1  0.58463000  0.32396000  0.33976000  1.0
  H  H96  1  0.25494000  0.88559000  0.08361000  1.0
  H  H97  1  0.24504000  0.61441000  0.58361000  1.0
  H  H98  1  0.74506000  0.11441000  0.91639000  1.0
  H  H99  1  0.75495000  0.38559000  0.41639000  1.0
  H  H100  1  0.23429000  0.59977000  0.13710000  1.0
  H  H101  1  0.26571000  0.90023000  0.63711000  1.0
  H  H102  1  0.76571000  0.40023000  0.86290000  1.0
  H  H103  1  0.73429000  0.09977000  0.36290000  1.0
  H  H104  1  0.38938000  0.67813000  0.07949000  1.0
  H  H105  1  0.11061000  0.82187000  0.57950000  1.0
  H  H106  1  0.61061000  0.32187000  0.92050000  1.0
  H  H107  1  0.88938000  0.17812000  0.42051000  1.0
  H  H108  1  0.42834000  0.80692000  0.07047000  1.0
  H  H109  1  0.07164000  0.69308000  0.57048000  1.0
  H  H110  1  0.57165000  0.19308000  0.92952000  1.0
  H  H111  1  0.92835000  0.30692000  0.42952000  1.0
  H  H112  1  0.15752000  0.72462000  0.01651000  1.0
  H  H113  1  0.34248000  0.77540000  0.51651000  1.0
  H  H114  1  0.84248000  0.27539000  0.98349000  1.0
  H  H115  1  0.65751000  0.22460000  0.48349000  1.0
  H  H116  1  0.49239000  0.72566000  0.98281000  1.0
  H  H117  1  0.00761000  0.77433000  0.48281000  1.0
  H  H118  1  0.50760000  0.27432000  0.01719000  1.0
  H  H119  1  0.99240000  0.22568000  0.51719000  1.0
  H  H120  1  0.60149000  0.94420000  0.92698000  1.0
  H  H121  1  0.89855000  0.55579000  0.42701000  1.0
  H  H122  1  0.39856000  0.05579000  0.07299000  1.0
  H  H123  1  0.10147000  0.44420000  0.57301000  1.0
  H  H124  1  0.31813000  0.02605000  0.98066000  1.0
  H  H125  1  0.18190000  0.47394000  0.48068000  1.0
  H  H126  1  0.68191000  0.97394000  0.01931000  1.0
  H  H127  1  0.81812000  0.52606000  0.51934000  1.0
  H  H128  1  0.45267000  0.72237000  0.88571000  1.0
  H  H129  1  0.04734000  0.77762000  0.38572000  1.0
  H  H130  1  0.54733000  0.27762000  0.11428000  1.0
  H  H131  1  0.95267000  0.22239000  0.61428000  1.0
  H  H132  1  0.11749000  0.71956000  0.91909000  1.0
  H  H133  1  0.38251000  0.78046000  0.41910000  1.0
  H  H134  1  0.88250000  0.28045000  0.08090000  1.0
  H  H135  1  0.61748000  0.21954000  0.58090000  1.0
  H  H136  1  0.01789000  0.42342000  0.91204000  1.0
  H  H137  1  0.48210000  0.07658000  0.41203000  1.0
  H  H138  1  0.98210000  0.57659000  0.08797000  1.0
  H  H139  1  0.51789000  0.92342000  0.58796000  1.0
  H  H140  1  0.08465000  0.45493000  0.08241000  1.0
  H  H141  1  0.41535000  0.04508000  0.58241000  1.0
  H  H142  1  0.91535000  0.54508000  0.91759000  1.0
  H  H143  1  0.58465000  0.95492000  0.41759000  1.0
  C  C144  1  0.05025000  0.28148000  0.70365000  1.0
  C  C145  1  0.44976000  0.21853000  0.20365000  1.0
  C  C146  1  0.94975000  0.71853000  0.29635000  1.0
  C  C147  1  0.55024000  0.78147000  0.79635000  1.0
  C  C148  1  0.09858000  0.19949000  0.68917000  1.0
  C  C149  1  0.40142000  0.30051000  0.18918000  1.0
  C  C150  1  0.90142000  0.80050000  0.31082000  1.0
  C  C151  1  0.59857000  0.69948000  0.81082000  1.0
  C  C152  1  0.11538000  0.13770000  0.73670000  1.0
  C  C153  1  0.38461000  0.36231000  0.23670000  1.0
  C  C154  1  0.88462000  0.86230000  0.26330000  1.0
  C  C155  1  0.61538000  0.63768000  0.76330000  1.0
  C  C156  1  0.18853000  0.20037000  0.78043000  1.0
  C  C157  1  0.31148000  0.29965000  0.28044000  1.0
  C  C158  1  0.81148000  0.79964000  0.21956000  1.0
  C  C159  1  0.68852000  0.70035000  0.71957000  1.0
  C  C160  1  0.16730000  0.05945000  0.71579000  1.0
  C  C161  1  0.33269000  0.44055000  0.21579000  1.0
  C  C162  1  0.83270000  0.94055000  0.28421000  1.0
  C  C163  1  0.66732000  0.55944000  0.78421000  1.0
  C  C164  1  0.21528000  0.00905000  0.75983000  1.0
  C  C165  1  0.28472000  0.49095000  0.25983000  1.0
  C  C166  1  0.78472000  0.99095000  0.24017000  1.0
  C  C167  1  0.71528000  0.50904000  0.74017000  1.0
  C  C168  1  0.08228000  0.97947000  0.68315000  1.0
  C  C169  1  0.41771000  0.52053000  0.18315000  1.0
  C  C170  1  0.91771000  0.02052000  0.31685000  1.0
  C  C171  1  0.58230000  0.47947000  0.81686000  1.0
  C  C172  1  0.30997000  0.97434000  0.73993000  1.0
  C  C173  1  0.19002000  0.52566000  0.23994000  1.0
  C  C174  1  0.69003000  0.02566000  0.26006000  1.0
  C  C175  1  0.80998000  0.47433000  0.76006000  1.0
  C  C176  1  0.38733000  0.13538000  0.86693000  1.0
  C  C177  1  0.11268000  0.36462000  0.36694000  1.0
  C  C178  1  0.61268000  0.86461000  0.13306000  1.0
  C  C179  1  0.88732000  0.63538000  0.63307000  1.0
  C  C180  1  0.52597000  0.09968000  0.82598000  1.0
  C  C181  1  0.97404000  0.40034000  0.32600000  1.0
  C  C182  1  0.47405000  0.90035000  0.17400000  1.0
  C  C183  1  0.02596000  0.59967000  0.67402000  1.0
  C  C184  1  0.52394000  0.19135000  0.81023000  1.0
  C  C185  1  0.97605000  0.30866000  0.31025000  1.0
  C  C186  1  0.47604000  0.80867000  0.18975000  1.0
  C  C187  1  0.02393000  0.69134000  0.68977000  1.0
  C  C188  1  0.41033000  0.97153000  0.89078000  1.0
  C  C189  1  0.08970000  0.52847000  0.39080000  1.0
  C  C190  1  0.58971000  0.02847000  0.10919000  1.0
  C  C191  1  0.91031000  0.47153000  0.60922000  1.0
  C  C192  1  0.37837000  0.44669000  0.92361000  1.0
  C  C193  1  0.12161000  0.05331000  0.42360000  1.0
  C  C194  1  0.62162000  0.55331000  0.07640000  1.0
  C  C195  1  0.87838000  0.94669000  0.57640000  1.0
  C  C196  1  0.31081000  0.45267000  0.96590000  1.0
  C  C197  1  0.18917000  0.04732000  0.46590000  1.0
  C  C198  1  0.68918000  0.54733000  0.03411000  1.0
  C  C199  1  0.81082000  0.95268000  0.53411000  1.0
  C  C200  1  0.22148000  0.32920000  0.91265000  1.0
  C  C201  1  0.27850000  0.17079000  0.41264000  1.0
  C  C202  1  0.77850000  0.67080000  0.08736000  1.0
  C  C203  1  0.72149000  0.82920000  0.58735000  1.0
  C  C204  1  0.11581000  0.35254000  0.99434000  1.0
  C  C205  1  0.38417000  0.14745000  0.49433000  1.0
  C  C206  1  0.88417000  0.64746000  0.00566000  1.0
  C  C207  1  0.61582000  0.85254000  0.50566000  1.0
  C  C208  1  0.20025000  0.47868000  0.77800000  1.0
  C  C209  1  0.29977000  0.02132000  0.27800000  1.0
  C  C210  1  0.79977000  0.52131000  0.22200000  1.0
  C  C211  1  0.70024000  0.97868000  0.72200000  1.0
  C  C212  1  0.27604000  0.56690000  0.79176000  1.0
  C  C213  1  0.22397000  0.93309000  0.29176000  1.0
  C  C214  1  0.72397000  0.43309000  0.20824000  1.0
  C  C215  1  0.77603000  0.06692000  0.70825000  1.0
  C  C216  1  0.10630000  0.57019000  0.81195000  1.0
  C  C217  1  0.39371000  0.92981000  0.31195000  1.0
  C  C218  1  0.89370000  0.42981000  0.18804000  1.0
  C  C219  1  0.60629000  0.07018000  0.68805000  1.0
  C  C220  1  0.25979000  0.72218000  0.83598000  1.0
  C  C221  1  0.24023000  0.77783000  0.33599000  1.0
  C  C222  1  0.74021000  0.27783000  0.16401000  1.0
  C  C223  1  0.75977000  0.22217000  0.66401000  1.0
  C  C224  1  0.28223000  0.72035000  0.89544000  1.0
  C  C225  1  0.21778000  0.77965000  0.39545000  1.0
  C  C226  1  0.71777000  0.27965000  0.10455000  1.0
  C  C227  1  0.78222000  0.22035000  0.60455000  1.0
  C  C228  1  0.13985000  0.78647000  0.14346000  1.0
  C  C229  1  0.36014000  0.71352000  0.64346000  1.0
  C  C230  1  0.86016000  0.21353000  0.85654000  1.0
  C  C231  1  0.63986000  0.28647000  0.35654000  1.0
  C  C232  1  0.22323000  0.81768000  0.10592000  1.0
  C  C233  1  0.27675000  0.68232000  0.60593000  1.0
  C  C234  1  0.77676000  0.18232000  0.89408000  1.0
  C  C235  1  0.72323000  0.31768000  0.39408000  1.0
  C  C236  1  0.21353000  0.66774000  0.13317000  1.0
  C  C237  1  0.28646000  0.83226000  0.63317000  1.0
  C  C238  1  0.78646000  0.33225000  0.86683000  1.0
  C  C239  1  0.71353000  0.16774000  0.36683000  1.0
  C  C240  1  0.35957000  0.73846000  0.06511000  1.0
  C  C241  1  0.14041000  0.76155000  0.56512000  1.0
  C  C242  1  0.64042000  0.26154000  0.93488000  1.0
  C  C243  1  0.85958000  0.23845000  0.43488000  1.0
  C  C244  1  0.32800000  0.72680000  0.00642000  1.0
  C  C245  1  0.17199000  0.77320000  0.50643000  1.0
  C  C246  1  0.67199000  0.27320000  0.99357000  1.0
  C  C247  1  0.82800000  0.22680000  0.49357000  1.0
  C  C248  1  0.22244000  0.72364000  0.98790000  1.0
  C  C249  1  0.27755000  0.77637000  0.48792000  1.0
  C  C250  1  0.77755000  0.27636000  0.01209000  1.0
  C  C251  1  0.72244000  0.22363000  0.51209000  1.0
  C  C252  1  0.40948000  0.72341000  0.96899000  1.0
  C  C253  1  0.09052000  0.77659000  0.46899000  1.0
  C  C254  1  0.59051000  0.27659000  0.03101000  1.0
  C  C255  1  0.90948000  0.22342000  0.53101000  1.0
  C  C256  1  0.55778000  0.96967000  0.95901000  1.0
  C  C257  1  0.94225000  0.53032000  0.45903000  1.0
  C  C258  1  0.44227000  0.03031000  0.04097000  1.0
  C  C259  1  0.05776000  0.46968000  0.54099000  1.0
  C  C260  1  0.45555000  0.98470000  0.94750000  1.0
  C  C261  1  0.04448000  0.51529000  0.44752000  1.0
  C  C262  1  0.54450000  0.01530000  0.05247000  1.0
  C  C263  1  0.95554000  0.48470000  0.55250000  1.0
  C  C264  1  0.39830000  0.01470000  0.98905000  1.0
  C  C265  1  0.10173000  0.48528000  0.48907000  1.0
  C  C266  1  0.60174000  0.98528000  0.01093000  1.0
  C  C267  1  0.89829000  0.51471000  0.51095000  1.0
  C  C268  1  0.38675000  0.72024000  0.91423000  1.0
  C  C269  1  0.11326000  0.77976000  0.41423000  1.0
  C  C270  1  0.61325000  0.27975000  0.08577000  1.0
  C  C271  1  0.88675000  0.22025000  0.58577000  1.0
  C  C272  1  0.19995000  0.72061000  0.93294000  1.0
  C  C273  1  0.30005000  0.77940000  0.43295000  1.0
  C  C274  1  0.80005000  0.27940000  0.06706000  1.0
  C  C275  1  0.69994000  0.22060000  0.56705000  1.0
  C  C276  1  0.05793000  0.43057000  0.99696000  1.0
  C  C277  1  0.44204000  0.06943000  0.49695000  1.0
  C  C278  1  0.94205000  0.56944000  0.00305000  1.0
  C  C279  1  0.55794000  0.93057000  0.50304000  1.0
  C  C280  1  0.01068000  0.45700000  0.95073000  1.0
  C  C281  1  0.48932000  0.04301000  0.45072000  1.0
  C  C282  1  0.98932000  0.54301000  0.04928000  1.0
  C  C283  1  0.51069000  0.95700000  0.54927000  1.0
  C  C284  1  0.04721000  0.47436000  0.04616000  1.0
  C  C285  1  0.45278000  0.02565000  0.54615000  1.0
  C  C286  1  0.95277000  0.52565000  0.95385000  1.0
  C  C287  1  0.54722000  0.97435000  0.45384000  1.0
  N  N288  1  0.43893000  0.06545000  0.86174000  1.0
  N  N289  1  0.06109000  0.43456000  0.36176000  1.0
  N  N290  1  0.56110000  0.93455000  0.13824000  1.0
  N  N291  1  0.93891000  0.56545000  0.63825000  1.0
  N  N292  1  0.21223000  0.37763000  0.95846000  1.0
  N  N293  1  0.28776000  0.12236000  0.45845000  1.0
  N  N294  1  0.78775000  0.62237000  0.04155000  1.0
  N  N295  1  0.71224000  0.87764000  0.54154000  1.0
  N  N296  1  0.21513000  0.62378000  0.81290000  1.0
  N  N297  1  0.28489000  0.87622000  0.31290000  1.0
  N  N298  1  0.78487000  0.37622000  0.18710000  1.0
  N  N299  1  0.71511000  0.12378000  0.68710000  1.0
  N  N300  1  0.26874000  0.74169000  0.10016000  1.0
  N  N301  1  0.23125000  0.75831000  0.60016000  1.0
  N  N302  1  0.73126000  0.25831000  0.89984000  1.0
  N  N303  1  0.76875000  0.24169000  0.39984000  1.0
  N  N304  1  0.43699000  0.21280000  0.83604000  1.0
  N  N305  1  0.06300000  0.28719000  0.33605000  1.0
  N  N306  1  0.56299000  0.78719000  0.16396000  1.0
  N  N307  1  0.93699000  0.71281000  0.66396000  1.0
  N  N308  1  0.32172000  0.36926000  0.89071000  1.0
  N  N309  1  0.17826000  0.13073000  0.39070000  1.0
  N  N310  1  0.67826000  0.63074000  0.10930000  1.0
  N  N311  1  0.82173000  0.86927000  0.60930000  1.0
  N  N312  1  0.09441000  0.48172000  0.79073000  1.0
  N  N313  1  0.40561000  0.01828000  0.29073000  1.0
  N  N314  1  0.90560000  0.51827000  0.20927000  1.0
  N  N315  1  0.59440000  0.98172000  0.70927000  1.0
  N  N316  1  0.13480000  0.69275000  0.16021000  1.0
  N  N317  1  0.36519000  0.80725000  0.66021000  1.0
  N  N318  1  0.86520000  0.30725000  0.83979000  1.0
  N  N319  1  0.63480000  0.19275000  0.33979000  1.0
  O  O320  1  0.99479000  0.26863000  0.74857000  1.0
  O  O321  1  0.50521000  0.23138000  0.24858000  1.0
  O  O322  1  0.00521000  0.73137000  0.25142000  1.0
  O  O323  1  0.49479000  0.76862000  0.75142000  1.0
  O  O324  1  0.06252000  0.35356000  0.67303000  1.0
  O  O325  1  0.43749000  0.14644000  0.17304000  1.0
  O  O326  1  0.93749000  0.64645000  0.32697000  1.0
  O  O327  1  0.56252000  0.85355000  0.82696000  1.0
  O  O328  1  0.17189000  0.17587000  0.82896000  1.0
  O  O329  1  0.32812000  0.32414000  0.32896000  1.0
  O  O330  1  0.82813000  0.82414000  0.17104000  1.0
  O  O331  1  0.67187000  0.67586000  0.67104000  1.0
  O  O332  1  0.27028000  0.27546000  0.76461000  1.0
  O  O333  1  0.22973000  0.22455000  0.26462000  1.0
  O  O334  1  0.72972000  0.72455000  0.23538000  1.0
  O  O335  1  0.77027000  0.77545000  0.73539000  1.0
  O  O336  1  0.98950000  0.93719000  0.70829000  1.0
  O  O337  1  0.51048000  0.56282000  0.20829000  1.0
  O  O338  1  0.01048000  0.06282000  0.29171000  1.0
  O  O339  1  0.48953000  0.43717000  0.79172000  1.0
  O  O340  1  0.10511000  0.95681000  0.63683000  1.0
  O  O341  1  0.39488000  0.54319000  0.13683000  1.0
  O  O342  1  0.89488000  0.04319000  0.36318000  1.0
  O  O343  1  0.60513000  0.45683000  0.86319000  1.0
  O  O344  1  0.36470000  0.00903000  0.69828000  1.0
  O  O345  1  0.13529000  0.49098000  0.19829000  1.0
  O  O346  1  0.63529000  0.99098000  0.30172000  1.0
  O  O347  1  0.86472000  0.50902000  0.80172000  1.0
  O  O348  1  0.33385000  0.90727000  0.76813000  1.0
  O  O349  1  0.16615000  0.59273000  0.26814000  1.0
  O  O350  1  0.66616000  0.09274000  0.23186000  1.0
  O  O351  1  0.83385000  0.40727000  0.73186000  1.0
