# generated using pymatgen
data_Hf3H14(C13O8)2
_symmetry_space_group_name_H-M   'P 1'
_cell_length_a   16.65180000
_cell_length_b   17.37640000
_cell_length_c   17.39910000
_cell_angle_alpha   110.22200000
_cell_angle_beta   89.86380000
_cell_angle_gamma   89.93270000
_symmetry_Int_Tables_number   1
_chemical_formula_structural   Hf3H14(C13O8)2
_chemical_formula_sum   'Hf6 H28 C52 O32'
_cell_volume   4724.05802053
_cell_formula_units_Z   2
loop_
 _symmetry_equiv_pos_site_id
 _symmetry_equiv_pos_as_xyz
  1  'x, y, z'
loop_
 _atom_site_type_symbol
 _atom_site_label
 _atom_site_symmetry_multiplicity
 _atom_site_fract_x
 _atom_site_fract_y
 _atom_site_fract_z
 _atom_site_occupancy
  Hf  Hf0  1  0.89791000  0.10523000  0.11040000  1.0
  Hf  Hf1  1  0.11140000  0.09130000  0.09915000  1.0
  Hf  Hf2  1  0.88581000  0.92576000  0.93565000  1.0
  Hf  Hf3  1  0.09534000  0.91594000  0.92371000  1.0
  Hf  Hf4  1  0.99781000  0.09641000  0.92984000  1.0
  Hf  Hf5  1  0.99835000  0.92305000  0.10516000  1.0
  H  H6  1  0.99991000  0.09354000  0.22714000  1.0
  H  H7  1  0.17316000  0.06773000  0.94474000  1.0
  H  H8  1  0.99452000  0.79848000  0.94239000  1.0
  H  H9  1  0.82803000  0.08132000  0.95325000  1.0
  H  H10  1  0.26427000  0.12648000  0.07231000  1.0
  H  H11  1  0.24545000  0.85688000  0.92172000  1.0
  H  H12  1  0.09065000  0.80941000  0.77189000  1.0
  H  H13  1  0.97645000  0.80883000  0.81655000  1.0
  H  H14  1  0.73211000  0.90785000  0.96167000  1.0
  H  H15  1  0.75783000  0.02737000  0.03688000  1.0
  H  H16  1  0.88672000  0.25150000  0.22133000  1.0
  H  H17  1  0.15401000  0.19208000  0.24994000  1.0
  H  H18  1  0.89371000  0.82876000  0.77658000  1.0
  H  H19  1  0.74770000  0.06692000  0.13603000  1.0
  H  H20  1  0.13715000  0.24726000  0.19555000  1.0
  H  H21  1  0.24702000  0.89669000  0.85123000  1.0
  H  H22  1  0.62798000  0.99894000  0.39196000  1.0
  H  H23  1  0.63209000  0.00656000  0.64268000  1.0
  H  H24  1  0.85452000  0.99998000  0.51242000  1.0
  H  H25  1  0.14209000  0.00258000  0.51035000  1.0
  H  H26  1  0.36302000  0.00292000  0.64004000  1.0
  H  H27  1  0.37009000  0.00429000  0.39241000  1.0
  H  H28  1  0.85543000  0.51745000  0.02140000  1.0
  H  H29  1  0.63634000  0.38405000  0.01921000  1.0
  H  H30  1  0.62588000  0.63347000  0.02222000  1.0
  H  H31  1  0.14335000  0.51488000  0.01872000  1.0
  H  H32  1  0.36382000  0.38275000  0.01588000  1.0
  H  H33  1  0.37181000  0.63398000  0.02454000  1.0
  C  C34  1  0.87531000  0.24017000  0.01911000  1.0
  C  C35  1  0.13564000  0.00220000  0.23675000  1.0
  C  C36  1  0.12593000  0.23626000  0.01261000  1.0
  C  C37  1  0.86283000  0.99850000  0.23736000  1.0
  C  C38  1  0.85829000  0.79266000  0.02525000  1.0
  C  C39  1  0.12224000  0.00229000  0.78446000  1.0
  C  C40  1  0.13392000  0.78794000  0.02266000  1.0
  C  C41  1  0.86803000  0.00821000  0.79138000  1.0
  C  C42  1  0.74588000  0.99864000  0.44378000  1.0
  C  C43  1  0.66150000  0.00008000  0.44600000  1.0
  C  C44  1  0.62009000  0.00282000  0.51750000  1.0
  C  C45  1  0.66377000  0.00448000  0.58717000  1.0
  C  C46  1  0.74821000  0.00367000  0.58553000  1.0
  C  C47  1  0.78917000  0.00063000  0.51377000  1.0
  C  C48  1  0.25164000  0.00288000  0.44316000  1.0
  C  C49  1  0.20741000  0.00287000  0.51206000  1.0
  C  C50  1  0.24759000  0.00310000  0.58308000  1.0
  C  C51  1  0.33196000  0.00308000  0.58509000  1.0
  C  C52  1  0.37660000  0.00361000  0.51650000  1.0
  C  C53  1  0.33598000  0.00374000  0.44569000  1.0
  C  C54  1  0.74502000  0.58380000  0.02241000  1.0
  C  C55  1  0.79012000  0.51492000  0.02121000  1.0
  C  C56  1  0.75097000  0.44279000  0.01974000  1.0
  C  C57  1  0.66659000  0.43979000  0.01986000  1.0
  C  C58  1  0.62118000  0.50839000  0.02064000  1.0
  C  C59  1  0.66076000  0.58024000  0.02170000  1.0
  C  C60  1  0.25313000  0.58272000  0.02227000  1.0
  C  C61  1  0.20867000  0.51299000  0.01925000  1.0
  C  C62  1  0.24850000  0.44080000  0.01674000  1.0
  C  C63  1  0.33291000  0.43859000  0.01757000  1.0
  C  C64  1  0.37778000  0.50805000  0.02026000  1.0
  C  C65  1  0.33745000  0.58004000  0.02251000  1.0
  C  C66  1  0.53610000  0.50603000  0.02046000  1.0
  C  C67  1  0.46287000  0.50610000  0.02043000  1.0
  C  C68  1  0.46171000  0.00379000  0.51827000  1.0
  C  C69  1  0.53495000  0.00363000  0.51871000  1.0
  C  C70  1  0.16463000  0.00244000  0.71210000  1.0
  C  C71  1  0.20297000  0.00275000  0.65253000  1.0
  C  C72  1  0.21134000  0.00217000  0.37122000  1.0
  C  C73  1  0.17690000  0.00132000  0.30933000  1.0
  C  C74  1  0.82773000  0.00663000  0.71741000  1.0
  C  C75  1  0.79152000  0.00543000  0.65629000  1.0
  C  C76  1  0.78671000  0.99619000  0.37128000  1.0
  C  C77  1  0.82077000  0.99507000  0.30890000  1.0
  C  C78  1  0.17816000  0.71732000  0.02492000  1.0
  C  C79  1  0.21292000  0.65536000  0.02409000  1.0
  C  C80  1  0.16596000  0.30996000  0.01247000  1.0
  C  C81  1  0.20379000  0.37042000  0.01408000  1.0
  C  C82  1  0.78402000  0.65686000  0.02405000  1.0
  C  C83  1  0.81687000  0.71986000  0.02541000  1.0
  C  C84  1  0.83380000  0.31299000  0.01850000  1.0
  C  C85  1  0.79610000  0.37316000  0.01881000  1.0
  O  O86  1  0.85923000  0.21551000  0.07814000  1.0
  O  O87  1  0.92352000  0.20669000  0.95952000  1.0
  O  O88  1  0.15372000  0.06000000  0.21070000  1.0
  O  O89  1  0.08443000  0.94557000  0.20598000  1.0
  O  O90  1  0.14021000  0.21360000  0.07349000  1.0
  O  O91  1  0.08201000  0.19906000  0.95109000  1.0
  O  O92  1  0.83813000  0.04983000  0.20590000  1.0
  O  O93  1  0.92293000  0.94984000  0.21323000  1.0
  O  O94  1  0.90150000  0.19636000  0.21759000  1.0
  O  O95  1  0.76509000  0.08021000  0.08838000  1.0
  O  O96  1  0.11366000  0.20668000  0.21654000  1.0
  O  O97  1  0.23096000  0.09384000  0.09479000  1.0
  O  O98  1  0.00335000  0.12136000  0.05273000  1.0
  O  O99  1  0.00182000  0.06617000  0.16808000  1.0
  O  O100  1  0.83687000  0.82271000  0.97102000  1.0
  O  O101  1  0.91331000  0.81947000  0.07858000  1.0
  O  O102  1  0.13874000  0.94295000  0.80978000  1.0
  O  O103  1  0.07380000  0.06090000  0.81733000  1.0
  O  O104  1  0.15476000  0.81771000  0.96781000  1.0
  O  O105  1  0.07684000  0.81309000  0.07388000  1.0
  O  O106  1  0.85140000  0.95026000  0.81801000  1.0
  O  O107  1  0.91571000  0.06794000  0.82391000  1.0
  O  O108  1  0.91382000  0.81514000  0.82296000  1.0
  O  O109  1  0.76393000  0.95317000  0.95766000  1.0
  O  O110  1  0.06747000  0.81061000  0.82360000  1.0
  O  O111  1  0.23371000  0.90630000  0.90844000  1.0
  O  O112  1  0.99400000  0.85803000  0.96383000  1.0
  O  O113  1  0.99431000  0.97274000  0.90705000  1.0
  O  O114  1  0.91261000  0.97547000  0.05672000  1.0
  O  O115  1  0.12371000  0.05032000  0.96327000  1.0
  O  O116  1  0.87646000  0.06217000  0.97199000  1.0
  O  O117  1  0.08858000  0.96830000  0.05129000  1.0
