# generated using pymatgen
data_MnH5C10N3O4
_symmetry_space_group_name_H-M   'P 1'
_cell_length_a   11.16930000
_cell_length_b   12.70560000
_cell_length_c   14.36140000
_cell_angle_alpha   89.99980000
_cell_angle_beta   70.36200000
_cell_angle_gamma   89.99980000
_symmetry_Int_Tables_number   1
_chemical_formula_structural   MnH5C10N3O4
_chemical_formula_sum   'Mn4 H20 C40 N12 O16'
_cell_volume   1919.51995163
_cell_formula_units_Z   4
loop_
 _symmetry_equiv_pos_site_id
 _symmetry_equiv_pos_as_xyz
  1  'x, y, z'
loop_
 _atom_site_type_symbol
 _atom_site_label
 _atom_site_symmetry_multiplicity
 _atom_site_fract_x
 _atom_site_fract_y
 _atom_site_fract_z
 _atom_site_occupancy
  Mn  Mn0  1  0.61131000  0.58297000  0.46861000  1.0
  Mn  Mn1  1  0.38869000  0.08297000  0.03139000  1.0
  Mn  Mn2  1  0.38869000  0.41703000  0.53139000  1.0
  Mn  Mn3  1  0.61131000  0.91703000  0.96861000  1.0
  H  H4  1  0.12246000  0.61559000  0.44455000  1.0
  H  H5  1  0.87754000  0.11558000  0.05545000  1.0
  H  H6  1  0.87754000  0.38442000  0.55544000  1.0
  H  H7  1  0.12246000  0.88441000  0.94456000  1.0
  H  H8  1  0.12133000  0.86412000  0.23815000  1.0
  H  H9  1  0.87867000  0.36412000  0.26185000  1.0
  H  H10  1  0.87867000  0.13588000  0.76185000  1.0
  H  H11  1  0.12133000  0.63588000  0.73815000  1.0
  H  H12  1  0.47464000  0.74597000  0.25397000  1.0
  H  H13  1  0.52536000  0.24597000  0.24603000  1.0
  H  H14  1  0.52536000  0.25403000  0.74603000  1.0
  H  H15  1  0.47464000  0.75403000  0.75397000  1.0
  H  H16  1  0.92455000  0.57132000  0.39172000  1.0
  H  H17  1  0.07545000  0.07132000  0.10828000  1.0
  H  H18  1  0.07545000  0.42868000  0.60827000  1.0
  H  H19  1  0.92455000  0.92868000  0.89172000  1.0
  H  H20  1  0.92324000  0.90399000  0.38789000  1.0
  H  H21  1  0.07676000  0.40399000  0.11211000  1.0
  H  H22  1  0.07676000  0.09601000  0.61211000  1.0
  H  H23  1  0.92324000  0.59601000  0.88788000  1.0
  C  C24  1  0.37415000  0.60319000  0.40287000  1.0
  C  C25  1  0.62584000  0.10319000  0.09713000  1.0
  C  C26  1  0.62584000  0.39681000  0.59713000  1.0
  C  C27  1  0.37416000  0.89681000  0.90287000  1.0
  C  C28  1  0.30503000  0.67387000  0.35394000  1.0
  C  C29  1  0.69496000  0.17387000  0.14606000  1.0
  C  C30  1  0.69496000  0.32613000  0.64606000  1.0
  C  C31  1  0.30503000  0.82613000  0.85394000  1.0
  C  C32  1  0.17220000  0.67055000  0.38614000  1.0
  C  C33  1  0.82780000  0.17055000  0.11386000  1.0
  C  C34  1  0.82780000  0.32945000  0.61386000  1.0
  C  C35  1  0.17220000  0.82945000  0.88615000  1.0
  C  C36  1  0.10675000  0.73935000  0.34481000  1.0
  C  C37  1  0.89325000  0.23934000  0.15519000  1.0
  C  C38  1  0.89325000  0.26066000  0.65519000  1.0
  C  C39  1  0.10675000  0.76065000  0.84481000  1.0
  C  C40  1  0.17169000  0.81063000  0.27142000  1.0
  C  C41  1  0.82831000  0.31063000  0.22858000  1.0
  C  C42  1  0.82831000  0.18937000  0.72858000  1.0
  C  C43  1  0.17169000  0.68937000  0.77142000  1.0
  C  C44  1  0.30456000  0.81225000  0.23798000  1.0
  C  C45  1  0.69544000  0.31224000  0.26203000  1.0
  C  C46  1  0.69544000  0.18776000  0.76202000  1.0
  C  C47  1  0.30456000  0.68776000  0.73797000  1.0
  C  C48  1  0.37116000  0.74410000  0.27943000  1.0
  C  C49  1  0.62883000  0.24409000  0.22057000  1.0
  C  C50  1  0.62883000  0.25591000  0.72057000  1.0
  C  C51  1  0.37116000  0.75590000  0.77943000  1.0
  C  C52  1  0.37329000  0.88688000  0.15621000  1.0
  C  C53  1  0.62671000  0.38687000  0.34379000  1.0
  C  C54  1  0.62671000  0.11313000  0.84379000  1.0
  C  C55  1  0.37329000  0.61313000  0.65621000  1.0
  C  C56  1  0.89274000  0.65244000  0.39895000  1.0
  C  C57  1  0.10726000  0.15244000  0.10105000  1.0
  C  C58  1  0.10726000  0.34756000  0.60105000  1.0
  C  C59  1  0.89274000  0.84756000  0.89895000  1.0
  C  C60  1  0.89015000  0.82320000  0.39614000  1.0
  C  C61  1  0.10985000  0.32320000  0.10386000  1.0
  C  C62  1  0.10985000  0.17680000  0.60386000  1.0
  C  C63  1  0.89015000  0.67680000  0.89614000  1.0
  N  N64  1  0.97091000  0.73797000  0.37833000  1.0
  N  N65  1  0.02909000  0.23797000  0.12167000  1.0
  N  N66  1  0.02909000  0.26203000  0.62167000  1.0
  N  N67  1  0.97091000  0.76203000  0.87833000  1.0
  N  N68  1  0.77308000  0.68430000  0.42701000  1.0
  N  N69  1  0.22692000  0.18430000  0.07299000  1.0
  N  N70  1  0.22693000  0.31570000  0.57299000  1.0
  N  N71  1  0.77308000  0.81570000  0.92701000  1.0
  N  N72  1  0.77074000  0.79269000  0.42565000  1.0
  N  N73  1  0.22926000  0.29269000  0.07435000  1.0
  N  N74  1  0.22926000  0.20730000  0.57435000  1.0
  N  N75  1  0.77074000  0.70731000  0.92565000  1.0
  O  O76  1  0.48631000  0.86219000  0.10407000  1.0
  O  O77  1  0.51368000  0.36220000  0.39593000  1.0
  O  O78  1  0.51368000  0.13780000  0.89593000  1.0
  O  O79  1  0.48632000  0.63781000  0.60406000  1.0
  O  O80  1  0.31200000  0.96762000  0.14525000  1.0
  O  O81  1  0.68801000  0.46761000  0.35476000  1.0
  O  O82  1  0.68801000  0.03239000  0.85476000  1.0
  O  O83  1  0.31201000  0.53238000  0.64525000  1.0
  O  O84  1  0.48712000  0.62941000  0.39482000  1.0
  O  O85  1  0.51289000  0.12942000  0.10516000  1.0
  O  O86  1  0.51289000  0.37058000  0.60516000  1.0
  O  O87  1  0.48712000  0.87058000  0.89482000  1.0
  O  O88  1  0.31326000  0.52407000  0.44967000  1.0
  O  O89  1  0.68674000  0.02406000  0.05034000  1.0
  O  O90  1  0.68674000  0.47594000  0.55034000  1.0
  O  O91  1  0.31326000  0.97592000  0.94967000  1.0
