# generated using pymatgen
data_CdH8C12S2N2O3
_symmetry_space_group_name_H-M   'P 1'
_cell_length_a   6.50180000
_cell_length_b   9.16312000
_cell_length_c   10.62330000
_cell_angle_alpha   76.37550000
_cell_angle_beta   82.44310000
_cell_angle_gamma   83.07240000
_symmetry_Int_Tables_number   1
_chemical_formula_structural   CdH8C12S2N2O3
_chemical_formula_sum   'Cd2 H16 C24 S4 N4 O6'
_cell_volume   607.10520004
_cell_formula_units_Z   2
loop_
 _symmetry_equiv_pos_site_id
 _symmetry_equiv_pos_as_xyz
  1  'x, y, z'
loop_
 _atom_site_type_symbol
 _atom_site_label
 _atom_site_symmetry_multiplicity
 _atom_site_fract_x
 _atom_site_fract_y
 _atom_site_fract_z
 _atom_site_occupancy
  Cd  Cd0  1  0.69760000  0.35688000  0.68952000  1.0
  Cd  Cd1  1  0.30240000  0.64313000  0.31048000  1.0
  H  H2  1  0.70579000  0.18401000  0.45461000  1.0
  H  H3  1  0.29420000  0.81599000  0.54539000  1.0
  H  H4  1  0.74839000  0.91704000  0.41976000  1.0
  H  H5  1  0.25161000  0.08296000  0.58024000  1.0
  H  H6  1  0.81175000  0.70401000  0.60597000  1.0
  H  H7  1  0.18826000  0.29599000  0.39403000  1.0
  H  H8  1  0.85023000  0.61381000  0.84596000  1.0
  H  H9  1  0.14977000  0.38619000  0.15404000  1.0
  H  H10  1  0.82236000  0.67134000  0.06534000  1.0
  H  H11  1  0.17764000  0.32866000  0.93466000  1.0
  H  H12  1  0.75902000  0.86154000  0.20423000  1.0
  H  H13  1  0.24098000  0.13845000  0.79576000  1.0
  H  H14  1  0.70014000  0.13644000  0.21610000  1.0
  H  H15  1  0.29986000  0.86355000  0.78390000  1.0
  H  H16  1  0.68092000  0.33253000  0.01122000  1.0
  H  H17  1  0.31907000  0.66747000  0.98879000  1.0
  C  C18  1  0.73159000  0.08622000  0.53434000  1.0
  C  C19  1  0.26842000  0.91378000  0.46566000  1.0
  C  C20  1  0.75602000  0.93836000  0.51542000  1.0
  C  C21  1  0.24398000  0.06165000  0.48458000  1.0
  C  C22  1  0.78973000  0.81898000  0.61971000  1.0
  C  C23  1  0.21027000  0.18102000  0.38029000  1.0
  C  C24  1  0.79425000  0.84743000  0.74440000  1.0
  C  C25  1  0.20575000  0.15257000  0.25559000  1.0
  C  C26  1  0.81950000  0.72956000  0.85829000  1.0
  C  C27  1  0.18050000  0.27044000  0.14170000  1.0
  C  C28  1  0.80653000  0.76155000  0.97858000  1.0
  C  C29  1  0.19347000  0.23845000  0.02141000  1.0
  C  C30  1  0.77141000  0.91399000  0.99377000  1.0
  C  C31  1  0.22860000  0.08601000  0.00623000  1.0
  C  C32  1  0.75092000  0.95183000  0.11667000  1.0
  C  C33  1  0.24908000  0.04816000  0.88333000  1.0
  C  C34  1  0.71766000  0.10164000  0.12381000  1.0
  C  C35  1  0.28233000  0.89835000  0.87619000  1.0
  C  C36  1  0.70660000  0.21336000  0.00823000  1.0
  C  C37  1  0.29340000  0.78663000  0.99177000  1.0
  C  C38  1  0.75496000  0.03437000  0.88231000  1.0
  C  C39  1  0.24504000  0.96563000  0.11768000  1.0
  C  C40  1  0.76481000  0.00040000  0.75534000  1.0
  C  C41  1  0.23519000  0.99960000  0.24466000  1.0
  S  S42  1  0.40554000  0.54535000  0.74517000  1.0
  S  S43  1  0.59446000  0.45464000  0.25483000  1.0
  S  S44  1  0.20896000  0.46534000  0.64366000  1.0
  S  S45  1  0.79104000  0.53466000  0.35635000  1.0
  N  N46  1  0.73781000  0.11578000  0.65059000  1.0
  N  N47  1  0.26219000  0.88422000  0.34941000  1.0
  N  N48  1  0.72462000  0.18067000  0.89155000  1.0
  N  N49  1  0.27537000  0.81934000  0.10845000  1.0
  O  O50  1  0.31475000  0.32623000  0.61042000  1.0
  O  O51  1  0.68525000  0.67377000  0.38958000  1.0
  O  O52  1  0.16621000  0.58623000  0.52764000  1.0
  O  O53  1  0.83379000  0.41377000  0.47236000  1.0
  O  O54  1  0.01282000  0.43823000  0.73224000  1.0
  O  O55  1  0.98718000  0.56178000  0.26775000  1.0
