# generated using pymatgen
data_CuH6C8(N2O)2
_symmetry_space_group_name_H-M   'P 1'
_cell_length_a   15.73640000
_cell_length_b   15.73620000
_cell_length_c   15.73620000
_cell_angle_alpha   94.40780000
_cell_angle_beta   94.40860000
_cell_angle_gamma   94.40890000
_symmetry_Int_Tables_number   1
_chemical_formula_structural   CuH6C8(N2O)2
_chemical_formula_sum   'Cu12 H72 C96 N48 O24'
_cell_volume   3860.29743375
_cell_formula_units_Z   12
loop_
 _symmetry_equiv_pos_site_id
 _symmetry_equiv_pos_as_xyz
  1  'x, y, z'
loop_
 _atom_site_type_symbol
 _atom_site_label
 _atom_site_symmetry_multiplicity
 _atom_site_fract_x
 _atom_site_fract_y
 _atom_site_fract_z
 _atom_site_occupancy
  Cu  Cu0  1  0.26210000  0.73789000  0.50000000  1.0
  Cu  Cu1  1  0.73790000  0.50000000  0.26211000  1.0
  Cu  Cu2  1  0.50000000  0.26211000  0.73789000  1.0
  Cu  Cu3  1  0.73790000  0.26211000  0.50000000  1.0
  Cu  Cu4  1  0.26210000  0.50000000  0.73789000  1.0
  Cu  Cu5  1  0.50000000  0.73789000  0.26211000  1.0
  Cu  Cu6  1  0.00000000  0.75549000  0.24451000  1.0
  Cu  Cu7  1  0.75551000  0.24453000  0.00001000  1.0
  Cu  Cu8  1  0.24449000  0.99999000  0.75547000  1.0
  Cu  Cu9  1  0.00000000  0.24451000  0.75549000  1.0
  Cu  Cu10  1  0.24449000  0.75547000  0.99999000  1.0
  Cu  Cu11  1  0.75551000  0.00001000  0.24453000  1.0
  H  H12  1  0.05338000  0.57450000  0.24133000  1.0
  H  H13  1  0.44283000  0.77834000  0.59026000  1.0
  H  H14  1  0.09538000  0.93309000  0.24810000  1.0
  H  H15  1  0.30154000  0.91620000  0.44435000  1.0
  H  H16  1  0.22479000  0.00716000  0.33984000  1.0
  H  H17  1  0.57455000  0.24132000  0.05340000  1.0
  H  H18  1  0.77836000  0.59027000  0.44283000  1.0
  H  H19  1  0.93313000  0.24812000  0.09540000  1.0
  H  H20  1  0.91620000  0.44435000  0.30157000  1.0
  H  H21  1  0.00717000  0.33985000  0.22482000  1.0
  H  H22  1  0.24128000  0.05338000  0.57448000  1.0
  H  H23  1  0.59026000  0.44285000  0.77833000  1.0
  H  H24  1  0.24808000  0.09538000  0.93306000  1.0
  H  H25  1  0.44432000  0.30156000  0.91616000  1.0
  H  H26  1  0.33981000  0.22481000  0.00712000  1.0
  H  H27  1  0.94662000  0.75868000  0.42550000  1.0
  H  H28  1  0.55717000  0.40974000  0.22166000  1.0
  H  H29  1  0.90462000  0.75191000  0.06691000  1.0
  H  H30  1  0.69846000  0.55566000  0.08380000  1.0
  H  H31  1  0.77521000  0.66016000  0.99284000  1.0
  H  H32  1  0.42545000  0.94660000  0.75867000  1.0
  H  H33  1  0.22164000  0.55717000  0.40973000  1.0
  H  H34  1  0.06687000  0.90460000  0.75188000  1.0
  H  H35  1  0.08380000  0.69843000  0.55565000  1.0
  H  H36  1  0.99282000  0.77518000  0.66015000  1.0
  H  H37  1  0.75872000  0.42552000  0.94662000  1.0
  H  H38  1  0.40974000  0.22167000  0.55715000  1.0
  H  H39  1  0.75191000  0.06694000  0.90461000  1.0
  H  H40  1  0.55568000  0.08384000  0.69844000  1.0
  H  H41  1  0.66019000  0.99288000  0.77519000  1.0
  H  H42  1  0.94662000  0.42550000  0.75868000  1.0
  H  H43  1  0.55717000  0.22165000  0.40974000  1.0
  H  H44  1  0.90462000  0.06691000  0.75190000  1.0
  H  H45  1  0.69846000  0.08380000  0.55565000  1.0
  H  H46  1  0.77521000  0.99284000  0.66016000  1.0
  H  H47  1  0.42545000  0.75867000  0.94660000  1.0
  H  H48  1  0.22164000  0.40973000  0.55717000  1.0
  H  H49  1  0.06687000  0.75188000  0.90460000  1.0
  H  H50  1  0.08380000  0.55565000  0.69843000  1.0
  H  H51  1  0.99283000  0.66015000  0.77518000  1.0
  H  H52  1  0.75872000  0.94662000  0.42552000  1.0
  H  H53  1  0.40974000  0.55715000  0.22167000  1.0
  H  H54  1  0.75192000  0.90462000  0.06694000  1.0
  H  H55  1  0.55568000  0.69844000  0.08384000  1.0
  H  H56  1  0.66020000  0.77519000  0.99288000  1.0
  H  H57  1  0.05337000  0.24132000  0.57450000  1.0
  H  H58  1  0.44283000  0.59026000  0.77834000  1.0
  H  H59  1  0.09538000  0.24809000  0.93309000  1.0
  H  H60  1  0.30154000  0.44434000  0.91620000  1.0
  H  H61  1  0.22479000  0.33984000  0.00716000  1.0
  H  H62  1  0.57455000  0.05340000  0.24133000  1.0
  H  H63  1  0.77836000  0.44283000  0.59027000  1.0
  H  H64  1  0.93313000  0.09540000  0.24812000  1.0
  H  H65  1  0.91620000  0.30157000  0.44435000  1.0
  H  H66  1  0.00718000  0.22482000  0.33985000  1.0
  H  H67  1  0.24128000  0.57448000  0.05338000  1.0
  H  H68  1  0.59026000  0.77833000  0.44285000  1.0
  H  H69  1  0.24808000  0.93306000  0.09539000  1.0
  H  H70  1  0.44432000  0.91616000  0.30156000  1.0
  H  H71  1  0.33981000  0.00712000  0.22481000  1.0
  H  H72  1  0.15559000  0.49084000  0.15562000  1.0
  H  H73  1  0.49089000  0.15563000  0.15563000  1.0
  H  H74  1  0.15559000  0.15561000  0.49083000  1.0
  H  H75  1  0.84441000  0.84439000  0.50917000  1.0
  H  H76  1  0.50911000  0.84437000  0.84437000  1.0
  H  H77  1  0.84441000  0.50917000  0.84438000  1.0
  H  H78  1  0.52440000  0.71198000  0.71198000  1.0
  H  H79  1  0.71200000  0.71199000  0.52440000  1.0
  H  H80  1  0.71200000  0.52440000  0.71199000  1.0
  H  H81  1  0.47560000  0.28802000  0.28802000  1.0
  H  H82  1  0.28800000  0.47560000  0.28802000  1.0
  H  H83  1  0.28800000  0.28802000  0.47560000  1.0
  C  C84  1  0.08990000  0.60259000  0.19263000  1.0
  C  C85  1  0.41597000  0.72335000  0.62057000  1.0
  C  C86  1  0.13009000  0.90167000  0.29800000  1.0
  C  C87  1  0.24305000  0.89251000  0.40505000  1.0
  C  C88  1  0.13855000  0.77609000  0.37081000  1.0
  C  C89  1  0.20121000  0.94178000  0.34768000  1.0
  C  C90  1  0.60263000  0.19262000  0.08992000  1.0
  C  C91  1  0.72336000  0.62058000  0.41597000  1.0
  C  C92  1  0.90170000  0.29801000  0.13011000  1.0
  C  C93  1  0.89252000  0.40506000  0.24308000  1.0
  C  C94  1  0.77611000  0.37081000  0.13857000  1.0
  C  C95  1  0.94179000  0.34768000  0.20124000  1.0
  C  C96  1  0.19259000  0.08991000  0.60257000  1.0
  C  C97  1  0.62057000  0.41598000  0.72335000  1.0
  C  C98  1  0.29799000  0.13009000  0.90164000  1.0
  C  C99  1  0.40503000  0.24306000  0.89247000  1.0
  C  C100  1  0.37080000  0.13854000  0.77606000  1.0
  C  C101  1  0.34766000  0.20121000  0.94174000  1.0
  C  C102  1  0.91009000  0.80738000  0.39742000  1.0
  C  C103  1  0.58403000  0.37943000  0.27665000  1.0
  C  C104  1  0.86991000  0.70200000  0.09833000  1.0
  C  C105  1  0.75695000  0.59495000  0.10749000  1.0
  C  C106  1  0.86145000  0.62919000  0.22391000  1.0
  C  C107  1  0.79879000  0.65233000  0.05823000  1.0
  C  C108  1  0.39737000  0.91008000  0.80738000  1.0
  C  C109  1  0.27664000  0.58403000  0.37943000  1.0
  C  C110  1  0.09830000  0.86989000  0.70199000  1.0
  C  C111  1  0.10748000  0.75692000  0.59494000  1.0
  C  C112  1  0.22389000  0.86143000  0.62919000  1.0
  C  C113  1  0.05821000  0.79876000  0.65232000  1.0
  C  C114  1  0.80741000  0.39742000  0.91009000  1.0
  C  C115  1  0.37942000  0.27665000  0.58402000  1.0
  C  C116  1  0.70201000  0.09836000  0.86991000  1.0
  C  C117  1  0.59496000  0.10753000  0.75694000  1.0
  C  C118  1  0.62920000  0.22394000  0.86146000  1.0
  C  C119  1  0.65234000  0.05826000  0.79878000  1.0
  C  C120  1  0.91009000  0.39741000  0.80738000  1.0
  C  C121  1  0.58403000  0.27665000  0.37943000  1.0
  C  C122  1  0.86991000  0.09833000  0.70200000  1.0
  C  C123  1  0.75695000  0.10749000  0.59495000  1.0
  C  C124  1  0.86145000  0.22391000  0.62919000  1.0
  C  C125  1  0.79879000  0.05822000  0.65232000  1.0
  C  C126  1  0.39737000  0.80738000  0.91008000  1.0
  C  C127  1  0.27664000  0.37942000  0.58403000  1.0
  C  C128  1  0.09830000  0.70199000  0.86988000  1.0
  C  C129  1  0.10748000  0.59494000  0.75692000  1.0
  C  C130  1  0.22389000  0.62919000  0.86143000  1.0
  C  C131  1  0.05821000  0.65232000  0.79876000  1.0
  C  C132  1  0.80741000  0.91009000  0.39743000  1.0
  C  C133  1  0.37943000  0.58402000  0.27665000  1.0
  C  C134  1  0.70201000  0.86991000  0.09836000  1.0
  C  C135  1  0.59497000  0.75694000  0.10753000  1.0
  C  C136  1  0.62920000  0.86146000  0.22394000  1.0
  C  C137  1  0.65234000  0.79879000  0.05826000  1.0
  C  C138  1  0.08991000  0.19262000  0.60258000  1.0
  C  C139  1  0.41597000  0.62057000  0.72335000  1.0
  C  C140  1  0.13009000  0.29800000  0.90167000  1.0
  C  C141  1  0.24305000  0.40505000  0.89251000  1.0
  C  C142  1  0.13855000  0.37081000  0.77609000  1.0
  C  C143  1  0.20121000  0.34767000  0.94177000  1.0
  C  C144  1  0.60263000  0.08992000  0.19262000  1.0
  C  C145  1  0.72336000  0.41597000  0.62057000  1.0
  C  C146  1  0.90170000  0.13012000  0.29801000  1.0
  C  C147  1  0.89252000  0.24308000  0.40506000  1.0
  C  C148  1  0.77611000  0.13857000  0.37081000  1.0
  C  C149  1  0.94179000  0.20125000  0.34768000  1.0
  C  C150  1  0.19259000  0.60258000  0.08992000  1.0
  C  C151  1  0.62058000  0.72335000  0.41598000  1.0
  C  C152  1  0.29799000  0.90164000  0.13009000  1.0
  C  C153  1  0.40504000  0.89247000  0.24306000  1.0
  C  C154  1  0.37080000  0.77606000  0.13854000  1.0
  C  C155  1  0.34766000  0.94174000  0.20122000  1.0
  C  C156  1  0.11895000  0.72594000  0.11897000  1.0
  C  C157  1  0.14628000  0.55727000  0.14630000  1.0
  C  C158  1  0.72598000  0.11896000  0.11896000  1.0
  C  C159  1  0.55732000  0.14631000  0.14631000  1.0
  C  C160  1  0.11895000  0.11896000  0.72593000  1.0
  C  C161  1  0.14628000  0.14630000  0.55727000  1.0
  C  C162  1  0.88105000  0.88104000  0.27407000  1.0
  C  C163  1  0.85372000  0.85370000  0.44273000  1.0
  C  C164  1  0.27402000  0.88104000  0.88104000  1.0
  C  C165  1  0.44268000  0.85369000  0.85369000  1.0
  C  C166  1  0.88105000  0.27406000  0.88103000  1.0
  C  C167  1  0.85372000  0.44273000  0.85370000  1.0
  C  C168  1  0.29734000  0.62175000  0.62175000  1.0
  C  C169  1  0.46005000  0.68733000  0.68733000  1.0
  C  C170  1  0.62176000  0.62175000  0.29735000  1.0
  C  C171  1  0.68735000  0.68734000  0.46005000  1.0
  C  C172  1  0.62176000  0.29735000  0.62175000  1.0
  C  C173  1  0.68735000  0.46005000  0.68734000  1.0
  C  C174  1  0.70266000  0.37825000  0.37825000  1.0
  C  C175  1  0.53995000  0.31266000  0.31267000  1.0
  C  C176  1  0.37824000  0.70265000  0.37825000  1.0
  C  C177  1  0.31265000  0.53995000  0.31266000  1.0
  C  C178  1  0.37824000  0.37825000  0.70265000  1.0
  C  C179  1  0.31265000  0.31266000  0.53995000  1.0
  N  N180  1  0.07774000  0.68385000  0.18066000  1.0
  N  N181  1  0.33732000  0.69267000  0.59005000  1.0
  N  N182  1  0.21376000  0.81243000  0.41509000  1.0
  N  N183  1  0.10086000  0.82164000  0.30804000  1.0
  N  N184  1  0.68389000  0.18065000  0.07775000  1.0
  N  N185  1  0.69267000  0.59005000  0.33732000  1.0
  N  N186  1  0.81244000  0.41509000  0.21377000  1.0
  N  N187  1  0.82167000  0.30805000  0.10087000  1.0
  N  N188  1  0.18064000  0.07774000  0.68384000  1.0
  N  N189  1  0.59005000  0.33733000  0.69267000  1.0
  N  N190  1  0.41508000  0.21375000  0.81240000  1.0
  N  N191  1  0.30804000  0.10085000  0.82161000  1.0
  N  N192  1  0.92226000  0.81934000  0.31615000  1.0
  N  N193  1  0.66268000  0.40995000  0.30733000  1.0
  N  N194  1  0.78624000  0.58492000  0.18757000  1.0
  N  N195  1  0.89914000  0.69196000  0.17836000  1.0
  N  N196  1  0.31611000  0.92225000  0.81935000  1.0
  N  N197  1  0.30733000  0.66268000  0.40995000  1.0
  N  N198  1  0.18755000  0.78623000  0.58491000  1.0
  N  N199  1  0.17833000  0.89913000  0.69195000  1.0
  N  N200  1  0.81937000  0.31616000  0.92226000  1.0
  N  N201  1  0.40995000  0.30733000  0.66267000  1.0
  N  N202  1  0.58492000  0.18760000  0.78625000  1.0
  N  N203  1  0.69196000  0.17839000  0.89915000  1.0
  N  N204  1  0.92226000  0.31615000  0.81934000  1.0
  N  N205  1  0.66268000  0.30733000  0.40996000  1.0
  N  N206  1  0.78624000  0.18757000  0.58491000  1.0
  N  N207  1  0.89914000  0.17836000  0.69196000  1.0
  N  N208  1  0.31611000  0.81935000  0.92225000  1.0
  N  N209  1  0.30733000  0.40995000  0.66268000  1.0
  N  N210  1  0.18755000  0.58491000  0.78623000  1.0
  N  N211  1  0.17833000  0.69195000  0.89913000  1.0
  N  N212  1  0.81936000  0.92225000  0.31616000  1.0
  N  N213  1  0.40995000  0.66267000  0.30733000  1.0
  N  N214  1  0.58492000  0.78625000  0.18760000  1.0
  N  N215  1  0.69197000  0.89915000  0.17839000  1.0
  N  N216  1  0.07774000  0.18065000  0.68385000  1.0
  N  N217  1  0.33732000  0.59004000  0.69267000  1.0
  N  N218  1  0.21376000  0.41508000  0.81243000  1.0
  N  N219  1  0.10086000  0.30804000  0.82164000  1.0
  N  N220  1  0.68389000  0.07775000  0.18065000  1.0
  N  N221  1  0.69267000  0.33732000  0.59005000  1.0
  N  N222  1  0.81245000  0.21377000  0.41509000  1.0
  N  N223  1  0.82167000  0.10087000  0.30805000  1.0
  N  N224  1  0.18063000  0.68384000  0.07775000  1.0
  N  N225  1  0.59005000  0.69267000  0.33733000  1.0
  N  N226  1  0.41508000  0.81240000  0.21375000  1.0
  N  N227  1  0.30804000  0.82161000  0.10085000  1.0
  O  O228  1  0.10591000  0.70488000  0.38671000  1.0
  O  O229  1  0.70490000  0.38669000  0.10592000  1.0
  O  O230  1  0.38671000  0.10590000  0.70485000  1.0
  O  O231  1  0.89409000  0.61330000  0.29512000  1.0
  O  O232  1  0.29510000  0.89408000  0.61331000  1.0
  O  O233  1  0.61329000  0.29515000  0.89410000  1.0
  O  O234  1  0.89409000  0.29512000  0.61329000  1.0
  O  O235  1  0.29510000  0.61331000  0.89408000  1.0
  O  O236  1  0.61329000  0.89410000  0.29515000  1.0
  O  O237  1  0.10591000  0.38670000  0.70488000  1.0
  O  O238  1  0.70490000  0.10592000  0.38669000  1.0
  O  O239  1  0.38671000  0.70485000  0.10590000  1.0
  O  O240  1  0.10143000  0.79879000  0.10143000  1.0
  O  O241  1  0.79882000  0.10142000  0.10142000  1.0
  O  O242  1  0.10143000  0.10143000  0.79879000  1.0
  O  O243  1  0.89857000  0.89857000  0.20121000  1.0
  O  O244  1  0.20118000  0.89858000  0.89858000  1.0
  O  O245  1  0.89857000  0.20121000  0.89857000  1.0
  O  O246  1  0.22696000  0.58821000  0.58821000  1.0
  O  O247  1  0.58822000  0.58822000  0.22696000  1.0
  O  O248  1  0.58822000  0.22696000  0.58822000  1.0
  O  O249  1  0.77304000  0.41179000  0.41178000  1.0
  O  O250  1  0.41178000  0.77304000  0.41178000  1.0
  O  O251  1  0.41178000  0.41178000  0.77304000  1.0
