# generated using pymatgen
data_CuH6C4(N3O)4
_symmetry_space_group_name_H-M   'P 1'
_cell_length_a   7.74204000
_cell_length_b   8.72471000
_cell_length_c   9.09355000
_cell_angle_alpha   89.99930000
_cell_angle_beta   89.99920000
_cell_angle_gamma   68.38000000
_symmetry_Int_Tables_number   1
_chemical_formula_structural   CuH6C4(N3O)4
_chemical_formula_sum   'Cu2 H12 C8 N24 O8'
_cell_volume   571.02927866
_cell_formula_units_Z   2
loop_
 _symmetry_equiv_pos_site_id
 _symmetry_equiv_pos_as_xyz
  1  'x, y, z'
loop_
 _atom_site_type_symbol
 _atom_site_label
 _atom_site_symmetry_multiplicity
 _atom_site_fract_x
 _atom_site_fract_y
 _atom_site_fract_z
 _atom_site_occupancy
  Cu  Cu0  1  0.00000000  0.00000000  0.00000000  1.0
  Cu  Cu1  1  0.50000000  0.00000000  0.50000000  1.0
  H  H2  1  0.07524000  0.66295000  0.52639000  1.0
  H  H3  1  0.42476000  0.33705000  0.02639000  1.0
  H  H4  1  0.92476000  0.33705000  0.47361000  1.0
  H  H5  1  0.57524000  0.66295000  0.97360000  1.0
  H  H6  1  0.19815000  0.73379000  0.39001000  1.0
  H  H7  1  0.30185000  0.26621000  0.89001000  1.0
  H  H8  1  0.80185000  0.26621000  0.60999000  1.0
  H  H9  1  0.69815000  0.73379000  0.10998000  1.0
  H  H10  1  0.03931000  0.63859000  0.33505000  1.0
  H  H11  1  0.46069000  0.36141000  0.83505000  1.0
  H  H12  1  0.96069000  0.36141000  0.66495000  1.0
  H  H13  1  0.53931000  0.63859000  0.16495000  1.0
  C  C14  1  0.14101000  0.64027000  0.41813000  1.0
  C  C15  1  0.35899000  0.35973000  0.91813000  1.0
  C  C16  1  0.85900000  0.35973000  0.58187000  1.0
  C  C17  1  0.64101000  0.64027000  0.08187000  1.0
  C  C18  1  0.53681000  0.28517000  0.36492000  1.0
  C  C19  1  0.96319000  0.71483000  0.86493000  1.0
  C  C20  1  0.46319000  0.71483000  0.63508000  1.0
  C  C21  1  0.03681000  0.28517000  0.13507000  1.0
  N  N22  1  0.29223000  0.48032000  0.42002000  1.0
  N  N23  1  0.20777000  0.51968000  0.92003000  1.0
  N  N24  1  0.70777000  0.51968000  0.57998000  1.0
  N  N25  1  0.79223000  0.48032000  0.07997000  1.0
  N  N26  1  0.28746000  0.35686000  0.50106000  1.0
  N  N27  1  0.21254000  0.64313000  0.00106000  1.0
  N  N28  1  0.71254000  0.64314000  0.49894000  1.0
  N  N29  1  0.78746000  0.35686000  0.99894000  1.0
  N  N30  1  0.44115000  0.44532000  0.33397000  1.0
  N  N31  1  0.05885000  0.55468000  0.83397000  1.0
  N  N32  1  0.55885000  0.55468000  0.66603000  1.0
  N  N33  1  0.94115000  0.44532000  0.16602000  1.0
  N  N34  1  0.80005000  0.05297000  0.33394000  1.0
  N  N35  1  0.69996000  0.94704000  0.83395000  1.0
  N  N36  1  0.19996000  0.94703000  0.66606000  1.0
  N  N37  1  0.30004000  0.05297000  0.16605000  1.0
  N  N38  1  0.70010000  0.20330000  0.29436000  1.0
  N  N39  1  0.79989000  0.79671000  0.79436000  1.0
  N  N40  1  0.29990000  0.79669000  0.70564000  1.0
  N  N41  1  0.20011000  0.20330000  0.20564000  1.0
  N  N42  1  0.44229000  0.23203000  0.46766000  1.0
  N  N43  1  0.05771000  0.76797000  0.96766000  1.0
  N  N44  1  0.55771000  0.76797000  0.53234000  1.0
  N  N45  1  0.94229000  0.23203000  0.03233000  1.0
  O  O46  1  0.95167000  0.98015000  0.26899000  1.0
  O  O47  1  0.54833000  0.01987000  0.76898000  1.0
  O  O48  1  0.04834000  0.01985000  0.73102000  1.0
  O  O49  1  0.45167000  0.98013000  0.23102000  1.0
  O  O50  1  0.75867000  0.97040000  0.43949000  1.0
  O  O51  1  0.74132000  0.02960000  0.93950000  1.0
  O  O52  1  0.24133000  0.02959000  0.56051000  1.0
  O  O53  1  0.25868000  0.97040000  0.06050000  1.0
