# generated using pymatgen
data_CdH27C27N4O5
_symmetry_space_group_name_H-M   'P 1'
_cell_length_a   8.51692000
_cell_length_b   10.56240000
_cell_length_c   14.48200000
_cell_angle_alpha   82.21530000
_cell_angle_beta   77.67510000
_cell_angle_gamma   85.73750000
_symmetry_Int_Tables_number   1
_chemical_formula_structural   CdH27C27N4O5
_chemical_formula_sum   'Cd2 H54 C54 N8 O10'
_cell_volume   1259.64404881
_cell_formula_units_Z   2
loop_
 _symmetry_equiv_pos_site_id
 _symmetry_equiv_pos_as_xyz
  1  'x, y, z'
loop_
 _atom_site_type_symbol
 _atom_site_label
 _atom_site_symmetry_multiplicity
 _atom_site_fract_x
 _atom_site_fract_y
 _atom_site_fract_z
 _atom_site_occupancy
  Cd  Cd0  1  0.23738000  0.09316000  0.44739000  1.0
  Cd  Cd1  1  0.76262000  0.90684000  0.55261000  1.0
  H  H2  1  0.14230000  0.10859000  0.20616000  1.0
  H  H3  1  0.85770000  0.89140000  0.79384000  1.0
  H  H4  1  0.12518000  0.26575000  0.06247000  1.0
  H  H5  1  0.87482000  0.73425000  0.93753000  1.0
  H  H6  1  0.88100000  0.40466000  0.05551000  1.0
  H  H7  1  0.11900000  0.59534000  0.94449000  1.0
  H  H8  1  0.66512000  0.23567000  0.33715000  1.0
  H  H9  1  0.33488000  0.76433000  0.66285000  1.0
  H  H10  1  0.68342000  0.56468000  0.10197000  1.0
  H  H11  1  0.31658000  0.43532000  0.89803000  1.0
  H  H12  1  0.59009000  0.44714000  0.05777000  1.0
  H  H13  1  0.40991000  0.55285000  0.94223000  1.0
  H  H14  1  0.52200000  0.72548000  0.19418000  1.0
  H  H15  1  0.47800000  0.27453000  0.80582000  1.0
  H  H16  1  0.25651000  0.83834000  0.23913000  1.0
  H  H17  1  0.74349000  0.16166000  0.76087000  1.0
  H  H18  1  0.02752000  0.53397000  0.15552000  1.0
  H  H19  1  0.97248000  0.46603000  0.84448000  1.0
  H  H20  1  0.29268000  0.42072000  0.11164000  1.0
  H  H21  1  0.70733000  0.57929000  0.88835000  1.0
  H  H22  1  0.96981000  0.84724000  0.25754000  1.0
  H  H23  1  0.03019000  0.15276000  0.74246000  1.0
  H  H24  1  0.86902000  0.70624000  0.25563000  1.0
  H  H25  1  0.13098000  0.29376000  0.74437000  1.0
  H  H26  1  0.87513000  0.95939000  0.96415000  1.0
  H  H27  1  0.12487000  0.04061000  0.03585000  1.0
  H  H28  1  0.65642000  0.12510000  0.95296000  1.0
  H  H29  1  0.34358000  0.87490000  0.04704000  1.0
  H  H30  1  0.46105000  0.17784000  0.09984000  1.0
  H  H31  1  0.53895000  0.82215000  0.90016000  1.0
  H  H32  1  0.69281000  0.88622000  0.26786000  1.0
  H  H33  1  0.30719000  0.11378000  0.73214000  1.0
  H  H34  1  0.88991000  0.20358000  0.57742000  1.0
  H  H35  1  0.11009000  0.79642000  0.42258000  1.0
  H  H36  1  0.17842000  0.38196000  0.32688000  1.0
  H  H37  1  0.82158000  0.61804000  0.67312000  1.0
  H  H38  1  0.89675000  0.53149000  0.37248000  1.0
  H  H39  1  0.10325000  0.46851000  0.62752000  1.0
  H  H40  1  0.70071000  0.48253000  0.59312000  1.0
  H  H41  1  0.29929000  0.51747000  0.40688000  1.0
  H  H42  1  0.63130000  0.33276000  0.57953000  1.0
  H  H43  1  0.36870000  0.66724000  0.42047000  1.0
  H  H44  1  0.58517000  0.42806000  0.41614000  1.0
  H  H45  1  0.41482000  0.57194000  0.58386000  1.0
  H  H46  1  0.63649000  0.57920000  0.43927000  1.0
  H  H47  1  0.36351000  0.42080000  0.56073000  1.0
  H  H48  1  0.51574000  0.35867000  0.23807000  1.0
  H  H49  1  0.48426000  0.64133000  0.76193000  1.0
  H  H50  1  0.02042000  0.82432000  0.06696000  1.0
  H  H51  1  0.97958000  0.17568000  0.93304000  1.0
  H  H52  1  0.47609000  0.12132000  0.56461000  1.0
  H  H53  1  0.52391000  0.87868000  0.43539000  1.0
  H  H54  1  0.56801000  0.13548000  0.46098000  1.0
  H  H55  1  0.43199000  0.86452000  0.53902000  1.0
  C  C56  1  0.90301000  0.06580000  0.36640000  1.0
  C  C57  1  0.09699000  0.93419000  0.63360000  1.0
  C  C58  1  0.90268000  0.16126000  0.28024000  1.0
  C  C59  1  0.09732000  0.83874000  0.71976000  1.0
  C  C60  1  0.03486000  0.17020000  0.20302000  1.0
  C  C61  1  0.96514000  0.82980000  0.79698000  1.0
  C  C62  1  0.02489000  0.25915000  0.12384000  1.0
  C  C63  1  0.97511000  0.74085000  0.87616000  1.0
  C  C64  1  0.88711000  0.33919000  0.11983000  1.0
  C  C65  1  0.11289000  0.66081000  0.88017000  1.0
  C  C66  1  0.75550000  0.33140000  0.19772000  1.0
  C  C67  1  0.24450000  0.66860000  0.80228000  1.0
  C  C68  1  0.76685000  0.24180000  0.27717000  1.0
  C  C69  1  0.23315000  0.75820000  0.72283000  1.0
  C  C70  1  0.58660000  0.49621000  0.12117000  1.0
  C  C71  1  0.41340000  0.50379000  0.87883000  1.0
  C  C72  1  0.42618000  0.56671000  0.14773000  1.0
  C  C73  1  0.57382000  0.43329000  0.85227000  1.0
  C  C74  1  0.41368000  0.68289000  0.18578000  1.0
  C  C75  1  0.58632000  0.31712000  0.81422000  1.0
  C  C76  1  0.26404000  0.74677000  0.21087000  1.0
  C  C77  1  0.73596000  0.25323000  0.78913000  1.0
  C  C78  1  0.12423000  0.69514000  0.19832000  1.0
  C  C79  1  0.87578000  0.30486000  0.80167000  1.0
  C  C80  1  0.13601000  0.57672000  0.16339000  1.0
  C  C81  1  0.86399000  0.42328000  0.83660000  1.0
  C  C82  1  0.28537000  0.51322000  0.13842000  1.0
  C  C83  1  0.71463000  0.48678000  0.86158000  1.0
  C  C84  1  0.96480000  0.76907000  0.21486000  1.0
  C  C85  1  0.03520000  0.23093000  0.78514000  1.0
  C  C86  1  0.80254000  0.91114000  0.11702000  1.0
  C  C87  1  0.19747000  0.08886000  0.88298000  1.0
  C  C88  1  0.78859000  0.98036000  0.02820000  1.0
  C  C89  1  0.21141000  0.01964000  0.97180000  1.0
  C  C90  1  0.66602000  0.07392000  0.02221000  1.0
  C  C91  1  0.33398000  0.92608000  0.97779000  1.0
  C  C92  1  0.55577000  0.10333000  0.10360000  1.0
  C  C93  1  0.44423000  0.89668000  0.89640000  1.0
  C  C94  1  0.56699000  0.03371000  0.19138000  1.0
  C  C95  1  0.43301000  0.96629000  0.80862000  1.0
  C  C96  1  0.68752000  0.93739000  0.19808000  1.0
  C  C97  1  0.31248000  0.06261000  0.80192000  1.0
  C  C98  1  0.45204000  0.06232000  0.27980000  1.0
  C  C99  1  0.54796000  0.93768000  0.72020000  1.0
  C  C100  1  0.93270000  0.27385000  0.51701000  1.0
  C  C101  1  0.06730000  0.72615000  0.48299000  1.0
  C  C102  1  0.07888000  0.36991000  0.38749000  1.0
  C  C103  1  0.92112000  0.63009000  0.61251000  1.0
  C  C104  1  0.93898000  0.44328000  0.40847000  1.0
  C  C105  1  0.06102000  0.55671000  0.59153000  1.0
  C  C106  1  0.68779000  0.41994000  0.54061000  1.0
  C  C107  1  0.31221000  0.58006000  0.45939000  1.0
  C  C108  1  0.58552000  0.48731000  0.47302000  1.0
  C  C109  1  0.41448000  0.51269000  0.52698000  1.0
  N  N110  1  0.61467000  0.40707000  0.20229000  1.0
  N  N111  1  0.38533000  0.59293000  0.79771000  1.0
  N  N112  1  0.92500000  0.81870000  0.12296000  1.0
  N  N113  1  0.07500000  0.18130000  0.87705000  1.0
  N  N114  1  0.84783000  0.38071000  0.49021000  1.0
  N  N115  1  0.15217000  0.61929000  0.50979000  1.0
  N  N116  1  0.07371000  0.26524000  0.45618000  1.0
  N  N117  1  0.92629000  0.73475000  0.54382000  1.0
  O  O118  1  0.02943000  0.99972000  0.37725000  1.0
  O  O119  1  0.97057000  0.00027000  0.62275000  1.0
  O  O120  1  0.76764000  0.05485000  0.42703000  1.0
  O  O121  1  0.23236000  0.94514000  0.57297000  1.0
  O  O122  1  0.46626000  0.16543000  0.50103000  1.0
  O  O123  1  0.53374000  0.83457000  0.49897000  1.0
  O  O124  1  0.42335000  0.97140000  0.34957000  1.0
  O  O125  1  0.57665000  0.02860000  0.65043000  1.0
  O  O126  1  0.38417000  0.17321000  0.28511000  1.0
  O  O127  1  0.61583000  0.82679000  0.71489000  1.0
