# generated using pymatgen
data_ScH3(CO2)3
_symmetry_space_group_name_H-M   'P 1'
_cell_length_a   6.58832000
_cell_length_b   9.00763000
_cell_length_c   10.40870000
_cell_angle_alpha   98.44680000
_cell_angle_beta   89.99940000
_cell_angle_gamma   89.99980000
_symmetry_Int_Tables_number   1
_chemical_formula_structural   ScH3(CO2)3
_chemical_formula_sum   'Sc4 H12 C12 O24'
_cell_volume   611.00539827
_cell_formula_units_Z   4
loop_
 _symmetry_equiv_pos_site_id
 _symmetry_equiv_pos_as_xyz
  1  'x, y, z'
loop_
 _atom_site_type_symbol
 _atom_site_label
 _atom_site_symmetry_multiplicity
 _atom_site_fract_x
 _atom_site_fract_y
 _atom_site_fract_z
 _atom_site_occupancy
  Sc  Sc0  1  0.99998000  0.00001000  0.00001000  1.0
  Sc  Sc1  1  0.49999000  0.49999000  0.99999000  1.0
  Sc  Sc2  1  0.50000000  0.99999000  0.49999000  1.0
  Sc  Sc3  1  0.00001000  0.50000000  0.50000000  1.0
  H  H4  1  0.05122000  0.36202000  0.12540000  1.0
  H  H5  1  0.55121000  0.13797000  0.87460000  1.0
  H  H6  1  0.94878000  0.63799000  0.87460000  1.0
  H  H7  1  0.44877000  0.86199000  0.12539000  1.0
  H  H8  1  0.23981000  0.21624000  0.31735000  1.0
  H  H9  1  0.73983000  0.28375000  0.68266000  1.0
  H  H10  1  0.76019000  0.78375000  0.68265000  1.0
  H  H11  1  0.26022000  0.71625000  0.31737000  1.0
  H  H12  1  0.15566000  0.29840000  0.74738000  1.0
  H  H13  1  0.65564000  0.20162000  0.25263000  1.0
  H  H14  1  0.84438000  0.70162000  0.25262000  1.0
  H  H15  1  0.34435000  0.79840000  0.74738000  1.0
  C  C16  1  0.91524000  0.34609000  0.06321000  1.0
  C  C17  1  0.41524000  0.15391000  0.93679000  1.0
  C  C18  1  0.08475000  0.65393000  0.93680000  1.0
  C  C19  1  0.58474000  0.84606000  0.06319000  1.0
  C  C20  1  0.20536000  0.09619000  0.28703000  1.0
  C  C21  1  0.70537000  0.40380000  0.71297000  1.0
  C  C22  1  0.79463000  0.90381000  0.71297000  1.0
  C  C23  1  0.29465000  0.59620000  0.28703000  1.0
  C  C24  1  0.20523000  0.25037000  0.64838000  1.0
  C  C25  1  0.70521000  0.24964000  0.35163000  1.0
  C  C26  1  0.79480000  0.74964000  0.35162000  1.0
  C  C27  1  0.29479000  0.75037000  0.64838000  1.0
  O  O28  1  0.89082000  0.22063000  0.99169000  1.0
  O  O29  1  0.39082000  0.27936000  0.00832000  1.0
  O  O30  1  0.10917000  0.77938000  0.00833000  1.0
  O  O31  1  0.60915000  0.72062000  0.99165000  1.0
  O  O32  1  0.08875000  0.06226000  0.19086000  1.0
  O  O33  1  0.58875000  0.43773000  0.80913000  1.0
  O  O34  1  0.91123000  0.93774000  0.80915000  1.0
  O  O35  1  0.41123000  0.56227000  0.19085000  1.0
  O  O36  1  0.79332000  0.45575000  0.06779000  1.0
  O  O37  1  0.29329000  0.04425000  0.93221000  1.0
  O  O38  1  0.20668000  0.54426000  0.93221000  1.0
  O  O39  1  0.70666000  0.95573000  0.06778000  1.0
  O  O40  1  0.28238000  0.00023000  0.35056000  1.0
  O  O41  1  0.78239000  0.49977000  0.64944000  1.0
  O  O42  1  0.71761000  0.99977000  0.64944000  1.0
  O  O43  1  0.21762000  0.50023000  0.35055000  1.0
  O  O44  1  0.32210000  0.13803000  0.63808000  1.0
  O  O45  1  0.82210000  0.36198000  0.36192000  1.0
  O  O46  1  0.67792000  0.86197000  0.36192000  1.0
  O  O47  1  0.17790000  0.63803000  0.63808000  1.0
  O  O48  1  0.14289000  0.31119000  0.55323000  1.0
  O  O49  1  0.64289000  0.18882000  0.44678000  1.0
  O  O50  1  0.85714000  0.68882000  0.44677000  1.0
  O  O51  1  0.35714000  0.81118000  0.55323000  1.0
