# generated using pymatgen
data_Zn2H30C48S(N2O5)2
_symmetry_space_group_name_H-M   'P 1'
_cell_length_a   14.55210000
_cell_length_b   14.55210000
_cell_length_c   15.90800000
_cell_angle_alpha   99.97690000
_cell_angle_beta   99.97690000
_cell_angle_gamma   118.75300000
_symmetry_Int_Tables_number   1
_chemical_formula_structural   Zn2H30C48S(N2O5)2
_chemical_formula_sum   'Zn4 H60 C96 S2 N8 O20'
_cell_volume   2777.31015404
_cell_formula_units_Z   2
loop_
 _symmetry_equiv_pos_site_id
 _symmetry_equiv_pos_as_xyz
  1  'x, y, z'
loop_
 _atom_site_type_symbol
 _atom_site_label
 _atom_site_symmetry_multiplicity
 _atom_site_fract_x
 _atom_site_fract_y
 _atom_site_fract_z
 _atom_site_occupancy
  Zn  Zn0  1  0.89998000  0.86024000  0.07726000  1.0
  Zn  Zn1  1  0.86024000  0.89998000  0.57726000  1.0
  Zn  Zn2  1  0.73745000  0.73086000  0.86109000  1.0
  Zn  Zn3  1  0.73086000  0.73745000  0.36109000  1.0
  H  H4  1  0.19005000  0.18848000  0.34280000  1.0
  H  H5  1  0.18848000  0.19005000  0.84280000  1.0
  H  H6  1  0.07671000  0.08787000  0.18420000  1.0
  H  H7  1  0.08787000  0.07671000  0.68420000  1.0
  H  H8  1  0.93086000  0.78964000  0.23917000  1.0
  H  H9  1  0.78963000  0.93086000  0.73917000  1.0
  H  H10  1  0.03468000  0.87730000  0.40001000  1.0
  H  H11  1  0.87730000  0.03468000  0.90001000  1.0
  H  H12  1  0.17497000  0.03896000  0.52091000  1.0
  H  H13  1  0.03896000  0.17497000  0.02091000  1.0
  H  H14  1  0.20271000  0.25198000  0.48793000  1.0
  H  H15  1  0.25198000  0.20271000  0.98793000  1.0
  H  H16  1  0.38481000  0.22109000  0.81053000  1.0
  H  H17  1  0.22109000  0.38481000  0.31053000  1.0
  H  H18  1  0.30996000  0.13704000  0.64936000  1.0
  H  H19  1  0.13704000  0.30996000  0.14936000  1.0
  H  H20  1  0.42171000  0.35002000  0.94630000  1.0
  H  H21  1  0.35002000  0.42171000  0.44630000  1.0
  H  H22  1  0.43898000  0.56183000  0.91917000  1.0
  H  H23  1  0.56183000  0.43898000  0.41918000  1.0
  H  H24  1  0.58644000  0.72294000  0.03818000  1.0
  H  H25  1  0.72294000  0.58643000  0.53818000  1.0
  H  H26  1  0.69253000  0.80949000  0.20001000  1.0
  H  H27  1  0.80950000  0.69253000  0.70001000  1.0
  H  H28  1  0.55925000  0.50868000  0.25008000  1.0
  H  H29  1  0.50868000  0.55925000  0.75008000  1.0
  H  H30  1  0.44459000  0.40905000  0.09107000  1.0
  H  H31  1  0.40905000  0.44459000  0.59107000  1.0
  H  H32  1  0.19555000  0.99557000  0.02339000  1.0
  H  H33  1  0.99557000  0.19555000  0.52339000  1.0
  H  H34  1  0.36654000  0.06896000  0.97567000  1.0
  H  H35  1  0.06896000  0.36654000  0.47567000  1.0
  H  H36  1  0.17081000  0.88898000  0.70211000  1.0
  H  H37  1  0.88898000  0.17081000  0.20211000  1.0
  H  H38  1  0.99976000  0.81835000  0.74963000  1.0
  H  H39  1  0.81835000  0.99976000  0.24963000  1.0
  H  H40  1  0.56695000  0.08679000  0.79692000  1.0
  H  H41  1  0.08679000  0.56695000  0.29692000  1.0
  H  H42  1  0.67208000  0.99402000  0.81950000  1.0
  H  H43  1  0.99402000  0.67208000  0.31950000  1.0
  H  H44  1  0.39901000  0.73152000  0.86720000  1.0
  H  H45  1  0.73152000  0.39901000  0.36720000  1.0
  H  H46  1  0.29338000  0.82375000  0.84635000  1.0
  H  H47  1  0.82375000  0.29338000  0.34635000  1.0
  H  H48  1  0.62091000  0.42833000  0.87718000  1.0
  H  H49  1  0.42833000  0.62091000  0.37718000  1.0
  H  H50  1  0.54117000  0.23731000  0.89369000  1.0
  H  H51  1  0.23731000  0.54117000  0.39369000  1.0
  H  H52  1  0.72249000  0.37667000  0.17307000  1.0
  H  H53  1  0.37667000  0.72249000  0.67307000  1.0
  H  H54  1  0.80081000  0.56533000  0.15647000  1.0
  H  H55  1  0.56533000  0.80081000  0.65647000  1.0
  H  H56  1  0.77748000  0.27119000  0.01807000  1.0
  H  H57  1  0.27119000  0.77748000  0.51807000  1.0
  H  H58  1  0.88010000  0.17536000  0.02561000  1.0
  H  H59  1  0.17536000  0.88010000  0.52561000  1.0
  H  H60  1  0.61492000  0.90919000  0.07776000  1.0
  H  H61  1  0.90919000  0.61492000  0.57776000  1.0
  H  H62  1  0.51140000  0.00567000  0.07220000  1.0
  H  H63  1  0.00567000  0.51140000  0.57220000  1.0
  C  C64  1  0.12211000  0.04186000  0.38656000  1.0
  C  C65  1  0.04186000  0.12211000  0.88656000  1.0
  C  C66  1  0.13371000  0.10010000  0.32317000  1.0
  C  C67  1  0.10010000  0.13371000  0.82317000  1.0
  C  C68  1  0.07223000  0.04493000  0.23447000  1.0
  C  C69  1  0.04493000  0.07223000  0.73447000  1.0
  C  C70  1  0.99044000  0.87765000  0.26469000  1.0
  C  C71  1  0.87765000  0.99044000  0.76469000  1.0
  C  C72  1  0.04974000  0.92721000  0.35447000  1.0
  C  C73  1  0.92721000  0.04974000  0.85447000  1.0
  C  C74  1  0.17663000  0.09417000  0.48190000  1.0
  C  C75  1  0.09417000  0.17663000  0.98190000  1.0
  C  C76  1  0.21399000  0.19991000  0.52516000  1.0
  C  C77  1  0.19991000  0.21399000  0.02516000  1.0
  C  C78  1  0.26007000  0.24829000  0.62131000  1.0
  C  C79  1  0.24829000  0.26007000  0.12131000  1.0
  C  C80  1  0.25842000  0.34229000  0.66438000  1.0
  C  C81  1  0.34229000  0.25842000  0.16438000  1.0
  C  C82  1  0.30367000  0.39298000  0.76016000  1.0
  C  C83  1  0.39298000  0.30367000  0.26016000  1.0
  C  C84  1  0.35369000  0.35154000  0.81558000  1.0
  C  C85  1  0.35154000  0.35369000  0.31558000  1.0
  C  C86  1  0.35010000  0.25748000  0.77114000  1.0
  C  C87  1  0.25748000  0.35010000  0.27114000  1.0
  C  C88  1  0.30607000  0.20832000  0.67806000  1.0
  C  C89  1  0.20832000  0.30607000  0.17806000  1.0
  C  C90  1  0.40602000  0.40144000  0.91085000  1.0
  C  C91  1  0.40145000  0.40602000  0.41085000  1.0
  C  C92  1  0.44471000  0.50713000  0.95578000  1.0
  C  C93  1  0.50713000  0.44471000  0.45578000  1.0
  C  C94  1  0.50451000  0.55775000  0.05035000  1.0
  C  C95  1  0.55775000  0.50451000  0.55035000  1.0
  C  C96  1  0.57490000  0.67260000  0.08336000  1.0
  C  C97  1  0.67260000  0.57490000  0.58336000  1.0
  C  C98  1  0.63530000  0.72112000  0.17300000  1.0
  C  C99  1  0.72112000  0.63529000  0.67300000  1.0
  C  C100  1  0.56042000  0.55230000  0.20069000  1.0
  C  C101  1  0.55230000  0.56042000  0.70069000  1.0
  C  C102  1  0.49809000  0.49793000  0.11209000  1.0
  C  C103  1  0.49793000  0.49809000  0.61209000  1.0
  C  C104  1  0.98591000  0.85772000  0.91922000  1.0
  C  C105  1  0.85772000  0.98591000  0.41922000  1.0
  C  C106  1  0.08730000  0.90117000  0.88971000  1.0
  C  C107  1  0.90117000  0.08730000  0.38971000  1.0
  C  C108  1  0.19071000  0.97252000  0.95318000  1.0
  C  C109  1  0.97252000  0.19071000  0.45318000  1.0
  C  C110  1  0.28587000  0.01339000  0.92697000  1.0
  C  C111  1  0.01339000  0.28586000  0.42697000  1.0
  C  C112  1  0.27651000  0.98112000  0.83653000  1.0
  C  C113  1  0.98112000  0.27651000  0.33653000  1.0
  C  C114  1  0.17484000  0.91228000  0.77205000  1.0
  C  C115  1  0.91228000  0.17484000  0.27205000  1.0
  C  C116  1  0.08011000  0.87255000  0.79899000  1.0
  C  C117  1  0.87255000  0.08011000  0.29898000  1.0
  C  C118  1  0.42480000  0.96137000  0.82112000  1.0
  C  C119  1  0.96137000  0.42480000  0.32112000  1.0
  C  C120  1  0.53072000  0.00876000  0.81209000  1.0
  C  C121  1  0.00876000  0.53072000  0.31209000  1.0
  C  C122  1  0.58871000  0.95671000  0.82443000  1.0
  C  C123  1  0.95671000  0.58871000  0.32443000  1.0
  C  C124  1  0.54202000  0.85683000  0.84489000  1.0
  C  C125  1  0.85683000  0.54202000  0.34489000  1.0
  C  C126  1  0.43506000  0.80949000  0.85185000  1.0
  C  C127  1  0.80949000  0.43506000  0.35185000  1.0
  C  C128  1  0.37616000  0.86085000  0.84027000  1.0
  C  C129  1  0.86085000  0.37616000  0.34027000  1.0
  C  C130  1  0.60305000  0.80013000  0.85886000  1.0
  C  C131  1  0.80013000  0.60305000  0.35886000  1.0
  C  C132  1  0.75908000  0.62065000  0.00562000  1.0
  C  C133  1  0.62065000  0.75908000  0.50562000  1.0
  C  C134  1  0.71502000  0.50790000  0.01572000  1.0
  C  C135  1  0.50790000  0.71502000  0.51572000  1.0
  C  C136  1  0.64230000  0.41575000  0.94148000  1.0
  C  C137  1  0.41575000  0.64230000  0.44148000  1.0
  C  C138  1  0.59774000  0.31038000  0.95032000  1.0
  C  C139  1  0.31038000  0.59774000  0.45032000  1.0
  C  C140  1  0.62639000  0.29813000  0.03405000  1.0
  C  C141  1  0.29813000  0.62639000  0.53405000  1.0
  C  C142  1  0.69990000  0.38856000  0.10864000  1.0
  C  C143  1  0.38856000  0.69990000  0.60864000  1.0
  C  C144  1  0.74399000  0.49353000  0.09906000  1.0
  C  C145  1  0.49353000  0.74399000  0.59906000  1.0
  C  C146  1  0.63919000  0.14407000  0.04600000  1.0
  C  C147  1  0.14407000  0.63919000  0.54600000  1.0
  C  C148  1  0.74242000  0.19242000  0.03181000  1.0
  C  C149  1  0.19242000  0.74242000  0.53181000  1.0
  C  C150  1  0.79917000  0.13838000  0.03562000  1.0
  C  C151  1  0.13838000  0.79917000  0.53562000  1.0
  C  C152  1  0.75458000  0.03660000  0.05268000  1.0
  C  C153  1  0.03660000  0.75458000  0.55268000  1.0
  C  C154  1  0.65024000  0.98883000  0.06536000  1.0
  C  C155  1  0.98883000  0.65025000  0.56536000  1.0
  C  C156  1  0.59258000  0.04214000  0.06258000  1.0
  C  C157  1  0.04214000  0.59258000  0.56258000  1.0
  C  C158  1  0.82068000  0.98436000  0.05998000  1.0
  C  C159  1  0.98436000  0.82068000  0.55998000  1.0
  S  S160  1  0.22953000  0.49047000  0.69978000  1.0
  S  S161  1  0.49047000  0.22953000  0.19978000  1.0
  N  N162  1  0.00047000  0.93509000  0.20518000  1.0
  N  N163  1  0.93508000  0.00047000  0.70518000  1.0
  N  N164  1  0.21441000  0.39159000  0.62241000  1.0
  N  N165  1  0.39159000  0.21441000  0.12241000  1.0
  N  N166  1  0.29049000  0.47794000  0.78794000  1.0
  N  N167  1  0.47794000  0.29049000  0.28794000  1.0
  N  N168  1  0.62869000  0.66266000  0.23140000  1.0
  N  N169  1  0.66266000  0.62869000  0.73140000  1.0
  O  O170  1  0.00028000  0.88104000  0.00320000  1.0
  O  O171  1  0.88104000  0.00028000  0.50320000  1.0
  O  O172  1  0.89377000  0.80139000  0.85838000  1.0
  O  O173  1  0.80139000  0.89377000  0.35838000  1.0
  O  O174  1  0.37207000  0.01805000  0.80995000  1.0
  O  O175  1  0.01805000  0.37207000  0.30995000  1.0
  O  O176  1  0.70346000  0.84855000  0.85519000  1.0
  O  O177  1  0.84855000  0.70346000  0.35519000  1.0
  O  O178  1  0.55746000  0.70751000  0.87215000  1.0
  O  O179  1  0.70751000  0.55746000  0.37215000  1.0
  O  O180  1  0.83048000  0.70172000  0.07332000  1.0
  O  O181  1  0.70172000  0.83048000  0.57332000  1.0
  O  O182  1  0.72017000  0.62573000  0.92965000  1.0
  O  O183  1  0.62573000  0.72017000  0.42965000  1.0
  O  O184  1  0.57746000  0.19228000  0.04282000  1.0
  O  O185  1  0.19228000  0.57746000  0.54282000  1.0
  O  O186  1  0.92033000  0.03760000  0.06275000  1.0
  O  O187  1  0.03760000  0.92033000  0.56275000  1.0
  O  O188  1  0.77384000  0.88468000  0.06517000  1.0
  O  O189  1  0.88468000  0.77385000  0.56517000  1.0
