# generated using pymatgen
data_CdH35C24(N3O2)2
_symmetry_space_group_name_H-M   'P 1'
_cell_length_a   8.06618000
_cell_length_b   10.57530000
_cell_length_c   17.67130000
_cell_angle_alpha   105.13600000
_cell_angle_beta   92.87150000
_cell_angle_gamma   91.53130000
_symmetry_Int_Tables_number   1
_chemical_formula_structural   CdH35C24(N3O2)2
_chemical_formula_sum   'Cd2 H70 C48 N12 O8'
_cell_volume   1452.04226989
_cell_formula_units_Z   2
loop_
 _symmetry_equiv_pos_site_id
 _symmetry_equiv_pos_as_xyz
  1  'x, y, z'
loop_
 _atom_site_type_symbol
 _atom_site_label
 _atom_site_symmetry_multiplicity
 _atom_site_fract_x
 _atom_site_fract_y
 _atom_site_fract_z
 _atom_site_occupancy
  Cd  Cd0  1  0.47465000  0.00224000  0.23735000  1.0
  Cd  Cd1  1  0.52535000  0.99776000  0.76265000  1.0
  H  H2  1  0.58161000  0.46878000  0.29492000  1.0
  H  H3  1  0.41835000  0.53122000  0.70508000  1.0
  H  H4  1  0.79075000  0.43306000  0.27491000  1.0
  H  H5  1  0.20922000  0.56696000  0.72510000  1.0
  H  H6  1  0.50226000  0.41929000  0.15191000  1.0
  H  H7  1  0.49773000  0.58071000  0.84809000  1.0
  H  H8  1  0.65498000  0.54838000  0.18288000  1.0
  H  H9  1  0.34500000  0.45162000  0.81712000  1.0
  H  H10  1  0.71033000  0.26537000  0.09318000  1.0
  H  H11  1  0.28967000  0.73463000  0.90683000  1.0
  H  H12  1  0.87522000  0.37840000  0.13521000  1.0
  H  H13  1  0.12477000  0.62160000  0.86480000  1.0
  H  H14  1  0.60872000  0.42975000  0.01795000  1.0
  H  H15  1  0.39129000  0.57025000  0.98205000  1.0
  H  H16  1  0.79321000  0.52450000  0.05378000  1.0
  H  H17  1  0.20680000  0.47549000  0.94623000  1.0
  H  H18  1  0.95574000  0.32051000  0.99103000  1.0
  H  H19  1  0.04427000  0.67948000  0.00897000  1.0
  H  H20  1  0.76535000  0.24160000  0.94973000  1.0
  H  H21  1  0.23466000  0.75839000  0.05028000  1.0
  H  H22  1  0.92577000  0.48722000  0.91815000  1.0
  H  H23  1  0.07424000  0.51277000  0.08185000  1.0
  H  H24  1  0.72280000  0.42695000  0.88169000  1.0
  H  H25  1  0.27721000  0.57304000  0.11831000  1.0
  H  H26  1  0.94733000  0.35441000  0.78540000  1.0
  H  H27  1  0.05268000  0.64559000  0.21461000  1.0
  H  H28  1  0.02971000  0.25959000  0.84746000  1.0
  H  H29  1  0.97030000  0.74041000  0.15254000  1.0
  H  H30  1  0.57899000  0.69783000  0.10869000  1.0
  H  H31  1  0.42102000  0.30217000  0.89131000  1.0
  H  H32  1  0.73607000  0.68405000  0.96972000  1.0
  H  H33  1  0.26394000  0.31594000  0.03028000  1.0
  H  H34  1  0.62449000  0.07705000  0.07584000  1.0
  H  H35  1  0.37551000  0.92295000  0.92416000  1.0
  H  H36  1  0.73361000  0.02875000  0.93999000  1.0
  H  H37  1  0.26639000  0.97125000  0.06001000  1.0
  H  H38  1  0.75322000  0.86479000  0.88685000  1.0
  H  H39  1  0.24677000  0.13521000  0.11315000  1.0
  H  H40  1  0.02785000  0.85705000  0.95563000  1.0
  H  H41  1  0.97214000  0.14294000  0.04437000  1.0
  H  H42  1  0.02194000  0.99002000  0.91221000  1.0
  H  H43  1  0.97806000  0.00998000  0.08779000  1.0
  H  H44  1  0.54018000  0.00546000  0.43087000  1.0
  H  H45  1  0.45983000  0.99455000  0.56913000  1.0
  H  H46  1  0.45847000  0.20870000  0.55857000  1.0
  H  H47  1  0.54155000  0.79130000  0.44143000  1.0
  H  H48  1  0.25786000  0.27328000  0.34620000  1.0
  H  H49  1  0.74213000  0.72672000  0.65380000  1.0
  H  H50  1  0.22583000  0.39898000  0.55996000  1.0
  H  H51  1  0.77417000  0.60102000  0.44003000  1.0
  H  H52  1  0.20833000  0.44345000  0.46963000  1.0
  H  H53  1  0.79168000  0.55655000  0.53037000  1.0
  H  H54  1  0.40694000  0.59412000  0.56507000  1.0
  H  H55  1  0.59307000  0.40587000  0.43493000  1.0
  H  H56  1  0.52368000  0.46175000  0.57798000  1.0
  H  H57  1  0.47633000  0.53825000  0.42203000  1.0
  H  H58  1  0.58388000  0.71271000  0.27985000  1.0
  H  H59  1  0.41612000  0.28730000  0.72014000  1.0
  H  H60  1  0.89369000  0.67822000  0.35073000  1.0
  H  H61  1  0.10630000  0.32179000  0.64926000  1.0
  H  H62  1  0.87045000  0.06481000  0.32462000  1.0
  H  H63  1  0.12956000  0.93520000  0.67538000  1.0
  H  H64  1  0.17281000  0.83813000  0.37842000  1.0
  H  H65  1  0.82719000  0.16187000  0.62157000  1.0
  H  H66  1  0.13852000  0.00349000  0.38356000  1.0
  H  H67  1  0.86148000  0.99651000  0.61644000  1.0
  H  H68  1  0.00699000  0.85398000  0.49804000  1.0
  H  H69  1  0.99300000  0.14603000  0.50195000  1.0
  H  H70  1  0.17996000  0.96557000  0.51708000  1.0
  H  H71  1  0.82003000  0.03443000  0.48292000  1.0
  C  C72  1  0.62307000  0.26547000  0.25150000  1.0
  C  C73  1  0.37693000  0.73453000  0.74850000  1.0
  C  C74  1  0.66131000  0.40852000  0.25174000  1.0
  C  C75  1  0.33867000  0.59149000  0.74826000  1.0
  C  C76  1  0.63308000  0.44198000  0.17321000  1.0
  C  C77  1  0.36690000  0.55803000  0.82679000  1.0
  C  C78  1  0.74574000  0.37078000  0.11032000  1.0
  C  C79  1  0.25425000  0.62922000  0.88968000  1.0
  C  C80  1  0.73950000  0.42334000  0.03758000  1.0
  C  C81  1  0.26050000  0.57666000  0.96242000  1.0
  C  C82  1  0.82981000  0.33870000  0.96988000  1.0
  C  C83  1  0.17020000  0.66130000  0.03012000  1.0
  C  C84  1  0.84526000  0.39745000  0.90015000  1.0
  C  C85  1  0.15475000  0.60255000  0.09985000  1.0
  C  C86  1  0.91623000  0.30169000  0.82908000  1.0
  C  C87  1  0.08377000  0.69830000  0.17092000  1.0
  C  C88  1  0.78578000  0.19349000  0.79161000  1.0
  C  C89  1  0.21423000  0.80651000  0.20840000  1.0
  C  C90  1  0.61218000  0.77494000  0.08142000  1.0
  C  C91  1  0.38784000  0.22506000  0.91858000  1.0
  C  C92  1  0.69030000  0.76645000  0.01281000  1.0
  C  C93  1  0.30971000  0.23355000  0.98719000  1.0
  C  C94  1  0.63302000  0.97209000  0.06687000  1.0
  C  C95  1  0.36698000  0.02790000  0.93313000  1.0
  C  C96  1  0.78616000  0.93573000  0.94340000  1.0
  C  C97  1  0.21384000  0.06427000  0.05660000  1.0
  C  C98  1  0.97417000  0.95317000  0.96003000  1.0
  C  C99  1  0.02583000  0.04682000  0.03997000  1.0
  C  C100  1  0.46827000  0.09096000  0.43249000  1.0
  C  C101  1  0.53174000  0.90904000  0.56750000  1.0
  C  C102  1  0.43024000  0.19042000  0.49589000  1.0
  C  C103  1  0.56976000  0.80958000  0.50410000  1.0
  C  C104  1  0.32240000  0.22542000  0.38577000  1.0
  C  C105  1  0.67760000  0.77458000  0.61423000  1.0
  C  C106  1  0.29303000  0.40606000  0.50864000  1.0
  C  C107  1  0.70697000  0.59394000  0.49136000  1.0
  C  C108  1  0.44789000  0.49654000  0.53436000  1.0
  C  C109  1  0.55211000  0.50346000  0.46565000  1.0
  C  C110  1  0.69072000  0.77949000  0.30032000  1.0
  C  C111  1  0.30927000  0.22052000  0.69968000  1.0
  C  C112  1  0.84075000  0.76250000  0.33614000  1.0
  C  C113  1  0.15925000  0.23750000  0.66385000  1.0
  C  C114  1  0.83415000  0.96420000  0.32233000  1.0
  C  C115  1  0.16585000  0.03581000  0.67767000  1.0
  C  C116  1  0.08539000  0.91641000  0.39753000  1.0
  C  C117  1  0.91461000  0.08359000  0.60247000  1.0
  C  C118  1  0.05755000  0.94366000  0.48523000  1.0
  C  C119  1  0.94245000  0.05634000  0.51477000  1.0
  N  N120  1  0.57668000  0.90385000  0.11437000  1.0
  N  N121  1  0.42333000  0.09614000  0.88563000  1.0
  N  N122  1  0.70217000  0.89249000  0.00433000  1.0
  N  N123  1  0.29784000  0.10751000  0.99567000  1.0
  N  N124  1  0.40006000  0.11381000  0.36458000  1.0
  N  N125  1  0.59993000  0.88619000  0.63541000  1.0
  N  N126  1  0.33605000  0.27490000  0.46532000  1.0
  N  N127  1  0.66394000  0.72510000  0.53468000  1.0
  N  N128  1  0.68870000  0.90580000  0.29236000  1.0
  N  N129  1  0.31130000  0.09421000  0.70764000  1.0
  N  N130  1  0.93014000  0.88040000  0.34982000  1.0
  N  N131  1  0.06986000  0.11961000  0.65018000  1.0
  O  O132  1  0.71509000  0.21481000  0.29430000  1.0
  O  O133  1  0.28492000  0.78519000  0.70569000  1.0
  O  O134  1  0.49479000  0.20661000  0.20907000  1.0
  O  O135  1  0.50521000  0.79339000  0.79094000  1.0
  O  O136  1  0.79380000  0.08352000  0.80945000  1.0
  O  O137  1  0.20620000  0.91648000  0.19056000  1.0
  O  O138  1  0.66927000  0.21967000  0.74783000  1.0
  O  O139  1  0.33074000  0.78033000  0.25217000  1.0
