# generated using pymatgen
data_Al2H11C22S2N2ClO12
_symmetry_space_group_name_H-M   'P 1'
_cell_length_a   6.65120000
_cell_length_b   12.72849527
_cell_length_c   16.95250000
_cell_angle_alpha   91.37546399
_cell_angle_beta   97.49380000
_cell_angle_gamma   105.02500374
_symmetry_Int_Tables_number   1
_chemical_formula_structural   Al2H11C22S2N2ClO12
_chemical_formula_sum   'Al2 H11 C22 S2 N2 Cl1 O12'
_cell_volume   1371.78332789
_cell_formula_units_Z   1
loop_
 _symmetry_equiv_pos_site_id
 _symmetry_equiv_pos_as_xyz
  1  'x, y, z'
loop_
 _atom_site_type_symbol
 _atom_site_label
 _atom_site_symmetry_multiplicity
 _atom_site_fract_x
 _atom_site_fract_y
 _atom_site_fract_z
 _atom_site_occupancy
  Al  Al0  1  0.99806000  0.49732000  0.49902000  1.0
  Al  Al1  1  0.50016000  0.50065000  0.49929000  1.0
  H  H2  1  0.17059000  0.38012000  0.43333000  1.0
  H  H3  1  0.83653000  0.62611000  0.55163000  1.0
  H  H4  1  0.65631000  0.54439000  0.73804000  1.0
  H  H5  1  0.72221000  0.54773000  0.88687000  1.0
  H  H6  1  0.05295000  0.44487000  0.89162000  1.0
  H  H7  1  0.94642000  0.54178000  0.10572000  1.0
  H  H8  1  0.27817000  0.46932000  0.11072000  1.0
  H  H9  1  0.34166000  0.47063000  0.25905000  1.0
  H  H10  1  0.83849000  0.14428000  0.45070000  1.0
  H  H11  1  0.94950000  0.44509000  0.68055000  1.0
  H  H12  1  0.04573000  0.54196000  0.31717000  1.0
  C  C13  1  0.64367000  0.30421000  0.50273000  1.0
  C  C14  1  0.70841000  0.50291000  0.35415000  1.0
  C  C15  1  0.35245000  0.69428000  0.49908000  1.0
  C  C16  1  0.28796000  0.49498000  0.64330000  1.0
  C  C17  1  0.31941000  0.49458000  0.73067000  1.0
  C  C18  1  0.52593000  0.52368000  0.77254000  1.0
  C  C19  1  0.56343000  0.52499000  0.85454000  1.0
  C  C20  1  0.39017000  0.49551000  0.89714000  1.0
  C  C21  1  0.18425000  0.46707000  0.85752000  1.0
  C  C22  1  0.14603000  0.46638000  0.77418000  1.0
  C  C23  1  0.81481000  0.52556000  0.13986000  1.0
  C  C24  1  0.60976000  0.50542000  0.10018000  1.0
  C  C25  1  0.43636000  0.48466000  0.14294000  1.0
  C  C26  1  0.47264000  0.48477000  0.22490000  1.0
  C  C27  1  0.67812000  0.50484000  0.26682000  1.0
  C  C28  1  0.85161000  0.52573000  0.22320000  1.0
  C  C29  1  0.30368000  0.88488000  0.53205000  1.0
  C  C30  1  0.69354000  0.11544000  0.47610000  1.0
  C  C31  1  0.40611000  0.81358000  0.50173000  1.0
  C  C32  1  0.58641000  0.18499000  0.50412000  1.0
  C  C33  1  0.58834000  0.00578000  0.48500000  1.0
  C  C34  1  0.40588000  0.99470000  0.52151000  1.0
  S  S35  1  0.63001000  0.88128000  0.46247000  1.0
  S  S36  1  0.35954000  0.11853000  0.54249000  1.0
  N  N37  1  0.40716000  0.49232000  0.98107000  1.0
  N  N38  1  0.59363000  0.50813000  0.01617000  1.0
  Cl  Cl39  1  0.08836000  0.85057000  0.58076000  1.0
  O  O40  1  0.82685000  0.35029000  0.48640000  1.0
  O  O41  1  0.54850000  0.48277000  0.39074000  1.0
  O  O42  1  0.49514000  0.64949000  0.48333000  1.0
  O  O43  1  0.09557000  0.47284000  0.60752000  1.0
  O  O44  1  0.16892000  0.64448000  0.51249000  1.0
  O  O45  1  0.44781000  0.51826000  0.60677000  1.0
  O  O46  1  0.50517000  0.35239000  0.51714000  1.0
  O  O47  1  0.90032000  0.52047000  0.38980000  1.0
  O  O48  1  0.21323000  0.45074000  0.46212000  1.0
  O  O49  1  0.78724000  0.54905000  0.53524000  1.0
  O  O50  1  0.94402000  0.43854000  0.73894000  1.0
  O  O51  1  0.05279000  0.54613000  0.25864000  1.0
