# generated using pymatgen
data_ZnH8(C5O2)2
_symmetry_space_group_name_H-M   'P 1'
_cell_length_a   12.99320000
_cell_length_b   16.92410000
_cell_length_c   17.83920000
_cell_angle_alpha   83.17080000
_cell_angle_beta   71.95140000
_cell_angle_gamma   67.42780000
_symmetry_Int_Tables_number   1
_chemical_formula_structural   ZnH8(C5O2)2
_chemical_formula_sum   'Zn8 H64 C80 O32'
_cell_volume   3444.06861870
_cell_formula_units_Z   8
loop_
 _symmetry_equiv_pos_site_id
 _symmetry_equiv_pos_as_xyz
  1  'x, y, z'
loop_
 _atom_site_type_symbol
 _atom_site_label
 _atom_site_symmetry_multiplicity
 _atom_site_fract_x
 _atom_site_fract_y
 _atom_site_fract_z
 _atom_site_occupancy
  Zn  Zn0  1  0.10564000  0.78873000  0.74999000  1.0
  Zn  Zn1  1  0.89436000  0.21127000  0.25000000  1.0
  Zn  Zn2  1  0.61751000  0.76489000  0.74997000  1.0
  Zn  Zn3  1  0.38249000  0.23511000  0.25003000  1.0
  Zn  Zn4  1  0.88884000  0.72290000  0.76118000  1.0
  Zn  Zn5  1  0.38813000  0.72299000  0.73881000  1.0
  Zn  Zn6  1  0.11116000  0.27710000  0.23882000  1.0
  Zn  Zn7  1  0.61187000  0.27701000  0.26119000  1.0
  H  H8  1  0.11125000  0.49473000  0.55390000  1.0
  H  H9  1  0.39411000  0.49476000  0.94608000  1.0
  H  H10  1  0.88875000  0.50527000  0.44610000  1.0
  H  H11  1  0.60589000  0.50524000  0.05392000  1.0
  H  H12  1  0.27704000  0.68553000  0.62629000  1.0
  H  H13  1  0.03741000  0.68553000  0.87381000  1.0
  H  H14  1  0.72296000  0.31447000  0.37371000  1.0
  H  H15  1  0.96259000  0.31447000  0.12619000  1.0
  H  H16  1  0.39590000  0.58042000  0.51888000  1.0
  H  H17  1  0.02376000  0.58038000  0.98119000  1.0
  H  H18  1  0.60410000  0.41958000  0.48112000  1.0
  H  H19  1  0.97624000  0.41962000  0.01881000  1.0
  H  H20  1  0.42160000  0.47180000  0.43481000  1.0
  H  H21  1  0.10678000  0.47175000  0.06523000  1.0
  H  H22  1  0.57840000  0.52820000  0.56519000  1.0
  H  H23  1  0.89322000  0.52826000  0.93477000  1.0
  H  H24  1  0.22229000  0.40626000  0.46001000  1.0
  H  H25  1  0.37161000  0.40633000  0.04002000  1.0
  H  H26  1  0.77771000  0.59374000  0.53999000  1.0
  H  H27  1  0.62839000  0.59367000  0.95998000  1.0
  H  H28  1  0.91815000  0.54348000  0.60443000  1.0
  H  H29  1  0.53839000  0.54350000  0.89545000  1.0
  H  H30  1  0.08185000  0.45652000  0.39557000  1.0
  H  H31  1  0.46161000  0.45650000  0.10455000  1.0
  H  H32  1  0.83268000  0.56835000  0.70430000  1.0
  H  H33  1  0.59896000  0.56835000  0.79558000  1.0
  H  H34  1  0.16732000  0.43165000  0.29570000  1.0
  H  H35  1  0.40104000  0.43165000  0.20442000  1.0
  H  H36  1  0.97431000  0.48357000  0.68306000  1.0
  H  H37  1  0.54216000  0.48355000  0.81683000  1.0
  H  H38  1  0.02569000  0.51643000  0.31694000  1.0
  H  H39  1  0.45784000  0.51645000  0.18317000  1.0
  H  H40  1  0.61187000  0.99806000  0.54794000  1.0
  H  H41  1  0.39018000  0.99804000  0.95209000  1.0
  H  H42  1  0.38814000  0.00194000  0.45206000  1.0
  H  H43  1  0.60982000  0.00196000  0.04791000  1.0
  H  H44  1  0.96550000  0.81291000  0.62635000  1.0
  H  H45  1  0.22149000  0.81305000  0.87367000  1.0
  H  H46  1  0.03450000  0.18709000  0.37365000  1.0
  H  H47  1  0.77851000  0.18695000  0.12633000  1.0
  H  H48  1  0.98019000  0.91756000  0.51840000  1.0
  H  H49  1  0.10227000  0.91763000  0.98169000  1.0
  H  H50  1  0.01981000  0.08244000  0.48160000  1.0
  H  H51  1  0.89773000  0.08237000  0.01831000  1.0
  H  H52  1  0.89895000  0.02352000  0.43227000  1.0
  H  H53  1  0.07762000  0.02358000  0.06781000  1.0
  H  H54  1  0.10105000  0.97648000  0.56773000  1.0
  H  H55  1  0.92238000  0.97641000  0.93219000  1.0
  H  H56  1  0.63366000  0.09129000  0.45891000  1.0
  H  H57  1  0.27511000  0.09142000  0.04102000  1.0
  H  H58  1  0.36635000  0.90871000  0.54109000  1.0
  H  H59  1  0.72489000  0.90858000  0.95898000  1.0
  H  H60  1  0.46480000  0.01039000  0.67912000  1.0
  H  H61  1  0.52482000  0.01040000  0.82090000  1.0
  H  H62  1  0.53520000  0.98961000  0.32088000  1.0
  H  H63  1  0.47518000  0.98960000  0.17910000  1.0
  H  H64  1  0.40535000  0.92681000  0.69919000  1.0
  H  H65  1  0.66785000  0.92682000  0.80081000  1.0
  H  H66  1  0.59465000  0.07319000  0.30081000  1.0
  H  H67  1  0.33215000  0.07318000  0.19919000  1.0
  H  H68  1  0.46569000  0.95331000  0.59984000  1.0
  H  H69  1  0.58099000  0.95330000  0.90017000  1.0
  H  H70  1  0.53431000  0.04669000  0.40016000  1.0
  H  H71  1  0.41901000  0.04670000  0.09983000  1.0
  C  C72  1  0.26307000  0.52965000  0.52816000  1.0
  C  C73  1  0.20737000  0.52966000  0.97185000  1.0
  C  C74  1  0.73693000  0.47035000  0.47184000  1.0
  C  C75  1  0.79263000  0.47034000  0.02815000  1.0
  C  C76  1  0.14783000  0.53646000  0.56928000  1.0
  C  C77  1  0.31579000  0.53646000  0.93068000  1.0
  C  C78  1  0.85217000  0.46354000  0.43072000  1.0
  C  C79  1  0.68421000  0.46354000  0.06932000  1.0
  C  C80  1  0.08082000  0.59643000  0.62852000  1.0
  C  C81  1  0.32279000  0.59642000  0.87143000  1.0
  C  C82  1  0.91918000  0.40357000  0.37148000  1.0
  C  C83  1  0.67721000  0.40358000  0.12857000  1.0
  C  C84  1  0.12579000  0.65171000  0.65071000  1.0
  C  C85  1  0.22249000  0.65171000  0.84929000  1.0
  C  C86  1  0.87420000  0.34829000  0.34928000  1.0
  C  C87  1  0.77751000  0.34829000  0.15071000  1.0
  C  C88  1  0.24020000  0.64423000  0.61037000  1.0
  C  C89  1  0.11558000  0.64422000  0.88967000  1.0
  C  C90  1  0.75980000  0.35577000  0.38963000  1.0
  C  C91  1  0.88442000  0.35578000  0.11033000  1.0
  C  C92  1  0.30728000  0.58447000  0.55004000  1.0
  C  C93  1  0.10830000  0.58446000  0.95002000  1.0
  C  C94  1  0.69272000  0.41553000  0.44996000  1.0
  C  C95  1  0.89170000  0.41554000  0.04998000  1.0
  C  C96  1  0.33506000  0.46983000  0.46392000  1.0
  C  C97  1  0.19528000  0.46984000  0.03611000  1.0
  C  C98  1  0.66494000  0.53017000  0.53608000  1.0
  C  C99  1  0.80472000  0.53016000  0.96389000  1.0
  C  C100  1  0.30626000  0.41322000  0.43504000  1.0
  C  C101  1  0.28069000  0.41328000  0.06499000  1.0
  C  C102  1  0.69374000  0.58678000  0.56496000  1.0
  C  C103  1  0.71931000  0.58672000  0.93500000  1.0
  C  C104  1  0.38423000  0.35819000  0.36679000  1.0
  C  C105  1  0.25775000  0.35828000  0.13329000  1.0
  C  C106  1  0.61577000  0.64181000  0.63321000  1.0
  C  C107  1  0.74225000  0.64172000  0.86671000  1.0
  C  C108  1  0.92141000  0.54662000  0.66479000  1.0
  C  C109  1  0.53198000  0.54661000  0.83510000  1.0
  C  C110  1  0.07859000  0.45338000  0.33521000  1.0
  C  C111  1  0.46802000  0.45339000  0.16490000  1.0
  C  C112  1  0.79767000  0.96561000  0.52492000  1.0
  C  C113  1  0.23677000  0.96565000  0.97511000  1.0
  C  C114  1  0.20233000  0.03439000  0.47508000  1.0
  C  C115  1  0.76323000  0.03435000  0.02489000  1.0
  C  C116  1  0.68958000  0.95736000  0.56458000  1.0
  C  C117  1  0.35314000  0.95735000  0.93546000  1.0
  C  C118  1  0.31042000  0.04264000  0.43542000  1.0
  C  C119  1  0.64686000  0.04265000  0.06454000  1.0
  C  C120  1  0.68218000  0.89742000  0.62379000  1.0
  C  C121  1  0.42041000  0.89745000  0.87621000  1.0
  C  C122  1  0.31782000  0.10258000  0.37621000  1.0
  C  C123  1  0.57959000  0.10255000  0.12379000  1.0
  C  C124  1  0.78180000  0.84367000  0.64776000  1.0
  C  C125  1  0.37448000  0.84375000  0.85223000  1.0
  C  C126  1  0.21820000  0.15633000  0.35224000  1.0
  C  C127  1  0.62552000  0.15625000  0.14777000  1.0
  C  C128  1  0.88831000  0.85277000  0.60869000  1.0
  C  C129  1  0.25888000  0.85285000  0.89135000  1.0
  C  C130  1  0.11169000  0.14723000  0.39131000  1.0
  C  C131  1  0.74112000  0.14716000  0.10865000  1.0
  C  C132  1  0.89604000  0.91217000  0.54823000  1.0
  C  C133  1  0.19181000  0.91222000  0.95183000  1.0
  C  C134  1  0.10396000  0.08783000  0.45177000  1.0
  C  C135  1  0.80819000  0.08778000  0.04817000  1.0
  C  C136  1  0.81025000  0.02593000  0.46144000  1.0
  C  C137  1  0.16390000  0.02599000  0.03859000  1.0
  C  C138  1  0.18975000  0.97407000  0.53856000  1.0
  C  C139  1  0.83610000  0.97401000  0.96142000  1.0
  C  C140  1  0.72466000  0.08386000  0.43354000  1.0
  C  C141  1  0.19155000  0.08397000  0.06642000  1.0
  C  C142  1  0.27534000  0.91614000  0.56646000  1.0
  C  C143  1  0.80845000  0.91604000  0.93358000  1.0
  C  C144  1  0.74674000  0.14013000  0.36663000  1.0
  C  C145  1  0.11317000  0.14029000  0.13328000  1.0
  C  C146  1  0.25326000  0.85987000  0.63336000  1.0
  C  C147  1  0.88683000  0.85971000  0.86672000  1.0
  C  C148  1  0.47301000  0.94815000  0.66011000  1.0
  C  C149  1  0.57885000  0.94816000  0.83989000  1.0
  C  C150  1  0.52699000  0.05185000  0.33989000  1.0
  C  C151  1  0.42115000  0.05184000  0.16011000  1.0
  O  O152  1  0.34256000  0.31356000  0.34048000  1.0
  O  O153  1  0.34407000  0.31366000  0.15959000  1.0
  O  O154  1  0.65744000  0.68644000  0.65952000  1.0
  O  O155  1  0.65593000  0.68634000  0.84042000  1.0
  O  O156  1  0.48710000  0.35975000  0.33754000  1.0
  O  O157  1  0.15331000  0.35988000  0.16257000  1.0
  O  O158  1  0.51290000  0.64025000  0.66246000  1.0
  O  O159  1  0.84669000  0.64012000  0.83743000  1.0
  O  O160  1  0.96765000  0.60926000  0.67053000  1.0
  O  O161  1  0.42312000  0.60923000  0.82936000  1.0
  O  O162  1  0.03235000  0.39075000  0.32947000  1.0
  O  O163  1  0.57688000  0.39077000  0.17064000  1.0
  O  O164  1  0.05596000  0.70854000  0.70922000  1.0
  O  O165  1  0.23547000  0.70853000  0.79078000  1.0
  O  O166  1  0.94404000  0.29146000  0.29078000  1.0
  O  O167  1  0.76453000  0.29147000  0.20922000  1.0
  O  O168  1  0.66023000  0.18584000  0.34117000  1.0
  O  O169  1  0.15395000  0.18605000  0.15872000  1.0
  O  O170  1  0.33977000  0.81415000  0.65883000  1.0
  O  O171  1  0.84605000  0.81396000  0.84128000  1.0
  O  O172  1  0.85072000  0.14017000  0.33750000  1.0
  O  O173  1  0.00912000  0.14040000  0.16238000  1.0
  O  O174  1  0.14928000  0.85983000  0.66250000  1.0
  O  O175  1  0.99088000  0.85960000  0.83762000  1.0
  O  O176  1  0.58157000  0.88396000  0.66469000  1.0
  O  O177  1  0.53446000  0.88398000  0.83528000  1.0
  O  O178  1  0.41843000  0.11604000  0.33531000  1.0
  O  O179  1  0.46554000  0.11602000  0.16472000  1.0
  O  O180  1  0.76855000  0.78845000  0.70703000  1.0
  O  O181  1  0.44289000  0.78854000  0.79295000  1.0
  O  O182  1  0.23145000  0.21155000  0.29297000  1.0
  O  O183  1  0.55711000  0.21146000  0.20705000  1.0
