# generated using pymatgen
data_CuH10C6(NO2)2
_symmetry_space_group_name_H-M   'P 1'
_cell_length_a   5.25238000
_cell_length_b   8.70943000
_cell_length_c   17.90790000
_cell_angle_alpha   90.00130000
_cell_angle_beta   89.99900000
_cell_angle_gamma   89.99880000
_symmetry_Int_Tables_number   1
_chemical_formula_structural   CuH10C6(NO2)2
_chemical_formula_sum   'Cu4 H40 C24 N8 O16'
_cell_volume   819.20111024
_cell_formula_units_Z   4
loop_
 _symmetry_equiv_pos_site_id
 _symmetry_equiv_pos_as_xyz
  1  'x, y, z'
loop_
 _atom_site_type_symbol
 _atom_site_label
 _atom_site_symmetry_multiplicity
 _atom_site_fract_x
 _atom_site_fract_y
 _atom_site_fract_z
 _atom_site_occupancy
  Cu  Cu0  1  0.93227000  0.27541000  0.32670000  1.0
  Cu  Cu1  1  0.56772000  0.72460000  0.82669000  1.0
  Cu  Cu2  1  0.43228000  0.22459000  0.67331000  1.0
  Cu  Cu3  1  0.06773000  0.77540000  0.17330000  1.0
  H  H4  1  0.54259000  0.14430000  0.48346000  1.0
  H  H5  1  0.95736000  0.85573000  0.98346000  1.0
  H  H6  1  0.04264000  0.35572000  0.51654000  1.0
  H  H7  1  0.45740000  0.64428000  0.01654000  1.0
  H  H8  1  0.39586000  0.06911000  0.40118000  1.0
  H  H9  1  0.10410000  0.93092000  0.90118000  1.0
  H  H10  1  0.89589000  0.43091000  0.59882000  1.0
  H  H11  1  0.60414000  0.56908000  0.09881000  1.0
  H  H12  1  0.40262000  0.53254000  0.29700000  1.0
  H  H13  1  0.09737000  0.46746000  0.79700000  1.0
  H  H14  1  0.90263000  0.96747000  0.70300000  1.0
  H  H15  1  0.59737000  0.03252000  0.20300000  1.0
  H  H16  1  0.43414000  0.64693000  0.41960000  1.0
  H  H17  1  0.06583000  0.35309000  0.91960000  1.0
  H  H18  1  0.93418000  0.85309000  0.58040000  1.0
  H  H19  1  0.56587000  0.14690000  0.08041000  1.0
  H  H20  1  0.82112000  0.77881000  0.46428000  1.0
  H  H21  1  0.67884000  0.22122000  0.96429000  1.0
  H  H22  1  0.32115000  0.72119000  0.53572000  1.0
  H  H23  1  0.17889000  0.27878000  0.03571000  1.0
  H  H24  1  0.99542000  0.72032000  0.38365000  1.0
  H  H25  1  0.50456000  0.27970000  0.88365000  1.0
  H  H26  1  0.49544000  0.77967000  0.61635000  1.0
  H  H27  1  0.00458000  0.22031000  0.11634000  1.0
  H  H28  1  0.89432000  0.58106000  0.44987000  1.0
  H  H29  1  0.60566000  0.41897000  0.94987000  1.0
  H  H30  1  0.39436000  0.91894000  0.55013000  1.0
  H  H31  1  0.10571000  0.08103000  0.05013000  1.0
  H  H32  1  0.60450000  0.79928000  0.29160000  1.0
  H  H33  1  0.89549000  0.20072000  0.79161000  1.0
  H  H34  1  0.10449000  0.70073000  0.70840000  1.0
  H  H35  1  0.39549000  0.29927000  0.20840000  1.0
  H  H36  1  0.77614000  0.00225000  0.36385000  1.0
  H  H37  1  0.72381000  0.99777000  0.86385000  1.0
  H  H38  1  0.27617000  0.49776000  0.63615000  1.0
  H  H39  1  0.22386000  0.50223000  0.13614000  1.0
  H  H40  1  0.91891000  0.08904000  0.43483000  1.0
  H  H41  1  0.58104000  0.91097000  0.93482000  1.0
  H  H42  1  0.41896000  0.41096000  0.56518000  1.0
  H  H43  1  0.08109000  0.58902000  0.06517000  1.0
  C  C44  1  0.54012000  0.14954000  0.42212000  1.0
  C  C45  1  0.95985000  0.85048000  0.92212000  1.0
  C  C46  1  0.04015000  0.35047000  0.57788000  1.0
  C  C47  1  0.45988000  0.64952000  0.07788000  1.0
  C  C48  1  0.46354000  0.31057000  0.39810000  1.0
  C  C49  1  0.03643000  0.68946000  0.89811000  1.0
  C  C50  1  0.96358000  0.18945000  0.60189000  1.0
  C  C51  1  0.53645000  0.81054000  0.10190000  1.0
  C  C52  1  0.59067000  0.53194000  0.32473000  1.0
  C  C53  1  0.90932000  0.46807000  0.82474000  1.0
  C  C54  1  0.09069000  0.96807000  0.67526000  1.0
  C  C55  1  0.40932000  0.03192000  0.17527000  1.0
  C  C56  1  0.58982000  0.67014000  0.38011000  1.0
  C  C57  1  0.91017000  0.32987000  0.88011000  1.0
  C  C58  1  0.08983000  0.82987000  0.61989000  1.0
  C  C59  1  0.41020000  0.17011000  0.11990000  1.0
  C  C60  1  0.84037000  0.68840000  0.42194000  1.0
  C  C61  1  0.65961000  0.31162000  0.92194000  1.0
  C  C62  1  0.34039000  0.81159000  0.57806000  1.0
  C  C63  1  0.15965000  0.18838000  0.07806000  1.0
  C  C64  1  0.79684000  0.55612000  0.26579000  1.0
  C  C65  1  0.70316000  0.44388000  0.76579000  1.0
  C  C66  1  0.29684000  0.94387000  0.73421000  1.0
  C  C67  1  0.20316000  0.05612000  0.23421000  1.0
  N  N68  1  0.79208000  0.10432000  0.39222000  1.0
  N  N69  1  0.70788000  0.89569000  0.89222000  1.0
  N  N70  1  0.29211000  0.39568000  0.60779000  1.0
  N  N71  1  0.20792000  0.60431000  0.10778000  1.0
  N  N72  1  0.64060000  0.38595000  0.36008000  1.0
  N  N73  1  0.85938000  0.61407000  0.86008000  1.0
  N  N74  1  0.14063000  0.11407000  0.63992000  1.0
  N  N75  1  0.35939000  0.88592000  0.13992000  1.0
  O  O76  1  0.24418000  0.36125000  0.41432000  1.0
  O  O77  1  0.25580000  0.63878000  0.91433000  1.0
  O  O78  1  0.74420000  0.13877000  0.58567000  1.0
  O  O79  1  0.75583000  0.86123000  0.08567000  1.0
  O  O80  1  0.97498000  0.45905000  0.25805000  1.0
  O  O81  1  0.52501000  0.54096000  0.75805000  1.0
  O  O82  1  0.47501000  0.04096000  0.74195000  1.0
  O  O83  1  0.02498000  0.95903000  0.24195000  1.0
  O  O84  1  0.78237000  0.68041000  0.22795000  1.0
  O  O85  1  0.71764000  0.31958000  0.72795000  1.0
  O  O86  1  0.28237000  0.81959000  0.77205000  1.0
  O  O87  1  0.21762000  0.18040000  0.27205000  1.0
  O  O88  1  0.52179000  0.80863000  0.34106000  1.0
  O  O89  1  0.97819000  0.19139000  0.84106000  1.0
  O  O90  1  0.02179000  0.69139000  0.65894000  1.0
  O  O91  1  0.47821000  0.30861000  0.15894000  1.0
