# generated using pymatgen
data_Al6H41C67NO30
_symmetry_space_group_name_H-M   'P 1'
_cell_length_a   12.17330000
_cell_length_b   12.21260000
_cell_length_c   26.98600000
_cell_angle_alpha   82.24290000
_cell_angle_beta   82.38180000
_cell_angle_gamma   63.26300000
_symmetry_Int_Tables_number   1
_chemical_formula_structural   Al6H41C67NO30
_chemical_formula_sum   'Al6 H41 C67 N1 O30'
_cell_volume   3538.48378634
_cell_formula_units_Z   1
loop_
 _symmetry_equiv_pos_site_id
 _symmetry_equiv_pos_as_xyz
  1  'x, y, z'
loop_
 _atom_site_type_symbol
 _atom_site_label
 _atom_site_symmetry_multiplicity
 _atom_site_fract_x
 _atom_site_fract_y
 _atom_site_fract_z
 _atom_site_occupancy
  Al  Al0  1  0.59681000  0.59470000  0.49012000  1.0
  Al  Al1  1  0.57489000  0.33959000  0.50501000  1.0
  Al  Al2  1  0.33992000  0.57592000  0.50290000  1.0
  Al  Al3  1  0.06443000  0.06963000  0.02118000  1.0
  Al  Al4  1  0.32337000  0.08504000  0.00418000  1.0
  Al  Al5  1  0.09026000  0.32264000  0.00674000  1.0
  H  H6  1  0.27503000  0.70135000  0.82108000  1.0
  H  H7  1  0.78456000  0.17336000  0.72992000  1.0
  H  H8  1  0.27085000  0.67542000  0.73709000  1.0
  H  H9  1  0.94132000  0.14241000  0.71596000  1.0
  H  H10  1  0.79361000  0.19025000  0.81492000  1.0
  H  H11  1  0.62501000  0.39485000  0.73979000  1.0
  H  H12  1  0.66052000  0.42106000  0.81978000  1.0
  H  H13  1  0.95500000  0.13205000  0.80234000  1.0
  H  H14  1  0.35070000  0.48213000  0.18688000  1.0
  H  H15  1  0.32089000  0.51670000  0.27268000  1.0
  H  H16  1  0.18820000  0.29451000  0.31465000  1.0
  H  H17  1  0.43289000  0.61974000  0.72984000  1.0
  H  H18  1  0.15163000  0.45248000  0.30588000  1.0
  H  H19  1  0.19753000  0.00512000  0.69775000  1.0
  H  H20  1  0.15880000  0.30601000  0.23003000  1.0
  H  H21  1  0.53111000  0.18045000  0.28903000  1.0
  H  H22  1  0.41709000  0.13220000  0.31376000  1.0
  H  H23  1  0.50141000  0.14382000  0.21055000  1.0
  H  H24  1  0.47780000  0.41010000  0.27549000  1.0
  H  H25  1  0.49142000  0.35039000  0.19509000  1.0
  H  H26  1  0.13225000  0.90061000  0.71370000  1.0
  H  H27  1  0.12457000  0.92184000  0.79925000  1.0
  H  H28  1  0.43532000  0.65731000  0.81237000  1.0
  H  H29  1  0.17632000  0.03677000  0.78246000  1.0
  H  H30  1  0.52608000  0.77040000  0.70487000  1.0
  H  H31  1  0.43064000  0.92669000  0.68824000  1.0
  H  H32  1  0.51391000  0.81962000  0.78717000  1.0
  H  H33  1  0.13381000  0.29156000  0.75939000  1.0
  H  H34  1  0.14787000  0.55174000  0.21882000  1.0
  H  H35  1  0.94026000  0.61738000  0.20486000  1.0
  H  H36  1  0.96171000  0.52807000  0.26414000  1.0
  H  H37  1  0.96536000  0.46199000  0.20852000  1.0
  H  H38  1  0.30162000  0.10947000  0.26217000  1.0
  H  H39  1  0.40800000  0.97331000  0.77152000  1.0
  H  H40  1  0.72465000  0.52279000  0.79480000  1.0
  H  H41  1  0.66254000  0.51755000  0.71681000  1.0
  H  H42  1  0.00077000  0.31701000  0.68753000  1.0
  H  H43  1  0.88820000  0.47066000  0.69406000  1.0
  H  H44  1  0.94843000  0.44686000  0.77498000  1.0
  H  H45  1  0.70581000  0.69921000  0.44686000  1.0
  H  H46  1  0.96107000  0.95975000  0.00351000  1.0
  C  C47  1  0.71555000  0.38090000  0.56578000  1.0
  C  C48  1  0.34652000  0.71920000  0.79710000  1.0
  C  C49  1  0.32190000  0.85404000  0.80060000  1.0
  C  C50  1  0.37749000  0.38249000  0.58150000  1.0
  C  C51  1  0.42722000  0.87695000  0.76960000  1.0
  C  C52  1  0.43709000  0.84778000  0.71472000  1.0
  C  C53  1  0.31377000  0.87736000  0.85252000  1.0
  C  C54  1  0.34014000  0.78924000  0.65528000  1.0
  C  C55  1  0.35093000  0.76472000  0.61218000  1.0
  C  C56  1  0.69699000  0.42656000  0.73785000  1.0
  C  C57  1  0.91833000  0.37523000  0.71045000  1.0
  C  C58  1  0.32255000  0.33818000  0.73036000  1.0
  C  C59  1  0.95243000  0.36040000  0.76504000  1.0
  C  C60  1  0.90017000  0.31783000  0.89696000  1.0
  C  C61  1  0.81458000  0.33602000  0.70849000  1.0
  C  C62  1  0.37956000  0.71594000  0.56416000  1.0
  C  C63  1  0.72759000  0.43304000  0.79083000  1.0
  C  C64  1  0.85793000  0.33068000  0.80149000  1.0
  C  C65  1  0.86670000  0.20522000  0.79089000  1.0
  C  C66  1  0.85367000  0.20482000  0.73481000  1.0
  C  C67  1  0.88113000  0.32656000  0.85319000  1.0
  C  C68  1  0.78896000  0.34229000  0.65702000  1.0
  C  C69  1  0.33406000  0.34819000  0.68001000  1.0
  C  C70  1  0.76436000  0.35221000  0.61394000  1.0
  C  C71  1  0.38800000  0.42186000  0.26591000  1.0
  C  C72  1  0.21443000  0.36250000  0.29211000  1.0
  C  C73  1  0.20088000  0.36643000  0.23507000  1.0
  C  C74  1  0.71873000  0.38086000  0.42361000  1.0
  C  C75  1  0.31593000  0.29249000  0.11134000  1.0
  C  C76  1  0.34871000  0.33163000  0.30115000  1.0
  C  C77  1  0.39513000  0.39642000  0.21073000  1.0
  C  C78  1  0.33229000  0.31226000  0.20700000  1.0
  C  C79  1  0.41314000  0.18344000  0.23345000  1.0
  C  C80  1  0.34717000  0.35822000  0.63398000  1.0
  C  C81  1  0.43463000  0.19953000  0.28669000  1.0
  C  C82  1  0.32367000  0.30199000  0.15492000  1.0
  C  C83  1  0.35698000  0.34424000  0.35303000  1.0
  C  C84  1  0.36360000  0.35650000  0.39642000  1.0
  C  C85  1  0.30704000  0.89419000  0.13675000  1.0
  C  C86  1  0.38398000  0.38290000  0.44352000  1.0
  C  C87  1  0.31860000  0.86903000  0.18188000  1.0
  C  C88  1  0.32913000  0.84350000  0.23134000  1.0
  C  C89  1  0.33678000  0.82227000  0.27708000  1.0
  C  C90  1  0.34739000  0.79674000  0.32654000  1.0
  C  C91  1  0.34669000  0.69752000  0.74192000  1.0
  C  C92  1  0.35828000  0.77097000  0.37173000  1.0
  C  C93  1  0.89158000  0.30692000  0.13796000  1.0
  C  C94  1  0.86264000  0.31558000  0.18306000  1.0
  C  C95  1  0.83498000  0.32474000  0.23250000  1.0
  C  C96  1  0.81425000  0.33256000  0.27822000  1.0
  C  C97  1  0.79064000  0.34293000  0.32769000  1.0
  C  C98  1  0.38625000  0.71878000  0.42206000  1.0
  C  C99  1  0.76750000  0.35359000  0.37292000  1.0
  C  C100  1  0.27747000  0.94700000  0.94415000  1.0
  C  C101  1  0.27922000  0.28080000  0.92619000  1.0
  C  C102  1  0.20662000  0.92163000  0.72169000  1.0
  C  C103  1  0.94582000  0.28781000  0.94581000  1.0
  C  C104  1  0.27835000  0.94459000  0.08624000  1.0
  C  C105  1  0.28912000  0.27255000  0.06439000  1.0
  C  C106  1  0.94540000  0.28011000  0.08766000  1.0
  C  C107  1  0.30090000  0.30772000  0.87311000  1.0
  C  C108  1  0.30822000  0.31935000  0.82707000  1.0
  C  C109  1  0.31561000  0.33014000  0.77672000  1.0
  C  C110  1  0.99162000  0.52545000  0.22347000  1.0
  C  C111  1  0.19817000  0.94103000  0.77778000  1.0
  C  C112  1  0.30372000  0.89964000  0.89591000  1.0
  C  C113  1  0.33238000  0.81428000  0.70692000  1.0
  N  N114  1  0.12345000  0.48630000  0.21141000  1.0
  O  O115  1  0.48370000  0.69632000  0.54174000  1.0
  O  O116  1  0.18113000  0.35874000  0.94808000  1.0
  O  O117  1  0.96873000  0.36862000  0.96308000  1.0
  O  O118  1  0.69369000  0.48586000  0.54397000  1.0
  O  O119  1  0.96449000  0.17746000  0.07457000  1.0
  O  O120  1  0.17240000  0.96835000  0.07474000  1.0
  O  O121  1  0.36227000  0.96538000  0.05808000  1.0
  O  O122  1  0.36449000  0.17398000  0.04389000  1.0
  O  O123  1  0.18761000  0.35199000  0.04668000  1.0
  O  O124  1  0.97334000  0.36189000  0.06164000  1.0
  O  O125  1  0.16054000  0.16038000  0.01036000  1.0
  O  O126  1  0.48103000  0.30505000  0.46456000  1.0
  O  O127  1  0.69348000  0.29841000  0.54949000  1.0
  O  O128  1  0.48143000  0.30567000  0.56281000  1.0
  O  O129  1  0.30134000  0.48157000  0.55935000  1.0
  O  O130  1  0.29765000  0.69132000  0.54859000  1.0
  O  O131  1  0.49188000  0.69433000  0.43427000  1.0
  O  O132  1  0.70007000  0.48394000  0.43618000  1.0
  O  O133  1  0.69356000  0.29857000  0.45090000  1.0
  O  O134  1  0.07275000  0.26192000  0.77263000  1.0
  O  O135  1  0.36203000  0.09853000  0.23347000  1.0
  O  O136  1  0.30679000  0.48566000  0.46036000  1.0
  O  O137  1  0.30210000  0.69690000  0.44962000  1.0
  O  O138  1  0.50268000  0.50192000  0.49918000  1.0
  O  O139  1  0.96487000  0.18309000  0.96728000  1.0
  O  O140  1  0.17320000  0.96879000  0.96703000  1.0
  O  O141  1  0.36173000  0.96831000  0.95955000  1.0
  O  O142  1  0.35658000  0.17823000  0.94558000  1.0
  O  O143  1  0.68384000  0.67796000  0.48128000  1.0
  O  O144  1  0.97642000  0.98734000  0.03265000  1.0
