# generated using pymatgen
data_NaH16C6S2NO4
_symmetry_space_group_name_H-M   'P 1'
_cell_length_a   5.54930000
_cell_length_b   11.92920000
_cell_length_c   18.01130000
_cell_angle_alpha   95.27410000
_cell_angle_beta   90.00000000
_cell_angle_gamma   90.00000000
_symmetry_Int_Tables_number   1
_chemical_formula_structural   NaH16C6S2NO4
_chemical_formula_sum   'Na4 H64 C24 S8 N4 O16'
_cell_volume   1187.27693353
_cell_formula_units_Z   4
loop_
 _symmetry_equiv_pos_site_id
 _symmetry_equiv_pos_as_xyz
  1  'x, y, z'
loop_
 _atom_site_type_symbol
 _atom_site_label
 _atom_site_symmetry_multiplicity
 _atom_site_fract_x
 _atom_site_fract_y
 _atom_site_fract_z
 _atom_site_occupancy
  Na  Na0  1  0.75972000  0.58242000  0.01556000  1.0
  Na  Na1  1  0.25972000  0.91758000  0.98444000  1.0
  Na  Na2  1  0.24027000  0.41758000  0.98444000  1.0
  Na  Na3  1  0.74027000  0.08242000  0.01556000  1.0
  H  H4  1  0.18293000  0.66475000  0.66987000  1.0
  H  H5  1  0.68293000  0.83525000  0.33013000  1.0
  H  H6  1  0.81708000  0.33528000  0.33013000  1.0
  H  H7  1  0.31707000  0.16473000  0.66987000  1.0
  H  H8  1  0.39238000  0.55974000  0.69272000  1.0
  H  H9  1  0.89240000  0.94025000  0.30728000  1.0
  H  H10  1  0.60760000  0.44027000  0.30727000  1.0
  H  H11  1  0.10760000  0.05974000  0.69273000  1.0
  H  H12  1  0.73553000  0.68003000  0.65813000  1.0
  H  H13  1  0.23553000  0.81997000  0.34187000  1.0
  H  H14  1  0.26447000  0.31998000  0.34186000  1.0
  H  H15  1  0.76445000  0.18002000  0.65813000  1.0
  H  H16  1  0.73393000  0.70349000  0.49029000  1.0
  H  H17  1  0.23396000  0.79652000  0.50971000  1.0
  H  H18  1  0.26606000  0.29651000  0.50970000  1.0
  H  H19  1  0.76609000  0.20349000  0.49029000  1.0
  H  H20  1  0.68438000  0.55479000  0.47727000  1.0
  H  H21  1  0.18441000  0.94522000  0.52273000  1.0
  H  H22  1  0.31560000  0.44521000  0.52273000  1.0
  H  H23  1  0.81562000  0.05479000  0.47727000  1.0
  H  H24  1  0.88372000  0.61199000  0.54920000  1.0
  H  H25  1  0.38375000  0.88802000  0.45080000  1.0
  H  H26  1  0.11626000  0.38801000  0.45080000  1.0
  H  H27  1  0.61629000  0.11199000  0.54920000  1.0
  H  H28  1  0.10997000  0.78393000  0.83688000  1.0
  H  H29  1  0.60999000  0.71607000  0.16311000  1.0
  H  H30  1  0.89003000  0.21608000  0.16312000  1.0
  H  H31  1  0.39001000  0.28392000  0.83688000  1.0
  H  H32  1  0.09609000  0.80894000  0.74091000  1.0
  H  H33  1  0.59609000  0.69106000  0.25908000  1.0
  H  H34  1  0.90391000  0.19106000  0.25908000  1.0
  H  H35  1  0.40388000  0.30895000  0.74092000  1.0
  H  H36  1  0.31943000  0.87736000  0.80003000  1.0
  H  H37  1  0.81947000  0.62264000  0.19996000  1.0
  H  H38  1  0.68056000  0.12264000  0.19996000  1.0
  H  H39  1  0.18052000  0.37736000  0.80004000  1.0
  H  H40  1  0.88473000  0.83836000  0.63105000  1.0
  H  H41  1  0.38473000  0.66163000  0.36896000  1.0
  H  H42  1  0.11528000  0.16164000  0.36895000  1.0
  H  H43  1  0.61527000  0.33836000  0.63105000  1.0
  H  H44  1  0.69750000  0.96010000  0.64006000  1.0
  H  H45  1  0.19749000  0.53990000  0.35994000  1.0
  H  H46  1  0.30254000  0.03991000  0.35994000  1.0
  H  H47  1  0.80251000  0.46009000  0.64006000  1.0
  H  H48  1  0.71562000  0.87527000  0.55225000  1.0
  H  H49  1  0.21561000  0.62473000  0.44776000  1.0
  H  H50  1  0.28442000  0.12473000  0.44775000  1.0
  H  H51  1  0.78442000  0.37526000  0.55225000  1.0
  H  H52  1  0.21124000  0.62678000  0.92453000  1.0
  H  H53  1  0.71126000  0.87322000  0.07547000  1.0
  H  H54  1  0.78875000  0.37322000  0.07547000  1.0
  H  H55  1  0.28874000  0.12678000  0.92453000  1.0
  H  H56  1  0.71615000  0.36421000  0.91926000  1.0
  H  H57  1  0.21615000  0.13578000  0.08073000  1.0
  H  H58  1  0.28385000  0.63578000  0.08073000  1.0
  H  H59  1  0.78383000  0.86421000  0.91927000  1.0
  H  H60  1  0.98144000  0.57430000  0.88235000  1.0
  H  H61  1  0.48146000  0.92570000  0.11765000  1.0
  H  H62  1  0.01854000  0.42570000  0.11765000  1.0
  H  H63  1  0.51854000  0.07430000  0.88235000  1.0
  H  H64  1  0.63196000  0.46873000  0.87976000  1.0
  H  H65  1  0.13196000  0.03127000  0.12023000  1.0
  H  H66  1  0.36803000  0.53127000  0.12023000  1.0
  H  H67  1  0.86803000  0.96872000  0.87977000  1.0
  C  C68  1  0.53876000  0.66851000  0.81677000  1.0
  C  C69  1  0.03877000  0.83149000  0.18323000  1.0
  C  C70  1  0.46123000  0.33150000  0.18323000  1.0
  C  C71  1  0.96122000  0.16849000  0.81677000  1.0
  C  C72  1  0.36428000  0.65054000  0.69145000  1.0
  C  C73  1  0.86429000  0.84947000  0.30855000  1.0
  C  C74  1  0.63571000  0.34947000  0.30855000  1.0
  C  C75  1  0.13572000  0.15052000  0.69145000  1.0
  C  C76  1  0.54982000  0.69479000  0.63853000  1.0
  C  C77  1  0.04983000  0.80521000  0.36147000  1.0
  C  C78  1  0.45018000  0.30521000  0.36147000  1.0
  C  C79  1  0.95018000  0.19479000  0.63853000  1.0
  C  C80  1  0.71530000  0.62641000  0.51889000  1.0
  C  C81  1  0.21533000  0.87360000  0.48111000  1.0
  C  C82  1  0.28469000  0.37359000  0.48111000  1.0
  C  C83  1  0.78471000  0.12641000  0.51889000  1.0
  C  C84  1  0.21714000  0.79905000  0.78773000  1.0
  C  C85  1  0.71716000  0.70095000  0.21226000  1.0
  C  C86  1  0.78286000  0.20095000  0.21226000  1.0
  C  C87  1  0.28283000  0.29906000  0.78774000  1.0
  C  C88  1  0.71313000  0.87413000  0.61323000  1.0
  C  C89  1  0.21312000  0.62587000  0.38678000  1.0
  C  C90  1  0.28690000  0.12587000  0.38677000  1.0
  C  C91  1  0.78690000  0.37412000  0.61323000  1.0
  S  S92  1  0.53077000  0.72711000  0.90850000  1.0
  S  S93  1  0.03077000  0.77288000  0.09149000  1.0
  S  S94  1  0.46924000  0.27289000  0.09149000  1.0
  S  S95  1  0.96923000  0.22710000  0.90851000  1.0
  S  S96  1  0.74007000  0.56417000  0.78809000  1.0
  S  S97  1  0.24007000  0.93583000  0.21191000  1.0
  S  S98  1  0.25991000  0.43583000  0.21190000  1.0
  S  S99  1  0.75990000  0.06416000  0.78809000  1.0
  N  N100  1  0.37925000  0.70448000  0.76747000  1.0
  N  N101  1  0.87926000  0.79553000  0.23253000  1.0
  N  N102  1  0.62075000  0.29554000  0.23253000  1.0
  N  N103  1  0.12074000  0.20446000  0.76747000  1.0
  O  O104  1  0.60618000  0.42991000  0.92572000  1.0
  O  O105  1  0.10617000  0.07009000  0.07428000  1.0
  O  O106  1  0.39384000  0.57009000  0.07429000  1.0
  O  O107  1  0.89380000  0.92990000  0.92573000  1.0
  O  O108  1  0.07985000  0.57144000  0.92850000  1.0
  O  O109  1  0.57984000  0.92855000  0.07149000  1.0
  O  O110  1  0.92015000  0.42856000  0.07150000  1.0
  O  O111  1  0.42014000  0.07144000  0.92851000  1.0
  O  O112  1  0.51281000  0.63152000  0.56881000  1.0
  O  O113  1  0.01283000  0.86849000  0.43119000  1.0
  O  O114  1  0.48717000  0.36849000  0.43119000  1.0
  O  O115  1  0.98718000  0.13151000  0.56881000  1.0
  O  O116  1  0.51191000  0.81167000  0.63758000  1.0
  O  O117  1  0.01191000  0.68833000  0.36242000  1.0
  O  O118  1  0.48810000  0.18834000  0.36241000  1.0
  O  O119  1  0.98810000  0.31167000  0.63759000  1.0
