# generated using pymatgen
data_ZnH6C4N8O
_symmetry_space_group_name_H-M   'P 1'
_cell_length_a   5.81483000
_cell_length_b   9.53111000
_cell_length_c   14.26220000
_cell_angle_alpha   90.00010000
_cell_angle_beta   90.00000000
_cell_angle_gamma   101.53100000
_symmetry_Int_Tables_number   1
_chemical_formula_structural   ZnH6C4N8O
_chemical_formula_sum   'Zn4 H24 C16 N32 O4'
_cell_volume   774.48294871
_cell_formula_units_Z   4
loop_
 _symmetry_equiv_pos_site_id
 _symmetry_equiv_pos_as_xyz
  1  'x, y, z'
loop_
 _atom_site_type_symbol
 _atom_site_label
 _atom_site_symmetry_multiplicity
 _atom_site_fract_x
 _atom_site_fract_y
 _atom_site_fract_z
 _atom_site_occupancy
  Zn  Zn0  1  0.79681000  0.19284000  0.39831000  1.0
  Zn  Zn1  1  0.20319000  0.30716000  0.89831000  1.0
  Zn  Zn2  1  0.20319000  0.80716000  0.60169000  1.0
  Zn  Zn3  1  0.79681000  0.69284000  0.10169000  1.0
  H  H4  1  0.08535000  0.67481000  0.27209000  1.0
  H  H5  1  0.91466000  0.82519000  0.77209000  1.0
  H  H6  1  0.91466000  0.32519000  0.72792000  1.0
  H  H7  1  0.08534000  0.17481000  0.22791000  1.0
  H  H8  1  0.26888000  0.55720000  0.23948000  1.0
  H  H9  1  0.73112000  0.94280000  0.73949000  1.0
  H  H10  1  0.73112000  0.44280000  0.76052000  1.0
  H  H11  1  0.26888000  0.05720000  0.26051000  1.0
  H  H12  1  0.28814000  0.63643000  0.40876000  1.0
  H  H13  1  0.71187000  0.86357000  0.90876000  1.0
  H  H14  1  0.71186000  0.36357000  0.59124000  1.0
  H  H15  1  0.28814000  0.13643000  0.09124000  1.0
  H  H16  1  0.99826000  0.53681000  0.42511000  1.0
  H  H17  1  0.00174000  0.96319000  0.92511000  1.0
  H  H18  1  0.00174000  0.46319000  0.57489000  1.0
  H  H19  1  0.99826000  0.03681000  0.07489000  1.0
  H  H20  1  0.63088000  0.11006000  0.57468000  1.0
  H  H21  1  0.36912000  0.38994000  0.07468000  1.0
  H  H22  1  0.36912000  0.88994000  0.42532000  1.0
  H  H23  1  0.63088000  0.61006000  0.92532000  1.0
  H  H24  1  0.76127000  0.99123000  0.53841000  1.0
  H  H25  1  0.23873000  0.50876000  0.03841000  1.0
  H  H26  1  0.23873000  0.00876000  0.46159000  1.0
  H  H27  1  0.76127000  0.49124000  0.96159000  1.0
  C  C28  1  0.90290000  0.46696000  0.24108000  1.0
  C  C29  1  0.09710000  0.03304000  0.74108000  1.0
  C  C30  1  0.09710000  0.53304000  0.75892000  1.0
  C  C31  1  0.90290000  0.96696000  0.25892000  1.0
  C  C32  1  0.11225000  0.56486000  0.28080000  1.0
  C  C33  1  0.88775000  0.93514000  0.78080000  1.0
  C  C34  1  0.88775000  0.43514000  0.71920000  1.0
  C  C35  1  0.11225000  0.06486000  0.21920000  1.0
  C  C36  1  0.16104000  0.54257000  0.38498000  1.0
  C  C37  1  0.83896000  0.95743000  0.88498000  1.0
  C  C38  1  0.83896000  0.45743000  0.61502000  1.0
  C  C39  1  0.16104000  0.04257000  0.11502000  1.0
  C  C40  1  0.26396000  0.41474000  0.40423000  1.0
  C  C41  1  0.73605000  0.08526000  0.90423000  1.0
  C  C42  1  0.73605000  0.58526000  0.59577000  1.0
  C  C43  1  0.26395000  0.91474000  0.09577000  1.0
  N  N44  1  0.81700000  0.32978000  0.26454000  1.0
  N  N45  1  0.18300000  0.17022000  0.76454000  1.0
  N  N46  1  0.18300000  0.67022000  0.73546000  1.0
  N  N47  1  0.81700000  0.82978000  0.23546000  1.0
  N  N48  1  0.62822000  0.28429000  0.20900000  1.0
  N  N49  1  0.37178000  0.21571000  0.70900000  1.0
  N  N50  1  0.37178000  0.71571000  0.79100000  1.0
  N  N51  1  0.62822000  0.78429000  0.29100000  1.0
  N  N52  1  0.60048000  0.38864000  0.15387000  1.0
  N  N53  1  0.39952000  0.11136000  0.65387000  1.0
  N  N54  1  0.39952000  0.61136000  0.84613000  1.0
  N  N55  1  0.60048000  0.88863000  0.34613000  1.0
  N  N56  1  0.76955000  0.50532000  0.17217000  1.0
  N  N57  1  0.23045000  0.99468000  0.67217000  1.0
  N  N58  1  0.23045000  0.49468000  0.82783000  1.0
  N  N59  1  0.76955000  0.00532000  0.32783000  1.0
  N  N60  1  0.29350000  0.19673000  0.43349000  1.0
  N  N61  1  0.70650000  0.30327000  0.93349000  1.0
  N  N62  1  0.70650000  0.80327000  0.56651000  1.0
  N  N63  1  0.29350000  0.69673000  0.06651000  1.0
  N  N64  1  0.13910000  0.28158000  0.42153000  1.0
  N  N65  1  0.86090000  0.21842000  0.92153000  1.0
  N  N66  1  0.86090000  0.71842000  0.57847000  1.0
  N  N67  1  0.13910000  0.78158000  0.07847000  1.0
  N  N68  1  0.50458000  0.27702000  0.42319000  1.0
  N  N69  1  0.49542000  0.22298000  0.92319000  1.0
  N  N70  1  0.49542000  0.72298000  0.57681000  1.0
  N  N71  1  0.50458000  0.77702000  0.07681000  1.0
  N  N72  1  0.49371000  0.41355000  0.40524000  1.0
  N  N73  1  0.50629000  0.08645000  0.90525000  1.0
  N  N74  1  0.50629000  0.58645000  0.59476000  1.0
  N  N75  1  0.49371000  0.91355000  0.09476000  1.0
  O  O76  1  0.76495000  0.09591000  0.53380000  1.0
  O  O77  1  0.23505000  0.40409000  0.03380000  1.0
  O  O78  1  0.23505000  0.90409000  0.46620000  1.0
  O  O79  1  0.76495000  0.59591000  0.96620000  1.0
