# generated using pymatgen
data_GdH12C16O11
_symmetry_space_group_name_H-M   'P 1'
_cell_length_a   5.90919000
_cell_length_b   9.91758000
_cell_length_c   14.74570000
_cell_angle_alpha   85.52720000
_cell_angle_beta   88.94120000
_cell_angle_gamma   74.48460000
_symmetry_Int_Tables_number   1
_chemical_formula_structural   GdH12C16O11
_chemical_formula_sum   'Gd2 H24 C32 O22'
_cell_volume   830.13968597
_cell_formula_units_Z   2
loop_
 _symmetry_equiv_pos_site_id
 _symmetry_equiv_pos_as_xyz
  1  'x, y, z'
loop_
 _atom_site_type_symbol
 _atom_site_label
 _atom_site_symmetry_multiplicity
 _atom_site_fract_x
 _atom_site_fract_y
 _atom_site_fract_z
 _atom_site_occupancy
  Gd  Gd0  1  0.82999000  0.70716000  0.45820000  1.0
  Gd  Gd1  1  0.16999000  0.29285000  0.54180000  1.0
  H  H2  1  0.62429000  0.89421000  0.01924000  1.0
  H  H3  1  0.37572000  0.10578000  0.98075000  1.0
  H  H4  1  0.27078000  0.60563000  0.56972000  1.0
  H  H5  1  0.72924000  0.39436000  0.43028000  1.0
  H  H6  1  0.20402000  0.77098000  0.57516000  1.0
  H  H7  1  0.79599000  0.22900000  0.42485000  1.0
  H  H8  1  0.04394000  0.84718000  0.29930000  1.0
  H  H9  1  0.95605000  0.15283000  0.70071000  1.0
  H  H10  1  0.20233000  0.84824000  0.38629000  1.0
  H  H11  1  0.79767000  0.15177000  0.61373000  1.0
  H  H12  1  0.59739000  0.68004000  0.14105000  1.0
  H  H13  1  0.40259000  0.31999000  0.85897000  1.0
  H  H14  1  0.36288000  0.61450000  0.02097000  1.0
  H  H15  1  0.63713000  0.38552000  0.97903000  1.0
  H  H16  1  0.09789000  0.45920000  0.06470000  1.0
  H  H17  1  0.90215000  0.54079000  0.93529000  1.0
  H  H18  1  0.71795000  0.29081000  0.13748000  1.0
  H  H19  1  0.28204000  0.70920000  0.86251000  1.0
  H  H20  1  0.13241000  0.86013000  0.13621000  1.0
  H  H21  1  0.86759000  0.13987000  0.86379000  1.0
  H  H22  1  0.44236000  0.91597000  0.22779000  1.0
  H  H23  1  0.55767000  0.08403000  0.77220000  1.0
  H  H24  1  0.39025000  0.16163000  0.27160000  1.0
  H  H25  1  0.60976000  0.83837000  0.72839000  1.0
  C  C26  1  0.17910000  0.44780000  0.20688000  1.0
  C  C27  1  0.82091000  0.55220000  0.79311000  1.0
  C  C28  1  0.30715000  0.48558000  0.27495000  1.0
  C  C29  1  0.69286000  0.51441000  0.72505000  1.0
  C  C30  1  0.45891000  0.56996000  0.24997000  1.0
  C  C31  1  0.54109000  0.43004000  0.75003000  1.0
  C  C32  1  0.47859000  0.61482000  0.15843000  1.0
  C  C33  1  0.52143000  0.38519000  0.84158000  1.0
  C  C34  1  0.34910000  0.57646000  0.09161000  1.0
  C  C35  1  0.65092000  0.42355000  0.90839000  1.0
  C  C36  1  0.20015000  0.49151000  0.11559000  1.0
  C  C37  1  0.79987000  0.50849000  0.88440000  1.0
  C  C38  1  0.27537000  0.42927000  0.37054000  1.0
  C  C39  1  0.72464000  0.57072000  0.62946000  1.0
  C  C40  1  0.59869000  0.61341000  0.31996000  1.0
  C  C41  1  0.40131000  0.38660000  0.68005000  1.0
  C  C42  1  0.05325000  0.23894000  0.20578000  1.0
  C  C43  1  0.94676000  0.76105000  0.79421000  1.0
  C  C44  1  0.87661000  0.20863000  0.15650000  1.0
  C  C45  1  0.12338000  0.79137000  0.84350000  1.0
  C  C46  1  0.90641000  0.07152000  0.13133000  1.0
  C  C47  1  0.09359000  0.92848000  0.86866000  1.0
  C  C48  1  0.11017000  0.96589000  0.15707000  1.0
  C  C49  1  0.88983000  0.03411000  0.84293000  1.0
  C  C50  1  0.28466000  0.99816000  0.20702000  1.0
  C  C51  1  0.71536000  0.00183000  0.79297000  1.0
  C  C52  1  0.25771000  0.13479000  0.23142000  1.0
  C  C53  1  0.74231000  0.86520000  0.76857000  1.0
  C  C54  1  0.72570000  0.04184000  0.07347000  1.0
  C  C55  1  0.27431000  0.95815000  0.92653000  1.0
  C  C56  1  0.60139000  0.01325000  0.52728000  1.0
  C  C57  1  0.39856000  0.98675000  0.47273000  1.0
  O  O58  1  0.01496000  0.37437000  0.23294000  1.0
  O  O59  1  0.98505000  0.62563000  0.76705000  1.0
  O  O60  1  0.38933000  0.30530000  0.39628000  1.0
  O  O61  1  0.61068000  0.69469000  0.60372000  1.0
  O  O62  1  0.12118000  0.50135000  0.42226000  1.0
  O  O63  1  0.87882000  0.49865000  0.57774000  1.0
  O  O64  1  0.59239000  0.56347000  0.40310000  1.0
  O  O65  1  0.40763000  0.43651000  0.59689000  1.0
  O  O66  1  0.71802000  0.70027000  0.29842000  1.0
  O  O67  1  0.28200000  0.29974000  0.70159000  1.0
  O  O68  1  0.56146000  0.13842000  0.03887000  1.0
  O  O69  1  0.43856000  0.86157000  0.96112000  1.0
  O  O70  1  0.75473000  0.90783000  0.06112000  1.0
  O  O71  1  0.24528000  0.09215000  0.93888000  1.0
  O  O72  1  0.79678000  0.92417000  0.52685000  1.0
  O  O73  1  0.20315000  0.07585000  0.47314000  1.0
  O  O74  1  0.55240000  0.12592000  0.56880000  1.0
  O  O75  1  0.44753000  0.87410000  0.43120000  1.0
  O  O76  1  0.14884000  0.69501000  0.55425000  1.0
  O  O77  1  0.85115000  0.30498000  0.44576000  1.0
  O  O78  1  0.06151000  0.82183000  0.36433000  1.0
  O  O79  1  0.93846000  0.17818000  0.63569000  1.0
