# generated using pymatgen
data_ZnH3C3(N2O)2
_symmetry_space_group_name_H-M   'P 1'
_cell_length_a   7.97154000
_cell_length_b   10.35260000
_cell_length_c   18.26440000
_cell_angle_alpha   75.76900000
_cell_angle_beta   89.99980000
_cell_angle_gamma   89.99990000
_symmetry_Int_Tables_number   1
_chemical_formula_structural   ZnH3C3(N2O)2
_chemical_formula_sum   'Zn8 H24 C24 N32 O16'
_cell_volume   1461.03587475
_cell_formula_units_Z   8
loop_
 _symmetry_equiv_pos_site_id
 _symmetry_equiv_pos_as_xyz
  1  'x, y, z'
loop_
 _atom_site_type_symbol
 _atom_site_label
 _atom_site_symmetry_multiplicity
 _atom_site_fract_x
 _atom_site_fract_y
 _atom_site_fract_z
 _atom_site_occupancy
  Zn  Zn0  1  0.43824000  0.96163000  0.65618000  1.0
  Zn  Zn1  1  0.93826000  0.53837000  0.34382000  1.0
  Zn  Zn2  1  0.56176000  0.03837000  0.34382000  1.0
  Zn  Zn3  1  0.06173000  0.46163000  0.65618000  1.0
  Zn  Zn4  1  0.55987000  0.07015000  0.84342000  1.0
  Zn  Zn5  1  0.05989000  0.42984000  0.15657000  1.0
  Zn  Zn6  1  0.44012000  0.92984000  0.15657000  1.0
  Zn  Zn7  1  0.94012000  0.57015000  0.84343000  1.0
  H  H8  1  0.78014000  0.81307000  0.90898000  1.0
  H  H9  1  0.28016000  0.68693000  0.09101000  1.0
  H  H10  1  0.21985000  0.18692000  0.09101000  1.0
  H  H11  1  0.71985000  0.31307000  0.90899000  1.0
  H  H12  1  0.68434000  0.75580000  0.63783000  1.0
  H  H13  1  0.18436000  0.74418000  0.36218000  1.0
  H  H14  1  0.31566000  0.24420000  0.36217000  1.0
  H  H15  1  0.81563000  0.25582000  0.63783000  1.0
  H  H16  1  0.77487000  0.61789000  0.69796000  1.0
  H  H17  1  0.27490000  0.88210000  0.30204000  1.0
  H  H18  1  0.22513000  0.38211000  0.30204000  1.0
  H  H19  1  0.72509000  0.11790000  0.69796000  1.0
  H  H20  1  0.25734000  0.24162000  0.58483000  1.0
  H  H21  1  0.75735000  0.25838000  0.41517000  1.0
  H  H22  1  0.74265000  0.75837000  0.41517000  1.0
  H  H23  1  0.24264000  0.74163000  0.58483000  1.0
  H  H24  1  0.28670000  0.24911000  0.86813000  1.0
  H  H25  1  0.78672000  0.25088000  0.13187000  1.0
  H  H26  1  0.71330000  0.75089000  0.13187000  1.0
  H  H27  1  0.21330000  0.74911000  0.86813000  1.0
  H  H28  1  0.20653000  0.39546000  0.81104000  1.0
  H  H29  1  0.70656000  0.10453000  0.18897000  1.0
  H  H30  1  0.79347000  0.60455000  0.18896000  1.0
  H  H31  1  0.29345000  0.89546000  0.81103000  1.0
  C  C32  1  0.73657000  0.81299000  0.85279000  1.0
  C  C33  1  0.23659000  0.68701000  0.14721000  1.0
  C  C34  1  0.26342000  0.18701000  0.14721000  1.0
  C  C35  1  0.76341000  0.31299000  0.85279000  1.0
  C  C36  1  0.69702000  0.76375000  0.74669000  1.0
  C  C37  1  0.19705000  0.73624000  0.25331000  1.0
  C  C38  1  0.30298000  0.23625000  0.25331000  1.0
  C  C39  1  0.80296000  0.26375000  0.74669000  1.0
  C  C40  1  0.28601000  0.23129000  0.64398000  1.0
  C  C41  1  0.78604000  0.26870000  0.35602000  1.0
  C  C42  1  0.71397000  0.76870000  0.35602000  1.0
  C  C43  1  0.21397000  0.73129000  0.64398000  1.0
  C  C44  1  0.29608000  0.26048000  0.75614000  1.0
  C  C45  1  0.79611000  0.23952000  0.24386000  1.0
  C  C46  1  0.70391000  0.73952000  0.24386000  1.0
  C  C47  1  0.20389000  0.76048000  0.75614000  1.0
  C  C48  1  0.40833000  0.02392000  0.99071000  1.0
  C  C49  1  0.90835000  0.47609000  0.00929000  1.0
  C  C50  1  0.59166000  0.97608000  0.00929000  1.0
  C  C51  1  0.09168000  0.52392000  0.99071000  1.0
  C  C52  1  0.58553000  0.96473000  0.51071000  1.0
  C  C53  1  0.08555000  0.53526000  0.48929000  1.0
  C  C54  1  0.41447000  0.03526000  0.48929000  1.0
  C  C55  1  0.91443000  0.46472000  0.51071000  1.0
  N  N56  1  0.61208000  0.87758000  0.74329000  1.0
  N  N57  1  0.11210000  0.62241000  0.25671000  1.0
  N  N58  1  0.38792000  0.12242000  0.25671000  1.0
  N  N59  1  0.88790000  0.37758000  0.74329000  1.0
  N  N60  1  0.63840000  0.90745000  0.81250000  1.0
  N  N61  1  0.13842000  0.59255000  0.18749000  1.0
  N  N62  1  0.36159000  0.09255000  0.18749000  1.0
  N  N63  1  0.86158000  0.40745000  0.81251000  1.0
  N  N64  1  0.77664000  0.72115000  0.81448000  1.0
  N  N65  1  0.27666000  0.77884000  0.18552000  1.0
  N  N66  1  0.22336000  0.27885000  0.18552000  1.0
  N  N67  1  0.72334000  0.22115000  0.81448000  1.0
  N  N68  1  0.69619000  0.69681000  0.69141000  1.0
  N  N69  1  0.19622000  0.80318000  0.30859000  1.0
  N  N70  1  0.30381000  0.30318000  0.30859000  1.0
  N  N71  1  0.80378000  0.19682000  0.69141000  1.0
  N  N72  1  0.37469000  0.13069000  0.68468000  1.0
  N  N73  1  0.87470000  0.36931000  0.31532000  1.0
  N  N74  1  0.62531000  0.86931000  0.31532000  1.0
  N  N75  1  0.12529000  0.63069000  0.68469000  1.0
  N  N76  1  0.38221000  0.14795000  0.75768000  1.0
  N  N77  1  0.88223000  0.35205000  0.24232000  1.0
  N  N78  1  0.61779000  0.85205000  0.24232000  1.0
  N  N79  1  0.11777000  0.64795000  0.75769000  1.0
  N  N80  1  0.23410000  0.31532000  0.68564000  1.0
  N  N81  1  0.73413000  0.18467000  0.31437000  1.0
  N  N82  1  0.76589000  0.68468000  0.31437000  1.0
  N  N83  1  0.26587000  0.81533000  0.68563000  1.0
  N  N84  1  0.28150000  0.31468000  0.81633000  1.0
  N  N85  1  0.78153000  0.18532000  0.18367000  1.0
  N  N86  1  0.71850000  0.68533000  0.18367000  1.0
  N  N87  1  0.21848000  0.81468000  0.81633000  1.0
  O  O88  1  0.37437000  0.07221000  0.92078000  1.0
  O  O89  1  0.87439000  0.42780000  0.07922000  1.0
  O  O90  1  0.62562000  0.92780000  0.07921000  1.0
  O  O91  1  0.12564000  0.57223000  0.92078000  1.0
  O  O92  1  0.30758000  0.01214000  0.04460000  1.0
  O  O93  1  0.80759000  0.48788000  0.95539000  1.0
  O  O94  1  0.69242000  0.98788000  0.95539000  1.0
  O  O95  1  0.19243000  0.51214000  0.04460000  1.0
  O  O96  1  0.61749000  0.92718000  0.58138000  1.0
  O  O97  1  0.11747000  0.57281000  0.41862000  1.0
  O  O98  1  0.38252000  0.07283000  0.41862000  1.0
  O  O99  1  0.88250000  0.42720000  0.58139000  1.0
  O  O100  1  0.67914000  0.94985000  0.45819000  1.0
  O  O101  1  0.17913000  0.55014000  0.54184000  1.0
  O  O102  1  0.32087000  0.05014000  0.54182000  1.0
  O  O103  1  0.82085000  0.44986000  0.45817000  1.0
