# generated using pymatgen
data_CrH9C8NO4
_symmetry_space_group_name_H-M   'P 1'
_cell_length_a   7.19739000
_cell_length_b   8.01719000
_cell_length_c   8.39463000
_cell_angle_alpha   103.92500000
_cell_angle_beta   99.35660000
_cell_angle_gamma   101.37700000
_symmetry_Int_Tables_number   1
_chemical_formula_structural   CrH9C8NO4
_chemical_formula_sum   'Cr2 H18 C16 N2 O8'
_cell_volume   449.54953655
_cell_formula_units_Z   2
loop_
 _symmetry_equiv_pos_site_id
 _symmetry_equiv_pos_as_xyz
  1  'x, y, z'
loop_
 _atom_site_type_symbol
 _atom_site_label
 _atom_site_symmetry_multiplicity
 _atom_site_fract_x
 _atom_site_fract_y
 _atom_site_fract_z
 _atom_site_occupancy
  Cr  Cr0  1  0.40114000  0.92071000  0.41203000  1.0
  Cr  Cr1  1  0.59885000  0.07928000  0.58797000  1.0
  H  H2  1  0.95436000  0.87617000  0.28953000  1.0
  H  H3  1  0.04564000  0.12383000  0.71045000  1.0
  H  H4  1  0.71581000  0.48775000  0.40581000  1.0
  H  H5  1  0.28418000  0.51225000  0.59420000  1.0
  H  H6  1  0.93863000  0.65352000  0.51000000  1.0
  H  H7  1  0.06137000  0.34649000  0.48998000  1.0
  H  H8  1  0.78063000  0.56613000  0.62828000  1.0
  H  H9  1  0.21938000  0.43389000  0.37172000  1.0
  H  H10  1  0.71259000  0.08113000  0.02504000  1.0
  H  H11  1  0.28744000  0.91887000  0.97497000  1.0
  H  H12  1  0.81718000  0.29145000  0.17755000  1.0
  H  H13  1  0.18283000  0.70856000  0.82247000  1.0
  H  H14  1  0.93794000  0.12006000  0.17446000  1.0
  H  H15  1  0.06209000  0.87996000  0.82557000  1.0
  H  H16  1  0.38703000  0.54522000  0.14816000  1.0
  H  H17  1  0.61298000  0.45477000  0.85183000  1.0
  H  H18  1  0.63723000  0.73203000  0.08450000  1.0
  H  H19  1  0.36277000  0.26797000  0.91548000  1.0
  C  C20  1  0.68222000  0.74879000  0.50843000  1.0
  C  C21  1  0.31776000  0.25121000  0.49156000  1.0
  C  C22  1  0.68584000  0.09094000  0.27864000  1.0
  C  C23  1  0.31416000  0.90906000  0.72137000  1.0
  C  C24  1  0.08795000  0.54658000  0.06142000  1.0
  C  C25  1  0.91205000  0.45341000  0.93858000  1.0
  C  C26  1  0.93975000  0.75591000  0.18914000  1.0
  C  C27  1  0.06025000  0.24409000  0.81085000  1.0
  C  C28  1  0.78557000  0.60492000  0.51189000  1.0
  C  C29  1  0.21442000  0.39508000  0.48811000  1.0
  C  C30  1  0.79336000  0.14724000  0.15451000  1.0
  C  C31  1  0.20666000  0.85277000  0.84552000  1.0
  C  C32  1  0.25386000  0.47762000  0.05313000  1.0
  C  C33  1  0.74614000  0.52237000  0.94687000  1.0
  C  C34  1  0.76037000  0.67352000  0.07276000  1.0
  C  C35  1  0.23963000  0.32648000  0.92723000  1.0
  N  N36  1  0.09937000  0.69764000  0.18467000  1.0
  N  N37  1  0.90062000  0.30236000  0.81532000  1.0
  O  O38  1  0.52108000  0.71745000  0.40154000  1.0
  O  O39  1  0.47891000  0.28255000  0.59846000  1.0
  O  O40  1  0.52276000  0.97350000  0.22815000  1.0
  O  O41  1  0.47723000  0.02648000  0.77185000  1.0
  O  O42  1  0.24593000  0.09615000  0.38786000  1.0
  O  O43  1  0.75407000  0.90385000  0.61213000  1.0
  O  O44  1  0.24228000  0.83892000  0.56326000  1.0
  O  O45  1  0.75771000  0.16109000  0.43676000  1.0
