# generated using pymatgen
data_CoH16C21(NO3)2
_symmetry_space_group_name_H-M   'P 1'
_cell_length_a   9.46598000
_cell_length_b   9.59898000
_cell_length_c   11.44310000
_cell_angle_alpha   70.71500000
_cell_angle_beta   66.19820000
_cell_angle_gamma   83.58940000
_symmetry_Int_Tables_number   1
_chemical_formula_structural   CoH16C21(NO3)2
_chemical_formula_sum   'Co2 H32 C42 N4 O12'
_cell_volume   897.66478396
_cell_formula_units_Z   2
loop_
 _symmetry_equiv_pos_site_id
 _symmetry_equiv_pos_as_xyz
  1  'x, y, z'
loop_
 _atom_site_type_symbol
 _atom_site_label
 _atom_site_symmetry_multiplicity
 _atom_site_fract_x
 _atom_site_fract_y
 _atom_site_fract_z
 _atom_site_occupancy
  Co  Co0  1  0.91167000  0.33983000  0.24930000  1.0
  Co  Co1  1  0.07938000  0.65575000  0.76476000  1.0
  H  H2  1  0.01844000  0.62120000  0.08735000  1.0
  H  H3  1  0.97201000  0.38371000  0.91993000  1.0
  H  H4  1  0.14244000  0.52022000  0.02049000  1.0
  H  H5  1  0.85453000  0.49085000  0.98165000  1.0
  H  H6  1  0.68909000  0.59018000  0.21546000  1.0
  H  H7  1  0.31200000  0.38886000  0.77925000  1.0
  H  H8  1  0.54139000  0.74514000  0.36100000  1.0
  H  H9  1  0.46481000  0.24386000  0.62421000  1.0
  H  H10  1  0.55195000  0.69398000  0.58616000  1.0
  H  H11  1  0.44836000  0.30508000  0.40031000  1.0
  H  H12  1  0.66886000  0.52911000  0.75866000  1.0
  H  H13  1  0.33538000  0.47191000  0.23363000  1.0
  H  H14  1  0.84515000  0.33114000  0.80816000  1.0
  H  H15  1  0.15747000  0.66947000  0.18611000  1.0
  H  H16  1  0.05318000  0.14307000  0.72671000  1.0
  H  H17  1  0.95096000  0.84967000  0.26745000  1.0
  H  H18  1  0.19722000  0.03506000  0.54161000  1.0
  H  H19  1  0.80602000  0.96451000  0.44870000  1.0
  H  H20  1  0.15093000  0.12694000  0.32744000  1.0
  H  H21  1  0.86114000  0.88373000  0.65914000  1.0
  H  H22  1  0.59848000  0.36289000  0.02042000  1.0
  H  H23  1  0.40665000  0.63634000  0.98355000  1.0
  H  H24  1  0.41154000  0.25633000  0.97105000  1.0
  H  H25  1  0.58859000  0.74999000  0.03377000  1.0
  H  H26  1  0.33901000  0.87891000  0.32498000  1.0
  H  H27  1  0.65897000  0.12182000  0.67640000  1.0
  H  H28  1  0.52558000  0.99109000  0.37606000  1.0
  H  H29  1  0.47379000  0.00528000  0.62724000  1.0
  H  H30  1  0.14803000  0.96641000  0.01946000  1.0
  H  H31  1  0.83960000  0.04780000  0.98811000  1.0
  H  H32  1  0.29953000  0.10171000  0.92757000  1.0
  H  H33  1  0.68502000  0.91585000  0.08036000  1.0
  C  C34  1  0.69653000  0.57332000  0.31157000  1.0
  C  C35  1  0.30592000  0.41149000  0.68164000  1.0
  C  C36  1  0.61270000  0.65803000  0.39552000  1.0
  C  C37  1  0.39201000  0.33186000  0.59356000  1.0
  C  C38  1  0.61857000  0.62959000  0.52027000  1.0
  C  C39  1  0.38363000  0.36661000  0.46930000  1.0
  C  C40  1  0.71417000  0.51626000  0.56018000  1.0
  C  C41  1  0.28858000  0.48235000  0.43290000  1.0
  C  C42  1  0.73370000  0.47229000  0.68525000  1.0
  C  C43  1  0.27086000  0.52858000  0.30723000  1.0
  C  C44  1  0.83297000  0.36293000  0.71234000  1.0
  C  C45  1  0.17193000  0.63802000  0.28088000  1.0
  C  C46  1  0.92580000  0.29097000  0.61580000  1.0
  C  C47  1  0.08111000  0.70911000  0.37839000  1.0
  C  C48  1  0.03387000  0.18049000  0.63358000  1.0
  C  C49  1  0.97151000  0.81763000  0.35995000  1.0
  C  C50  1  0.11476000  0.12186000  0.52992000  1.0
  C  C51  1  0.89022000  0.87964000  0.46096000  1.0
  C  C52  1  0.08962000  0.17135000  0.40992000  1.0
  C  C53  1  0.92032000  0.83556000  0.57856000  1.0
  C  C54  1  0.90686000  0.33298000  0.49270000  1.0
  C  C55  1  0.10072000  0.66896000  0.50151000  1.0
  C  C56  1  0.79974000  0.44088000  0.46723000  1.0
  C  C57  1  0.20415000  0.55481000  0.52922000  1.0
  C  C58  1  0.68964000  0.23877000  0.23440000  1.0
  C  C59  1  0.31226000  0.75081000  0.77547000  1.0
  C  C60  1  0.57483000  0.18355000  0.20153000  1.0
  C  C61  1  0.42760000  0.81356000  0.80259000  1.0
  C  C62  1  0.54103000  0.25711000  0.08796000  1.0
  C  C63  1  0.46241000  0.74276000  0.91604000  1.0
  C  C64  1  0.43631000  0.19642000  0.05937000  1.0
  C  C65  1  0.56422000  0.80711000  0.94474000  1.0
  C  C66  1  0.36492000  0.05864000  0.14464000  1.0
  C  C67  1  0.63356000  0.94545000  0.85859000  1.0
  C  C68  1  0.39821000  0.98423000  0.25879000  1.0
  C  C69  1  0.60090000  0.01625000  0.74348000  1.0
  C  C70  1  0.50027000  0.04687000  0.28716000  1.0
  C  C71  1  0.49949000  0.95092000  0.71616000  1.0
  C  C72  1  0.20493000  0.05566000  0.02608000  1.0
  C  C73  1  0.78340000  0.95683000  0.98333000  1.0
  C  C74  1  0.08501000  0.17496000  0.05301000  1.0
  C  C75  1  0.90056000  0.83401000  0.96397000  1.0
  N  N76  1  0.78857000  0.46561000  0.34637000  1.0
  N  N77  1  0.21310000  0.51974000  0.65125000  1.0
  N  N78  1  0.98700000  0.27488000  0.39030000  1.0
  N  N79  1  0.02334000  0.73348000  0.59859000  1.0
  O  O80  1  0.76783000  0.36101000  0.15610000  1.0
  O  O81  1  0.25401000  0.61963000  0.84721000  1.0
  O  O82  1  0.71449000  0.16572000  0.33856000  1.0
  O  O83  1  0.26751000  0.82654000  0.68259000  1.0
  O  O84  1  0.26199000  0.98654000  0.12864000  1.0
  O  O85  1  0.73237000  0.02139000  0.87585000  1.0
  O  O86  1  0.05146000  0.20569000  0.16147000  1.0
  O  O87  1  0.93148000  0.79259000  0.86190000  1.0
  O  O88  1  0.03299000  0.22734000  0.96206000  1.0
  O  O89  1  0.95452000  0.78657000  0.05446000  1.0
  O  O90  1  0.06417000  0.52022000  0.10891000  1.0
  O  O91  1  0.92821000  0.48588000  0.89359000  1.0
