# generated using pymatgen
data_ZnH12C13N6Cl2OF2
_symmetry_space_group_name_H-M   'P 1'
_cell_length_a   7.96267000
_cell_length_b   10.34540000
_cell_length_c   12.16000000
_cell_angle_alpha   100.18300000
_cell_angle_beta   105.51100000
_cell_angle_gamma   107.08100000
_symmetry_Int_Tables_number   1
_chemical_formula_structural   ZnH12C13N6Cl2OF2
_chemical_formula_sum   'Zn2 H24 C26 N12 Cl4 O2 F4'
_cell_volume   886.48408974
_cell_formula_units_Z   2
loop_
 _symmetry_equiv_pos_site_id
 _symmetry_equiv_pos_as_xyz
  1  'x, y, z'
loop_
 _atom_site_type_symbol
 _atom_site_label
 _atom_site_symmetry_multiplicity
 _atom_site_fract_x
 _atom_site_fract_y
 _atom_site_fract_z
 _atom_site_occupancy
  Zn  Zn0  1  0.82152000  0.65885000  0.06297000  1.0
  Zn  Zn1  1  0.17848000  0.34115000  0.93703000  1.0
  H  H2  1  0.28888000  0.73691000  0.15160000  1.0
  H  H3  1  0.71112000  0.26309000  0.84839000  1.0
  H  H4  1  0.96805000  0.99679000  0.12956000  1.0
  H  H5  1  0.03195000  0.00321000  0.87044000  1.0
  H  H6  1  0.24434000  0.23852000  0.19122000  1.0
  H  H7  1  0.75566000  0.76149000  0.80878000  1.0
  H  H8  1  0.44082000  0.21858000  0.15917000  1.0
  H  H9  1  0.55918000  0.78142000  0.84083000  1.0
  H  H10  1  0.95102000  0.21958000  0.47360000  1.0
  H  H11  1  0.04897000  0.78042000  0.52639000  1.0
  H  H12  1  0.38389000  0.10063000  0.67833000  1.0
  H  H13  1  0.61611000  0.89938000  0.32168000  1.0
  H  H14  1  0.56172000  0.15431000  0.53941000  1.0
  H  H15  1  0.43828000  0.84569000  0.46059000  1.0
  H  H16  1  0.45017000  0.46021000  0.35788000  1.0
  H  H17  1  0.54984000  0.53979000  0.64212000  1.0
  H  H18  1  0.64150000  0.45591000  0.47278000  1.0
  H  H19  1  0.35851000  0.54409000  0.52722000  1.0
  H  H20  1  0.93731000  0.43684000  0.40805000  1.0
  H  H21  1  0.06270000  0.56317000  0.59196000  1.0
  H  H22  1  0.51598000  0.53032000  0.17797000  1.0
  H  H23  1  0.48402000  0.46967000  0.82203000  1.0
  H  H24  1  0.58122000  0.10927000  0.31607000  1.0
  H  H25  1  0.41878000  0.89073000  0.68393000  1.0
  C  C26  1  0.25134000  0.83033000  0.15771000  1.0
  C  C27  1  0.74866000  0.16967000  0.84229000  1.0
  C  C28  1  0.08459000  0.96016000  0.14390000  1.0
  C  C29  1  0.91540000  0.03984000  0.85610000  1.0
  C  C30  1  0.35354000  0.19388000  0.21449000  1.0
  C  C31  1  0.64646000  0.80612000  0.78552000  1.0
  C  C32  1  0.47411000  0.25414000  0.34720000  1.0
  C  C33  1  0.52589000  0.74586000  0.65280000  1.0
  C  C34  1  0.36073000  0.21877000  0.42928000  1.0
  C  C35  1  0.63926000  0.78124000  0.57072000  1.0
  C  C36  1  0.19054000  0.23823000  0.41641000  1.0
  C  C37  1  0.80946000  0.76178000  0.58359000  1.0
  C  C38  1  0.08561000  0.20651000  0.48927000  1.0
  C  C39  1  0.91438000  0.79348000  0.51073000  1.0
  C  C40  1  0.15894000  0.15520000  0.58172000  1.0
  C  C41  1  0.84106000  0.84480000  0.41829000  1.0
  C  C42  1  0.32963000  0.13706000  0.60254000  1.0
  C  C43  1  0.67036000  0.86293000  0.39746000  1.0
  C  C44  1  0.42796000  0.16838000  0.52542000  1.0
  C  C45  1  0.57204000  0.83163000  0.47458000  1.0
  C  C46  1  0.56065000  0.41593000  0.37744000  1.0
  C  C47  1  0.43936000  0.58407000  0.62256000  1.0
  C  C48  1  0.86911000  0.47706000  0.33990000  1.0
  C  C49  1  0.13090000  0.52294000  0.66010000  1.0
  C  C50  1  0.65058000  0.52304000  0.22118000  1.0
  C  C51  1  0.34942000  0.47695000  0.77882000  1.0
  N  N52  1  0.07131000  0.82567000  0.12644000  1.0
  N  N53  1  0.92869000  0.17433000  0.87356000  1.0
  N  N54  1  0.37433000  0.96115000  0.19344000  1.0
  N  N55  1  0.62566000  0.03885000  0.80656000  1.0
  N  N56  1  0.26570000  0.04201000  0.18322000  1.0
  N  N57  1  0.73430000  0.95799000  0.81679000  1.0
  N  N58  1  0.68566000  0.46602000  0.31338000  1.0
  N  N59  1  0.31435000  0.53398000  0.68662000  1.0
  N  N60  1  0.94449000  0.53785000  0.26976000  1.0
  N  N61  1  0.05551000  0.46215000  0.73024000  1.0
  N  N62  1  0.80443000  0.56560000  0.19437000  1.0
  N  N63  1  0.19558000  0.43440000  0.80563000  1.0
  Cl  Cl64  1  0.60770000  0.76473000  0.05387000  1.0
  Cl  Cl65  1  0.39230000  0.23527000  0.94613000  1.0
  Cl  Cl66  1  0.80830000  0.53525000  0.88907000  1.0
  Cl  Cl67  1  0.19171000  0.46475000  0.11093000  1.0
  O  O68  1  0.62653000  0.20506000  0.37040000  1.0
  O  O69  1  0.37347000  0.79493000  0.62961000  1.0
  F  F70  1  0.11950000  0.29313000  0.32770000  1.0
  F  F71  1  0.88050000  0.70687000  0.67230000  1.0
  F  F72  1  0.05737000  0.12078000  0.65306000  1.0
  F  F73  1  0.94262000  0.87922000  0.34694000  1.0
