# generated using pymatgen
data_NiH16(C12N5)2
_symmetry_space_group_name_H-M   'P 1'
_cell_length_a   9.52777000
_cell_length_b   16.27630000
_cell_length_c   16.27780000
_cell_angle_alpha   116.31300000
_cell_angle_beta   101.24000000
_cell_angle_gamma   101.22800000
_symmetry_Int_Tables_number   1
_chemical_formula_structural   NiH16(C12N5)2
_chemical_formula_sum   'Ni3 H48 C72 N30'
_cell_volume   2102.84730161
_cell_formula_units_Z   3
loop_
 _symmetry_equiv_pos_site_id
 _symmetry_equiv_pos_as_xyz
  1  'x, y, z'
loop_
 _atom_site_type_symbol
 _atom_site_label
 _atom_site_symmetry_multiplicity
 _atom_site_fract_x
 _atom_site_fract_y
 _atom_site_fract_z
 _atom_site_occupancy
  Ni  Ni0  1  0.50000000  0.00000000  0.50000000  1.0
  Ni  Ni1  1  0.00000000  0.50000000  0.50000000  1.0
  Ni  Ni2  1  0.50000000  0.50000000  0.00000000  1.0
  H  H3  1  0.50712000  0.13942000  0.40956000  1.0
  H  H4  1  0.66397000  0.18652000  0.31972000  1.0
  H  H5  1  0.86176000  0.10733000  0.27819000  1.0
  H  H6  1  0.89510000  0.98463000  0.32896000  1.0
  H  H7  1  0.85932000  0.64606000  0.61101000  1.0
  H  H8  1  0.75298000  0.76944000  0.59618000  1.0
  H  H9  1  0.96396000  0.74446000  0.37850000  1.0
  H  H10  1  0.05199000  0.61644000  0.39629000  1.0
  H  H11  1  0.09750000  0.59053000  0.72989000  1.0
  H  H12  1  0.34412000  0.68037000  0.86686000  1.0
  H  H13  1  0.58336000  0.72181000  0.82916000  1.0
  H  H14  1  0.56587000  0.67099000  0.65567000  1.0
  H  H15  1  0.24790000  0.38879000  0.03486000  1.0
  H  H16  1  0.15657000  0.40358000  0.17312000  1.0
  H  H17  1  0.58489000  0.62142000  0.36584000  1.0
  H  H18  1  0.65497000  0.60362000  0.22000000  1.0
  H  H19  1  0.36815000  0.27008000  0.86062000  1.0
  H  H20  1  0.47800000  0.13309000  0.81357000  1.0
  H  H21  1  0.75488000  0.17082000  0.89276000  1.0
  H  H22  1  0.91071000  0.34432000  0.01539000  1.0
  H  H23  1  0.21322000  0.96513000  0.35386000  1.0
  H  H24  1  0.98361000  0.82700000  0.23043000  1.0
  H  H25  1  0.21890000  0.63402000  0.25554000  1.0
  H  H26  1  0.43495000  0.77978000  0.38351000  1.0
  H  H27  1  0.49288000  0.86058000  0.59044000  1.0
  H  H28  1  0.33603000  0.81348000  0.68028000  1.0
  H  H29  1  0.13824000  0.89267000  0.72181000  1.0
  H  H30  1  0.10490000  0.01537000  0.67104000  1.0
  H  H31  1  0.14067000  0.35393000  0.38899000  1.0
  H  H32  1  0.24702000  0.23056000  0.40382000  1.0
  H  H33  1  0.03604000  0.25554000  0.62150000  1.0
  H  H34  1  0.94801000  0.38356000  0.60371000  1.0
  H  H35  1  0.90250000  0.40947000  0.27011000  1.0
  H  H36  1  0.65589000  0.31964000  0.13314000  1.0
  H  H37  1  0.41665000  0.27819000  0.17084000  1.0
  H  H38  1  0.43413000  0.32901000  0.34433000  1.0
  H  H39  1  0.75210000  0.61121000  0.96514000  1.0
  H  H40  1  0.84344000  0.59642000  0.82688000  1.0
  H  H41  1  0.41511000  0.37858000  0.63416000  1.0
  H  H42  1  0.34503000  0.39638000  0.78000000  1.0
  H  H43  1  0.63184000  0.72992000  0.13938000  1.0
  H  H44  1  0.52200000  0.86691000  0.18643000  1.0
  H  H45  1  0.24512000  0.82918000  0.10724000  1.0
  H  H46  1  0.08929000  0.65568000  0.98461000  1.0
  H  H47  1  0.78678000  0.03487000  0.64615000  1.0
  H  H48  1  0.01639000  0.17300000  0.76958000  1.0
  H  H49  1  0.78110000  0.36598000  0.74446000  1.0
  H  H50  1  0.56505000  0.22022000  0.61649000  1.0
  C  C51  1  0.59379000  0.10687000  0.38893000  1.0
  C  C52  1  0.68100000  0.13227000  0.33901000  1.0
  C  C53  1  0.79046000  0.08794000  0.31592000  1.0
  C  C54  1  0.80970000  0.02006000  0.34332000  1.0
  C  C55  1  0.71845000  0.99848000  0.39353000  1.0
  C  C56  1  0.73131000  0.93215000  0.42940000  1.0
  C  C57  1  0.78644000  0.83603000  0.47294000  1.0
  C  C58  1  0.87921000  0.66942000  0.55991000  1.0
  C  C59  1  0.82191000  0.73859000  0.55238000  1.0
  C  C60  1  0.85017000  0.76685000  0.48563000  1.0
  C  C61  1  0.93818000  0.72391000  0.43038000  1.0
  C  C62  1  0.98817000  0.65347000  0.44090000  1.0
  C  C63  1  0.20475000  0.61114000  0.71798000  1.0
  C  C64  1  0.34186000  0.66106000  0.79331000  1.0
  C  C65  1  0.47433000  0.68407000  0.77203000  1.0
  C  C66  1  0.46615000  0.65663000  0.67674000  1.0
  C  C67  1  0.32471000  0.60650000  0.60496000  1.0
  C  C68  1  0.30171000  0.57060000  0.50273000  1.0
  C  C69  1  0.31318000  0.52695000  0.36298000  1.0
  C  C70  1  0.31888000  0.43991000  0.10933000  1.0
  C  C71  1  0.26919000  0.44743000  0.18605000  1.0
  C  C72  1  0.36414000  0.51421000  0.28108000  1.0
  C  C73  1  0.50728000  0.56950000  0.29338000  1.0
  C  C74  1  0.54664000  0.55895000  0.21240000  1.0
  C  C75  1  0.48734000  0.28202000  0.89315000  1.0
  C  C76  1  0.54922000  0.20668000  0.86775000  1.0
  C  C77  1  0.70295000  0.22797000  0.91210000  1.0
  C  C78  1  0.78994000  0.32329000  0.97996000  1.0
  C  C79  1  0.72017000  0.39508000  0.00157000  1.0
  C  C80  1  0.79916000  0.49730000  0.06792000  1.0
  C  C81  1  0.95017000  0.63705000  0.16399000  1.0
  C  C82  1  0.20967000  0.89063000  0.33051000  1.0
  C  C83  1  0.08322000  0.81397000  0.26133000  1.0
  C  C84  1  0.08302000  0.71890000  0.23309000  1.0
  C  C85  1  0.21379000  0.70650000  0.27609000  1.0
  C  C86  1  0.33423000  0.78744000  0.34649000  1.0
  C  C87  1  0.40621000  0.89313000  0.61107000  1.0
  C  C88  1  0.31900000  0.86772000  0.66099000  1.0
  C  C89  1  0.20954000  0.91206000  0.68408000  1.0
  C  C90  1  0.19030000  0.97994000  0.65668000  1.0
  C  C91  1  0.28155000  0.00152000  0.60647000  1.0
  C  C92  1  0.26868000  0.06785000  0.57059000  1.0
  C  C93  1  0.21356000  0.16397000  0.52706000  1.0
  C  C94  1  0.12079000  0.33058000  0.44009000  1.0
  C  C95  1  0.17809000  0.26141000  0.44762000  1.0
  C  C96  1  0.14983000  0.23315000  0.51437000  1.0
  C  C97  1  0.06182000  0.27609000  0.56962000  1.0
  C  C98  1  0.01184000  0.34653000  0.55910000  1.0
  C  C99  1  0.79525000  0.38886000  0.28202000  1.0
  C  C100  1  0.65814000  0.33895000  0.20668000  1.0
  C  C101  1  0.52567000  0.31594000  0.22797000  1.0
  C  C102  1  0.53385000  0.34337000  0.32326000  1.0
  C  C103  1  0.67529000  0.39350000  0.39504000  1.0
  C  C104  1  0.69829000  0.42940000  0.49727000  1.0
  C  C105  1  0.68682000  0.47305000  0.63702000  1.0
  C  C106  1  0.68112000  0.56009000  0.89068000  1.0
  C  C107  1  0.73081000  0.55257000  0.81395000  1.0
  C  C108  1  0.63586000  0.48579000  0.71892000  1.0
  C  C109  1  0.49272000  0.43050000  0.70662000  1.0
  C  C110  1  0.45336000  0.44105000  0.78760000  1.0
  C  C111  1  0.51266000  0.71798000  0.10685000  1.0
  C  C112  1  0.45078000  0.79332000  0.13225000  1.0
  C  C113  1  0.29705000  0.77203000  0.08789000  1.0
  C  C114  1  0.21006000  0.67671000  0.02004000  1.0
  C  C115  1  0.27983000  0.60493000  0.99843000  1.0
  C  C116  1  0.20084000  0.50269000  0.93208000  1.0
  C  C117  1  0.04983000  0.36295000  0.83601000  1.0
  C  C118  1  0.79033000  0.10937000  0.66949000  1.0
  C  C119  1  0.91678000  0.18603000  0.73868000  1.0
  C  C120  1  0.91698000  0.28110000  0.76691000  1.0
  C  C121  1  0.78620000  0.29349000  0.72391000  1.0
  C  C122  1  0.66577000  0.21256000  0.65351000  1.0
  N  N123  1  0.68001000  0.86408000  0.51375000  1.0
  N  N124  1  0.64522000  0.92501000  0.48478000  1.0
  N  N125  1  0.82161000  0.87665000  0.41940000  1.0
  N  N126  1  0.61159000  0.04139000  0.41544000  1.0
  N  N127  1  0.95896000  0.62545000  0.50407000  1.0
  N  N128  1  0.16610000  0.48603000  0.35027000  1.0
  N  N129  1  0.16036000  0.51506000  0.44021000  1.0
  N  N130  1  0.40187000  0.58063000  0.45717000  1.0
  N  N131  1  0.19600000  0.58461000  0.62597000  1.0
  N  N132  1  0.45435000  0.49578000  0.12120000  1.0
  N  N133  1  0.81571000  0.64974000  0.13587000  1.0
  N  N134  1  0.72013000  0.55979000  0.07499000  1.0
  N  N135  1  0.94484000  0.54287000  0.12343000  1.0
  N  N136  1  0.57046000  0.37405000  0.95864000  1.0
  N  N137  1  0.33322000  0.87869000  0.37450000  1.0
  N  N138  1  0.31999000  0.13592000  0.48625000  1.0
  N  N139  1  0.35478000  0.07499000  0.51522000  1.0
  N  N140  1  0.17839000  0.12335000  0.58060000  1.0
  N  N141  1  0.38841000  0.95861000  0.58456000  1.0
  N  N142  1  0.04104000  0.37455000  0.49593000  1.0
  N  N143  1  0.83390000  0.51397000  0.64973000  1.0
  N  N144  1  0.83964000  0.48494000  0.55979000  1.0
  N  N145  1  0.59814000  0.41937000  0.54283000  1.0
  N  N146  1  0.80401000  0.41539000  0.37403000  1.0
  N  N147  1  0.54566000  0.50422000  0.87880000  1.0
  N  N148  1  0.18429000  0.35026000  0.86413000  1.0
  N  N149  1  0.27987000  0.44021000  0.92501000  1.0
  N  N150  1  0.05517000  0.45713000  0.87656000  1.0
  N  N151  1  0.42954000  0.62595000  0.04136000  1.0
  N  N152  1  0.66678000  0.12131000  0.62551000  1.0
