# generated using pymatgen
data_CuH6C13N7O4F
_symmetry_space_group_name_H-M   'P 1'
_cell_length_a   10.57600000
_cell_length_b   11.34770000
_cell_length_c   14.65010000
_cell_angle_alpha   89.99770000
_cell_angle_beta   71.77400000
_cell_angle_gamma   89.96700000
_symmetry_Int_Tables_number   1
_chemical_formula_structural   CuH6C13N7O4F
_chemical_formula_sum   'Cu4 H24 C52 N28 O16 F4'
_cell_volume   1669.99735653
_cell_formula_units_Z   4
loop_
 _symmetry_equiv_pos_site_id
 _symmetry_equiv_pos_as_xyz
  1  'x, y, z'
loop_
 _atom_site_type_symbol
 _atom_site_label
 _atom_site_symmetry_multiplicity
 _atom_site_fract_x
 _atom_site_fract_y
 _atom_site_fract_z
 _atom_site_occupancy
  Cu  Cu0  1  0.09324000  0.57949000  0.48740000  1.0
  Cu  Cu1  1  0.90742000  0.07874000  0.01254000  1.0
  Cu  Cu2  1  0.90673000  0.42047000  0.51260000  1.0
  Cu  Cu3  1  0.09259000  0.92128000  0.98745000  1.0
  H  H4  1  0.39307000  0.06217000  0.73515000  1.0
  H  H5  1  0.60700000  0.56220000  0.76486000  1.0
  H  H6  1  0.60693000  0.93783000  0.26484000  1.0
  H  H7  1  0.39299000  0.43780000  0.23514000  1.0
  H  H8  1  0.40444000  0.32245000  0.51747000  1.0
  H  H9  1  0.59552000  0.82246000  0.98257000  1.0
  H  H10  1  0.59556000  0.67755000  0.48253000  1.0
  H  H11  1  0.40448000  0.17754000  0.01743000  1.0
  H  H12  1  0.94499000  0.15315000  0.48685000  1.0
  H  H13  1  0.05502000  0.65322000  0.01314000  1.0
  H  H14  1  0.05501000  0.84684000  0.51314000  1.0
  H  H15  1  0.94498000  0.34679000  0.98686000  1.0
  H  H16  1  0.03354000  0.23544000  0.73161000  1.0
  H  H17  1  0.96644000  0.73546000  0.76838000  1.0
  H  H18  1  0.96646000  0.76456000  0.26839000  1.0
  H  H19  1  0.03357000  0.26454000  0.23162000  1.0
  H  H20  1  0.60593000  0.36096000  0.57033000  1.0
  H  H21  1  0.39401000  0.86093000  0.92968000  1.0
  H  H22  1  0.39407000  0.63904000  0.42967000  1.0
  H  H23  1  0.60599000  0.13907000  0.07031000  1.0
  H  H24  1  0.56159000  0.98122000  0.58130000  1.0
  H  H25  1  0.43847000  0.48117000  0.91868000  1.0
  H  H26  1  0.43841000  0.01878000  0.41870000  1.0
  H  H27  1  0.56153000  0.51884000  0.08132000  1.0
  C  C28  1  0.13833000  0.36847000  0.57400000  1.0
  C  C29  1  0.86148000  0.86817000  0.92587000  1.0
  C  C30  1  0.86167000  0.63152000  0.42600000  1.0
  C  C31  1  0.13853000  0.13183000  0.07413000  1.0
  C  C32  1  0.13160000  0.08469000  0.83538000  1.0
  C  C33  1  0.86862000  0.58448000  0.66431000  1.0
  C  C34  1  0.86841000  0.91531000  0.16461000  1.0
  C  C35  1  0.13138000  0.41552000  0.33568000  1.0
  C  C36  1  0.41604000  0.18901000  0.62042000  1.0
  C  C37  1  0.58396000  0.68900000  0.87953000  1.0
  C  C38  1  0.58396000  0.81099000  0.37959000  1.0
  C  C39  1  0.41603000  0.31101000  0.12047000  1.0
  C  C40  1  0.20674000  0.14403000  0.74312000  1.0
  C  C41  1  0.79347000  0.64382000  0.75675000  1.0
  C  C42  1  0.79326000  0.85599000  0.25690000  1.0
  C  C43  1  0.20654000  0.35616000  0.24326000  1.0
  C  C44  1  0.34331000  0.12475000  0.70158000  1.0
  C  C45  1  0.65687000  0.62472000  0.79835000  1.0
  C  C46  1  0.65669000  0.87526000  0.29842000  1.0
  C  C47  1  0.34313000  0.37527000  0.20166000  1.0
  C  C48  1  0.34959000  0.27122000  0.58022000  1.0
  C  C49  1  0.65027000  0.77117000  0.91978000  1.0
  C  C50  1  0.65041000  0.72877000  0.41978000  1.0
  C  C51  1  0.34973000  0.22884000  0.08022000  1.0
  C  C52  1  0.56185000  0.17356000  0.58065000  1.0
  C  C53  1  0.43815000  0.67352000  0.91934000  1.0
  C  C54  1  0.43815000  0.82644000  0.41935000  1.0
  C  C55  1  0.56185000  0.32649000  0.08066000  1.0
  C  C56  1  0.83663000  0.15711000  0.51237000  1.0
  C  C57  1  0.16337000  0.65720000  0.98763000  1.0
  C  C58  1  0.16337000  0.84288000  0.48763000  1.0
  C  C59  1  0.83663000  0.34281000  0.01237000  1.0
  C  C60  1  0.21182000  0.28550000  0.61880000  1.0
  C  C61  1  0.78803000  0.78537000  0.88112000  1.0
  C  C62  1  0.78818000  0.71449000  0.38119000  1.0
  C  C63  1  0.21197000  0.21464000  0.11887000  1.0
  C  C64  1  0.14035000  0.22248000  0.70040000  1.0
  C  C65  1  0.85966000  0.72235000  0.79949000  1.0
  C  C66  1  0.85965000  0.77752000  0.29960000  1.0
  C  C67  1  0.14035000  0.27766000  0.20051000  1.0
  C  C68  1  0.64635000  0.27194000  0.55926000  1.0
  C  C69  1  0.35357000  0.77195000  0.94076000  1.0
  C  C70  1  0.35366000  0.72805000  0.44074000  1.0
  C  C71  1  0.64643000  0.22806000  0.05924000  1.0
  C  C72  1  0.75868000  0.05588000  0.53107000  1.0
  C  C73  1  0.24136000  0.55590000  0.96892000  1.0
  C  C74  1  0.24132000  0.94412000  0.46893000  1.0
  C  C75  1  0.75864000  0.44411000  0.03108000  1.0
  C  C76  1  0.62098000  0.06156000  0.56615000  1.0
  C  C77  1  0.37906000  0.56155000  0.93384000  1.0
  C  C78  1  0.37902000  0.93843000  0.43385000  1.0
  C  C79  1  0.62093000  0.43845000  0.06616000  1.0
  N  N80  1  0.77926000  0.26388000  0.52707000  1.0
  N  N81  1  0.22066000  0.76395000  0.97294000  1.0
  N  N82  1  0.22075000  0.73612000  0.47292000  1.0
  N  N83  1  0.77935000  0.23605000  0.02706000  1.0
  N  N84  1  0.97973000  0.97171000  0.69041000  1.0
  N  N85  1  0.02030000  0.47172000  0.80958000  1.0
  N  N86  1  0.02028000  0.02829000  0.30959000  1.0
  N  N87  1  0.97970000  0.52828000  0.19041000  1.0
  N  N88  1  0.88513000  0.02173000  0.70372000  1.0
  N  N89  1  0.11485000  0.52172000  0.79628000  1.0
  N  N90  1  0.11488000  0.97827000  0.29628000  1.0
  N  N91  1  0.88515000  0.47829000  0.20372000  1.0
  N  N92  1  0.76350000  0.29016000  0.79222000  1.0
  N  N93  1  0.23651000  0.79017000  0.70778000  1.0
  N  N94  1  0.23649000  0.70984000  0.20778000  1.0
  N  N95  1  0.76348000  0.20983000  0.29222000  1.0
  N  N96  1  0.66117000  0.32721000  0.82067000  1.0
  N  N97  1  0.33881000  0.82720000  0.67934000  1.0
  N  N98  1  0.33883000  0.67279000  0.17933000  1.0
  N  N99  1  0.66119000  0.17280000  0.32066000  1.0
  N  N100  1  0.56038000  0.06122000  0.87677000  1.0
  N  N101  1  0.43961000  0.56122000  0.62323000  1.0
  N  N102  1  0.43961000  0.93878000  0.12323000  1.0
  N  N103  1  0.56039000  0.43878000  0.37677000  1.0
  N  N104  1  0.57412000  0.00858000  0.81026000  1.0
  N  N105  1  0.42588000  0.50858000  0.68974000  1.0
  N  N106  1  0.42588000  0.99142000  0.18974000  1.0
  N  N107  1  0.57412000  0.49142000  0.31026000  1.0
  O  O108  1  0.02552000  0.33234000  0.57145000  1.0
  O  O109  1  0.97441000  0.83227000  0.92854000  1.0
  O  O110  1  0.97449000  0.66766000  0.42854000  1.0
  O  O111  1  0.02559000  0.16773000  0.07147000  1.0
  O  O112  1  0.01926000  0.12973000  0.88137000  1.0
  O  O113  1  0.98078000  0.62980000  0.61851000  1.0
  O  O114  1  0.98075000  0.87026000  0.11863000  1.0
  O  O115  1  0.01923000  0.37020000  0.38149000  1.0
  O  O116  1  0.19391000  0.46676000  0.54378000  1.0
  O  O117  1  0.80628000  0.96673000  0.95623000  1.0
  O  O118  1  0.80608000  0.53326000  0.45624000  1.0
  O  O119  1  0.19372000  0.03325000  0.04379000  1.0
  O  O120  1  0.18614000  0.99573000  0.86104000  1.0
  O  O121  1  0.81360000  0.49585000  0.63893000  1.0
  O  O122  1  0.81385000  0.00424000  0.13895000  1.0
  O  O123  1  0.18639000  0.50418000  0.36106000  1.0
  F  F124  1  0.81958000  0.94874000  0.51519000  1.0
  F  F125  1  0.18049000  0.44880000  0.98479000  1.0
  F  F126  1  0.18042000  0.05126000  0.48481000  1.0
  F  F127  1  0.81951000  0.55120000  0.01521000  1.0
