# generated using pymatgen
data_NaH5C6S(ClO2)2
_symmetry_space_group_name_H-M   'P 1'
_cell_length_a   5.44895000
_cell_length_b   10.77050000
_cell_length_c   17.25460000
_cell_angle_alpha   106.42500000
_cell_angle_beta   90.00000000
_cell_angle_gamma   89.99990000
_symmetry_Int_Tables_number   1
_chemical_formula_structural   NaH5C6S(ClO2)2
_chemical_formula_sum   'Na4 H20 C24 S4 Cl8 O16'
_cell_volume   971.31151603
_cell_formula_units_Z   4
loop_
 _symmetry_equiv_pos_site_id
 _symmetry_equiv_pos_as_xyz
  1  'x, y, z'
loop_
 _atom_site_type_symbol
 _atom_site_label
 _atom_site_symmetry_multiplicity
 _atom_site_fract_x
 _atom_site_fract_y
 _atom_site_fract_z
 _atom_site_occupancy
  Na  Na0  1  0.90129000  0.71804000  0.07996000  1.0
  Na  Na1  1  0.40129000  0.78196000  0.92004000  1.0
  Na  Na2  1  0.09871000  0.28197000  0.92004000  1.0
  Na  Na3  1  0.59871000  0.21804000  0.07996000  1.0
  H  H4  1  0.17575000  0.75478000  0.25968000  1.0
  H  H5  1  0.67575000  0.74522000  0.74032000  1.0
  H  H6  1  0.82425000  0.24522000  0.74032000  1.0
  H  H7  1  0.32425000  0.25478000  0.25967000  1.0
  H  H8  1  0.60065000  0.80526000  0.47787000  1.0
  H  H9  1  0.10065000  0.69474000  0.52213000  1.0
  H  H10  1  0.39935000  0.19474000  0.52214000  1.0
  H  H11  1  0.89936000  0.30526000  0.47786000  1.0
  H  H12  1  0.85501000  0.61394000  0.40754000  1.0
  H  H13  1  0.35502000  0.88606000  0.59246000  1.0
  H  H14  1  0.14499000  0.38606000  0.59246000  1.0
  H  H15  1  0.64499000  0.11394000  0.40754000  1.0
  H  H16  1  0.65908000  0.92397000  0.06592000  1.0
  H  H17  1  0.15908000  0.57603000  0.93408000  1.0
  H  H18  1  0.34092000  0.07603000  0.93408000  1.0
  H  H19  1  0.84092000  0.42397000  0.06592000  1.0
  H  H20  1  0.42516000  0.85577000  0.08537000  1.0
  H  H21  1  0.92516000  0.64423000  0.91463000  1.0
  H  H22  1  0.57484000  0.14423000  0.91463000  1.0
  H  H23  1  0.07484000  0.35577000  0.08537000  1.0
  C  C24  1  0.32196000  0.72362000  0.29291000  1.0
  C  C25  1  0.82196000  0.77638000  0.70709000  1.0
  C  C26  1  0.67804000  0.27638000  0.70709000  1.0
  C  C27  1  0.17803000  0.22362000  0.29291000  1.0
  C  C28  1  0.36912000  0.78924000  0.37356000  1.0
  C  C29  1  0.86913000  0.71076000  0.62644000  1.0
  C  C30  1  0.63087000  0.21076000  0.62644000  1.0
  C  C31  1  0.13087000  0.28924000  0.37356000  1.0
  C  C32  1  0.56147000  0.75194000  0.41546000  1.0
  C  C33  1  0.06147000  0.74806000  0.58454000  1.0
  C  C34  1  0.43853000  0.24806000  0.58454000  1.0
  C  C35  1  0.93853000  0.25194000  0.41546000  1.0
  C  C36  1  0.70579000  0.64631000  0.37604000  1.0
  C  C37  1  0.20580000  0.85369000  0.62396000  1.0
  C  C38  1  0.29420000  0.35369000  0.62396000  1.0
  C  C39  1  0.79421000  0.14631000  0.37604000  1.0
  C  C40  1  0.66068000  0.57953000  0.29541000  1.0
  C  C41  1  0.16068000  0.92047000  0.70459000  1.0
  C  C42  1  0.33932000  0.42047000  0.70459000  1.0
  C  C43  1  0.83932000  0.07953000  0.29541000  1.0
  C  C44  1  0.46994000  0.61909000  0.25309000  1.0
  C  C45  1  0.96994000  0.88091000  0.74691000  1.0
  C  C46  1  0.53006000  0.38091000  0.74691000  1.0
  C  C47  1  0.03006000  0.11909000  0.25309000  1.0
  S  S48  1  0.41673000  0.54518000  0.14739000  1.0
  S  S49  1  0.91673000  0.95482000  0.85261000  1.0
  S  S50  1  0.58327000  0.45482000  0.85261000  1.0
  S  S51  1  0.08326000  0.04518000  0.14739000  1.0
  Cl  Cl52  1  0.19196000  0.92270000  0.42101000  1.0
  Cl  Cl53  1  0.69196000  0.57730000  0.57899000  1.0
  Cl  Cl54  1  0.80804000  0.07730000  0.57899000  1.0
  Cl  Cl55  1  0.30804000  0.42270000  0.42101000  1.0
  Cl  Cl56  1  0.84478000  0.44880000  0.25124000  1.0
  Cl  Cl57  1  0.34478000  0.05120000  0.74876000  1.0
  Cl  Cl58  1  0.15522000  0.55120000  0.74876000  1.0
  Cl  Cl59  1  0.65522000  0.94880000  0.25124000  1.0
  O  O60  1  0.20989000  0.61471000  0.12663000  1.0
  O  O61  1  0.70989000  0.88529000  0.87337000  1.0
  O  O62  1  0.79011000  0.38529000  0.87337000  1.0
  O  O63  1  0.29011000  0.11471000  0.12663000  1.0
  O  O64  1  0.36516000  0.40729000  0.13836000  1.0
  O  O65  1  0.86517000  0.09271000  0.86164000  1.0
  O  O66  1  0.63484000  0.59271000  0.86164000  1.0
  O  O67  1  0.13483000  0.90729000  0.13836000  1.0
  O  O68  1  0.64708000  0.56279000  0.10703000  1.0
  O  O69  1  0.14707000  0.93721000  0.89297000  1.0
  O  O70  1  0.35292000  0.43721000  0.89297000  1.0
  O  O71  1  0.85293000  0.06279000  0.10703000  1.0
  O  O72  1  0.57092000  0.84035000  0.04995000  1.0
  O  O73  1  0.07092000  0.65965000  0.95005000  1.0
  O  O74  1  0.42908000  0.15965000  0.95005000  1.0
  O  O75  1  0.92908000  0.34035000  0.04995000  1.0
