# generated using pymatgen
data_SnH14C14(NO2)2
_symmetry_space_group_name_H-M   'P 1'
_cell_length_a   8.91478000
_cell_length_b   12.24670000
_cell_length_c   13.78880000
_cell_angle_alpha   109.48000000
_cell_angle_beta   90.00000000
_cell_angle_gamma   89.99990000
_symmetry_Int_Tables_number   1
_chemical_formula_structural   SnH14C14(NO2)2
_chemical_formula_sum   'Sn4 H56 C56 N8 O16'
_cell_volume   1419.24177862
_cell_formula_units_Z   4
loop_
 _symmetry_equiv_pos_site_id
 _symmetry_equiv_pos_as_xyz
  1  'x, y, z'
loop_
 _atom_site_type_symbol
 _atom_site_label
 _atom_site_symmetry_multiplicity
 _atom_site_fract_x
 _atom_site_fract_y
 _atom_site_fract_z
 _atom_site_occupancy
  Sn  Sn0  1  0.86457000  0.17552000  0.25099000  1.0
  Sn  Sn1  1  0.63543000  0.17552000  0.75099000  1.0
  Sn  Sn2  1  0.13543000  0.82448000  0.74901000  1.0
  Sn  Sn3  1  0.36457000  0.82448000  0.24901000  1.0
  H  H4  1  0.43241000  0.18691000  0.39907000  1.0
  H  H5  1  0.06759000  0.18691000  0.89907000  1.0
  H  H6  1  0.56759000  0.81309000  0.60093000  1.0
  H  H7  1  0.93241000  0.81309000  0.10093000  1.0
  H  H8  1  0.47190000  0.40412000  0.47320000  1.0
  H  H9  1  0.02809000  0.40412000  0.97320000  1.0
  H  H10  1  0.52809000  0.59588000  0.52680000  1.0
  H  H11  1  0.97190000  0.59588000  0.02679000  1.0
  H  H12  1  0.26003000  0.53396000  0.45975000  1.0
  H  H13  1  0.23997000  0.53396000  0.95975000  1.0
  H  H14  1  0.73997000  0.46604000  0.54025000  1.0
  H  H15  1  0.76003000  0.46604000  0.04025000  1.0
  H  H16  1  0.02293000  0.44273000  0.37076000  1.0
  H  H17  1  0.47707000  0.44274000  0.87077000  1.0
  H  H18  1  0.97707000  0.55727000  0.62923000  1.0
  H  H19  1  0.52293000  0.55727000  0.12923000  1.0
  H  H20  1  0.41006000  0.44902000  0.21665000  1.0
  H  H21  1  0.08994000  0.44902000  0.71665000  1.0
  H  H22  1  0.58994000  0.55098000  0.78335000  1.0
  H  H23  1  0.91007000  0.55098000  0.28335000  1.0
  H  H24  1  0.24050000  0.30487000  0.09699000  1.0
  H  H25  1  0.25950000  0.30487000  0.59699000  1.0
  H  H26  1  0.75950000  0.69512000  0.90301000  1.0
  H  H27  1  0.74051000  0.69513000  0.40301000  1.0
  H  H28  1  0.31892000  0.09355000  0.03416000  1.0
  H  H29  1  0.18108000  0.09355000  0.53416000  1.0
  H  H30  1  0.68108000  0.90645000  0.96584000  1.0
  H  H31  1  0.81892000  0.90645000  0.46584000  1.0
  H  H32  1  0.56206000  0.04058000  0.09867000  1.0
  H  H33  1  0.93794000  0.04058000  0.59867000  1.0
  H  H34  1  0.43794000  0.95942000  0.90133000  1.0
  H  H35  1  0.06206000  0.95942000  0.40133000  1.0
  H  H36  1  0.83448000  0.08309000  0.40127000  1.0
  H  H37  1  0.66552000  0.08309000  0.90127000  1.0
  H  H38  1  0.16552000  0.91691000  0.59873000  1.0
  H  H39  1  0.33448000  0.91691000  0.09873000  1.0
  H  H40  1  0.66654000  0.15818000  0.39101000  1.0
  H  H41  1  0.83346000  0.15818000  0.89101000  1.0
  H  H42  1  0.33345000  0.84182000  0.60899000  1.0
  H  H43  1  0.16654000  0.84182000  0.10899000  1.0
  H  H44  1  0.82820000  0.23871000  0.45593000  1.0
  H  H45  1  0.67180000  0.23871000  0.95593000  1.0
  H  H46  1  0.17180000  0.76129000  0.54407000  1.0
  H  H47  1  0.32820000  0.76129000  0.04407000  1.0
  H  H48  1  0.06654000  0.13440000  0.10009000  1.0
  H  H49  1  0.43346000  0.13440000  0.60009000  1.0
  H  H50  1  0.93346000  0.86560000  0.89992000  1.0
  H  H51  1  0.56654000  0.86560000  0.39991000  1.0
  H  H52  1  0.96268000  0.26379000  0.10918000  1.0
  H  H53  1  0.53732000  0.26379000  0.60918000  1.0
  H  H54  1  0.03732000  0.73621000  0.89082000  1.0
  H  H55  1  0.46268000  0.73620000  0.39082000  1.0
  H  H56  1  0.88178000  0.12274000  0.04613000  1.0
  H  H57  1  0.61823000  0.12274000  0.54613000  1.0
  H  H58  1  0.11822000  0.87726000  0.95387000  1.0
  H  H59  1  0.38177000  0.87726000  0.45387000  1.0
  C  C60  1  0.18215000  0.07714000  0.30684000  1.0
  C  C61  1  0.31784000  0.07714000  0.80684000  1.0
  C  C62  1  0.81784000  0.92286000  0.69316000  1.0
  C  C63  1  0.68215000  0.92286000  0.19316000  1.0
  C  C64  1  0.21071000  0.20571000  0.34812000  1.0
  C  C65  1  0.28929000  0.20571000  0.84812000  1.0
  C  C66  1  0.78928000  0.79429000  0.65188000  1.0
  C  C67  1  0.71071000  0.79429000  0.15188000  1.0
  C  C68  1  0.34721000  0.24868000  0.39468000  1.0
  C  C69  1  0.15279000  0.24868000  0.89468000  1.0
  C  C70  1  0.65279000  0.75132000  0.60532000  1.0
  C  C71  1  0.84721000  0.75132000  0.10532000  1.0
  C  C72  1  0.36753000  0.36803000  0.43500000  1.0
  C  C73  1  0.13247000  0.36803000  0.93500000  1.0
  C  C74  1  0.63247000  0.63197000  0.56500000  1.0
  C  C75  1  0.86753000  0.63197000  0.06500000  1.0
  C  C76  1  0.25051000  0.44011000  0.42733000  1.0
  C  C77  1  0.24949000  0.44011000  0.92733000  1.0
  C  C78  1  0.74949000  0.55989000  0.57267000  1.0
  C  C79  1  0.75051000  0.55989000  0.07267000  1.0
  C  C80  1  0.11802000  0.39058000  0.37866000  1.0
  C  C81  1  0.38198000  0.39059000  0.87867000  1.0
  C  C82  1  0.88198000  0.60941000  0.62134000  1.0
  C  C83  1  0.61802000  0.60942000  0.12134000  1.0
  C  C84  1  0.67714000  0.40619000  0.29225000  1.0
  C  C85  1  0.82286000  0.40618000  0.79225000  1.0
  C  C86  1  0.32286000  0.59381000  0.70775000  1.0
  C  C87  1  0.17714000  0.59381000  0.20775000  1.0
  C  C88  1  0.57305000  0.32060000  0.21873000  1.0
  C  C89  1  0.92695000  0.32060000  0.71873000  1.0
  C  C90  1  0.42695000  0.67940000  0.78127000  1.0
  C  C91  1  0.07305000  0.67940000  0.28127000  1.0
  C  C92  1  0.43941000  0.35772000  0.18750000  1.0
  C  C93  1  0.06059000  0.35772000  0.68750000  1.0
  C  C94  1  0.56059000  0.64228000  0.81250000  1.0
  C  C95  1  0.93941000  0.64228000  0.31250000  1.0
  C  C96  1  0.34545000  0.27623000  0.12069000  1.0
  C  C97  1  0.15455000  0.27623000  0.62069000  1.0
  C  C98  1  0.65455000  0.72376000  0.87931000  1.0
  C  C99  1  0.84546000  0.72377000  0.37931000  1.0
  C  C100  1  0.38882000  0.16017000  0.08709000  1.0
  C  C101  1  0.11119000  0.16017000  0.58709000  1.0
  C  C102  1  0.61119000  0.83983000  0.91291000  1.0
  C  C103  1  0.88882000  0.83984000  0.41291000  1.0
  C  C104  1  0.52406000  0.12992000  0.12194000  1.0
  C  C105  1  0.97595000  0.12992000  0.62194000  1.0
  C  C106  1  0.47594000  0.87008000  0.87806000  1.0
  C  C107  1  0.02406000  0.87008000  0.37806000  1.0
  C  C108  1  0.78900000  0.16263000  0.39334000  1.0
  C  C109  1  0.71100000  0.16263000  0.89334000  1.0
  C  C110  1  0.21100000  0.83737000  0.60666000  1.0
  C  C111  1  0.28900000  0.83737000  0.10666000  1.0
  C  C112  1  0.95539000  0.17405000  0.10798000  1.0
  C  C113  1  0.54461000  0.17405000  0.60798000  1.0
  C  C114  1  0.04461000  0.82595000  0.89202000  1.0
  C  C115  1  0.45539000  0.82595000  0.39202000  1.0
  N  N116  1  0.09831000  0.27530000  0.33940000  1.0
  N  N117  1  0.40169000  0.27530000  0.83940000  1.0
  N  N118  1  0.90168000  0.72470000  0.66060000  1.0
  N  N119  1  0.59832000  0.72470000  0.16060000  1.0
  N  N120  1  0.61466000  0.20853000  0.18654000  1.0
  N  N121  1  0.88534000  0.20853000  0.68654000  1.0
  N  N122  1  0.38534000  0.79147000  0.81346000  1.0
  N  N123  1  0.11467000  0.79147000  0.31346000  1.0
  O  O124  1  0.06431000  0.04143000  0.25464000  1.0
  O  O125  1  0.43569000  0.04144000  0.75464000  1.0
  O  O126  1  0.93569000  0.95856000  0.74536000  1.0
  O  O127  1  0.56430000  0.95856000  0.24536000  1.0
  O  O128  1  0.27939000  0.01423000  0.33104000  1.0
  O  O129  1  0.22062000  0.01423000  0.83104000  1.0
  O  O130  1  0.72062000  0.98576000  0.66896000  1.0
  O  O131  1  0.77938000  0.98577000  0.16896000  1.0
  O  O132  1  0.80467000  0.36532000  0.30977000  1.0
  O  O133  1  0.69533000  0.36532000  0.80978000  1.0
  O  O134  1  0.19533000  0.63468000  0.69023000  1.0
  O  O135  1  0.30466000  0.63468000  0.19022000  1.0
  O  O136  1  0.63530000  0.50853000  0.33085000  1.0
  O  O137  1  0.86470000  0.50853000  0.83085000  1.0
  O  O138  1  0.36470000  0.49147000  0.66914000  1.0
  O  O139  1  0.13530000  0.49147000  0.16915000  1.0
