# generated using pymatgen
data_ZnH17C13N3O5
_symmetry_space_group_name_H-M   'P 1'
_cell_length_a   9.70143000
_cell_length_b   10.81160000
_cell_length_c   10.88070000
_cell_angle_alpha   92.67310000
_cell_angle_beta   91.59590000
_cell_angle_gamma   91.89660000
_symmetry_Int_Tables_number   1
_chemical_formula_structural   ZnH17C13N3O5
_chemical_formula_sum   'Zn2 H34 C26 N6 O10'
_cell_volume   1138.89438175
_cell_formula_units_Z   2
loop_
 _symmetry_equiv_pos_site_id
 _symmetry_equiv_pos_as_xyz
  1  'x, y, z'
loop_
 _atom_site_type_symbol
 _atom_site_label
 _atom_site_symmetry_multiplicity
 _atom_site_fract_x
 _atom_site_fract_y
 _atom_site_fract_z
 _atom_site_occupancy
  Zn  Zn0  1  0.64848000  0.50117000  0.50168000  1.0
  Zn  Zn1  1  0.34911000  0.49201000  0.49369000  1.0
  H  H2  1  0.62431000  0.32613000  0.06844000  1.0
  H  H3  1  0.73889000  0.52422000  0.93690000  1.0
  H  H4  1  0.39375000  0.31432000  0.89916000  1.0
  H  H5  1  0.60289000  0.69380000  0.09885000  1.0
  H  H6  1  0.25622000  0.48195000  0.05996000  1.0
  H  H7  1  0.37028000  0.68201000  0.93103000  1.0
  H  H8  1  0.72134000  0.12199000  0.54178000  1.0
  H  H9  1  0.29380000  0.08104000  0.42686000  1.0
  H  H10  1  0.67226000  0.08818000  0.38643000  1.0
  H  H11  1  0.42033000  0.10493000  0.31609000  1.0
  H  H12  1  0.70430000  0.88019000  0.43400000  1.0
  H  H13  1  0.09070000  0.31400000  0.55536000  1.0
  H  H14  1  0.48315000  0.89747000  0.30862000  1.0
  H  H15  1  0.69617000  0.91318000  0.59387000  1.0
  H  H16  1  0.32238000  0.86754000  0.37324000  1.0
  H  H17  1  0.53671000  0.09446000  0.70006000  1.0
  H  H18  1  0.36068000  0.11645000  0.65843000  1.0
  H  H19  1  0.46455000  0.92488000  0.80960000  1.0
  H  H20  1  0.45755000  0.78605000  0.73919000  1.0
  H  H21  1  0.23334000  0.93151000  0.69203000  1.0
  H  H22  1  0.23033000  0.92426000  0.54161000  1.0
  H  H23  1  0.13989000  0.34635000  0.29523000  1.0
  H  H24  1  0.85968000  0.30085000  0.50541000  1.0
  H  H25  1  0.23046000  0.27410000  0.39839000  1.0
  H  H26  1  0.76889000  0.34621000  0.30961000  1.0
  H  H27  1  0.91747000  0.27945000  0.28530000  1.0
  H  H28  1  0.24584000  0.50114000  0.72462000  1.0
  H  H29  1  0.98130000  0.39862000  0.74385000  1.0
  H  H30  1  0.13542000  0.66841000  0.42392000  1.0
  H  H31  1  0.89794000  0.68244000  0.47418000  1.0
  H  H32  1  0.09876000  0.54231000  0.31677000  1.0
  H  H33  1  0.86489000  0.58906000  0.33703000  1.0
  H  H34  1  0.11204000  0.63921000  0.63024000  1.0
  H  H35  1  0.87497000  0.59999000  0.66703000  1.0
  C  C36  1  0.49706000  0.25796000  0.50409000  1.0
  C  C37  1  0.42697000  0.92662000  0.62327000  1.0
  C  C38  1  0.07008000  0.36280000  0.47106000  1.0
  C  C39  1  0.91128000  0.36999000  0.45017000  1.0
  C  C40  1  0.08405000  0.53928000  0.62400000  1.0
  C  C41  1  0.92416000  0.51619000  0.62984000  1.0
  C  C42  1  0.07715000  0.57999000  0.40926000  1.0
  C  C43  1  0.92103000  0.59443000  0.42578000  1.0
  C  C44  1  0.50675000  0.51016000  0.73954000  1.0
  C  C45  1  0.49939000  0.73345000  0.50001000  1.0
  C  C46  1  0.49228000  0.49234000  0.25960000  1.0
  C  C47  1  0.50458000  0.51044000  0.87561000  1.0
  C  C48  1  0.63234000  0.51587000  0.96643000  1.0
  C  C49  1  0.43952000  0.39836000  0.94588000  1.0
  C  C50  1  0.56842000  0.40523000  0.03600000  1.0
  C  C51  1  0.49115000  0.49937000  0.12348000  1.0
  C  C52  1  0.55638000  0.60966000  0.05305000  1.0
  C  C53  1  0.36341000  0.49197000  0.03228000  1.0
  C  C54  1  0.42711000  0.60302000  0.96267000  1.0
  C  C55  1  0.64523000  0.06968000  0.48153000  1.0
  C  C56  1  0.40043000  0.06052000  0.40313000  1.0
  C  C57  1  0.64655000  0.93029000  0.50479000  1.0
  C  C58  1  0.42065000  0.91966000  0.38908000  1.0
  C  C59  1  0.45471000  0.07019000  0.63024000  1.0
  C  C60  1  0.50042000  0.11710000  0.50560000  1.0
  C  C61  1  0.49817000  0.87489000  0.50366000  1.0
  N  N62  1  0.13168000  0.49308000  0.49988000  1.0
  N  N63  1  0.86508000  0.49343000  0.50122000  1.0
  N  N64  1  0.49145000  0.87596000  0.73185000  1.0
  N  N65  1  0.27808000  0.89028000  0.61727000  1.0
  N  N66  1  0.13283000  0.29587000  0.37187000  1.0
  N  N67  1  0.87359000  0.35762000  0.32017000  1.0
  O  O68  1  0.60474000  0.31532000  0.47064000  1.0
  O  O69  1  0.89355000  0.41443000  0.70066000  1.0
  O  O70  1  0.38471000  0.30910000  0.53343000  1.0
  O  O71  1  0.61560000  0.48052000  0.68693000  1.0
  O  O72  1  0.39395000  0.53873000  0.68331000  1.0
  O  O73  1  0.61139000  0.68440000  0.53260000  1.0
  O  O74  1  0.38855000  0.67445000  0.46437000  1.0
  O  O75  1  0.60629000  0.52276000  0.31574000  1.0
  O  O76  1  0.38134000  0.45512000  0.30900000  1.0
  O  O77  1  0.14398000  0.47737000  0.72045000  1.0
