# generated using pymatgen
data_ZnH32C48N3O4
_symmetry_space_group_name_H-M   'P 1'
_cell_length_a   8.95364000
_cell_length_b   19.58640000
_cell_length_c   25.12030000
_cell_angle_alpha   89.99990000
_cell_angle_beta   95.84330000
_cell_angle_gamma   89.99990000
_symmetry_Int_Tables_number   1
_chemical_formula_structural   ZnH32C48N3O4
_chemical_formula_sum   'Zn4 H128 C192 N12 O16'
_cell_volume   4382.44643126
_cell_formula_units_Z   4
loop_
 _symmetry_equiv_pos_site_id
 _symmetry_equiv_pos_as_xyz
  1  'x, y, z'
loop_
 _atom_site_type_symbol
 _atom_site_label
 _atom_site_symmetry_multiplicity
 _atom_site_fract_x
 _atom_site_fract_y
 _atom_site_fract_z
 _atom_site_occupancy
  Zn  Zn0  1  0.77214000  0.36820000  0.98131000  1.0
  Zn  Zn1  1  0.22786000  0.86820000  0.51869000  1.0
  Zn  Zn2  1  0.22786000  0.63181000  0.01869000  1.0
  Zn  Zn3  1  0.77214000  0.13181000  0.48131000  1.0
  H  H4  1  0.70736000  0.22375000  0.00424000  1.0
  H  H5  1  0.29264000  0.72375000  0.49575000  1.0
  H  H6  1  0.29264000  0.77625000  0.99576000  1.0
  H  H7  1  0.70736000  0.27625000  0.50425000  1.0
  H  H8  1  0.51146000  0.15292000  0.04119000  1.0
  H  H9  1  0.48854000  0.65292000  0.45881000  1.0
  H  H10  1  0.48854000  0.84708000  0.95881000  1.0
  H  H11  1  0.51146000  0.34708000  0.54119000  1.0
  H  H12  1  0.26746000  0.34047000  0.06282000  1.0
  H  H13  1  0.73254000  0.84047000  0.43718000  1.0
  H  H14  1  0.73254000  0.65953000  0.93718000  1.0
  H  H15  1  0.26746000  0.15954000  0.56282000  1.0
  H  H16  1  0.47154000  0.40263000  0.02510000  1.0
  H  H17  1  0.52845000  0.90263000  0.47490000  1.0
  H  H18  1  0.52845000  0.59737000  0.97490000  1.0
  H  H19  1  0.47155000  0.09737000  0.52510000  1.0
  H  H20  1  0.41410000  0.12400000  0.11359000  1.0
  H  H21  1  0.58590000  0.62400000  0.38641000  1.0
  H  H22  1  0.58591000  0.87600000  0.88641000  1.0
  H  H23  1  0.41409000  0.37600000  0.61359000  1.0
  H  H24  1  0.21921000  0.04952000  0.14571000  1.0
  H  H25  1  0.78079000  0.54952000  0.35429000  1.0
  H  H26  1  0.78079000  0.95048000  0.85430000  1.0
  H  H27  1  0.21921000  0.45048000  0.64571000  1.0
  H  H28  1  0.87716000  0.19104000  0.08317000  1.0
  H  H29  1  0.12284000  0.69104000  0.41683000  1.0
  H  H30  1  0.12285000  0.80896000  0.91683000  1.0
  H  H31  1  0.87716000  0.30896000  0.58317000  1.0
  H  H32  1  0.07096000  0.26572000  0.05099000  1.0
  H  H33  1  0.92904000  0.76572000  0.44901000  1.0
  H  H34  1  0.92904000  0.73428000  0.94901000  1.0
  H  H35  1  0.07096000  0.23428000  0.55099000  1.0
  H  H36  1  0.87339000  0.94180000  0.16353000  1.0
  H  H37  1  0.12662000  0.44180000  0.33647000  1.0
  H  H38  1  0.12662000  0.05820000  0.83647000  1.0
  H  H39  1  0.87338000  0.55820000  0.66353000  1.0
  H  H40  1  0.93221000  0.89498000  0.25406000  1.0
  H  H41  1  0.06780000  0.39498000  0.24594000  1.0
  H  H42  1  0.06780000  0.10502000  0.74594000  1.0
  H  H43  1  0.93221000  0.60502000  0.75406000  1.0
  H  H44  1  0.09450000  0.09206000  0.31024000  1.0
  H  H45  1  0.90550000  0.59206000  0.18976000  1.0
  H  H46  1  0.90550000  0.90794000  0.68976000  1.0
  H  H47  1  0.09450000  0.40794000  0.81024000  1.0
  H  H48  1  0.03372000  0.13912000  0.21959000  1.0
  H  H49  1  0.96628000  0.63912000  0.28041000  1.0
  H  H50  1  0.96628000  0.86088000  0.78040000  1.0
  H  H51  1  0.03371000  0.36088000  0.71960000  1.0
  H  H52  1  0.11190000  0.85869000  0.31577000  1.0
  H  H53  1  0.88810000  0.35870000  0.18423000  1.0
  H  H54  1  0.88810000  0.14130000  0.68423000  1.0
  H  H55  1  0.11191000  0.64131000  0.81577000  1.0
  H  H56  1  0.18778000  0.81626000  0.40730000  1.0
  H  H57  1  0.81221000  0.31626000  0.09271000  1.0
  H  H58  1  0.81221000  0.18374000  0.59270000  1.0
  H  H59  1  0.18779000  0.68374000  0.90730000  1.0
  H  H60  1  0.11287000  0.00475000  0.47484000  1.0
  H  H61  1  0.88713000  0.50475000  0.02516000  1.0
  H  H62  1  0.88713000  0.99525000  0.52516000  1.0
  H  H63  1  0.11287000  0.49525000  0.97484000  1.0
  H  H64  1  0.02555000  0.05455000  0.38747000  1.0
  H  H65  1  0.97445000  0.55455000  0.11253000  1.0
  H  H66  1  0.97445000  0.94545000  0.61253000  1.0
  H  H67  1  0.02555000  0.44545000  0.88747000  1.0
  H  H68  1  0.92580000  0.06712000  0.02668000  1.0
  H  H69  1  0.07420000  0.56712000  0.47332000  1.0
  H  H70  1  0.07420000  0.93288000  0.97332000  1.0
  H  H71  1  0.92580000  0.43288000  0.52668000  1.0
  H  H72  1  0.71907000  0.03424000  0.96170000  1.0
  H  H73  1  0.28093000  0.53424000  0.53830000  1.0
  H  H74  1  0.28093000  0.96576000  0.03830000  1.0
  H  H75  1  0.71907000  0.46576000  0.46170000  1.0
  H  H76  1  0.44790000  0.99064000  0.09054000  1.0
  H  H77  1  0.55209000  0.49064000  0.40946000  1.0
  H  H78  1  0.55210000  0.00936000  0.90946000  1.0
  H  H79  1  0.44790000  0.50936000  0.59054000  1.0
  H  H80  1  0.65191000  0.02743000  0.15515000  1.0
  H  H81  1  0.34809000  0.52743000  0.34485000  1.0
  H  H82  1  0.34809000  0.97258000  0.84485000  1.0
  H  H83  1  0.65191000  0.47258000  0.65515000  1.0
  H  H84  1  0.25969000  0.36140000  0.92075000  1.0
  H  H85  1  0.74032000  0.86140000  0.57925000  1.0
  H  H86  1  0.74032000  0.63860000  0.07925000  1.0
  H  H87  1  0.25969000  0.13860000  0.42075000  1.0
  H  H88  1  0.47315000  0.29941000  0.88655000  1.0
  H  H89  1  0.52686000  0.79941000  0.61345000  1.0
  H  H90  1  0.52685000  0.70059000  0.11345000  1.0
  H  H91  1  0.47315000  0.20059000  0.38655000  1.0
  H  H92  1  0.24470000  0.10856000  0.90601000  1.0
  H  H93  1  0.75530000  0.60856000  0.59399000  1.0
  H  H94  1  0.75530000  0.89144000  0.09399000  1.0
  H  H95  1  0.24470000  0.39144000  0.40601000  1.0
  H  H96  1  0.03262000  0.17188000  0.94132000  1.0
  H  H97  1  0.96738000  0.67188000  0.55867000  1.0
  H  H98  1  0.96738000  0.82812000  0.05868000  1.0
  H  H99  1  0.03262000  0.32812000  0.44132000  1.0
  H  H100  1  0.67877000  0.19711000  0.91876000  1.0
  H  H101  1  0.32123000  0.69711000  0.58124000  1.0
  H  H102  1  0.32124000  0.80289000  0.08124000  1.0
  H  H103  1  0.67877000  0.30289000  0.41876000  1.0
  H  H104  1  0.86275000  0.12959000  0.87371000  1.0
  H  H105  1  0.13725000  0.62959000  0.62629000  1.0
  H  H106  1  0.13725000  0.87041000  0.12629000  1.0
  H  H107  1  0.86275000  0.37041000  0.37371000  1.0
  H  H108  1  0.78178000  0.06148000  0.79272000  1.0
  H  H109  1  0.21822000  0.56148000  0.70728000  1.0
  H  H110  1  0.21822000  0.93852000  0.20728000  1.0
  H  H111  1  0.78178000  0.43852000  0.29271000  1.0
  H  H112  1  0.32488000  0.12320000  0.80446000  1.0
  H  H113  1  0.67512000  0.62320000  0.69554000  1.0
  H  H114  1  0.67512000  0.87680000  0.19554000  1.0
  H  H115  1  0.32488000  0.37680000  0.30446000  1.0
  H  H116  1  0.64020000  0.96529000  0.75437000  1.0
  H  H117  1  0.35980000  0.46529000  0.74563000  1.0
  H  H118  1  0.35980000  0.03471000  0.24563000  1.0
  H  H119  1  0.64019000  0.53471000  0.25437000  1.0
  H  H120  1  0.54782000  0.90948000  0.66837000  1.0
  H  H121  1  0.45217000  0.40948000  0.83163000  1.0
  H  H122  1  0.45217000  0.09052000  0.33163000  1.0
  H  H123  1  0.54782000  0.59052000  0.16837000  1.0
  H  H124  1  0.25812000  0.07987000  0.62763000  1.0
  H  H125  1  0.74188000  0.57987000  0.87237000  1.0
  H  H126  1  0.74188000  0.92013000  0.37237000  1.0
  H  H127  1  0.25812000  0.42012000  0.12763000  1.0
  H  H128  1  0.34533000  0.13568000  0.71446000  1.0
  H  H129  1  0.65467000  0.63568000  0.78554000  1.0
  H  H130  1  0.65467000  0.86432000  0.28554000  1.0
  H  H131  1  0.34533000  0.36432000  0.21446000  1.0
  C  C132  1  0.60789000  0.24692000  0.01832000  1.0
  C  C133  1  0.39211000  0.74692000  0.48168000  1.0
  C  C134  1  0.39211000  0.75308000  0.98168000  1.0
  C  C135  1  0.60789000  0.25308000  0.51832000  1.0
  C  C136  1  0.49921000  0.20824000  0.03957000  1.0
  C  C137  1  0.50079000  0.70824000  0.46043000  1.0
  C  C138  1  0.50079000  0.79176000  0.96043000  1.0
  C  C139  1  0.49921000  0.29176000  0.53957000  1.0
  C  C140  1  0.37294000  0.24075000  0.05699000  1.0
  C  C141  1  0.62706000  0.74075000  0.44301000  1.0
  C  C142  1  0.62706000  0.75925000  0.94301000  1.0
  C  C143  1  0.37294000  0.25925000  0.55699000  1.0
  C  C144  1  0.36283000  0.31190000  0.05085000  1.0
  C  C145  1  0.63717000  0.81190000  0.44915000  1.0
  C  C146  1  0.63717000  0.68810000  0.94915000  1.0
  C  C147  1  0.36283000  0.18810000  0.55085000  1.0
  C  C148  1  0.47711000  0.34717000  0.02944000  1.0
  C  C149  1  0.52289000  0.84718000  0.47056000  1.0
  C  C150  1  0.52289000  0.65283000  0.97056000  1.0
  C  C151  1  0.47711000  0.15283000  0.52944000  1.0
  C  C152  1  0.25700000  0.20016000  0.07962000  1.0
  C  C153  1  0.74300000  0.70017000  0.42038000  1.0
  C  C154  1  0.74300000  0.79984000  0.92038000  1.0
  C  C155  1  0.25701000  0.29984000  0.57962000  1.0
  C  C156  1  0.29655000  0.13917000  0.10705000  1.0
  C  C157  1  0.70345000  0.63917000  0.39295000  1.0
  C  C158  1  0.70346000  0.86083000  0.89295000  1.0
  C  C159  1  0.29655000  0.36083000  0.60705000  1.0
  C  C160  1  0.18770000  0.09730000  0.12527000  1.0
  C  C161  1  0.81230000  0.59730000  0.37473000  1.0
  C  C162  1  0.81230000  0.90270000  0.87473000  1.0
  C  C163  1  0.18770000  0.40270000  0.62527000  1.0
  C  C164  1  0.03578000  0.11572000  0.11645000  1.0
  C  C165  1  0.96422000  0.61572000  0.38355000  1.0
  C  C166  1  0.96422000  0.88428000  0.88355000  1.0
  C  C167  1  0.03578000  0.38428000  0.61645000  1.0
  C  C168  1  0.99540000  0.17725000  0.09043000  1.0
  C  C169  1  0.00461000  0.67725000  0.40957000  1.0
  C  C170  1  0.00460000  0.82275000  0.90957000  1.0
  C  C171  1  0.99540000  0.32275000  0.59043000  1.0
  C  C172  1  0.10501000  0.21913000  0.07250000  1.0
  C  C173  1  0.89499000  0.71913000  0.42750000  1.0
  C  C174  1  0.89499000  0.78087000  0.92750000  1.0
  C  C175  1  0.10501000  0.28087000  0.57250000  1.0
  C  C176  1  0.94928000  0.04377000  0.18525000  1.0
  C  C177  1  0.05071000  0.54377000  0.31475000  1.0
  C  C178  1  0.05072000  0.95623000  0.81475000  1.0
  C  C179  1  0.94928000  0.45623000  0.68525000  1.0
  C  C180  1  0.92027000  0.97493000  0.19577000  1.0
  C  C181  1  0.07973000  0.47493000  0.30423000  1.0
  C  C182  1  0.07973000  0.02507000  0.80423000  1.0
  C  C183  1  0.92027000  0.52507000  0.69577000  1.0
  C  C184  1  0.95494000  0.94869000  0.24688000  1.0
  C  C185  1  0.04506000  0.44869000  0.25312000  1.0
  C  C186  1  0.04506000  0.05131000  0.75312000  1.0
  C  C187  1  0.95494000  0.55131000  0.74688000  1.0
  C  C188  1  0.01883000  0.98969000  0.28912000  1.0
  C  C189  1  0.98117000  0.48969000  0.21088000  1.0
  C  C190  1  0.98117000  0.01031000  0.71088000  1.0
  C  C191  1  0.01883000  0.51031000  0.78912000  1.0
  C  C192  1  0.04448000  0.05895000  0.27839000  1.0
  C  C193  1  0.95552000  0.55895000  0.22161000  1.0
  C  C194  1  0.95552000  0.94105000  0.72161000  1.0
  C  C195  1  0.04447000  0.44105000  0.77839000  1.0
  C  C196  1  0.01069000  0.08562000  0.22745000  1.0
  C  C197  1  0.98931000  0.58563000  0.27255000  1.0
  C  C198  1  0.98931000  0.91438000  0.77255000  1.0
  C  C199  1  0.01069000  0.41438000  0.72745000  1.0
  C  C200  1  0.06150000  0.96125000  0.34258000  1.0
  C  C201  1  0.93850000  0.46125000  0.15742000  1.0
  C  C202  1  0.93850000  0.03875000  0.65742000  1.0
  C  C203  1  0.06150000  0.53875000  0.84258000  1.0
  C  C204  1  0.10624000  0.89272000  0.34983000  1.0
  C  C205  1  0.89376000  0.39273000  0.15017000  1.0
  C  C206  1  0.89376000  0.10728000  0.65017000  1.0
  C  C207  1  0.10624000  0.60728000  0.84983000  1.0
  C  C208  1  0.15008000  0.86879000  0.40090000  1.0
  C  C209  1  0.84992000  0.36879000  0.09910000  1.0
  C  C210  1  0.84992000  0.13121000  0.59910000  1.0
  C  C211  1  0.15009000  0.63121000  0.90090000  1.0
  C  C212  1  0.10836000  0.97396000  0.43863000  1.0
  C  C213  1  0.89163000  0.47397000  0.06137000  1.0
  C  C214  1  0.89163000  0.02603000  0.56137000  1.0
  C  C215  1  0.10837000  0.52604000  0.93863000  1.0
  C  C216  1  0.06221000  0.00155000  0.38877000  1.0
  C  C217  1  0.93779000  0.50155000  0.11123000  1.0
  C  C218  1  0.93779000  0.99845000  0.61123000  1.0
  C  C219  1  0.06221000  0.49845000  0.88877000  1.0
  C  C220  1  0.80487000  0.05054000  0.09604000  1.0
  C  C221  1  0.19513000  0.55054000  0.40396000  1.0
  C  C222  1  0.19513000  0.94946000  0.90396000  1.0
  C  C223  1  0.80487000  0.44946000  0.59604000  1.0
  C  C224  1  0.82001000  0.05125000  0.04078000  1.0
  C  C225  1  0.17999000  0.55125000  0.45922000  1.0
  C  C226  1  0.17999000  0.94875000  0.95922000  1.0
  C  C227  1  0.82001000  0.44875000  0.54078000  1.0
  C  C228  1  0.70135000  0.03218000  0.00392000  1.0
  C  C229  1  0.29864000  0.53218000  0.49608000  1.0
  C  C230  1  0.29864000  0.96782000  0.99608000  1.0
  C  C231  1  0.70136000  0.46782000  0.50392000  1.0
  C  C232  1  0.56267000  0.01012000  0.01976000  1.0
  C  C233  1  0.43733000  0.51012000  0.48024000  1.0
  C  C234  1  0.43733000  0.98988000  0.98024000  1.0
  C  C235  1  0.56267000  0.48988000  0.51976000  1.0
  C  C236  1  0.55062000  0.00844000  0.07530000  1.0
  C  C237  1  0.44937000  0.50844000  0.42470000  1.0
  C  C238  1  0.44938000  0.99156000  0.92470000  1.0
  C  C239  1  0.55062000  0.49156000  0.57530000  1.0
  C  C240  1  0.66725000  0.02890000  0.11266000  1.0
  C  C241  1  0.33274000  0.52890000  0.38734000  1.0
  C  C242  1  0.33275000  0.97110000  0.88734000  1.0
  C  C243  1  0.66725000  0.47110000  0.61266000  1.0
  C  C244  1  0.00306000  0.30874000  0.95103000  1.0
  C  C245  1  0.99694000  0.80874000  0.54897000  1.0
  C  C246  1  0.99694000  0.69126000  0.04897000  1.0
  C  C247  1  0.00306000  0.19126000  0.45103000  1.0
  C  C248  1  0.13087000  0.27055000  0.93136000  1.0
  C  C249  1  0.86913000  0.77055000  0.56863000  1.0
  C  C250  1  0.86913000  0.72945000  0.06863000  1.0
  C  C251  1  0.13087000  0.22945000  0.43137000  1.0
  C  C252  1  0.25666000  0.30596000  0.91669000  1.0
  C  C253  1  0.74335000  0.80596000  0.58332000  1.0
  C  C254  1  0.74335000  0.69404000  0.08331000  1.0
  C  C255  1  0.25666000  0.19404000  0.41669000  1.0
  C  C256  1  0.37575000  0.27105000  0.89749000  1.0
  C  C257  1  0.62425000  0.77106000  0.60251000  1.0
  C  C258  1  0.62425000  0.72894000  0.10252000  1.0
  C  C259  1  0.37575000  0.22894000  0.39749000  1.0
  C  C260  1  0.36977000  0.19975000  0.89152000  1.0
  C  C261  1  0.63023000  0.69975000  0.60847000  1.0
  C  C262  1  0.63023000  0.80024000  0.10848000  1.0
  C  C263  1  0.36978000  0.30025000  0.39153000  1.0
  C  C264  1  0.24585000  0.16421000  0.90795000  1.0
  C  C265  1  0.75415000  0.66421000  0.59205000  1.0
  C  C266  1  0.75415000  0.83579000  0.09205000  1.0
  C  C267  1  0.24585000  0.33579000  0.40795000  1.0
  C  C268  1  0.12817000  0.19913000  0.92794000  1.0
  C  C269  1  0.87183000  0.69913000  0.57206000  1.0
  C  C270  1  0.87183000  0.80087000  0.07206000  1.0
  C  C271  1  0.12817000  0.30087000  0.42794000  1.0
  C  C272  1  0.48729000  0.16249000  0.86574000  1.0
  C  C273  1  0.51271000  0.66249000  0.63426000  1.0
  C  C274  1  0.51271000  0.83751000  0.13426000  1.0
  C  C275  1  0.48730000  0.33751000  0.36574000  1.0
  C  C276  1  0.64030000  0.16537000  0.88449000  1.0
  C  C277  1  0.35970000  0.66537000  0.61551000  1.0
  C  C278  1  0.35971000  0.83463000  0.11551000  1.0
  C  C279  1  0.64030000  0.33463000  0.38449000  1.0
  C  C280  1  0.74404000  0.12741000  0.85885000  1.0
  C  C281  1  0.25596000  0.62741000  0.64115000  1.0
  C  C282  1  0.25596000  0.87259000  0.14115000  1.0
  C  C283  1  0.74404000  0.37259000  0.35885000  1.0
  C  C284  1  0.69857000  0.08863000  0.81346000  1.0
  C  C285  1  0.30143000  0.58863000  0.68654000  1.0
  C  C286  1  0.30143000  0.91137000  0.18654000  1.0
  C  C287  1  0.69857000  0.41137000  0.31346000  1.0
  C  C288  1  0.54711000  0.08812000  0.79229000  1.0
  C  C289  1  0.45289000  0.58812000  0.70771000  1.0
  C  C290  1  0.45290000  0.91188000  0.20771000  1.0
  C  C291  1  0.54710000  0.41188000  0.29229000  1.0
  C  C292  1  0.44327000  0.12405000  0.81978000  1.0
  C  C293  1  0.55673000  0.62405000  0.68022000  1.0
  C  C294  1  0.55673000  0.87595000  0.18022000  1.0
  C  C295  1  0.44327000  0.37595000  0.31978000  1.0
  C  C296  1  0.49753000  0.05410000  0.74101000  1.0
  C  C297  1  0.50247000  0.55410000  0.75898000  1.0
  C  C298  1  0.50247000  0.94590000  0.25899000  1.0
  C  C299  1  0.49753000  0.44590000  0.24101000  1.0
  C  C300  1  0.55585000  0.99075000  0.72683000  1.0
  C  C301  1  0.44415000  0.49074000  0.77317000  1.0
  C  C302  1  0.44415000  0.00926000  0.27317000  1.0
  C  C303  1  0.55584000  0.50925000  0.22683000  1.0
  C  C304  1  0.50511000  0.95946000  0.67850000  1.0
  C  C305  1  0.49488000  0.45946000  0.82150000  1.0
  C  C306  1  0.49488000  0.04054000  0.32150000  1.0
  C  C307  1  0.50511000  0.54054000  0.17850000  1.0
  C  C308  1  0.34154000  0.05541000  0.65595000  1.0
  C  C309  1  0.65846000  0.55541000  0.84405000  1.0
  C  C310  1  0.65846000  0.94459000  0.34405000  1.0
  C  C311  1  0.34154000  0.44459000  0.15595000  1.0
  C  C312  1  0.38937000  0.08582000  0.70464000  1.0
  C  C313  1  0.61063000  0.58582000  0.79536000  1.0
  C  C314  1  0.61063000  0.91418000  0.29536000  1.0
  C  C315  1  0.38937000  0.41418000  0.20464000  1.0
  C  C316  1  0.39766000  0.99170000  0.64246000  1.0
  C  C317  1  0.60233000  0.49170000  0.85754000  1.0
  C  C318  1  0.60234000  0.00830000  0.35754000  1.0
  C  C319  1  0.39766000  0.50830000  0.14246000  1.0
  C  C320  1  0.33822000  0.95999000  0.59029000  1.0
  C  C321  1  0.66177000  0.45999000  0.90971000  1.0
  C  C322  1  0.66177000  0.04001000  0.40971000  1.0
  C  C323  1  0.33822000  0.54001000  0.09029000  1.0
  N  N324  1  0.92446000  0.07130000  0.13322000  1.0
  N  N325  1  0.07554000  0.57131000  0.36678000  1.0
  N  N326  1  0.07554000  0.92870000  0.86678000  1.0
  N  N327  1  0.92446000  0.42870000  0.63322000  1.0
  N  N328  1  0.59809000  0.31527000  0.01350000  1.0
  N  N329  1  0.40191000  0.81527000  0.48650000  1.0
  N  N330  1  0.40191000  0.68473000  0.98650000  1.0
  N  N331  1  0.59809000  0.18473000  0.51350000  1.0
  N  N332  1  0.15259000  0.90846000  0.44492000  1.0
  N  N333  1  0.84741000  0.40846000  0.05508000  1.0
  N  N334  1  0.84741000  0.09154000  0.55508000  1.0
  N  N335  1  0.15259000  0.59154000  0.94492000  1.0
  O  O336  1  0.89078000  0.27543000  0.96622000  1.0
  O  O337  1  0.10922000  0.77543000  0.53378000  1.0
  O  O338  1  0.10922000  0.72457000  0.03378000  1.0
  O  O339  1  0.89078000  0.22457000  0.46622000  1.0
  O  O340  1  0.00661000  0.37351000  0.95283000  1.0
  O  O341  1  0.99340000  0.87351000  0.54717000  1.0
  O  O342  1  0.99339000  0.62649000  0.04717000  1.0
  O  O343  1  0.00661000  0.12649000  0.45283000  1.0
  O  O344  1  0.34327000  0.89388000  0.58785000  1.0
  O  O345  1  0.65673000  0.39388000  0.91215000  1.0
  O  O346  1  0.65673000  0.10612000  0.41215000  1.0
  O  O347  1  0.34327000  0.60612000  0.08785000  1.0
  O  O348  1  0.28396000  0.99701000  0.55228000  1.0
  O  O349  1  0.71604000  0.49701000  0.94772000  1.0
  O  O350  1  0.71604000  0.00299000  0.44772000  1.0
  O  O351  1  0.28396000  0.50299000  0.05228000  1.0
