# generated using pymatgen
data_CsH7C15N4O
_symmetry_space_group_name_H-M   'P 1'
_cell_length_a   8.88456000
_cell_length_b   10.19650000
_cell_length_c   16.36640000
_cell_angle_alpha   89.99950000
_cell_angle_beta   98.75410000
_cell_angle_gamma   89.99970000
_symmetry_Int_Tables_number   1
_chemical_formula_structural   CsH7C15N4O
_chemical_formula_sum   'Cs4 H28 C60 N16 O4'
_cell_volume   1465.38333908
_cell_formula_units_Z   4
loop_
 _symmetry_equiv_pos_site_id
 _symmetry_equiv_pos_as_xyz
  1  'x, y, z'
loop_
 _atom_site_type_symbol
 _atom_site_label
 _atom_site_symmetry_multiplicity
 _atom_site_fract_x
 _atom_site_fract_y
 _atom_site_fract_z
 _atom_site_occupancy
  Cs  Cs0  1  0.14635000  0.87501000  0.91751000  1.0
  Cs  Cs1  1  0.35365000  0.37502000  0.08249000  1.0
  Cs  Cs2  1  0.85365000  0.12498000  0.08249000  1.0
  Cs  Cs3  1  0.64635000  0.62498000  0.91751000  1.0
  H  H4  1  0.24749000  0.79488000  0.72914000  1.0
  H  H5  1  0.25251000  0.29489000  0.27086000  1.0
  H  H6  1  0.75251000  0.20511000  0.27086000  1.0
  H  H7  1  0.74749000  0.70511000  0.72914000  1.0
  H  H8  1  0.07590000  0.92274000  0.62573000  1.0
  H  H9  1  0.42409000  0.42275000  0.37426000  1.0
  H  H10  1  0.92409000  0.07726000  0.37427000  1.0
  H  H11  1  0.57590000  0.57726000  0.62573000  1.0
  H  H12  1  0.83869000  0.56820000  0.53994000  1.0
  H  H13  1  0.66131000  0.06820000  0.46006000  1.0
  H  H14  1  0.16131000  0.43180000  0.46006000  1.0
  H  H15  1  0.33869000  0.93181000  0.53994000  1.0
  H  H16  1  0.00219000  0.44059000  0.64723000  1.0
  H  H17  1  0.49781000  0.94059000  0.35276000  1.0
  H  H18  1  0.99781000  0.55941000  0.35277000  1.0
  H  H19  1  0.50220000  0.05941000  0.64724000  1.0
  H  H20  1  0.87344000  0.81665000  0.45076000  1.0
  H  H21  1  0.62656000  0.31664000  0.54924000  1.0
  H  H22  1  0.12656000  0.18336000  0.54924000  1.0
  H  H23  1  0.37345000  0.68337000  0.45076000  1.0
  H  H24  1  0.85463000  0.93793000  0.52612000  1.0
  H  H25  1  0.64537000  0.43793000  0.47388000  1.0
  H  H26  1  0.14538000  0.06207000  0.47388000  1.0
  H  H27  1  0.35463000  0.56208000  0.52612000  1.0
  H  H28  1  0.72330000  0.80346000  0.51017000  1.0
  H  H29  1  0.77669000  0.30346000  0.48983000  1.0
  H  H30  1  0.27669000  0.19654000  0.48983000  1.0
  H  H31  1  0.22331000  0.69655000  0.51017000  1.0
  C  C32  1  0.22990000  0.54130000  0.76430000  1.0
  C  C33  1  0.27010000  0.04131000  0.23571000  1.0
  C  C34  1  0.77011000  0.45870000  0.23570000  1.0
  C  C35  1  0.72990000  0.95869000  0.76430000  1.0
  C  C36  1  0.13562000  0.60956000  0.69651000  1.0
  C  C37  1  0.36437000  0.10956000  0.30349000  1.0
  C  C38  1  0.86438000  0.39044000  0.30349000  1.0
  C  C39  1  0.63563000  0.89044000  0.69651000  1.0
  C  C40  1  0.15685000  0.74560000  0.68816000  1.0
  C  C41  1  0.34314000  0.24560000  0.31184000  1.0
  C  C42  1  0.84315000  0.25440000  0.31184000  1.0
  C  C43  1  0.65686000  0.75440000  0.68816000  1.0
  C  C44  1  0.06162000  0.81677000  0.62945000  1.0
  C  C45  1  0.43837000  0.31677000  0.37054000  1.0
  C  C46  1  0.93838000  0.18323000  0.37055000  1.0
  C  C47  1  0.56163000  0.68323000  0.62945000  1.0
  C  C48  1  0.94503000  0.75454000  0.57536000  1.0
  C  C49  1  0.55496000  0.25454000  0.42464000  1.0
  C  C50  1  0.05497000  0.24546000  0.42464000  1.0
  C  C51  1  0.44503000  0.74547000  0.57536000  1.0
  C  C52  1  0.92784000  0.61770000  0.58188000  1.0
  C  C53  1  0.57215000  0.11770000  0.41812000  1.0
  C  C54  1  0.07215000  0.38230000  0.41812000  1.0
  C  C55  1  0.42785000  0.88230000  0.58188000  1.0
  C  C56  1  0.01994000  0.54596000  0.64206000  1.0
  C  C57  1  0.48005000  0.04596000  0.35794000  1.0
  C  C58  1  0.98006000  0.45404000  0.35794000  1.0
  C  C59  1  0.51995000  0.95404000  0.64206000  1.0
  C  C60  1  0.19432000  0.39955000  0.78469000  1.0
  C  C61  1  0.30569000  0.89956000  0.21531000  1.0
  C  C62  1  0.80569000  0.60045000  0.21531000  1.0
  C  C63  1  0.69432000  0.10044000  0.78469000  1.0
  C  C64  1  0.11147000  0.38581000  0.85131000  1.0
  C  C65  1  0.38853000  0.88582000  0.14869000  1.0
  C  C66  1  0.88853000  0.61419000  0.14869000  1.0
  C  C67  1  0.61148000  0.11419000  0.85131000  1.0
  C  C68  1  0.05470000  0.49874000  0.88618000  1.0
  C  C69  1  0.44531000  0.99875000  0.11381000  1.0
  C  C70  1  0.94530000  0.50126000  0.11381000  1.0
  C  C71  1  0.55470000  0.00125000  0.88619000  1.0
  C  C72  1  0.08225000  0.26775000  0.89106000  1.0
  C  C73  1  0.41775000  0.76775000  0.10894000  1.0
  C  C74  1  0.91775000  0.73225000  0.10894000  1.0
  C  C75  1  0.58225000  0.23225000  0.89106000  1.0
  C  C76  1  0.25469000  0.30035000  0.74050000  1.0
  C  C77  1  0.24532000  0.80035000  0.25949000  1.0
  C  C78  1  0.74531000  0.69965000  0.25949000  1.0
  C  C79  1  0.75468000  0.19965000  0.74051000  1.0
  C  C80  1  0.23968000  0.16516000  0.75672000  1.0
  C  C81  1  0.26033000  0.66515000  0.24328000  1.0
  C  C82  1  0.76033000  0.83484000  0.24328000  1.0
  C  C83  1  0.73967000  0.33484000  0.75672000  1.0
  C  C84  1  0.33848000  0.33184000  0.67617000  1.0
  C  C85  1  0.16152000  0.83184000  0.32383000  1.0
  C  C86  1  0.66152000  0.66816000  0.32383000  1.0
  C  C87  1  0.83848000  0.16816000  0.67617000  1.0
  C  C88  1  0.84268000  0.83283000  0.51254000  1.0
  C  C89  1  0.65731000  0.33283000  0.48746000  1.0
  C  C90  1  0.15732000  0.16718000  0.48746000  1.0
  C  C91  1  0.34268000  0.66718000  0.51254000  1.0
  N  N92  1  0.00776000  0.59172000  0.91616000  1.0
  N  N93  1  0.49224000  0.09172000  0.08384000  1.0
  N  N94  1  0.99222000  0.40828000  0.08383000  1.0
  N  N95  1  0.50777000  0.90828000  0.91616000  1.0
  N  N96  1  0.05584000  0.17559000  0.92943000  1.0
  N  N97  1  0.44415000  0.67559000  0.07057000  1.0
  N  N98  1  0.94416000  0.82441000  0.07057000  1.0
  N  N99  1  0.55584000  0.32441000  0.92943000  1.0
  N  N100  1  0.22917000  0.05286000  0.76963000  1.0
  N  N101  1  0.27083000  0.55286000  0.23037000  1.0
  N  N102  1  0.77084000  0.94714000  0.23037000  1.0
  N  N103  1  0.72916000  0.44713000  0.76962000  1.0
  N  N104  1  0.40791000  0.35555000  0.62262000  1.0
  N  N105  1  0.09209000  0.85555000  0.37738000  1.0
  N  N106  1  0.59209000  0.64445000  0.37738000  1.0
  N  N107  1  0.90791000  0.14444000  0.62262000  1.0
  O  O108  1  0.33553000  0.59413000  0.81108000  1.0
  O  O109  1  0.16447000  0.09413000  0.18892000  1.0
  O  O110  1  0.66448000  0.40587000  0.18891000  1.0
  O  O111  1  0.83552000  0.90586000  0.81109000  1.0
