# generated using pymatgen
data_HoCuH16C16(NO)8
_symmetry_space_group_name_H-M   'P 1'
_cell_length_a   9.23055000
_cell_length_b   10.84910000
_cell_length_c   10.84910000
_cell_angle_alpha   87.89210000
_cell_angle_beta   72.61320000
_cell_angle_gamma   72.61310000
_symmetry_Int_Tables_number   1
_chemical_formula_structural   HoCuH16C16(NO)8
_chemical_formula_sum   'Ho2 Cu2 H32 C32 N16 O16'
_cell_volume   987.80175170
_cell_formula_units_Z   2
loop_
 _symmetry_equiv_pos_site_id
 _symmetry_equiv_pos_as_xyz
  1  'x, y, z'
loop_
 _atom_site_type_symbol
 _atom_site_label
 _atom_site_symmetry_multiplicity
 _atom_site_fract_x
 _atom_site_fract_y
 _atom_site_fract_z
 _atom_site_occupancy
  Ho  Ho0  1  0.25000000  0.96739000  0.03261000  1.0
  Ho  Ho1  1  0.75000000  0.03261000  0.96739000  1.0
  Cu  Cu2  1  0.00000000  0.00000000  0.50000000  1.0
  Cu  Cu3  1  0.50000000  0.50000000  0.00000000  1.0
  H  H4  1  0.35381000  0.32251000  0.38487000  1.0
  H  H5  1  0.14618000  0.61513000  0.67749000  1.0
  H  H6  1  0.64618000  0.67749000  0.61513000  1.0
  H  H7  1  0.85382000  0.38487000  0.32250000  1.0
  H  H8  1  0.06325000  0.36034000  0.44750000  1.0
  H  H9  1  0.43674000  0.55250000  0.63966000  1.0
  H  H10  1  0.93674000  0.63966000  0.55250000  1.0
  H  H11  1  0.56326000  0.44750000  0.36034000  1.0
  H  H12  1  0.93179000  0.25103000  0.63768000  1.0
  H  H13  1  0.56821000  0.36232000  0.74896000  1.0
  H  H14  1  0.06821000  0.74896000  0.36232000  1.0
  H  H15  1  0.43179000  0.63768000  0.25103000  1.0
  H  H16  1  0.38433000  0.06888000  0.69837000  1.0
  H  H17  1  0.11568000  0.30163000  0.93112000  1.0
  H  H18  1  0.61567000  0.93112000  0.30163000  1.0
  H  H19  1  0.88432000  0.69837000  0.06888000  1.0
  H  H20  1  0.38837000  0.07104000  0.20768000  1.0
  H  H21  1  0.11164000  0.79232000  0.92896000  1.0
  H  H22  1  0.61164000  0.92896000  0.79232000  1.0
  H  H23  1  0.88837000  0.20768000  0.07104000  1.0
  H  H24  1  0.31366000  0.97193000  0.29201000  1.0
  H  H25  1  0.18634000  0.70799000  0.02807000  1.0
  H  H26  1  0.68634000  0.02807000  0.70799000  1.0
  H  H27  1  0.81366000  0.29201000  0.97193000  1.0
  H  H28  1  0.08376000  0.23534000  0.16312000  1.0
  H  H29  1  0.41624000  0.83688000  0.76467000  1.0
  H  H30  1  0.91624000  0.76466000  0.83689000  1.0
  H  H31  1  0.58376000  0.16312000  0.23533000  1.0
  H  H32  1  0.96596000  0.15395000  0.22513000  1.0
  H  H33  1  0.53404000  0.77487000  0.84605000  1.0
  H  H34  1  0.03405000  0.84605000  0.77487000  1.0
  H  H35  1  0.46595000  0.22513000  0.15395000  1.0
  C  C36  1  0.56248000  0.16582000  0.49277000  1.0
  C  C37  1  0.93752000  0.50723000  0.83419000  1.0
  C  C38  1  0.43752000  0.83419000  0.50723000  1.0
  C  C39  1  0.06248000  0.49277000  0.16581000  1.0
  C  C40  1  0.38973000  0.19164000  0.53583000  1.0
  C  C41  1  0.11027000  0.46417000  0.80836000  1.0
  C  C42  1  0.61027000  0.80836000  0.46417000  1.0
  C  C43  1  0.88973000  0.53583000  0.19164000  1.0
  C  C44  1  0.29692000  0.27497000  0.46706000  1.0
  C  C45  1  0.20308000  0.53294000  0.72503000  1.0
  C  C46  1  0.70308000  0.72503000  0.53294000  1.0
  C  C47  1  0.79692000  0.46706000  0.27497000  1.0
  C  C48  1  0.13298000  0.29658000  0.50281000  1.0
  C  C49  1  0.36701000  0.49719000  0.70342000  1.0
  C  C50  1  0.86701000  0.70342000  0.49720000  1.0
  C  C51  1  0.63298000  0.50281000  0.29658000  1.0
  C  C52  1  0.05987000  0.23518000  0.60719000  1.0
  C  C53  1  0.44013000  0.39281000  0.76482000  1.0
  C  C54  1  0.94013000  0.76482000  0.39282000  1.0
  C  C55  1  0.55987000  0.60719000  0.23518000  1.0
  C  C56  1  0.15083000  0.15350000  0.67807000  1.0
  C  C57  1  0.34918000  0.32193000  0.84651000  1.0
  C  C58  1  0.84917000  0.84651000  0.32193000  1.0
  C  C59  1  0.65082000  0.67807000  0.15350000  1.0
  C  C60  1  0.31507000  0.13233000  0.64267000  1.0
  C  C61  1  0.18493000  0.35733000  0.86767000  1.0
  C  C62  1  0.68493000  0.86767000  0.35733000  1.0
  C  C63  1  0.81507000  0.64267000  0.13233000  1.0
  C  C64  1  0.06859000  0.08850000  0.78909000  1.0
  C  C65  1  0.43142000  0.21091000  0.91150000  1.0
  C  C66  1  0.93141000  0.91150000  0.21091000  1.0
  C  C67  1  0.56858000  0.78909000  0.08850000  1.0
  N  N68  1  0.66376000  0.11023000  0.56043000  1.0
  N  N69  1  0.83624000  0.43957000  0.88977000  1.0
  N  N70  1  0.33624000  0.88977000  0.43957000  1.0
  N  N71  1  0.16376000  0.56043000  0.11023000  1.0
  N  N72  1  0.80836000  0.10291000  0.47934000  1.0
  N  N73  1  0.69164000  0.52066000  0.89709000  1.0
  N  N74  1  0.19164000  0.89709000  0.52066000  1.0
  N  N75  1  0.30836000  0.47934000  0.10291000  1.0
  N  N76  1  0.79673000  0.15317000  0.36776000  1.0
  N  N77  1  0.70327000  0.63223000  0.84683000  1.0
  N  N78  1  0.20327000  0.84683000  0.63224000  1.0
  N  N79  1  0.29673000  0.36777000  0.15317000  1.0
  N  N80  1  0.64372000  0.19245000  0.37356000  1.0
  N  N81  1  0.85628000  0.62644000  0.80755000  1.0
  N  N82  1  0.35627000  0.80755000  0.62644000  1.0
  N  N83  1  0.14372000  0.37356000  0.19245000  1.0
  O  O84  1  0.13787000  0.03790000  0.87216000  1.0
  O  O85  1  0.36214000  0.12783000  0.96209000  1.0
  O  O86  1  0.86214000  0.96209000  0.12783000  1.0
  O  O87  1  0.63786000  0.87217000  0.03791000  1.0
  O  O88  1  0.92973000  0.08713000  0.79360000  1.0
  O  O89  1  0.57028000  0.20640000  0.91287000  1.0
  O  O90  1  0.07028000  0.91287000  0.20640000  1.0
  O  O91  1  0.42973000  0.79360000  0.08713000  1.0
  O  O92  1  0.30066000  0.03168000  0.22175000  1.0
  O  O93  1  0.19934000  0.77825000  0.96833000  1.0
  O  O94  1  0.69934000  0.96833000  0.77824000  1.0
  O  O95  1  0.80066000  0.22175000  0.03167000  1.0
  O  O96  1  0.03826000  0.16922000  0.14084000  1.0
  O  O97  1  0.46175000  0.85916000  0.83078000  1.0
  O  O98  1  0.96174000  0.83078000  0.85916000  1.0
  O  O99  1  0.53826000  0.14084000  0.16922000  1.0
