# generated using pymatgen
data_Cu3H8W2(C6N5)4
_symmetry_space_group_name_H-M   'P 1'
_cell_length_a   11.50490000
_cell_length_b   14.59920000
_cell_length_c   15.14248559
_cell_angle_alpha   61.18535157
_cell_angle_beta   73.92437168
_cell_angle_gamma   89.99870000
_symmetry_Int_Tables_number   1
_chemical_formula_structural   Cu3H8W2(C6N5)4
_chemical_formula_sum   'Cu6 H16 W4 C48 N40'
_cell_volume   2114.25065692
_cell_formula_units_Z   2
loop_
 _symmetry_equiv_pos_site_id
 _symmetry_equiv_pos_as_xyz
  1  'x, y, z'
loop_
 _atom_site_type_symbol
 _atom_site_label
 _atom_site_symmetry_multiplicity
 _atom_site_fract_x
 _atom_site_fract_y
 _atom_site_fract_z
 _atom_site_occupancy
  Cu  Cu0  1  0.50020000  0.49987000  0.49984000  1.0
  Cu  Cu1  1  0.50021000  0.00027000  0.49987000  1.0
  Cu  Cu2  1  0.00006000  0.50052000  0.49962000  1.0
  Cu  Cu3  1  0.00007000  0.99984000  0.49961000  1.0
  Cu  Cu4  1  0.99977000  0.23394000  0.00032000  1.0
  Cu  Cu5  1  0.99995000  0.76580000  0.00023000  1.0
  H  H6  1  0.52088000  0.54615000  0.27423000  1.0
  H  H7  1  0.36782000  0.56789000  0.17431000  1.0
  H  H8  1  0.14510000  0.55363000  0.27205000  1.0
  H  H9  1  0.23546000  0.48559000  0.54230000  1.0
  H  H10  1  0.47931000  0.82084000  0.72536000  1.0
  H  H11  1  0.63221000  0.74237000  0.82540000  1.0
  H  H12  1  0.85501000  0.82565000  0.72774000  1.0
  H  H13  1  0.76495000  0.02814000  0.45744000  1.0
  H  H14  1  0.47927000  0.45383000  0.72535000  1.0
  H  H15  1  0.63215000  0.43230000  0.82538000  1.0
  H  H16  1  0.85496000  0.44664000  0.72776000  1.0
  H  H17  1  0.76495000  0.51472000  0.45734000  1.0
  H  H18  1  0.52084000  0.17958000  0.27425000  1.0
  H  H19  1  0.36779000  0.25775000  0.17433000  1.0
  H  H20  1  0.14507000  0.17428000  0.27209000  1.0
  H  H21  1  0.23548000  0.97188000  0.54222000  1.0
  W  W22  1  0.20302000  0.14911000  0.70181000  1.0
  W  W23  1  0.79626000  0.85061000  0.29875000  1.0
  W  W24  1  0.13179000  0.63796000  0.72397000  1.0
  W  W25  1  0.86794000  0.36197000  0.27615000  1.0
  C  C26  1  0.33333333  0.28553000  0.64260000  1.0
  C  C27  1  0.12589000  0.17589000  0.83144000  1.0
  C  C28  1  0.08153000  0.26425000  0.66266000  1.0
  C  C29  1  0.07497000  0.47131000  0.83191000  1.0
  C  C30  1  0.28099000  0.58859000  0.64512000  1.0
  C  C31  1  0.07867000  0.59717000  0.62098000  1.0
  C  C32  1  0.42278000  0.53970000  0.31002000  1.0
  C  C33  1  0.33903000  0.55244000  0.25560000  1.0
  C  C34  1  0.21624000  0.54312000  0.30936000  1.0
  C  C35  1  0.26507000  0.50606000  0.45955000  1.0
  C  C36  1  0.66587000  0.92739000  0.35818000  1.0
  C  C37  1  0.87394000  0.00696000  0.16919000  1.0
  C  C38  1  0.91857000  0.92634000  0.33760000  1.0
  C  C39  1  0.92366000  0.30258000  0.16867000  1.0
  C  C40  1  0.71862000  0.23384000  0.35534000  1.0
  C  C41  1  0.92139000  0.21815000  0.37906000  1.0
  C  C42  1  0.57740000  0.85016000  0.68967000  1.0
  C  C43  1  0.66111000  0.80827000  0.74412000  1.0
  C  C44  1  0.78394000  0.85255000  0.69041000  1.0
  C  C45  1  0.73523000  0.96588000  0.54021000  1.0
  C  C46  1  0.66575000  0.71450000  0.35804000  1.0
  C  C47  1  0.87388000  0.82401000  0.16901000  1.0
  C  C48  1  0.91857000  0.73604000  0.33743000  1.0
  C  C49  1  0.92386000  0.52882000  0.16858000  1.0
  C  C50  1  0.71861000  0.41097000  0.35536000  1.0
  C  C51  1  0.92134000  0.40284000  0.37907000  1.0
  C  C52  1  0.57738000  0.46031000  0.68962000  1.0
  C  C53  1  0.66107000  0.44773000  0.74407000  1.0
  C  C54  1  0.78392000  0.45715000  0.69037000  1.0
  C  C55  1  0.73523000  0.49414000  0.54013000  1.0
  C  C56  1  0.33321000  0.07186000  0.64254000  1.0
  C  C57  1  0.12581000  0.99275000  0.83133000  1.0
  C  C58  1  0.08164000  0.07317000  0.66253000  1.0
  C  C59  1  0.07523000  0.69682000  0.83183000  1.0
  C  C60  1  0.28104000  0.76609000  0.64503000  1.0
  C  C61  1  0.07864000  0.78178000  0.62105000  1.0
  C  C62  1  0.42276000  0.15018000  0.31002000  1.0
  C  C63  1  0.33900000  0.19190000  0.25559000  1.0
  C  C64  1  0.21623000  0.14744000  0.30935000  1.0
  C  C65  1  0.26509000  0.03421000  0.45949000  1.0
  C  C66  1  0.32741000  0.10303000  0.79375000  1.0
  C  C67  1  0.25075000  0.23465000  0.53078000  1.0
  C  C68  1  0.67303000  0.89739000  0.20549000  1.0
  C  C69  1  0.74880000  0.76506000  0.46978000  1.0
  C  C70  1  0.25013000  0.58924000  0.82141000  1.0
  C  C71  1  0.93406000  0.61068000  0.77869000  1.0
  C  C72  1  0.74970000  0.41072000  0.17865000  1.0
  C  C73  1  0.06568000  0.38950000  0.22093000  1.0
  N  N74  1  0.40542000  0.36118000  0.60490000  1.0
  N  N75  1  0.09036000  0.19463000  0.90016000  1.0
  N  N76  1  0.02030000  0.33098000  0.63963000  1.0
  N  N77  1  0.04054000  0.38110000  0.89168000  1.0
  N  N78  1  0.36333000  0.56373000  0.60040000  1.0
  N  N79  1  0.04975000  0.56891000  0.56885000  1.0
  N  N80  1  0.38459000  0.51725000  0.41164000  1.0
  N  N81  1  0.18023000  0.51957000  0.41134000  1.0
  N  N82  1  0.59299000  0.96446000  0.39640000  1.0
  N  N83  1  0.91429000  0.09290000  0.09881000  1.0
  N  N84  1  0.97982000  0.97006000  0.36058000  1.0
  N  N85  1  0.95738000  0.27167000  0.10921000  1.0
  N  N86  1  0.63626000  0.16428000  0.39999000  1.0
  N  N87  1  0.95067000  0.13782000  0.43079000  1.0
  N  N88  1  0.61566000  0.92948000  0.58814000  1.0
  N  N89  1  0.82002000  0.93096000  0.58840000  1.0
  N  N90  1  0.59280000  0.63923000  0.39631000  1.0
  N  N91  1  0.91437000  0.80844000  0.09864000  1.0
  N  N92  1  0.97986000  0.66938000  0.36046000  1.0
  N  N93  1  0.95757000  0.61919000  0.10913000  1.0
  N  N94  1  0.63626000  0.43591000  0.39998000  1.0
  N  N95  1  0.95060000  0.43144000  0.43083000  1.0
  N  N96  1  0.61565000  0.48257000  0.58807000  1.0
  N  N97  1  0.82001000  0.48082000  0.58835000  1.0
  N  N98  1  0.40527000  0.03389000  0.60484000  1.0
  N  N99  1  0.09044000  0.90529000  0.90005000  1.0
  N  N100  1  0.02039000  0.02933000  0.63964000  1.0
  N  N101  1  0.04079000  0.72726000  0.89161000  1.0
  N  N102  1  0.36338000  0.83566000  0.60032000  1.0
  N  N103  1  0.04971000  0.86216000  0.56893000  1.0
  N  N104  1  0.38459000  0.07097000  0.41161000  1.0
  N  N105  1  0.18024000  0.06895000  0.41131000  1.0
  N  N106  1  0.39613000  0.07848000  0.84272000  1.0
  N  N107  1  0.27775000  0.28110000  0.43791000  1.0
  N  N108  1  0.60437000  0.92196000  0.15646000  1.0
  N  N109  1  0.72200000  0.71868000  0.56263000  1.0
  N  N110  1  0.31744000  0.56415000  0.87182000  1.0
  N  N111  1  0.82667000  0.59603000  0.80810000  1.0
  N  N112  1  0.68244000  0.43585000  0.12820000  1.0
  N  N113  1  0.17306000  0.40406000  0.19176000  1.0
