# generated using pymatgen
data_CoH6(C5N2)2
_symmetry_space_group_name_H-M   'P 1'
_cell_length_a   14.62698529
_cell_length_b   14.62700000
_cell_length_c   14.62710000
_cell_angle_alpha   70.52900000
_cell_angle_beta   70.52904074
_cell_angle_gamma   109.47140530
_symmetry_Int_Tables_number   1
_chemical_formula_structural   CoH6(C5N2)2
_chemical_formula_sum   'Co6 H36 C60 N24'
_cell_volume   2409.06223453
_cell_formula_units_Z   6
loop_
 _symmetry_equiv_pos_site_id
 _symmetry_equiv_pos_as_xyz
  1  'x, y, z'
loop_
 _atom_site_type_symbol
 _atom_site_label
 _atom_site_symmetry_multiplicity
 _atom_site_fract_x
 _atom_site_fract_y
 _atom_site_fract_z
 _atom_site_occupancy
  Co  Co0  1  0.25000000  0.75000000  0.50000000  1.0
  Co  Co1  1  0.75000000  0.25000000  0.50000000  1.0
  Co  Co2  1  0.75000000  0.50000000  0.75000000  1.0
  Co  Co3  1  0.50000000  0.75000000  0.75000000  1.0
  Co  Co4  1  0.50000000  0.25000000  0.25000000  1.0
  Co  Co5  1  0.25000000  0.50000000  0.25000000  1.0
  H  H6  1  0.64798000  0.00000000  0.23327000  1.0
  H  H7  1  0.11875000  0.35203000  0.64798000  1.0
  H  H8  1  0.00000000  0.76672000  0.35202000  1.0
  H  H9  1  0.76672000  1.00000000  0.35203000  1.0
  H  H10  1  0.35202000  0.35202000  0.88125000  1.0
  H  H11  1  0.23327000  0.23327000  0.11875000  1.0
  H  H12  1  0.35203000  0.11875000  0.64797000  1.0
  H  H13  1  0.00000000  0.64798000  0.23327000  1.0
  H  H14  1  0.23327000  0.88125000  0.76673000  1.0
  H  H15  1  0.88125000  0.23327000  0.76673000  1.0
  H  H16  1  0.76673000  0.64798000  0.00000000  1.0
  H  H17  1  0.64798000  0.76673000  0.00000000  1.0
  H  H18  1  0.12045000  0.88340000  0.53240000  1.0
  H  H19  1  0.34715000  0.87955000  0.23705000  1.0
  H  H20  1  0.11660000  0.58420000  0.76295000  1.0
  H  H21  1  0.58421000  0.11661000  0.76294000  1.0
  H  H22  1  0.87955000  0.76295000  0.65285000  1.0
  H  H23  1  0.76295000  0.87955000  0.65286000  1.0
  H  H24  1  0.53240000  0.41580000  0.34715000  1.0
  H  H25  1  0.41579000  0.53239000  0.34716000  1.0
  H  H26  1  0.34715000  0.76295000  0.12045000  1.0
  H  H27  1  0.76295000  0.34715000  0.12045000  1.0
  H  H28  1  0.46761000  0.88341000  0.87955000  1.0
  H  H29  1  0.88340000  0.46761000  0.87954000  1.0
  H  H30  1  0.11661000  0.23706000  0.41579000  1.0
  H  H31  1  0.53240000  0.65285000  0.58420000  1.0
  H  H32  1  0.23705000  0.11660000  0.41580000  1.0
  H  H33  1  0.65285000  0.53240000  0.58420000  1.0
  H  H34  1  0.58420000  0.23705000  0.88340000  1.0
  H  H35  1  0.46760000  0.12044000  0.11660000  1.0
  H  H36  1  0.23705000  0.58420000  0.88340000  1.0
  H  H37  1  0.12045000  0.46761000  0.11660000  1.0
  H  H38  1  0.41580000  0.65285000  0.46760000  1.0
  H  H39  1  0.88340000  0.12044000  0.53240000  1.0
  H  H40  1  0.65285000  0.41580000  0.46760000  1.0
  H  H41  1  0.87955000  0.34715000  0.23705000  1.0
  C  C42  1  0.20883000  0.94214000  0.47349000  1.0
  C  C43  1  0.31768000  0.79117000  0.26669000  1.0
  C  C44  1  0.05786000  0.58437000  0.73331000  1.0
  C  C45  1  0.58437000  0.05786000  0.73331000  1.0
  C  C46  1  0.79117000  0.73330000  0.68233000  1.0
  C  C47  1  0.73331000  0.79117000  0.68233000  1.0
  C  C48  1  0.47349000  0.41563000  0.31768000  1.0
  C  C49  1  0.41563000  0.47349000  0.31768000  1.0
  C  C50  1  0.31768000  0.73331000  0.20883000  1.0
  C  C51  1  0.73331000  0.31768000  0.20883000  1.0
  C  C52  1  0.52651000  0.94214000  0.79117000  1.0
  C  C53  1  0.94214000  0.52651000  0.79116000  1.0
  C  C54  1  0.05786000  0.26669000  0.41563000  1.0
  C  C55  1  0.47349000  0.68231000  0.58437000  1.0
  C  C56  1  0.26669000  0.05786000  0.41563000  1.0
  C  C57  1  0.68232000  0.47350000  0.58437000  1.0
  C  C58  1  0.58437000  0.26669000  0.94214000  1.0
  C  C59  1  0.52651000  0.20883000  0.05786000  1.0
  C  C60  1  0.26669000  0.58437000  0.94214000  1.0
  C  C61  1  0.20883000  0.52651000  0.05786000  1.0
  C  C62  1  0.41563000  0.68232000  0.52651000  1.0
  C  C63  1  0.94214000  0.20883000  0.47349000  1.0
  C  C64  1  0.68232000  0.41563000  0.52650000  1.0
  C  C65  1  0.79117000  0.31768000  0.26669000  1.0
  C  C66  1  0.38535000  0.00000000  0.36953000  1.0
  C  C67  1  0.24512000  0.61465000  0.38535000  1.0
  C  C68  1  1.00000000  0.63047000  0.61464000  1.0
  C  C69  1  0.63046000  0.00000000  0.61465000  1.0
  C  C70  1  0.61465000  0.61465000  0.75488000  1.0
  C  C71  1  0.36953000  0.36953000  0.24512000  1.0
  C  C72  1  0.61465000  0.24511000  0.38535000  1.0
  C  C73  1  0.00000000  0.38534000  0.36954000  1.0
  C  C74  1  0.36953000  0.75488000  0.63047000  1.0
  C  C75  1  0.75488000  0.36953000  0.63047000  1.0
  C  C76  1  0.63047000  0.38535000  0.99999000  1.0
  C  C77  1  0.38535000  0.63047000  0.00000000  1.0
  C  C78  1  0.48567000  0.00000000  0.31807000  1.0
  C  C79  1  0.19626000  0.51433000  0.48567000  1.0
  C  C80  1  0.00000000  0.68193000  0.51433000  1.0
  C  C81  1  0.68193000  0.00000000  0.51433000  1.0
  C  C82  1  0.51433000  0.51433000  0.80374000  1.0
  C  C83  1  0.31807000  0.31807000  0.19625000  1.0
  C  C84  1  0.51433000  0.19626000  0.48567000  1.0
  C  C85  1  0.00000000  0.48567000  0.31807000  1.0
  C  C86  1  0.31807000  0.80374000  0.68193000  1.0
  C  C87  1  0.80374000  0.31807000  0.68193000  1.0
  C  C88  1  0.68193000  0.48567000  0.00000000  1.0
  C  C89  1  0.48567000  0.68193000  0.00000000  1.0
  C  C90  1  0.57187000  0.00000000  0.27235000  1.0
  C  C91  1  0.15577000  0.42813000  0.57187000  1.0
  C  C92  1  0.00000000  0.72763000  0.42813000  1.0
  C  C93  1  0.72764000  0.00000000  0.42813000  1.0
  C  C94  1  0.42813000  0.42813000  0.84423000  1.0
  C  C95  1  0.27236000  0.27236000  0.15577000  1.0
  C  C96  1  0.42814000  0.15578000  0.57186000  1.0
  C  C97  1  0.00000000  0.57186000  0.27236000  1.0
  C  C98  1  0.27236000  0.84423000  0.72764000  1.0
  C  C99  1  0.84423000  0.27236000  0.72764000  1.0
  C  C100  1  0.72764000  0.57187000  0.00000000  1.0
  C  C101  1  0.57186000  0.72763000  0.00000000  1.0
  N  N102  1  0.28347000  0.90578000  0.44423000  1.0
  N  N103  1  0.27230000  0.71652000  0.37769000  1.0
  N  N104  1  0.09422000  0.65000000  0.62230000  1.0
  N  N105  1  0.64999000  0.09421000  0.62231000  1.0
  N  N106  1  0.71653000  0.62231000  0.72769000  1.0
  N  N107  1  0.62231000  0.71653000  0.72770000  1.0
  N  N108  1  0.44422000  0.35001000  0.27231000  1.0
  N  N109  1  0.35001000  0.44423000  0.27230000  1.0
  N  N110  1  0.27230000  0.62231000  0.28348000  1.0
  N  N111  1  0.62231000  0.27230000  0.28348000  1.0
  N  N112  1  0.55578000  0.90579000  0.71652000  1.0
  N  N113  1  0.90578000  0.55578000  0.71652000  1.0
  N  N114  1  0.09422000  0.37769000  0.35001000  1.0
  N  N115  1  0.44422000  0.72769000  0.65000000  1.0
  N  N116  1  0.37769000  0.09422000  0.35000000  1.0
  N  N117  1  0.72770000  0.44423000  0.64999000  1.0
  N  N118  1  0.64999000  0.37769000  0.90579000  1.0
  N  N119  1  0.55578000  0.28348000  0.09421000  1.0
  N  N120  1  0.37769000  0.65000000  0.90578000  1.0
  N  N121  1  0.28347000  0.55578000  0.09422000  1.0
  N  N122  1  0.35001000  0.72770000  0.55577000  1.0
  N  N123  1  0.90578000  0.28347000  0.44423000  1.0
  N  N124  1  0.72770000  0.35001000  0.55577000  1.0
  N  N125  1  0.71653000  0.27230000  0.37769000  1.0
