# generated using pymatgen
data_CuH14C16(NO3)2
_symmetry_space_group_name_H-M   'P 1'
_cell_length_a   8.57910000
_cell_length_b   8.59641000
_cell_length_c   52.64260000
_cell_angle_alpha   89.99980000
_cell_angle_beta   90.00000000
_cell_angle_gamma   90.00000000
_symmetry_Int_Tables_number   1
_chemical_formula_structural   CuH14C16(NO3)2
_chemical_formula_sum   'Cu8 H112 C128 N16 O48'
_cell_volume   3882.36337725
_cell_formula_units_Z   8
loop_
 _symmetry_equiv_pos_site_id
 _symmetry_equiv_pos_as_xyz
  1  'x, y, z'
loop_
 _atom_site_type_symbol
 _atom_site_label
 _atom_site_symmetry_multiplicity
 _atom_site_fract_x
 _atom_site_fract_y
 _atom_site_fract_z
 _atom_site_occupancy
  Cu  Cu0  1  0.08615000  0.44507000  0.73749000  1.0
  Cu  Cu1  1  0.36595000  0.66582000  0.98446000  1.0
  Cu  Cu2  1  0.41385000  0.55493000  0.23749000  1.0
  Cu  Cu3  1  0.13405000  0.33417000  0.48446000  1.0
  Cu  Cu4  1  0.91385000  0.94507000  0.76251000  1.0
  Cu  Cu5  1  0.63405000  0.16582000  0.51554000  1.0
  Cu  Cu6  1  0.58616000  0.05493000  0.26251000  1.0
  Cu  Cu7  1  0.86595000  0.83418000  0.01554000  1.0
  H  H8  1  0.61000000  0.78626000  0.76121000  1.0
  H  H9  1  0.52338000  0.76874000  0.70398000  1.0
  H  H10  1  0.25155000  0.23707000  0.70382000  1.0
  H  H11  1  0.27721000  0.19169000  0.65721000  1.0
  H  H12  1  0.91336000  0.53440000  0.64613000  1.0
  H  H13  1  0.89961000  0.56123000  0.69292000  1.0
  H  H14  1  0.93988000  0.31910000  0.78379000  1.0
  H  H15  1  0.96938000  0.35306000  0.83046000  1.0
  H  H16  1  0.31512000  0.70836000  0.81470000  1.0
  H  H17  1  0.27202000  0.66038000  0.76932000  1.0
  H  H18  1  0.09016000  0.47342000  0.86567000  1.0
  H  H19  1  0.33865000  0.72487000  0.85560000  1.0
  H  H20  1  0.10908000  0.48177000  0.90470000  1.0
  H  H21  1  0.15710000  0.50753000  0.95085000  1.0
  H  H22  1  0.48275000  0.85731000  0.93997000  1.0
  H  H23  1  0.45320000  0.84337000  0.89281000  1.0
  H  H24  1  0.26518000  0.18461000  0.52918000  1.0
  H  H25  1  0.23705000  0.19939000  0.57552000  1.0
  H  H26  1  0.88837000  0.55828000  0.56391000  1.0
  H  H27  1  0.93076000  0.52861000  0.51776000  1.0
  H  H28  1  0.94364000  0.48623000  0.60635000  1.0
  H  H29  1  0.21352000  0.25580000  0.61497000  1.0
  H  H30  1  0.58325000  0.45525000  0.75673000  1.0
  H  H31  1  0.59171000  0.46866000  0.71161000  1.0
  H  H32  1  0.37268000  0.16913000  0.00530000  1.0
  H  H33  1  0.39190000  0.15524000  0.96038000  1.0
  H  H34  1  0.70129000  0.14062000  0.01245000  1.0
  H  H35  1  0.69393000  0.22587000  0.95373000  1.0
  H  H36  1  0.89000000  0.21374000  0.26121000  1.0
  H  H37  1  0.97663000  0.23126000  0.20398000  1.0
  H  H38  1  0.24845000  0.76295000  0.20383000  1.0
  H  H39  1  0.22278000  0.80832000  0.15721000  1.0
  H  H40  1  0.58663000  0.46560000  0.14613000  1.0
  H  H41  1  0.60039000  0.43879000  0.19292000  1.0
  H  H42  1  0.56011000  0.68089000  0.28379000  1.0
  H  H43  1  0.53061000  0.64693000  0.33046000  1.0
  H  H44  1  0.18488000  0.29163000  0.31469000  1.0
  H  H45  1  0.22799000  0.33961000  0.26932000  1.0
  H  H46  1  0.40983000  0.52658000  0.36567000  1.0
  H  H47  1  0.16134000  0.27514000  0.35560000  1.0
  H  H48  1  0.39092000  0.51823000  0.40470000  1.0
  H  H49  1  0.34289000  0.49247000  0.45085000  1.0
  H  H50  1  0.01725000  0.14270000  0.43997000  1.0
  H  H51  1  0.04680000  0.15663000  0.39281000  1.0
  H  H52  1  0.23482000  0.81540000  0.02919000  1.0
  H  H53  1  0.26294000  0.80061000  0.07552000  1.0
  H  H54  1  0.61162000  0.44170000  0.06391000  1.0
  H  H55  1  0.56923000  0.47139000  0.01776000  1.0
  H  H56  1  0.55635000  0.51377000  0.10635000  1.0
  H  H57  1  0.28648000  0.74420000  0.11497000  1.0
  H  H58  1  0.91675000  0.54475000  0.25673000  1.0
  H  H59  1  0.90829000  0.53133000  0.21161000  1.0
  H  H60  1  0.12731000  0.83087000  0.50530000  1.0
  H  H61  1  0.10812000  0.84477000  0.46037000  1.0
  H  H62  1  0.79870000  0.85939000  0.51244000  1.0
  H  H63  1  0.80608000  0.77413000  0.45373000  1.0
  H  H64  1  0.39000000  0.28626000  0.73879000  1.0
  H  H65  1  0.47663000  0.26874000  0.79603000  1.0
  H  H66  1  0.74845000  0.73706000  0.79618000  1.0
  H  H67  1  0.72279000  0.69168000  0.84279000  1.0
  H  H68  1  0.08664000  0.03440000  0.85387000  1.0
  H  H69  1  0.10039000  0.06122000  0.80708000  1.0
  H  H70  1  0.06011000  0.81909000  0.71621000  1.0
  H  H71  1  0.03061000  0.85306000  0.66955000  1.0
  H  H72  1  0.68488000  0.20837000  0.68530000  1.0
  H  H73  1  0.72798000  0.16038000  0.73068000  1.0
  H  H74  1  0.90983000  0.97342000  0.63433000  1.0
  H  H75  1  0.66134000  0.22487000  0.64440000  1.0
  H  H76  1  0.89092000  0.98177000  0.59530000  1.0
  H  H77  1  0.84290000  0.00753000  0.54914000  1.0
  H  H78  1  0.51726000  0.35731000  0.56003000  1.0
  H  H79  1  0.54680000  0.34337000  0.60719000  1.0
  H  H80  1  0.73482000  0.68461000  0.97082000  1.0
  H  H81  1  0.76295000  0.69939000  0.92448000  1.0
  H  H82  1  0.11163000  0.05828000  0.93609000  1.0
  H  H83  1  0.06924000  0.02861000  0.98224000  1.0
  H  H84  1  0.05636000  0.98623000  0.89365000  1.0
  H  H85  1  0.78649000  0.75579000  0.88503000  1.0
  H  H86  1  0.41675000  0.95525000  0.74328000  1.0
  H  H87  1  0.40829000  0.96866000  0.78839000  1.0
  H  H88  1  0.62733000  0.66913000  0.49470000  1.0
  H  H89  1  0.60809000  0.65524000  0.53962000  1.0
  H  H90  1  0.29872000  0.64062000  0.48755000  1.0
  H  H91  1  0.30607000  0.72587000  0.54627000  1.0
  H  H92  1  0.11000000  0.71373000  0.23880000  1.0
  H  H93  1  0.02337000  0.73126000  0.29602000  1.0
  H  H94  1  0.75155000  0.26295000  0.29618000  1.0
  H  H95  1  0.77721000  0.30832000  0.34279000  1.0
  H  H96  1  0.41336000  0.96560000  0.35387000  1.0
  H  H97  1  0.39961000  0.93879000  0.30708000  1.0
  H  H98  1  0.43989000  0.18090000  0.21621000  1.0
  H  H99  1  0.46939000  0.14693000  0.16954000  1.0
  H  H100  1  0.81512000  0.79162000  0.18531000  1.0
  H  H101  1  0.77201000  0.83961000  0.23068000  1.0
  H  H102  1  0.59017000  0.02657000  0.13433000  1.0
  H  H103  1  0.83866000  0.77513000  0.14440000  1.0
  H  H104  1  0.60908000  0.01824000  0.09530000  1.0
  H  H105  1  0.65711000  0.99248000  0.04914000  1.0
  H  H106  1  0.98275000  0.64270000  0.06003000  1.0
  H  H107  1  0.95320000  0.65663000  0.10719000  1.0
  H  H108  1  0.76518000  0.31540000  0.47082000  1.0
  H  H109  1  0.73706000  0.30061000  0.42448000  1.0
  H  H110  1  0.38838000  0.94171000  0.43609000  1.0
  H  H111  1  0.43076000  0.97139000  0.48224000  1.0
  H  H112  1  0.44365000  0.01377000  0.39365000  1.0
  H  H113  1  0.71352000  0.24420000  0.38503000  1.0
  H  H114  1  0.08326000  0.04475000  0.24327000  1.0
  H  H115  1  0.09171000  0.03134000  0.28839000  1.0
  H  H116  1  0.87269000  0.33087000  0.99470000  1.0
  H  H117  1  0.89188000  0.34477000  0.03963000  1.0
  H  H118  1  0.20130000  0.35939000  0.98756000  1.0
  H  H119  1  0.19392000  0.27413000  0.04627000  1.0
  C  C120  1  0.17923000  0.30004000  0.69023000  1.0
  C  C121  1  0.19299000  0.27649000  0.66426000  1.0
  C  C122  1  0.09961000  0.36098000  0.64719000  1.0
  C  C123  1  0.99112000  0.46508000  0.65796000  1.0
  C  C124  1  0.98293000  0.48189000  0.68412000  1.0
  C  C125  1  0.02299000  0.40273000  0.79154000  1.0
  C  C126  1  0.03982000  0.42329000  0.81756000  1.0
  C  C127  1  0.14697000  0.53278000  0.82707000  1.0
  C  C128  1  0.23099000  0.61987000  0.80910000  1.0
  C  C129  1  0.20787000  0.59377000  0.78340000  1.0
  C  C130  1  0.16540000  0.54962000  0.85441000  1.0
  C  C131  1  0.26386000  0.64713000  0.86666000  1.0
  C  C132  1  0.28021000  0.65847000  0.89415000  1.0
  C  C133  1  0.19528000  0.56553000  0.91130000  1.0
  C  C134  1  0.22043000  0.57870000  0.93717000  1.0
  C  C135  1  0.40314000  0.77417000  0.93118000  1.0
  C  C136  1  0.38497000  0.76607000  0.90494000  1.0
  C  C137  1  0.18429000  0.26752000  0.53765000  1.0
  C  C138  1  0.16717000  0.27684000  0.56375000  1.0
  C  C139  1  0.06073000  0.38385000  0.57421000  1.0
  C  C140  1  0.97400000  0.47433000  0.55710000  1.0
  C  C141  1  0.99681000  0.45837000  0.53112000  1.0
  C  C142  1  0.03724000  0.40541000  0.60134000  1.0
  C  C143  1  0.12030000  0.33690000  0.62006000  1.0
  C  C144  1  0.79802000  0.56845000  0.74757000  1.0
  C  C145  1  0.61990000  0.56775000  0.74883000  1.0
  C  C146  1  0.37910000  0.58666000  0.72207000  1.0
  C  C147  1  0.55736000  0.57738000  0.72131000  1.0
  C  C148  1  0.48731000  0.13364000  0.99795000  1.0
  C  C149  1  0.50592000  0.37083000  0.97020000  1.0
  C  C150  1  0.49914000  0.19270000  0.97025000  1.0
  C  C151  1  0.49108000  0.95543000  0.99744000  1.0
  C  C152  1  0.32077000  0.69997000  0.19023000  1.0
  C  C153  1  0.30701000  0.72352000  0.16426000  1.0
  C  C154  1  0.40039000  0.63902000  0.14719000  1.0
  C  C155  1  0.50888000  0.53492000  0.15796000  1.0
  C  C156  1  0.51707000  0.51812000  0.18412000  1.0
  C  C157  1  0.47701000  0.59727000  0.29154000  1.0
  C  C158  1  0.46019000  0.57670000  0.31756000  1.0
  C  C159  1  0.35304000  0.46721000  0.32707000  1.0
  C  C160  1  0.26901000  0.38012000  0.30910000  1.0
  C  C161  1  0.29213000  0.40622000  0.28340000  1.0
  C  C162  1  0.33460000  0.45038000  0.35441000  1.0
  C  C163  1  0.23613000  0.35288000  0.36666000  1.0
  C  C164  1  0.21978000  0.34153000  0.39415000  1.0
  C  C165  1  0.30471000  0.43448000  0.41130000  1.0
  C  C166  1  0.27956000  0.42131000  0.43717000  1.0
  C  C167  1  0.09686000  0.22583000  0.43118000  1.0
  C  C168  1  0.11503000  0.23394000  0.40494000  1.0
  C  C169  1  0.31570000  0.73248000  0.03766000  1.0
  C  C170  1  0.33283000  0.72316000  0.06375000  1.0
  C  C171  1  0.43926000  0.61614000  0.07421000  1.0
  C  C172  1  0.52599000  0.52566000  0.05710000  1.0
  C  C173  1  0.50319000  0.54164000  0.03113000  1.0
  C  C174  1  0.46276000  0.59459000  0.10134000  1.0
  C  C175  1  0.37969000  0.66310000  0.12006000  1.0
  C  C176  1  0.70198000  0.43155000  0.24757000  1.0
  C  C177  1  0.88010000  0.43225000  0.24883000  1.0
  C  C178  1  0.12090000  0.41334000  0.22207000  1.0
  C  C179  1  0.94264000  0.42261000  0.22131000  1.0
  C  C180  1  0.01268000  0.86636000  0.49795000  1.0
  C  C181  1  0.99410000  0.62918000  0.47019000  1.0
  C  C182  1  0.00088000  0.80731000  0.47024000  1.0
  C  C183  1  0.00893000  0.04457000  0.49743000  1.0
  C  C184  1  0.82077000  0.80004000  0.80977000  1.0
  C  C185  1  0.80701000  0.77649000  0.83574000  1.0
  C  C186  1  0.90038000  0.86098000  0.85281000  1.0
  C  C187  1  0.00888000  0.96508000  0.84204000  1.0
  C  C188  1  0.01707000  0.98189000  0.81588000  1.0
  C  C189  1  0.97701000  0.90272000  0.70847000  1.0
  C  C190  1  0.96018000  0.92329000  0.68244000  1.0
  C  C191  1  0.85303000  0.03278000  0.67293000  1.0
  C  C192  1  0.76901000  0.11987000  0.69090000  1.0
  C  C193  1  0.79213000  0.09377000  0.71660000  1.0
  C  C194  1  0.83460000  0.04962000  0.64559000  1.0
  C  C195  1  0.73614000  0.14712000  0.63334000  1.0
  C  C196  1  0.71978000  0.15847000  0.60585000  1.0
  C  C197  1  0.80472000  0.06553000  0.58870000  1.0
  C  C198  1  0.77956000  0.07870000  0.56283000  1.0
  C  C199  1  0.59687000  0.27417000  0.56882000  1.0
  C  C200  1  0.61504000  0.26607000  0.59506000  1.0
  C  C201  1  0.81571000  0.76752000  0.96235000  1.0
  C  C202  1  0.83283000  0.77684000  0.93625000  1.0
  C  C203  1  0.93927000  0.88385000  0.92579000  1.0
  C  C204  1  0.02600000  0.97433000  0.94290000  1.0
  C  C205  1  0.00319000  0.95836000  0.96888000  1.0
  C  C206  1  0.96277000  0.90541000  0.89866000  1.0
  C  C207  1  0.87970000  0.83690000  0.87994000  1.0
  C  C208  1  0.20198000  0.06845000  0.75243000  1.0
  C  C209  1  0.38010000  0.06776000  0.75117000  1.0
  C  C210  1  0.62090000  0.08665000  0.77793000  1.0
  C  C211  1  0.44263000  0.07738000  0.77869000  1.0
  C  C212  1  0.51269000  0.63363000  0.50205000  1.0
  C  C213  1  0.49408000  0.87082000  0.52980000  1.0
  C  C214  1  0.50086000  0.69270000  0.52975000  1.0
  C  C215  1  0.50893000  0.45542000  0.50256000  1.0
  C  C216  1  0.67923000  0.19997000  0.30977000  1.0
  C  C217  1  0.69299000  0.22352000  0.33574000  1.0
  C  C218  1  0.59961000  0.13903000  0.35281000  1.0
  C  C219  1  0.49112000  0.03492000  0.34204000  1.0
  C  C220  1  0.48293000  0.01812000  0.31588000  1.0
  C  C221  1  0.52299000  0.09727000  0.20847000  1.0
  C  C222  1  0.53982000  0.07670000  0.18244000  1.0
  C  C223  1  0.64696000  0.96721000  0.17293000  1.0
  C  C224  1  0.73098000  0.88012000  0.19090000  1.0
  C  C225  1  0.70787000  0.90622000  0.21660000  1.0
  C  C226  1  0.66540000  0.95038000  0.14559000  1.0
  C  C227  1  0.76386000  0.85288000  0.13334000  1.0
  C  C228  1  0.78022000  0.84153000  0.10585000  1.0
  C  C229  1  0.69529000  0.93448000  0.08870000  1.0
  C  C230  1  0.72044000  0.92131000  0.06283000  1.0
  C  C231  1  0.90314000  0.72583000  0.06882000  1.0
  C  C232  1  0.88497000  0.73394000  0.09506000  1.0
  C  C233  1  0.68430000  0.23248000  0.46234000  1.0
  C  C234  1  0.66718000  0.22315000  0.43625000  1.0
  C  C235  1  0.56074000  0.11614000  0.42579000  1.0
  C  C236  1  0.47401000  0.02566000  0.44290000  1.0
  C  C237  1  0.49681000  0.04163000  0.46887000  1.0
  C  C238  1  0.53724000  0.09459000  0.39866000  1.0
  C  C239  1  0.62030000  0.16310000  0.37994000  1.0
  C  C240  1  0.29802000  0.93154000  0.25243000  1.0
  C  C241  1  0.11991000  0.93225000  0.25117000  1.0
  C  C242  1  0.87910000  0.91334000  0.27793000  1.0
  C  C243  1  0.05737000  0.92261000  0.27869000  1.0
  C  C244  1  0.98732000  0.36637000  0.00205000  1.0
  C  C245  1  0.00591000  0.12918000  0.02981000  1.0
  C  C246  1  0.99912000  0.30731000  0.02976000  1.0
  C  C247  1  0.99108000  0.54457000  0.00257000  1.0
  N  N248  1  0.07691000  0.40242000  0.70003000  1.0
  N  N249  1  0.10688000  0.48615000  0.77479000  1.0
  N  N250  1  0.32420000  0.68013000  0.94703000  1.0
  N  N251  1  0.10087000  0.35735000  0.52166000  1.0
  N  N252  1  0.42309000  0.59759000  0.20003000  1.0
  N  N253  1  0.39313000  0.51384000  0.27479000  1.0
  N  N254  1  0.17580000  0.31988000  0.44703000  1.0
  N  N255  1  0.39912000  0.64264000  0.02167000  1.0
  N  N256  1  0.92309000  0.90241000  0.79997000  1.0
  N  N257  1  0.89312000  0.98615000  0.72521000  1.0
  N  N258  1  0.67580000  0.18013000  0.55297000  1.0
  N  N259  1  0.89913000  0.85735000  0.97834000  1.0
  N  N260  1  0.57691000  0.09759000  0.29997000  1.0
  N  N261  1  0.60688000  0.01385000  0.22521000  1.0
  N  N262  1  0.82420000  0.81988000  0.05297000  1.0
  N  N263  1  0.60087000  0.14264000  0.47833000  1.0
  O  O264  1  0.85702000  0.44124000  0.73876000  1.0
  O  O265  1  0.31414000  0.47277000  0.73412000  1.0
  O  O266  1  0.55844000  0.68512000  0.76474000  1.0
  O  O267  1  0.61776000  0.70787000  0.70799000  1.0
  O  O268  1  0.38753000  0.43699000  0.98088000  1.0
  O  O269  1  0.37256000  0.89406000  0.98602000  1.0
  O  O270  1  0.60164000  0.88275000  0.00724000  1.0
  O  O271  1  0.87460000  0.68508000  0.75421000  1.0
  O  O272  1  0.62139000  0.43670000  0.96061000  1.0
  O  O273  1  0.31283000  0.69956000  0.71186000  1.0
  O  O274  1  0.60182000  0.19863000  0.01405000  1.0
  O  O275  1  0.63204000  0.13199000  0.95754000  1.0
  O  O276  1  0.64298000  0.55876000  0.23876000  1.0
  O  O277  1  0.18586000  0.52724000  0.23412000  1.0
  O  O278  1  0.94156000  0.31488000  0.26474000  1.0
  O  O279  1  0.88224000  0.29212000  0.20799000  1.0
  O  O280  1  0.11247000  0.56302000  0.48088000  1.0
  O  O281  1  0.12745000  0.10593000  0.48602000  1.0
  O  O282  1  0.89835000  0.11725000  0.50723000  1.0
  O  O283  1  0.62541000  0.31492000  0.25421000  1.0
  O  O284  1  0.87864000  0.56330000  0.46060000  1.0
  O  O285  1  0.18717000  0.30043000  0.21186000  1.0
  O  O286  1  0.89816000  0.80137000  0.51405000  1.0
  O  O287  1  0.86798000  0.86802000  0.45753000  1.0
  O  O288  1  0.14298000  0.94125000  0.76124000  1.0
  O  O289  1  0.68586000  0.97277000  0.76589000  1.0
  O  O290  1  0.44157000  0.18513000  0.73526000  1.0
  O  O291  1  0.38224000  0.20787000  0.79201000  1.0
  O  O292  1  0.61247000  0.93699000  0.51912000  1.0
  O  O293  1  0.62744000  0.39407000  0.51398000  1.0
  O  O294  1  0.39836000  0.38274000  0.49276000  1.0
  O  O295  1  0.12540000  0.18509000  0.74578000  1.0
  O  O296  1  0.37861000  0.93670000  0.53938000  1.0
  O  O297  1  0.68717000  0.19956000  0.78815000  1.0
  O  O298  1  0.39818000  0.69862000  0.48595000  1.0
  O  O299  1  0.36796000  0.63199000  0.54246000  1.0
  O  O300  1  0.35703000  0.05876000  0.26124000  1.0
  O  O301  1  0.81414000  0.02724000  0.26588000  1.0
  O  O302  1  0.05844000  0.81487000  0.23526000  1.0
  O  O303  1  0.11776000  0.79212000  0.29201000  1.0
  O  O304  1  0.88753000  0.06301000  0.01912000  1.0
  O  O305  1  0.87255000  0.60593000  0.01398000  1.0
  O  O306  1  0.10165000  0.61726000  0.99277000  1.0
  O  O307  1  0.37460000  0.81492000  0.24579000  1.0
  O  O308  1  0.12136000  0.06330000  0.03940000  1.0
  O  O309  1  0.81283000  0.80044000  0.28814000  1.0
  O  O310  1  0.10183000  0.30138000  0.98595000  1.0
  O  O311  1  0.13203000  0.36802000  0.04247000  1.0
