# generated using pymatgen
data_MnH8C10S2(N3O2)2
_symmetry_space_group_name_H-M   'P 1'
_cell_length_a   6.89774000
_cell_length_b   7.03125000
_cell_length_c   8.30276000
_cell_angle_alpha   83.28620000
_cell_angle_beta   66.19560000
_cell_angle_gamma   74.63360000
_symmetry_Int_Tables_number   1
_chemical_formula_structural   MnH8C10S2(N3O2)2
_chemical_formula_sum   'Mn1 H8 C10 S2 N6 O4'
_cell_volume   355.23153567
_cell_formula_units_Z   1
loop_
 _symmetry_equiv_pos_site_id
 _symmetry_equiv_pos_as_xyz
  1  'x, y, z'
loop_
 _atom_site_type_symbol
 _atom_site_label
 _atom_site_symmetry_multiplicity
 _atom_site_fract_x
 _atom_site_fract_y
 _atom_site_fract_z
 _atom_site_occupancy
  Mn  Mn0  1  0.00000000  0.00001000  0.00000000  1.0
  H  H1  1  0.67020000  0.15877000  0.44494000  1.0
  H  H2  1  0.32978000  0.84124000  0.55507000  1.0
  H  H3  1  0.35071000  0.02400000  0.26618000  1.0
  H  H4  1  0.64928000  0.97600000  0.73383000  1.0
  H  H5  1  0.62235000  0.77345000  0.05470000  1.0
  H  H6  1  0.37766000  0.22655000  0.94530000  1.0
  H  H7  1  0.24788000  0.57975000  0.84835000  1.0
  H  H8  1  0.75213000  0.42024000  0.15166000  1.0
  C  C9  1  0.81443000  0.08726000  0.47244000  1.0
  C  C10  1  0.18555000  0.91275000  0.52756000  1.0
  C  C11  1  0.19720000  0.00921000  0.37154000  1.0
  C  C12  1  0.80277000  0.99081000  0.62846000  1.0
  C  C13  1  0.56855000  0.64979000  0.03411000  1.0
  C  C14  1  0.43146000  0.35019000  0.96590000  1.0
  C  C15  1  0.35990000  0.53974000  0.91558000  1.0
  C  C16  1  0.64011000  0.46025000  0.08442000  1.0
  C  C17  1  0.15346000  0.30393000  0.69000000  1.0
  C  C18  1  0.84655000  0.69609000  0.30998000  1.0
  S  S19  1  0.27835000  0.41297000  0.51208000  1.0
  S  S20  1  0.72164000  0.58703000  0.48790000  1.0
  N  N21  1  0.01202000  0.09472000  0.34267000  1.0
  N  N22  1  0.98797000  0.90529000  0.65734000  1.0
  N  N23  1  0.42854000  0.69027000  0.94972000  1.0
  N  N24  1  0.57147000  0.30972000  0.05028000  1.0
  N  N25  1  0.06216000  0.22287000  0.82342000  1.0
  N  N26  1  0.93787000  0.77712000  0.17657000  1.0
  O  O27  1  0.02452000  0.17824000  0.19004000  1.0
  O  O28  1  0.97546000  0.82177000  0.80997000  1.0
  O  O29  1  0.35731000  0.87294000  0.90498000  1.0
  O  O30  1  0.64270000  0.12705000  0.09502000  1.0
