# generated using pymatgen
data_CoP2H16C14N2O6F
_symmetry_space_group_name_H-M   'P 1'
_cell_length_a   8.28110000
_cell_length_b   8.49039000
_cell_length_c   13.29790000
_cell_angle_alpha   95.06710000
_cell_angle_beta   105.06500000
_cell_angle_gamma   107.30600000
_symmetry_Int_Tables_number   1
_chemical_formula_structural   CoP2H16C14N2O6F
_chemical_formula_sum   'Co2 P4 H32 C28 N4 O12 F2'
_cell_volume   847.94016424
_cell_formula_units_Z   2
loop_
 _symmetry_equiv_pos_site_id
 _symmetry_equiv_pos_as_xyz
  1  'x, y, z'
loop_
 _atom_site_type_symbol
 _atom_site_label
 _atom_site_symmetry_multiplicity
 _atom_site_fract_x
 _atom_site_fract_y
 _atom_site_fract_z
 _atom_site_occupancy
  Co  Co0  1  0.74809000  0.71768000  0.94267000  1.0
  Co  Co1  1  0.25191000  0.28232000  0.05733000  1.0
  P  P2  1  0.13648000  0.86091000  0.08107000  1.0
  P  P3  1  0.86352000  0.13909000  0.91893000  1.0
  P  P4  1  0.68783000  0.44133000  0.08348000  1.0
  P  P5  1  0.31217000  0.55867000  0.91652000  1.0
  H  H6  1  0.06258000  0.18395000  0.28773000  1.0
  H  H7  1  0.93741000  0.81605000  0.71227000  1.0
  H  H8  1  0.10856000  0.29259000  0.47790000  1.0
  H  H9  1  0.89144000  0.70742000  0.52210000  1.0
  H  H10  1  0.59684000  0.94654000  0.45753000  1.0
  H  H11  1  0.40317000  0.05346000  0.54247000  1.0
  H  H12  1  0.54777000  0.84335000  0.26682000  1.0
  H  H13  1  0.45223000  0.15665000  0.73318000  1.0
  H  H14  1  0.63907000  0.91871000  0.10213000  1.0
  H  H15  1  0.36092000  0.08129000  0.89787000  1.0
  H  H16  1  0.86315000  0.03825000  0.11903000  1.0
  H  H17  1  0.13685000  0.96175000  0.88097000  1.0
  H  H18  1  0.56742000  0.64370000  0.13430000  1.0
  H  H19  1  0.43258000  0.35630000  0.86570000  1.0
  H  H20  1  0.74695000  0.64082000  0.24216000  1.0
  H  H21  1  0.25305000  0.35918000  0.75784000  1.0
  H  H22  1  0.01571000  0.68423000  0.18986000  1.0
  H  H23  1  0.98429000  0.31577000  0.81014000  1.0
  H  H24  1  0.06645000  0.89569000  0.24648000  1.0
  H  H25  1  0.93355000  0.10431000  0.75352000  1.0
  H  H26  1  0.52266000  0.79636000  0.76120000  1.0
  H  H27  1  0.47734000  0.20363000  0.23880000  1.0
  H  H28  1  0.39981000  0.71144000  0.56759000  1.0
  H  H29  1  0.60020000  0.28855000  0.43241000  1.0
  H  H30  1  0.69598000  0.36435000  0.59006000  1.0
  H  H31  1  0.30402000  0.63565000  0.40995000  1.0
  H  H32  1  0.80410000  0.46499000  0.78170000  1.0
  H  H33  1  0.19590000  0.53501000  0.21830000  1.0
  H  H34  1  0.29068000  0.68560000  0.08761000  1.0
  H  H35  1  0.70932000  0.31440000  0.91239000  1.0
  H  H36  1  0.90457000  0.33534000  0.10091000  1.0
  H  H37  1  0.09543000  0.66467000  0.89909000  1.0
  C  C38  1  0.80449000  0.00229000  0.26460000  1.0
  C  C39  1  0.19551000  0.99771000  0.73540000  1.0
  C  C40  1  0.96114000  0.12982000  0.32496000  1.0
  C  C41  1  0.03886000  0.87018000  0.67504000  1.0
  C  C42  1  0.98784000  0.19262000  0.43084000  1.0
  C  C43  1  0.01215000  0.80738000  0.56916000  1.0
  C  C44  1  0.85460000  0.12422000  0.47538000  1.0
  C  C45  1  0.14540000  0.87578000  0.52462000  1.0
  C  C46  1  0.69785000  0.99688000  0.41923000  1.0
  C  C47  1  0.30215000  0.00312000  0.58077000  1.0
  C  C48  1  0.67341000  0.93736000  0.31319000  1.0
  C  C49  1  0.32659000  0.06264000  0.68682000  1.0
  C  C50  1  0.77687000  0.94178000  0.14911000  1.0
  C  C51  1  0.22313000  0.05822000  0.85089000  1.0
  C  C52  1  0.70317000  0.64024000  0.15627000  1.0
  C  C53  1  0.29683000  0.35976000  0.84373000  1.0
  C  C54  1  0.00616000  0.80522000  0.17157000  1.0
  C  C55  1  0.99384000  0.19478000  0.82843000  1.0
  C  C56  1  0.55697000  0.70101000  0.71936000  1.0
  C  C57  1  0.44303000  0.29899000  0.28064000  1.0
  C  C58  1  0.48900000  0.65152000  0.61034000  1.0
  C  C59  1  0.51100000  0.34847000  0.38966000  1.0
  C  C60  1  0.53470000  0.52748000  0.55796000  1.0
  C  C61  1  0.46530000  0.47252000  0.44204000  1.0
  C  C62  1  0.65073000  0.45961000  0.62256000  1.0
  C  C63  1  0.34926000  0.54039000  0.37743000  1.0
  C  C64  1  0.71308000  0.51568000  0.73128000  1.0
  C  C65  1  0.28692000  0.48432000  0.26872000  1.0
  N  N66  1  0.81671000  0.78463000  0.12442000  1.0
  N  N67  1  0.18329000  0.21537000  0.87558000  1.0
  N  N68  1  0.66822000  0.63452000  0.78038000  1.0
  N  N69  1  0.33178000  0.36548000  0.21962000  1.0
  O  O70  1  0.01965000  0.75183000  0.97224000  1.0
  O  O71  1  0.98035000  0.24818000  0.02775000  1.0
  O  O72  1  0.20268000  0.04730000  0.08650000  1.0
  O  O73  1  0.79732000  0.95270000  0.91350000  1.0
  O  O74  1  0.30213000  0.80177000  0.12431000  1.0
  O  O75  1  0.69788000  0.19823000  0.87570000  1.0
  O  O76  1  0.71110000  0.47626000  0.97460000  1.0
  O  O77  1  0.28890000  0.52374000  0.02540000  1.0
  O  O78  1  0.85312000  0.39651000  0.14828000  1.0
  O  O79  1  0.14688000  0.60350000  0.85172000  1.0
  O  O80  1  0.51548000  0.30697000  0.07534000  1.0
  O  O81  1  0.48452000  0.69303000  0.92466000  1.0
  F  F82  1  0.87704000  0.18702000  0.57897000  1.0
  F  F83  1  0.12296000  0.81297000  0.42103000  1.0
