# generated using pymatgen
data_CdH18C26N4O5
_symmetry_space_group_name_H-M   'P 1'
_cell_length_a   13.01120000
_cell_length_b   14.44640000
_cell_length_c   16.87560000
_cell_angle_alpha   107.72800000
_cell_angle_beta   90.00000000
_cell_angle_gamma   89.99980000
_symmetry_Int_Tables_number   1
_chemical_formula_structural   CdH18C26N4O5
_chemical_formula_sum   'Cd4 H72 C104 N16 O20'
_cell_volume   3021.39166326
_cell_formula_units_Z   4
loop_
 _symmetry_equiv_pos_site_id
 _symmetry_equiv_pos_as_xyz
  1  'x, y, z'
loop_
 _atom_site_type_symbol
 _atom_site_label
 _atom_site_symmetry_multiplicity
 _atom_site_fract_x
 _atom_site_fract_y
 _atom_site_fract_z
 _atom_site_occupancy
  Cd  Cd0  1  0.97610000  0.40557000  0.89015000  1.0
  Cd  Cd1  1  0.47610000  0.59443000  0.60985000  1.0
  Cd  Cd2  1  0.02390000  0.59443000  0.10985000  1.0
  Cd  Cd3  1  0.52390000  0.40557000  0.39015000  1.0
  H  H4  1  0.93345000  0.73078000  0.37158000  1.0
  H  H5  1  0.43345000  0.26922000  0.12842000  1.0
  H  H6  1  0.06655000  0.26922000  0.62842000  1.0
  H  H7  1  0.56655000  0.73078000  0.87158000  1.0
  H  H8  1  0.46129000  0.53631000  0.84709000  1.0
  H  H9  1  0.96129000  0.46369000  0.65291000  1.0
  H  H10  1  0.53871000  0.46369000  0.15291000  1.0
  H  H11  1  0.03871000  0.53631000  0.34709000  1.0
  H  H12  1  0.79472000  0.60424000  0.33739000  1.0
  H  H13  1  0.29472000  0.39576000  0.16261000  1.0
  H  H14  1  0.20528000  0.39576000  0.66261000  1.0
  H  H15  1  0.70528000  0.60424000  0.83739000  1.0
  H  H16  1  0.78716000  0.18250000  0.04786000  1.0
  H  H17  1  0.28716000  0.81750000  0.45214000  1.0
  H  H18  1  0.21284000  0.81750000  0.95214000  1.0
  H  H19  1  0.71284000  0.18250000  0.54786000  1.0
  H  H20  1  0.22484000  0.40272000  0.89232000  1.0
  H  H21  1  0.72484000  0.59728000  0.60769000  1.0
  H  H22  1  0.77516000  0.59728000  0.10768000  1.0
  H  H23  1  0.27516000  0.40273000  0.39232000  1.0
  H  H24  1  0.72920000  0.42184000  0.89830000  1.0
  H  H25  1  0.22920000  0.57816000  0.60170000  1.0
  H  H26  1  0.27080000  0.57816000  0.10170000  1.0
  H  H27  1  0.77080000  0.42184000  0.39830000  1.0
  H  H28  1  0.93153000  0.26834000  0.00003000  1.0
  H  H29  1  0.43153000  0.73166000  0.49997000  1.0
  H  H30  1  0.06847000  0.73166000  0.99997000  1.0
  H  H31  1  0.56847000  0.26834000  0.50003000  1.0
  H  H32  1  0.81561000  0.01460000  0.53484000  1.0
  H  H33  1  0.31561000  0.98540000  0.96516000  1.0
  H  H34  1  0.18439000  0.98540000  0.46516000  1.0
  H  H35  1  0.68439000  0.01460000  0.03484000  1.0
  H  H36  1  0.60529000  0.22023000  0.01758000  1.0
  H  H37  1  0.10529000  0.77977000  0.48242000  1.0
  H  H38  1  0.39471000  0.77977000  0.98242000  1.0
  H  H39  1  0.89471000  0.22023000  0.51758000  1.0
  H  H40  1  0.48421000  0.31139000  0.96006000  1.0
  H  H41  1  0.98421000  0.68861000  0.53995000  1.0
  H  H42  1  0.51579000  0.68861000  0.03994000  1.0
  H  H43  1  0.01579000  0.31139000  0.46005000  1.0
  H  H44  1  0.83211000  0.17245000  0.65063000  1.0
  H  H45  1  0.33211000  0.82754000  0.84937000  1.0
  H  H46  1  0.16789000  0.82755000  0.34937000  1.0
  H  H47  1  0.66789000  0.17246000  0.15063000  1.0
  H  H48  1  0.15260000  0.65105000  0.75451000  1.0
  H  H49  1  0.65260000  0.34895000  0.74550000  1.0
  H  H50  1  0.84740000  0.34895000  0.24549000  1.0
  H  H51  1  0.34740000  0.65105000  0.25450000  1.0
  H  H52  1  0.09982000  0.06539000  0.74170000  1.0
  H  H53  1  0.59982000  0.93460000  0.75830000  1.0
  H  H54  1  0.90018000  0.93461000  0.25830000  1.0
  H  H55  1  0.40018000  0.06540000  0.24170000  1.0
  H  H56  1  0.78566000  0.86957000  0.60681000  1.0
  H  H57  1  0.28566000  0.13043000  0.89319000  1.0
  H  H58  1  0.21434000  0.13043000  0.39319000  1.0
  H  H59  1  0.71435000  0.86957000  0.10681000  1.0
  H  H60  1  0.33578000  0.62211000  0.78717000  1.0
  H  H61  1  0.83578000  0.37789000  0.71283000  1.0
  H  H62  1  0.66422000  0.37789000  0.21283000  1.0
  H  H63  1  0.16422000  0.62211000  0.28717000  1.0
  H  H64  1  0.01339000  0.55600000  0.79768000  1.0
  H  H65  1  0.51339000  0.44399000  0.70232000  1.0
  H  H66  1  0.98661000  0.44400000  0.20232000  1.0
  H  H67  1  0.48661000  0.55601000  0.29768000  1.0
  H  H68  1  0.64763000  0.74575000  0.57161000  1.0
  H  H69  1  0.14763000  0.25425000  0.92839000  1.0
  H  H70  1  0.35237000  0.25425000  0.42839000  1.0
  H  H71  1  0.85237000  0.74575000  0.07161000  1.0
  H  H72  1  0.08626000  0.90836000  0.62501000  1.0
  H  H73  1  0.58626000  0.09163000  0.87499000  1.0
  H  H74  1  0.91374000  0.09164000  0.37499000  1.0
  H  H75  1  0.41374000  0.90837000  0.12501000  1.0
  C  C76  1  0.96669000  0.12800000  0.70265000  1.0
  C  C77  1  0.46669000  0.87200000  0.79735000  1.0
  C  C78  1  0.03331000  0.87200000  0.29735000  1.0
  C  C79  1  0.53331000  0.12800000  0.20265000  1.0
  C  C80  1  0.87011000  0.73311000  0.41451000  1.0
  C  C81  1  0.37011000  0.26689000  0.08549000  1.0
  C  C82  1  0.12989000  0.26690000  0.58549000  1.0
  C  C83  1  0.62989000  0.73311000  0.91451000  1.0
  C  C84  1  0.40077000  0.48827000  0.85792000  1.0
  C  C85  1  0.90077000  0.51173000  0.64208000  1.0
  C  C86  1  0.59923000  0.51173000  0.14208000  1.0
  C  C87  1  0.09923000  0.48827000  0.35792000  1.0
  C  C88  1  0.79305000  0.66325000  0.39579000  1.0
  C  C89  1  0.29305000  0.33675000  0.10422000  1.0
  C  C90  1  0.20695000  0.33675000  0.60421000  1.0
  C  C91  1  0.70695000  0.66325000  0.89578000  1.0
  C  C92  1  0.29479000  0.50884000  0.84132000  1.0
  C  C93  1  0.79479000  0.49116000  0.65868000  1.0
  C  C94  1  0.70521000  0.49116000  0.15868000  1.0
  C  C95  1  0.20521000  0.50884000  0.34132000  1.0
  C  C96  1  0.71246000  0.66651000  0.45207000  1.0
  C  C97  1  0.21246000  0.33349000  0.04793000  1.0
  C  C98  1  0.28754000  0.33349000  0.54793000  1.0
  C  C99  1  0.78754000  0.66651000  0.95207000  1.0
  C  C100  1  0.95020000  0.95335000  0.57436000  1.0
  C  C101  1  0.45020000  0.04665000  0.92564000  1.0
  C  C102  1  0.04980000  0.04665000  0.42564000  1.0
  C  C103  1  0.54980000  0.95335000  0.07436000  1.0
  C  C104  1  0.97697000  0.22342000  0.76950000  1.0
  C  C105  1  0.47697000  0.77658000  0.73050000  1.0
  C  C106  1  0.02303000  0.77658000  0.23050000  1.0
  C  C107  1  0.52303000  0.22342000  0.26950000  1.0
  C  C108  1  0.65235000  0.32368000  0.95488000  1.0
  C  C109  1  0.15236000  0.67632000  0.54513000  1.0
  C  C110  1  0.34765000  0.67632000  0.04512000  1.0
  C  C111  1  0.84765000  0.32368000  0.45487000  1.0
  C  C112  1  0.86701000  0.80711000  0.49087000  1.0
  C  C113  1  0.36701000  0.19289000  0.00913000  1.0
  C  C114  1  0.13299000  0.19289000  0.50913000  1.0
  C  C115  1  0.63299000  0.80711000  0.99086000  1.0
  C  C116  1  0.77072000  0.23458000  0.01446000  1.0
  C  C117  1  0.27072000  0.76542000  0.48554000  1.0
  C  C118  1  0.22928000  0.76542000  0.98554000  1.0
  C  C119  1  0.72928000  0.23458000  0.51446000  1.0
  C  C120  1  0.63423000  0.58726000  0.43287000  1.0
  C  C121  1  0.13423000  0.41274000  0.06713000  1.0
  C  C122  1  0.36577000  0.41274000  0.56713000  1.0
  C  C123  1  0.86577000  0.58726000  0.93287000  1.0
  C  C124  1  0.21182000  0.45820000  0.86174000  1.0
  C  C125  1  0.71182000  0.54180000  0.63826000  1.0
  C  C126  1  0.78818000  0.54180000  0.13826000  1.0
  C  C127  1  0.28818000  0.45820000  0.36174000  1.0
  C  C128  1  0.73836000  0.36799000  0.93115000  1.0
  C  C129  1  0.23836000  0.63201000  0.56885000  1.0
  C  C130  1  0.26164000  0.63201000  0.06885000  1.0
  C  C131  1  0.76164000  0.36799000  0.43114000  1.0
  C  C132  1  0.85127000  0.28174000  0.98847000  1.0
  C  C133  1  0.35127000  0.71826000  0.51153000  1.0
  C  C134  1  0.14873000  0.71826000  0.01153000  1.0
  C  C135  1  0.64873000  0.28174000  0.48847000  1.0
  C  C136  1  0.87712000  0.02619000  0.58071000  1.0
  C  C137  1  0.37712000  0.97380000  0.91929000  1.0
  C  C138  1  0.12288000  0.97381000  0.41929000  1.0
  C  C139  1  0.62288000  0.02619000  0.08071000  1.0
  C  C140  1  0.67012000  0.25576000  0.99784000  1.0
  C  C141  1  0.17012000  0.74424000  0.50217000  1.0
  C  C142  1  0.32988000  0.74424000  0.00216000  1.0
  C  C143  1  0.82988000  0.25576000  0.49783000  1.0
  C  C144  1  0.54754000  0.34631000  0.93678000  1.0
  C  C145  1  0.04754000  0.65369000  0.56322000  1.0
  C  C146  1  0.45246000  0.65369000  0.06322000  1.0
  C  C147  1  0.95246000  0.34631000  0.43678000  1.0
  C  C148  1  0.88641000  0.11329000  0.64467000  1.0
  C  C149  1  0.38641000  0.88671000  0.85533000  1.0
  C  C150  1  0.11358000  0.88671000  0.35533000  1.0
  C  C151  1  0.61359000  0.11329000  0.14467000  1.0
  C  C152  1  0.17196000  0.59762000  0.78582000  1.0
  C  C153  1  0.67196000  0.40237000  0.71418000  1.0
  C  C154  1  0.82804000  0.40238000  0.21418000  1.0
  C  C155  1  0.32804000  0.59763000  0.28582000  1.0
  C  C156  1  0.03805000  0.05354000  0.69604000  1.0
  C  C157  1  0.53805000  0.94646000  0.80396000  1.0
  C  C158  1  0.96195000  0.94646000  0.30396000  1.0
  C  C159  1  0.46195000  0.05354000  0.19604000  1.0
  C  C160  1  0.78689000  0.81240000  0.54731000  1.0
  C  C161  1  0.28689000  0.18760000  0.95269000  1.0
  C  C162  1  0.21311000  0.18760000  0.45269000  1.0
  C  C163  1  0.71311000  0.81240000  0.04731000  1.0
  C  C164  1  0.27350000  0.58064000  0.80335000  1.0
  C  C165  1  0.77350000  0.41935000  0.69665000  1.0
  C  C166  1  0.72650000  0.41936000  0.19665000  1.0
  C  C167  1  0.22650000  0.58065000  0.30335000  1.0
  C  C168  1  0.09440000  0.54445000  0.80823000  1.0
  C  C169  1  0.59441000  0.45555000  0.69177000  1.0
  C  C170  1  0.90559000  0.45555000  0.19177000  1.0
  C  C171  1  0.40559000  0.54445000  0.30823000  1.0
  C  C172  1  0.70980000  0.74214000  0.52744000  1.0
  C  C173  1  0.20980000  0.25786000  0.97256000  1.0
  C  C174  1  0.29020000  0.25786000  0.47256000  1.0
  C  C175  1  0.79020000  0.74214000  0.02744000  1.0
  C  C176  1  0.03042000  0.96643000  0.63166000  1.0
  C  C177  1  0.53042000  0.03357000  0.86834000  1.0
  C  C178  1  0.96958000  0.03357000  0.36834000  1.0
  C  C179  1  0.46958000  0.96643000  0.13166000  1.0
  N  N180  1  0.11441000  0.47635000  0.84596000  1.0
  N  N181  1  0.61441000  0.52364000  0.65404000  1.0
  N  N182  1  0.88559000  0.52365000  0.15404000  1.0
  N  N183  1  0.38559000  0.47636000  0.34596000  1.0
  N  N184  1  0.83477000  0.34737000  0.94770000  1.0
  N  N185  1  0.33478000  0.65263000  0.55230000  1.0
  N  N186  1  0.16523000  0.65263000  0.05230000  1.0
  N  N187  1  0.66523000  0.34737000  0.44770000  1.0
  N  N188  1  0.42339000  0.41553000  0.88432000  1.0
  N  N189  1  0.92339000  0.58447000  0.61568000  1.0
  N  N190  1  0.57661000  0.58447000  0.11568000  1.0
  N  N191  1  0.07661000  0.41553000  0.38432000  1.0
  N  N192  1  0.52796000  0.40605000  0.89497000  1.0
  N  N193  1  0.02796000  0.59395000  0.60503000  1.0
  N  N194  1  0.47204000  0.59396000  0.10503000  1.0
  N  N195  1  0.97204000  0.40605000  0.39497000  1.0
  O  O196  1  0.56458000  0.58598000  0.48610000  1.0
  O  O197  1  0.06458000  0.41402000  0.01389000  1.0
  O  O198  1  0.43542000  0.41402000  0.51389000  1.0
  O  O199  1  0.93542000  0.58598000  0.98611000  1.0
  O  O200  1  0.64027000  0.52018000  0.36325000  1.0
  O  O201  1  0.14028000  0.47983000  0.13674000  1.0
  O  O202  1  0.35973000  0.47982000  0.63674000  1.0
  O  O203  1  0.85972000  0.52017000  0.86326000  1.0
  O  O204  1  0.03106000  0.22941000  0.83344000  1.0
  O  O205  1  0.53107000  0.77058000  0.66656000  1.0
  O  O206  1  0.96894000  0.77059000  0.16656000  1.0
  O  O207  1  0.46893000  0.22942000  0.33344000  1.0
  O  O208  1  0.95084000  0.86870000  0.50759000  1.0
  O  O209  1  0.45084000  0.13130000  0.99241000  1.0
  O  O210  1  0.04916000  0.13130000  0.49241000  1.0
  O  O211  1  0.54916000  0.86870000  0.00759000  1.0
  O  O212  1  0.92958000  0.29644000  0.75851000  1.0
  O  O213  1  0.42958000  0.70355000  0.74150000  1.0
  O  O214  1  0.07042000  0.70356000  0.24149000  1.0
  O  O215  1  0.57042000  0.29645000  0.25850000  1.0
