# generated using pymatgen
data_TmH14(C3O2)5
_symmetry_space_group_name_H-M   'P 1'
_cell_length_a   6.06165000
_cell_length_b   10.58860000
_cell_length_c   13.41710000
_cell_angle_alpha   112.55300000
_cell_angle_beta   96.83340000
_cell_angle_gamma   97.73240000
_symmetry_Int_Tables_number   1
_chemical_formula_structural   TmH14(C3O2)5
_chemical_formula_sum   'Tm2 H28 C30 O20'
_cell_volume   774.26606463
_cell_formula_units_Z   2
loop_
 _symmetry_equiv_pos_site_id
 _symmetry_equiv_pos_as_xyz
  1  'x, y, z'
loop_
 _atom_site_type_symbol
 _atom_site_label
 _atom_site_symmetry_multiplicity
 _atom_site_fract_x
 _atom_site_fract_y
 _atom_site_fract_z
 _atom_site_occupancy
  Tm  Tm0  1  0.58380000  0.63182000  0.71110000  1.0
  Tm  Tm1  1  0.41620000  0.36818000  0.28890000  1.0
  H  H2  1  0.13855000  0.12055000  0.43443000  1.0
  H  H3  1  0.86145000  0.87945000  0.56557000  1.0
  H  H4  1  0.42515000  0.11701000  0.42281000  1.0
  H  H5  1  0.57485000  0.88299000  0.57719000  1.0
  H  H6  1  0.98310000  0.24237000  0.57868000  1.0
  H  H7  1  0.01690000  0.75763000  0.42132000  1.0
  H  H8  1  0.72892000  0.24837000  0.70864000  1.0
  H  H9  1  0.27108000  0.75163000  0.29137000  1.0
  H  H10  1  0.11083000  0.00348000  0.82986000  1.0
  H  H11  1  0.88917000  0.99652000  0.17014000  1.0
  H  H12  1  0.36539000  0.99734000  0.69992000  1.0
  H  H13  1  0.63460000  0.00266000  0.30008000  1.0
  H  H14  1  0.64043000  0.09603000  0.97082000  1.0
  H  H15  1  0.35957000  0.90397000  0.02918000  1.0
  H  H16  1  0.93092000  0.08661000  0.96915000  1.0
  H  H17  1  0.06907000  0.91339000  0.03085000  1.0
  H  H18  1  0.03005000  0.46076000  0.87381000  1.0
  H  H19  1  0.96995000  0.53924000  0.12619000  1.0
  H  H20  1  0.04060000  0.64015000  0.95777000  1.0
  H  H21  1  0.95940000  0.35984000  0.04223000  1.0
  H  H22  1  0.72868000  0.73225000  0.03822000  1.0
  H  H23  1  0.27133000  0.26775000  0.96178000  1.0
  H  H24  1  0.48219000  0.30006000  0.82218000  1.0
  H  H25  1  0.51781000  0.69994000  0.17782000  1.0
  H  H26  1  0.12483000  0.62041000  0.62312000  1.0
  H  H27  1  0.87517000  0.37959000  0.37688000  1.0
  H  H28  1  0.24255000  0.52945000  0.52518000  1.0
  H  H29  1  0.75745000  0.47055000  0.47482000  1.0
  C  C30  1  0.36713000  0.31800000  0.51730000  1.0
  C  C31  1  0.63286000  0.68199000  0.48270000  1.0
  C  C32  1  0.31382000  0.16079000  0.48073000  1.0
  C  C33  1  0.68618000  0.83921000  0.51928000  1.0
  C  C34  1  0.19684000  0.12138000  0.63199000  1.0
  C  C35  1  0.80315000  0.87862000  0.36801000  1.0
  C  C36  1  0.01614000  0.19161000  0.63427000  1.0
  C  C37  1  0.98386000  0.80839000  0.36573000  1.0
  C  C38  1  0.87159000  0.19600000  0.70854000  1.0
  C  C39  1  0.12841000  0.80400000  0.29147000  1.0
  C  C40  1  0.90538000  0.13119000  0.78081000  1.0
  C  C41  1  0.09461000  0.86881000  0.21919000  1.0
  C  C42  1  0.08216000  0.05778000  0.77644000  1.0
  C  C43  1  0.91783000  0.94222000  0.22357000  1.0
  C  C44  1  0.22669000  0.05329000  0.70224000  1.0
  C  C45  1  0.77331000  0.94670000  0.29776000  1.0
  C  C46  1  0.76396000  0.06449000  0.91647000  1.0
  C  C47  1  0.23604000  0.93551000  0.08353000  1.0
  C  C48  1  0.69354000  0.90823000  0.84677000  1.0
  C  C49  1  0.30646000  0.09178000  0.15323000  1.0
  C  C50  1  0.08771000  0.59785000  0.79303000  1.0
  C  C51  1  0.91229000  0.40215000  0.20696000  1.0
  C  C52  1  0.97909000  0.55719000  0.87477000  1.0
  C  C53  1  0.02091000  0.44281000  0.12523000  1.0
  C  C54  1  0.61988000  0.51724000  0.92383000  1.0
  C  C55  1  0.38012000  0.48276000  0.07617000  1.0
  C  C56  1  0.63120000  0.63039000  0.02272000  1.0
  C  C57  1  0.36880000  0.36961000  0.97727000  1.0
  C  C58  1  0.48934000  0.38717000  0.89978000  1.0
  C  C59  1  0.51066000  0.61282000  0.10022000  1.0
  O  O60  1  0.46877000  0.39642000  0.61393000  1.0
  O  O61  1  0.53123000  0.60358000  0.38608000  1.0
  O  O62  1  0.30132000  0.36263000  0.44425000  1.0
  O  O63  1  0.69869000  0.63737000  0.55575000  1.0
  O  O64  1  0.75716000  0.82374000  0.88578000  1.0
  O  O65  1  0.24285000  0.17626000  0.11422000  1.0
  O  O66  1  0.57160000  0.86343000  0.75120000  1.0
  O  O67  1  0.42840000  0.13657000  0.24880000  1.0
  O  O68  1  0.35444000  0.11343000  0.56531000  1.0
  O  O69  1  0.64556000  0.88657000  0.43470000  1.0
  O  O70  1  0.75805000  0.14670000  0.85410000  1.0
  O  O71  1  0.24195000  0.85330000  0.14590000  1.0
  O  O72  1  0.95762000  0.61138000  0.71708000  1.0
  O  O73  1  0.04238000  0.38862000  0.28292000  1.0
  O  O74  1  0.30069000  0.61563000  0.80419000  1.0
  O  O75  1  0.69931000  0.38437000  0.19581000  1.0
  O  O76  1  0.73658000  0.53455000  0.84384000  1.0
  O  O77  1  0.26342000  0.46545000  0.15616000  1.0
  O  O78  1  0.26050000  0.62086000  0.58804000  1.0
  O  O79  1  0.73950000  0.37914000  0.41196000  1.0
