# generated using pymatgen
data_Zn4H10C25S4O15
_symmetry_space_group_name_H-M   'P 1'
_cell_length_a   19.62080000
_cell_length_b   19.65590000
_cell_length_c   33.29380000
_cell_angle_alpha   79.18790000
_cell_angle_beta   79.27910000
_cell_angle_gamma   64.02030000
_symmetry_Int_Tables_number   1
_chemical_formula_structural   Zn4H10C25S4O15
_chemical_formula_sum   'Zn16 H40 C100 S16 O60'
_cell_volume   11259.12089656
_cell_formula_units_Z   4
loop_
 _symmetry_equiv_pos_site_id
 _symmetry_equiv_pos_as_xyz
  1  'x, y, z'
loop_
 _atom_site_type_symbol
 _atom_site_label
 _atom_site_symmetry_multiplicity
 _atom_site_fract_x
 _atom_site_fract_y
 _atom_site_fract_z
 _atom_site_occupancy
  Zn  Zn0  1  0.05265000  0.40140000  0.47765000  1.0
  Zn  Zn1  1  0.99179000  0.48157000  0.56117000  1.0
  Zn  Zn2  1  0.05319000  0.56425000  0.48100000  1.0
  Zn  Zn3  1  0.89586000  0.55221000  0.48375000  1.0
  Zn  Zn4  1  0.69278000  0.34850000  0.27150000  1.0
  Zn  Zn5  1  0.68507000  0.19172000  0.26520000  1.0
  Zn  Zn6  1  0.77383000  0.26223000  0.19134000  1.0
  Zn  Zn7  1  0.84579000  0.19181000  0.27587000  1.0
  Zn  Zn8  1  0.27357000  0.76364000  0.69000000  1.0
  Zn  Zn9  1  0.34691000  0.69979000  0.77509000  1.0
  Zn  Zn10  1  0.18928000  0.84794000  0.77077000  1.0
  Zn  Zn11  1  0.19493000  0.68406000  0.76494000  1.0
  Zn  Zn12  1  0.56392000  0.05623000  0.98217000  1.0
  Zn  Zn13  1  0.40090000  0.05745000  0.98022000  1.0
  Zn  Zn14  1  0.55206000  0.90004000  0.97794000  1.0
  Zn  Zn15  1  0.48801000  0.98021000  0.06077000  1.0
  H  H16  1  0.94249000  0.24583000  0.35942000  1.0
  H  H17  1  0.74638000  0.45942000  0.34671000  1.0
  H  H18  1  0.98724000  0.29815000  0.40731000  1.0
  H  H19  1  0.09847000  0.60390000  0.69488000  1.0
  H  H20  1  0.21894000  0.69352000  0.59425000  1.0
  H  H21  1  0.05153000  0.55902000  0.64442000  1.0
  H  H22  1  0.46161000  0.23884000  0.34395000  1.0
  H  H23  1  0.48984000  0.70074000  0.60895000  1.0
  H  H24  1  0.20575000  0.97616000  0.59932000  1.0
  H  H25  1  0.94226000  0.95968000  0.34184000  1.0
  H  H26  1  0.56470000  0.04112000  0.15070000  1.0
  H  H27  1  0.64583000  0.16159000  0.04619000  1.0
  H  H28  1  0.61306000  0.09285000  0.19704000  1.0
  H  H29  1  0.54860000  0.76605000  0.14775000  1.0
  H  H30  1  0.16613000  0.15230000  0.04650000  1.0
  H  H31  1  0.48565000  0.80080000  0.90260000  1.0
  H  H32  1  0.29226000  0.01763000  0.89650000  1.0
  H  H33  1  0.43244000  0.75867000  0.85397000  1.0
  H  H34  1  0.30586000  0.27993000  0.90208000  1.0
  H  H35  1  0.78219000  0.00471000  0.90202000  1.0
  H  H36  1  0.72761000  0.56256000  0.37594000  1.0
  H  H37  1  0.80612000  0.56999000  0.39148000  1.0
  H  H38  1  0.74661000  0.53833000  0.42836000  1.0
  H  H39  1  0.13275000  0.69297000  0.51385000  1.0
  H  H40  1  0.20985000  0.60292000  0.51612000  1.0
  H  H41  1  0.22109000  0.68242000  0.52738000  1.0
  H  H42  1  0.76630000  0.20204000  0.08853000  1.0
  H  H43  1  0.68009000  0.28196000  0.09734000  1.0
  H  H44  1  0.70035000  0.23948000  0.05114000  1.0
  H  H45  1  0.17117000  0.97612000  0.85508000  1.0
  H  H46  1  0.22141000  0.00392000  0.81076000  1.0
  H  H47  1  0.19992000  0.05045000  0.85564000  1.0
  H  H48  1  0.32711000  0.54035000  0.40229000  1.0
  H  H49  1  0.76630000  0.53983000  0.69387000  1.0
  H  H50  1  0.04142000  0.25319000  0.68173000  1.0
  H  H51  1  0.72884000  0.81286000  0.38675000  1.0
  H  H52  1  0.70568000  0.48890000  0.06449000  1.0
  H  H53  1  0.15397000  0.05572000  0.22521000  1.0
  H  H54  1  0.50864000  0.43853000  0.86559000  1.0
  H  H55  1  0.93273000  0.69150000  0.85745000  1.0
  C  C56  1  0.05979000  0.31380000  0.55982000  1.0
  C  C57  1  0.07649000  0.57269000  0.56407000  1.0
  C  C58  1  0.18257000  0.44034000  0.44082000  1.0
  C  C59  1  0.92635000  0.67804000  0.43450000  1.0
  C  C60  1  0.92173000  0.43182000  0.43447000  1.0
  C  C61  1  0.82564000  0.56426000  0.57092000  1.0
  C  C62  1  0.56430000  0.31022000  0.31274000  1.0
  C  C63  1  0.68573000  0.18110000  0.17797000  1.0
  C  C64  1  0.68615000  0.42914000  0.18693000  1.0
  C  C65  1  0.94043000  0.18617000  0.19570000  1.0
  C  C66  1  0.81350000  0.31986000  0.32197000  1.0
  C  C67  1  0.80352000  0.06192000  0.30877000  1.0
  C  C68  1  0.44060000  0.68558000  0.69480000  1.0
  C  C69  1  0.30633000  0.83198000  0.81985000  1.0
  C  C70  1  0.19419000  0.93101000  0.68686000  1.0
  C  C71  1  0.06333000  0.80354000  0.80703000  1.0
  C  C72  1  0.19093000  0.67754000  0.67693000  1.0
  C  C73  1  0.31456000  0.56900000  0.81490000  1.0
  C  C74  1  0.44268000  0.18343000  0.93892000  1.0
  C  C75  1  0.42241000  0.93771000  0.93141000  1.0
  C  C76  1  0.68430000  0.93103000  0.93777000  1.0
  C  C77  1  0.56107000  0.81283000  0.06082000  1.0
  C  C78  1  0.57499000  0.06780000  0.06751000  1.0
  C  C79  1  0.31977000  0.06061000  0.06464000  1.0
  C  C80  1  0.89101000  0.40693000  0.40475000  1.0
  C  C81  1  0.84114000  0.34978000  0.35062000  1.0
  C  C82  1  0.82194000  0.45465000  0.38771000  1.0
  C  C83  1  0.90954000  0.30358000  0.36748000  1.0
  C  C84  1  0.79893000  0.42430000  0.36062000  1.0
  C  C85  1  0.93398000  0.33262000  0.39404000  1.0
  C  C86  1  0.10807000  0.60176000  0.59125000  1.0
  C  C87  1  0.16168000  0.65134000  0.64726000  1.0
  C  C88  1  0.15582000  0.64029000  0.57593000  1.0
  C  C89  1  0.11413000  0.61356000  0.66187000  1.0
  C  C90  1  0.18171000  0.66414000  0.60483000  1.0
  C  C91  1  0.08814000  0.58899000  0.63388000  1.0
  C  C92  1  0.30525000  0.45374000  0.40507000  1.0
  C  C93  1  0.44552000  0.29529000  0.35222000  1.0
  C  C94  1  0.25855000  0.41488000  0.41750000  1.0
  C  C95  1  0.49087000  0.33467000  0.33913000  1.0
  C  C96  1  0.37809000  0.33819000  0.37645000  1.0
  C  C97  1  0.37362000  0.40962000  0.38147000  1.0
  C  C98  1  0.73609000  0.57776000  0.63974000  1.0
  C  C99  1  0.53399000  0.67213000  0.62945000  1.0
  C  C100  1  0.75253000  0.58856000  0.59702000  1.0
  C  C101  1  0.51707000  0.66109000  0.67166000  1.0
  C  C102  1  0.61348000  0.64191000  0.61783000  1.0
  C  C103  1  0.65600000  0.60840000  0.65160000  1.0
  C  C104  1  0.07593000  0.22331000  0.62754000  1.0
  C  C105  1  0.17655000  0.02101000  0.61925000  1.0
  C  C106  1  0.08431000  0.23930000  0.58471000  1.0
  C  C107  1  0.16810000  0.00568000  0.66171000  1.0
  C  C108  1  0.14267000  0.10022000  0.60658000  1.0
  C  C109  1  0.10927000  0.14363000  0.63988000  1.0
  C  C110  1  0.83102000  0.79447000  0.39236000  1.0
  C  C111  1  0.89658000  0.94084000  0.34660000  1.0
  C  C112  1  0.90081000  0.75079000  0.40799000  1.0
  C  C113  1  0.82717000  0.98513000  0.33170000  1.0
  C  C114  1  0.89841000  0.87120000  0.36818000  1.0
  C  C115  1  0.82993000  0.86357000  0.36943000  1.0
  C  C116  1  0.65779000  0.15470000  0.14764000  1.0
  C  C117  1  0.60316000  0.09820000  0.09560000  1.0
  C  C118  1  0.66781000  0.17559000  0.10454000  1.0
  C  C119  1  0.59330000  0.07845000  0.13826000  1.0
  C  C120  1  0.63956000  0.14647000  0.07946000  1.0
  C  C121  1  0.62029000  0.10701000  0.16376000  1.0
  C  C122  1  0.66979000  0.51914000  0.11861000  1.0
  C  C123  1  0.57588000  0.72144000  0.12760000  1.0
  C  C124  1  0.66087000  0.50299000  0.16143000  1.0
  C  C125  1  0.58492000  0.73740000  0.08520000  1.0
  C  C126  1  0.60623000  0.64208000  0.13986000  1.0
  C  C127  1  0.63817000  0.59898000  0.10639000  1.0
  C  C128  1  0.08794000  0.11539000  0.18400000  1.0
  C  C129  1  0.17445000  0.12974000  0.07849000  1.0
  C  C130  1  0.01571000  0.16089000  0.17150000  1.0
  C  C131  1  0.24604000  0.08477000  0.09081000  1.0
  C  C132  1  0.11689000  0.14112000  0.11229000  1.0
  C  C133  1  0.14581000  0.10431000  0.14995000  1.0
  C  C134  1  0.33251000  0.86388000  0.84834000  1.0
  C  C135  1  0.39141000  0.91185000  0.90248000  1.0
  C  C136  1  0.29112000  0.93851000  0.85988000  1.0
  C  C137  1  0.43179000  0.83846000  0.89062000  1.0
  C  C138  1  0.32231000  0.96057000  0.88702000  1.0
  C  C139  1  0.40217000  0.81534000  0.86377000  1.0
  C  C140  1  0.40964000  0.45256000  0.85642000  1.0
  C  C141  1  0.34998000  0.30071000  0.89825000  1.0
  C  C142  1  0.34092000  0.49426000  0.83949000  1.0
  C  C143  1  0.41835000  0.25895000  0.91466000  1.0
  C  C144  1  0.34688000  0.37088000  0.87674000  1.0
  C  C145  1  0.41298000  0.38159000  0.87758000  1.0
  C  C146  1  0.94693000  0.78370000  0.84861000  1.0
  C  C147  1  0.80123000  0.94597000  0.89654000  1.0
  C  C148  1  0.98928000  0.82612000  0.83230000  1.0
  C  C149  1  0.75876000  0.90443000  0.91243000  1.0
  C  C150  1  0.86945000  0.90238000  0.87317000  1.0
  C  C151  1  0.87799000  0.82784000  0.87189000  1.0
  C  C152  1  0.77298000  0.53571000  0.39623000  1.0
  C  C153  1  0.18133000  0.65554000  0.53095000  1.0
  C  C154  1  0.70555000  0.22760000  0.08425000  1.0
  C  C155  1  0.21695000  0.99544000  0.84454000  1.0
  S  S156  1  0.29855000  0.32488000  0.40075000  1.0
  S  S157  1  0.45234000  0.42394000  0.35640000  1.0
  S  S158  1  0.67095000  0.63587000  0.57170000  1.0
  S  S159  1  0.59761000  0.61401000  0.69775000  1.0
  S  S160  1  0.13250000  0.15723000  0.55995000  1.0
  S  S161  1  0.11888000  0.08717000  0.68666000  1.0
  S  S162  1  0.96438000  0.79376000  0.39456000  1.0
  S  S163  1  0.76360000  0.94215000  0.34345000  1.0
  S  S164  1  0.61419000  0.58491000  0.18633000  1.0
  S  S165  1  0.63015000  0.65620000  0.05980000  1.0
  S  S166  1  0.01894000  0.18945000  0.11851000  1.0
  S  S167  1  0.24402000  0.05592000  0.14366000  1.0
  S  S168  1  0.28121000  0.44693000  0.84938000  1.0
  S  S169  1  0.47945000  0.30463000  0.90426000  1.0
  S  S170  1  0.94527000  0.91884000  0.84562000  1.0
  S  S171  1  0.80137000  0.81187000  0.89913000  1.0
  O  O172  1  0.99866000  0.49904000  0.50077000  1.0
  O  O173  1  0.07227000  0.31336000  0.52057000  1.0
  O  O174  1  0.05442000  0.52065000  0.58107000  1.0
  O  O175  1  0.15349000  0.50707000  0.45190000  1.0
  O  O176  1  0.02874000  0.37213000  0.57928000  1.0
  O  O177  1  0.15210000  0.39266000  0.44772000  1.0
  O  O178  1  0.07305000  0.60186000  0.52645000  1.0
  O  O179  1  0.99408000  0.65350000  0.44445000  1.0
  O  O180  1  0.87470000  0.48681000  0.45447000  1.0
  O  O181  1  0.88065000  0.64578000  0.44555000  1.0
  O  O182  1  0.99302000  0.39521000  0.43793000  1.0
  O  O183  1  0.88691000  0.53003000  0.58808000  1.0
  O  O184  1  0.82021000  0.58024000  0.53209000  1.0
  O  O185  1  0.74925000  0.24824000  0.25144000  1.0
  O  O186  1  0.59535000  0.35729000  0.30442000  1.0
  O  O187  1  0.65527000  0.17730000  0.21531000  1.0
  O  O188  1  0.72215000  0.36940000  0.16865000  1.0
  O  O189  1  0.59014000  0.24470000  0.30047000  1.0
  O  O190  1  0.66953000  0.43173000  0.22596000  1.0
  O  O191  1  0.73803000  0.20448000  0.16471000  1.0
  O  O192  1  0.88395000  0.22681000  0.17479000  1.0
  O  O193  1  0.85395000  0.25087000  0.31473000  1.0
  O  O194  1  0.93663000  0.16657000  0.23454000  1.0
  O  O195  1  0.75159000  0.36560000  0.30701000  1.0
  O  O196  1  0.73783000  0.09093000  0.29586000  1.0
  O  O197  1  0.85044000  0.09244000  0.30412000  1.0
  O  O198  1  0.25100000  0.74908000  0.75006000  1.0
  O  O199  1  0.38445000  0.72103000  0.67359000  1.0
  O  O200  1  0.35607000  0.77086000  0.80568000  1.0
  O  O201  1  0.17643000  0.93202000  0.72584000  1.0
  O  O202  1  0.43750000  0.66930000  0.73395000  1.0
  O  O203  1  0.23177000  0.87244000  0.66779000  1.0
  O  O204  1  0.23715000  0.86687000  0.81198000  1.0
  O  O205  1  0.08843000  0.85561000  0.79677000  1.0
  O  O206  1  0.17460000  0.65937000  0.71521000  1.0
  O  O207  1  0.09628000  0.73566000  0.79749000  1.0
  O  O208  1  0.22999000  0.71597000  0.66170000  1.0
  O  O209  1  0.35462000  0.60681000  0.81147000  1.0
  O  O210  1  0.25260000  0.58964000  0.79902000  1.0
  O  O211  1  0.50117000  0.99846000  0.00029000  1.0
  O  O212  1  0.51077000  0.15350000  0.94871000  1.0
  O  O213  1  0.38053000  0.00291000  0.94365000  1.0
  O  O214  1  0.65254000  0.88457000  0.94710000  1.0
  O  O215  1  0.39383000  0.15474000  0.94803000  1.0
  O  O216  1  0.65814000  0.99812000  0.94807000  1.0
  O  O217  1  0.48857000  0.89226000  0.94162000  1.0
  O  O218  1  0.57255000  0.81340000  0.02165000  1.0
  O  O219  1  0.53773000  0.02830000  0.08442000  1.0
  O  O220  1  0.53134000  0.87057000  0.08082000  1.0
  O  O221  1  0.59050000  0.08349000  0.02884000  1.0
  O  O222  1  0.31780000  0.08227000  0.02606000  1.0
  O  O223  1  0.37923000  0.02000000  0.08304000  1.0
  O  O224  1  0.28639000  0.52456000  0.41453000  1.0
  O  O225  1  0.79069000  0.54206000  0.66567000  1.0
  O  O226  1  0.04032000  0.27771000  0.65343000  1.0
  O  O227  1  0.77280000  0.77249000  0.39898000  1.0
  O  O228  1  0.70440000  0.46455000  0.09278000  1.0
  O  O229  1  0.09956000  0.08609000  0.22368000  1.0
  O  O230  1  0.46523000  0.47765000  0.85237000  1.0
  O  O231  1  0.97014000  0.71007000  0.84257000  1.0
