# generated using pymatgen
data_AgH6C6N(OF)2
_symmetry_space_group_name_H-M   'P 1'
_cell_length_a   18.25260000
_cell_length_b   18.25260000
_cell_length_c   18.25260000
_cell_angle_alpha   87.25260000
_cell_angle_beta   87.25260000
_cell_angle_gamma   87.25260000
_symmetry_Int_Tables_number   1
_chemical_formula_structural   AgH6C6N(OF)2
_chemical_formula_sum   'Ag24 H144 C144 N24 O48 F48'
_cell_volume   6060.66751988
_cell_formula_units_Z   24
loop_
 _symmetry_equiv_pos_site_id
 _symmetry_equiv_pos_as_xyz
  1  'x, y, z'
loop_
 _atom_site_type_symbol
 _atom_site_label
 _atom_site_symmetry_multiplicity
 _atom_site_fract_x
 _atom_site_fract_y
 _atom_site_fract_z
 _atom_site_occupancy
  Ag  Ag0  1  0.44404000  0.75000000  0.05595000  1.0
  Ag  Ag1  1  0.05595000  0.44404000  0.75000000  1.0
  Ag  Ag2  1  0.75000000  0.05595000  0.44404000  1.0
  Ag  Ag3  1  0.55596000  0.25000000  0.94405000  1.0
  Ag  Ag4  1  0.94405000  0.55596000  0.25000000  1.0
  Ag  Ag5  1  0.25000000  0.94405000  0.55596000  1.0
  Ag  Ag6  1  0.37361000  0.65072000  0.96199000  1.0
  Ag  Ag7  1  0.96199000  0.37361000  0.65071000  1.0
  Ag  Ag8  1  0.65071000  0.96199000  0.37361000  1.0
  Ag  Ag9  1  0.84929000  0.12640000  0.53801000  1.0
  Ag  Ag10  1  0.12640000  0.53801000  0.84929000  1.0
  Ag  Ag11  1  0.53801000  0.84929000  0.12639000  1.0
  Ag  Ag12  1  0.62639000  0.34928000  0.03801000  1.0
  Ag  Ag13  1  0.03801000  0.62639000  0.34929000  1.0
  Ag  Ag14  1  0.34929000  0.03801000  0.62639000  1.0
  Ag  Ag15  1  0.15071000  0.87361000  0.46199000  1.0
  Ag  Ag16  1  0.87361000  0.46199000  0.15071000  1.0
  Ag  Ag17  1  0.46199000  0.15071000  0.87361000  1.0
  Ag  Ag18  1  0.34106000  0.15895000  0.75000000  1.0
  Ag  Ag19  1  0.75000000  0.34106000  0.15895000  1.0
  Ag  Ag20  1  0.15895000  0.75000000  0.34106000  1.0
  Ag  Ag21  1  0.65894000  0.84105000  0.25000000  1.0
  Ag  Ag22  1  0.25000000  0.65894000  0.84105000  1.0
  Ag  Ag23  1  0.84105000  0.25000000  0.65894000  1.0
  H  H24  1  0.34425000  0.84885000  0.04032000  1.0
  H  H25  1  0.04032000  0.34425000  0.84885000  1.0
  H  H26  1  0.84885000  0.04032000  0.34425000  1.0
  H  H27  1  0.65115000  0.15575000  0.45968000  1.0
  H  H28  1  0.15575000  0.45968000  0.65116000  1.0
  H  H29  1  0.45968000  0.65116000  0.15575000  1.0
  H  H30  1  0.65575000  0.15115000  0.95968000  1.0
  H  H31  1  0.95968000  0.65575000  0.15115000  1.0
  H  H32  1  0.15115000  0.95968000  0.65575000  1.0
  H  H33  1  0.34884000  0.84425000  0.54032000  1.0
  H  H34  1  0.84425000  0.54032000  0.34884000  1.0
  H  H35  1  0.54032000  0.34884000  0.84425000  1.0
  H  H36  1  0.26888000  0.89987000  0.08172000  1.0
  H  H37  1  0.08172000  0.26888000  0.89987000  1.0
  H  H38  1  0.89987000  0.08172000  0.26888000  1.0
  H  H39  1  0.60013000  0.23112000  0.41828000  1.0
  H  H40  1  0.23112000  0.41828000  0.60013000  1.0
  H  H41  1  0.41828000  0.60013000  0.23112000  1.0
  H  H42  1  0.73112000  0.10013000  0.91828000  1.0
  H  H43  1  0.91828000  0.73112000  0.10013000  1.0
  H  H44  1  0.10013000  0.91828000  0.73112000  1.0
  H  H45  1  0.39987000  0.76888000  0.58172000  1.0
  H  H46  1  0.76888000  0.58172000  0.39987000  1.0
  H  H47  1  0.58172000  0.39987000  0.76888000  1.0
  H  H48  1  0.25349000  0.82080000  0.03208000  1.0
  H  H49  1  0.03208000  0.25349000  0.82081000  1.0
  H  H50  1  0.82080000  0.03209000  0.25349000  1.0
  H  H51  1  0.67920000  0.24651000  0.46791000  1.0
  H  H52  1  0.24651000  0.46791000  0.67920000  1.0
  H  H53  1  0.46791000  0.67920000  0.24651000  1.0
  H  H54  1  0.74651000  0.17920000  0.96791000  1.0
  H  H55  1  0.96792000  0.74651000  0.17920000  1.0
  H  H56  1  0.17920000  0.96791000  0.74651000  1.0
  H  H57  1  0.32080000  0.75349000  0.53209000  1.0
  H  H58  1  0.75349000  0.53209000  0.32080000  1.0
  H  H59  1  0.53208000  0.32080000  0.75349000  1.0
  H  H60  1  0.34390000  0.57553000  0.07969000  1.0
  H  H61  1  0.07969000  0.34390000  0.57553000  1.0
  H  H62  1  0.57553000  0.07969000  0.34390000  1.0
  H  H63  1  0.92447000  0.15610000  0.42031000  1.0
  H  H64  1  0.15610000  0.42031000  0.92447000  1.0
  H  H65  1  0.42031000  0.92447000  0.15610000  1.0
  H  H66  1  0.65610000  0.42447000  0.92031000  1.0
  H  H67  1  0.92031000  0.65610000  0.42447000  1.0
  H  H68  1  0.42447000  0.92031000  0.65610000  1.0
  H  H69  1  0.07553000  0.84390000  0.57969000  1.0
  H  H70  1  0.84390000  0.57969000  0.07553000  1.0
  H  H71  1  0.57969000  0.07553000  0.84390000  1.0
  H  H72  1  0.37606000  0.50845000  0.14633000  1.0
  H  H73  1  0.14633000  0.37606000  0.50845000  1.0
  H  H74  1  0.50845000  0.14633000  0.37606000  1.0
  H  H75  1  0.99155000  0.12394000  0.35367000  1.0
  H  H76  1  0.12394000  0.35367000  0.99155000  1.0
  H  H77  1  0.35367000  0.99155000  0.12394000  1.0
  H  H78  1  0.62394000  0.49155000  0.85367000  1.0
  H  H79  1  0.85367000  0.62394000  0.49155000  1.0
  H  H80  1  0.49155000  0.85367000  0.62394000  1.0
  H  H81  1  0.00845000  0.87606000  0.64633000  1.0
  H  H82  1  0.87606000  0.64633000  0.00845000  1.0
  H  H83  1  0.64633000  0.00845000  0.87606000  1.0
  H  H84  1  0.32563000  0.48177000  0.07225000  1.0
  H  H85  1  0.07225000  0.32563000  0.48177000  1.0
  H  H86  1  0.48177000  0.07225000  0.32563000  1.0
  H  H87  1  0.01824000  0.17437000  0.42775000  1.0
  H  H88  1  0.17437000  0.42775000  0.01824000  1.0
  H  H89  1  0.42775000  0.01824000  0.17437000  1.0
  H  H90  1  0.67437000  0.51823000  0.92775000  1.0
  H  H91  1  0.92775000  0.67437000  0.51823000  1.0
  H  H92  1  0.51823000  0.92775000  0.67437000  1.0
  H  H93  1  0.98176000  0.82563000  0.57225000  1.0
  H  H94  1  0.82563000  0.57225000  0.98176000  1.0
  H  H95  1  0.57225000  0.98176000  0.82563000  1.0
  H  H96  1  0.50483000  0.60114000  0.83920000  1.0
  H  H97  1  0.83919000  0.50483000  0.60114000  1.0
  H  H98  1  0.60114000  0.83920000  0.50483000  1.0
  H  H99  1  0.89886000  0.99517000  0.66080000  1.0
  H  H100  1  0.99517000  0.66080000  0.89886000  1.0
  H  H101  1  0.66080000  0.89886000  0.99517000  1.0
  H  H102  1  0.49517000  0.39886000  0.16081000  1.0
  H  H103  1  0.16080000  0.49517000  0.39886000  1.0
  H  H104  1  0.39886000  0.16080000  0.49517000  1.0
  H  H105  1  0.10114000  0.00483000  0.33920000  1.0
  H  H106  1  0.00483000  0.33920000  0.10114000  1.0
  H  H107  1  0.33920000  0.10114000  0.00483000  1.0
  H  H108  1  0.59042000  0.61656000  0.87806000  1.0
  H  H109  1  0.87806000  0.59042000  0.61656000  1.0
  H  H110  1  0.61656000  0.87806000  0.59042000  1.0
  H  H111  1  0.88344000  0.90959000  0.62194000  1.0
  H  H112  1  0.90958000  0.62194000  0.88344000  1.0
  H  H113  1  0.62194000  0.88344000  0.90958000  1.0
  H  H114  1  0.40958000  0.38344000  0.12194000  1.0
  H  H115  1  0.12194000  0.40958000  0.38344000  1.0
  H  H116  1  0.38344000  0.12194000  0.40958000  1.0
  H  H117  1  0.11656000  0.09041000  0.37806000  1.0
  H  H118  1  0.09042000  0.37806000  0.11656000  1.0
  H  H119  1  0.37806000  0.11656000  0.09042000  1.0
  H  H120  1  0.50926000  0.66582000  0.90884000  1.0
  H  H121  1  0.90884000  0.50926000  0.66582000  1.0
  H  H122  1  0.66582000  0.90884000  0.50926000  1.0
  H  H123  1  0.83418000  0.99074000  0.59116000  1.0
  H  H124  1  0.99074000  0.59117000  0.83418000  1.0
  H  H125  1  0.59117000  0.83418000  0.99074000  1.0
  H  H126  1  0.49074000  0.33418000  0.09117000  1.0
  H  H127  1  0.09116000  0.49074000  0.33418000  1.0
  H  H128  1  0.33418000  0.09116000  0.49074000  1.0
  H  H129  1  0.16582000  0.00926000  0.40883000  1.0
  H  H130  1  0.00926000  0.40883000  0.16582000  1.0
  H  H131  1  0.40883000  0.16582000  0.00926000  1.0
  H  H132  1  0.19115000  0.90326000  0.20995000  1.0
  H  H133  1  0.20995000  0.19115000  0.90327000  1.0
  H  H134  1  0.90327000  0.20995000  0.19115000  1.0
  H  H135  1  0.59673000  0.30886000  0.29006000  1.0
  H  H136  1  0.30886000  0.29006000  0.59673000  1.0
  H  H137  1  0.29006000  0.59673000  0.30886000  1.0
  H  H138  1  0.80885000  0.09673000  0.79005000  1.0
  H  H139  1  0.79005000  0.80885000  0.09673000  1.0
  H  H140  1  0.09673000  0.79005000  0.80885000  1.0
  H  H141  1  0.40327000  0.69114000  0.70994000  1.0
  H  H142  1  0.69114000  0.70994000  0.40327000  1.0
  H  H143  1  0.70994000  0.40327000  0.69114000  1.0
  H  H144  1  0.13159000  0.82994000  0.22840000  1.0
  H  H145  1  0.22840000  0.13159000  0.82994000  1.0
  H  H146  1  0.82994000  0.22840000  0.13159000  1.0
  H  H147  1  0.67006000  0.36841000  0.27160000  1.0
  H  H148  1  0.36841000  0.27160000  0.67007000  1.0
  H  H149  1  0.27160000  0.67006000  0.36841000  1.0
  H  H150  1  0.86841000  0.17006000  0.77160000  1.0
  H  H151  1  0.77160000  0.86841000  0.17006000  1.0
  H  H152  1  0.17006000  0.77160000  0.86841000  1.0
  H  H153  1  0.32994000  0.63159000  0.72840000  1.0
  H  H154  1  0.63159000  0.72840000  0.32993000  1.0
  H  H155  1  0.72840000  0.32994000  0.63159000  1.0
  H  H156  1  0.15632000  0.85763000  0.13571000  1.0
  H  H157  1  0.13571000  0.15632000  0.85763000  1.0
  H  H158  1  0.85763000  0.13571000  0.15632000  1.0
  H  H159  1  0.64237000  0.34367000  0.36429000  1.0
  H  H160  1  0.34368000  0.36429000  0.64237000  1.0
  H  H161  1  0.36429000  0.64237000  0.34368000  1.0
  H  H162  1  0.84368000  0.14237000  0.86429000  1.0
  H  H163  1  0.86429000  0.84368000  0.14237000  1.0
  H  H164  1  0.14237000  0.86429000  0.84368000  1.0
  H  H165  1  0.35763000  0.65633000  0.63571000  1.0
  H  H166  1  0.65632000  0.63571000  0.35763000  1.0
  H  H167  1  0.63571000  0.35763000  0.65633000  1.0
  C  C168  1  0.40352000  0.86896000  0.83773000  1.0
  C  C169  1  0.83773000  0.40352000  0.86896000  1.0
  C  C170  1  0.86896000  0.83773000  0.40352000  1.0
  C  C171  1  0.63104000  0.09648000  0.66227000  1.0
  C  C172  1  0.09648000  0.66227000  0.63105000  1.0
  C  C173  1  0.66227000  0.63105000  0.09648000  1.0
  C  C174  1  0.59648000  0.13104000  0.16227000  1.0
  C  C175  1  0.16227000  0.59648000  0.13104000  1.0
  C  C176  1  0.13104000  0.16227000  0.59648000  1.0
  C  C177  1  0.36896000  0.90352000  0.33773000  1.0
  C  C178  1  0.90352000  0.33773000  0.36896000  1.0
  C  C179  1  0.33773000  0.36896000  0.90352000  1.0
  C  C180  1  0.34524000  0.92965000  0.86088000  1.0
  C  C181  1  0.86088000  0.34524000  0.92965000  1.0
  C  C182  1  0.92965000  0.86088000  0.34524000  1.0
  C  C183  1  0.57035000  0.15476000  0.63912000  1.0
  C  C184  1  0.15476000  0.63912000  0.57035000  1.0
  C  C185  1  0.63912000  0.57035000  0.15476000  1.0
  C  C186  1  0.65476000  0.07035000  0.13912000  1.0
  C  C187  1  0.13912000  0.65476000  0.07035000  1.0
  C  C188  1  0.07035000  0.13912000  0.65476000  1.0
  C  C189  1  0.42965000  0.84524000  0.36088000  1.0
  C  C190  1  0.84524000  0.36088000  0.42965000  1.0
  C  C191  1  0.36088000  0.42965000  0.84524000  1.0
  C  C192  1  0.41084000  0.80493000  0.89652000  1.0
  C  C193  1  0.89652000  0.41084000  0.80493000  1.0
  C  C194  1  0.80493000  0.89652000  0.41084000  1.0
  C  C195  1  0.69508000  0.08916000  0.60348000  1.0
  C  C196  1  0.08916000  0.60348000  0.69508000  1.0
  C  C197  1  0.60348000  0.69508000  0.08916000  1.0
  C  C198  1  0.58917000  0.19507000  0.10348000  1.0
  C  C199  1  0.10348000  0.58917000  0.19507000  1.0
  C  C200  1  0.19507000  0.10348000  0.58916000  1.0
  C  C201  1  0.30492000  0.91084000  0.39652000  1.0
  C  C202  1  0.91084000  0.39652000  0.30492000  1.0
  C  C203  1  0.39652000  0.30492000  0.91084000  1.0
  C  C204  1  0.29056000  0.84447000  0.06955000  1.0
  C  C205  1  0.06955000  0.29056000  0.84447000  1.0
  C  C206  1  0.84447000  0.06955000  0.29056000  1.0
  C  C207  1  0.65553000  0.20943000  0.43045000  1.0
  C  C208  1  0.20943000  0.43045000  0.65553000  1.0
  C  C209  1  0.43045000  0.65553000  0.20944000  1.0
  C  C210  1  0.70944000  0.15553000  0.93045000  1.0
  C  C211  1  0.93045000  0.70944000  0.15553000  1.0
  C  C212  1  0.15553000  0.93045000  0.70944000  1.0
  C  C213  1  0.34447000  0.79057000  0.56955000  1.0
  C  C214  1  0.79056000  0.56955000  0.34447000  1.0
  C  C215  1  0.56955000  0.34447000  0.79057000  1.0
  C  C216  1  0.36710000  0.51927000  0.08768000  1.0
  C  C217  1  0.08768000  0.36710000  0.51927000  1.0
  C  C218  1  0.51927000  0.08768000  0.36710000  1.0
  C  C219  1  0.98073000  0.13290000  0.41232000  1.0
  C  C220  1  0.13290000  0.41232000  0.98073000  1.0
  C  C221  1  0.41232000  0.98073000  0.13290000  1.0
  C  C222  1  0.63290000  0.48073000  0.91232000  1.0
  C  C223  1  0.91232000  0.63290000  0.48073000  1.0
  C  C224  1  0.48073000  0.91232000  0.63290000  1.0
  C  C225  1  0.01927000  0.86710000  0.58768000  1.0
  C  C226  1  0.86710000  0.58768000  0.01927000  1.0
  C  C227  1  0.58768000  0.01927000  0.86710000  1.0
  C  C228  1  0.34209000  0.99814000  0.80664000  1.0
  C  C229  1  0.80664000  0.34209000  0.99814000  1.0
  C  C230  1  0.99814000  0.80664000  0.34209000  1.0
  C  C231  1  0.50186000  0.15791000  0.69336000  1.0
  C  C232  1  0.15791000  0.69336000  0.50186000  1.0
  C  C233  1  0.69336000  0.50186000  0.15791000  1.0
  C  C234  1  0.65791000  0.00186000  0.19336000  1.0
  C  C235  1  0.19336000  0.65791000  0.00186000  1.0
  C  C236  1  0.00186000  0.19336000  0.65791000  1.0
  C  C237  1  0.49814000  0.84209000  0.30664000  1.0
  C  C238  1  0.84209000  0.30664000  0.49814000  1.0
  C  C239  1  0.30664000  0.49814000  0.84209000  1.0
  C  C240  1  0.29670000  0.79600000  0.13745000  1.0
  C  C241  1  0.13745000  0.29670000  0.79600000  1.0
  C  C242  1  0.79600000  0.13745000  0.29670000  1.0
  C  C243  1  0.70400000  0.20330000  0.36255000  1.0
  C  C244  1  0.20330000  0.36255000  0.70400000  1.0
  C  C245  1  0.36255000  0.70400000  0.20330000  1.0
  C  C246  1  0.70330000  0.20400000  0.86255000  1.0
  C  C247  1  0.86255000  0.70330000  0.20400000  1.0
  C  C248  1  0.20400000  0.86255000  0.70330000  1.0
  C  C249  1  0.29600000  0.79670000  0.63745000  1.0
  C  C250  1  0.79670000  0.63745000  0.29600000  1.0
  C  C251  1  0.63745000  0.29600000  0.79670000  1.0
  C  C252  1  0.43664000  0.50862000  0.04207000  1.0
  C  C253  1  0.04207000  0.43664000  0.50862000  1.0
  C  C254  1  0.50862000  0.04207000  0.43664000  1.0
  C  C255  1  0.99138000  0.06336000  0.45793000  1.0
  C  C256  1  0.06336000  0.45793000  0.99138000  1.0
  C  C257  1  0.45793000  0.99138000  0.06336000  1.0
  C  C258  1  0.56336000  0.49138000  0.95793000  1.0
  C  C259  1  0.95793000  0.56336000  0.49138000  1.0
  C  C260  1  0.49138000  0.95793000  0.56336000  1.0
  C  C261  1  0.00862000  0.93664000  0.54207000  1.0
  C  C262  1  0.93664000  0.54207000  0.00862000  1.0
  C  C263  1  0.54207000  0.00862000  0.93664000  1.0
  C  C264  1  0.51580000  0.55363000  0.94777000  1.0
  C  C265  1  0.94777000  0.51580000  0.55363000  1.0
  C  C266  1  0.55363000  0.94777000  0.51580000  1.0
  C  C267  1  0.94637000  0.98420000  0.55223000  1.0
  C  C268  1  0.98420000  0.55223000  0.94637000  1.0
  C  C269  1  0.55223000  0.94637000  0.98420000  1.0
  C  C270  1  0.48420000  0.44637000  0.05223000  1.0
  C  C271  1  0.05223000  0.48420000  0.44637000  1.0
  C  C272  1  0.44637000  0.05223000  0.48420000  1.0
  C  C273  1  0.05363000  0.01580000  0.44777000  1.0
  C  C274  1  0.01580000  0.44777000  0.05363000  1.0
  C  C275  1  0.44777000  0.05363000  0.01580000  1.0
  C  C276  1  0.53136000  0.61252000  0.89017000  1.0
  C  C277  1  0.89017000  0.53136000  0.61252000  1.0
  C  C278  1  0.61252000  0.89017000  0.53136000  1.0
  C  C279  1  0.88748000  0.96864000  0.60983000  1.0
  C  C280  1  0.96864000  0.60983000  0.88748000  1.0
  C  C281  1  0.60983000  0.88748000  0.96864000  1.0
  C  C282  1  0.46864000  0.38748000  0.10983000  1.0
  C  C283  1  0.10983000  0.46864000  0.38748000  1.0
  C  C284  1  0.38748000  0.10983000  0.46864000  1.0
  C  C285  1  0.11252000  0.03136000  0.39017000  1.0
  C  C286  1  0.03136000  0.39017000  0.11252000  1.0
  C  C287  1  0.39017000  0.11252000  0.03136000  1.0
  C  C288  1  0.24144000  0.79660000  0.19390000  1.0
  C  C289  1  0.19390000  0.24144000  0.79660000  1.0
  C  C290  1  0.79660000  0.19390000  0.24144000  1.0
  C  C291  1  0.70340000  0.25856000  0.30610000  1.0
  C  C292  1  0.25856000  0.30610000  0.70340000  1.0
  C  C293  1  0.30610000  0.70340000  0.25856000  1.0
  C  C294  1  0.75856000  0.20340000  0.80610000  1.0
  C  C295  1  0.80610000  0.75856000  0.20340000  1.0
  C  C296  1  0.20340000  0.80610000  0.75856000  1.0
  C  C297  1  0.29660000  0.74144000  0.69390000  1.0
  C  C298  1  0.74144000  0.69390000  0.29660000  1.0
  C  C299  1  0.69390000  0.29660000  0.74144000  1.0
  C  C300  1  0.17635000  0.84958000  0.19131000  1.0
  C  C301  1  0.19131000  0.17635000  0.84958000  1.0
  C  C302  1  0.84958000  0.19131000  0.17635000  1.0
  C  C303  1  0.65042000  0.32365000  0.30870000  1.0
  C  C304  1  0.32365000  0.30870000  0.65042000  1.0
  C  C305  1  0.30870000  0.65042000  0.32365000  1.0
  C  C306  1  0.82365000  0.15042000  0.80869000  1.0
  C  C307  1  0.80869000  0.82365000  0.15042000  1.0
  C  C308  1  0.15042000  0.80869000  0.82365000  1.0
  C  C309  1  0.34958000  0.67635000  0.69130000  1.0
  C  C310  1  0.67635000  0.69130000  0.34958000  1.0
  C  C311  1  0.69130000  0.34958000  0.67635000  1.0
  N  N312  1  0.35637000  0.75000000  0.14363000  1.0
  N  N313  1  0.14363000  0.35637000  0.75000000  1.0
  N  N314  1  0.75000000  0.14363000  0.35637000  1.0
  N  N315  1  0.64363000  0.25000000  0.85637000  1.0
  N  N316  1  0.85637000  0.64363000  0.25000000  1.0
  N  N317  1  0.25000000  0.85637000  0.64363000  1.0
  N  N318  1  0.45338000  0.56062000  0.98986000  1.0
  N  N319  1  0.98986000  0.45338000  0.56062000  1.0
  N  N320  1  0.56062000  0.98986000  0.45338000  1.0
  N  N321  1  0.93938000  0.04662000  0.51014000  1.0
  N  N322  1  0.04662000  0.51014000  0.93938000  1.0
  N  N323  1  0.51014000  0.93938000  0.04662000  1.0
  N  N324  1  0.54662000  0.43938000  0.01014000  1.0
  N  N325  1  0.01014000  0.54662000  0.43938000  1.0
  N  N326  1  0.43938000  0.01014000  0.54662000  1.0
  N  N327  1  0.06062000  0.95339000  0.48986000  1.0
  N  N328  1  0.95338000  0.48986000  0.06062000  1.0
  N  N329  1  0.48986000  0.06062000  0.95338000  1.0
  N  N330  1  0.24708000  0.75000000  0.25292000  1.0
  N  N331  1  0.25292000  0.24708000  0.75000000  1.0
  N  N332  1  0.75000000  0.25292000  0.24708000  1.0
  N  N333  1  0.75292000  0.25000000  0.74708000  1.0
  N  N334  1  0.74708000  0.75292000  0.25000000  1.0
  N  N335  1  0.25000000  0.74708000  0.75292000  1.0
  O  O336  1  0.36406000  0.75669000  0.89249000  1.0
  O  O337  1  0.89249000  0.36406000  0.75669000  1.0
  O  O338  1  0.75669000  0.89249000  0.36406000  1.0
  O  O339  1  0.74331000  0.13594000  0.60751000  1.0
  O  O340  1  0.13594000  0.60751000  0.74331000  1.0
  O  O341  1  0.60751000  0.74331000  0.13594000  1.0
  O  O342  1  0.63594000  0.24331000  0.10751000  1.0
  O  O343  1  0.10751000  0.63594000  0.24331000  1.0
  O  O344  1  0.24331000  0.10751000  0.63594000  1.0
  O  O345  1  0.25669000  0.86406000  0.39249000  1.0
  O  O346  1  0.86406000  0.39249000  0.25669000  1.0
  O  O347  1  0.39249000  0.25669000  0.86406000  1.0
  O  O348  1  0.46027000  0.80977000  0.94151000  1.0
  O  O349  1  0.94151000  0.46027000  0.80977000  1.0
  O  O350  1  0.80977000  0.94151000  0.46027000  1.0
  O  O351  1  0.69023000  0.03973000  0.55849000  1.0
  O  O352  1  0.03973000  0.55849000  0.69023000  1.0
  O  O353  1  0.55849000  0.69023000  0.03973000  1.0
  O  O354  1  0.53974000  0.19023000  0.05849000  1.0
  O  O355  1  0.05849000  0.53974000  0.19023000  1.0
  O  O356  1  0.19023000  0.05849000  0.53973000  1.0
  O  O357  1  0.30977000  0.96027000  0.44151000  1.0
  O  O358  1  0.96027000  0.44151000  0.30977000  1.0
  O  O359  1  0.44151000  0.30977000  0.96027000  1.0
  O  O360  1  0.35786000  0.05835000  0.83187000  1.0
  O  O361  1  0.83187000  0.35785000  0.05835000  1.0
  O  O362  1  0.05835000  0.83187000  0.35786000  1.0
  O  O363  1  0.44165000  0.14214000  0.66813000  1.0
  O  O364  1  0.14214000  0.66813000  0.44165000  1.0
  O  O365  1  0.66813000  0.44165000  0.14214000  1.0
  O  O366  1  0.64214000  0.94165000  0.16813000  1.0
  O  O367  1  0.16813000  0.64214000  0.94165000  1.0
  O  O368  1  0.94165000  0.16813000  0.64214000  1.0
  O  O369  1  0.55835000  0.85786000  0.33187000  1.0
  O  O370  1  0.85786000  0.33187000  0.55835000  1.0
  O  O371  1  0.33187000  0.55835000  0.85786000  1.0
  O  O372  1  0.32263000  0.98426000  0.74387000  1.0
  O  O373  1  0.74387000  0.32263000  0.98426000  1.0
  O  O374  1  0.98426000  0.74387000  0.32263000  1.0
  O  O375  1  0.51574000  0.17737000  0.75613000  1.0
  O  O376  1  0.17737000  0.75613000  0.51574000  1.0
  O  O377  1  0.75613000  0.51574000  0.17737000  1.0
  O  O378  1  0.67737000  0.01574000  0.25613000  1.0
  O  O379  1  0.25613000  0.67738000  0.01574000  1.0
  O  O380  1  0.01574000  0.25613000  0.67737000  1.0
  O  O381  1  0.48426000  0.82263000  0.24387000  1.0
  O  O382  1  0.82263000  0.24387000  0.48426000  1.0
  O  O383  1  0.24387000  0.48426000  0.82263000  1.0
  F  F384  1  0.38630000  0.84208000  0.77195000  1.0
  F  F385  1  0.77195000  0.38630000  0.84208000  1.0
  F  F386  1  0.84208000  0.77195000  0.38630000  1.0
  F  F387  1  0.65792000  0.11370000  0.72805000  1.0
  F  F388  1  0.11370000  0.72805000  0.65792000  1.0
  F  F389  1  0.72805000  0.65792000  0.11370000  1.0
  F  F390  1  0.61370000  0.15792000  0.22805000  1.0
  F  F391  1  0.22805000  0.61370000  0.15792000  1.0
  F  F392  1  0.15792000  0.22805000  0.61370000  1.0
  F  F393  1  0.34208000  0.88630000  0.27195000  1.0
  F  F394  1  0.88630000  0.27195000  0.34208000  1.0
  F  F395  1  0.27195000  0.34208000  0.88630000  1.0
  F  F396  1  0.46938000  0.90308000  0.82506000  1.0
  F  F397  1  0.82506000  0.46938000  0.90308000  1.0
  F  F398  1  0.90308000  0.82506000  0.46938000  1.0
  F  F399  1  0.59692000  0.03062000  0.67494000  1.0
  F  F400  1  0.03062000  0.67494000  0.59692000  1.0
  F  F401  1  0.67494000  0.59692000  0.03062000  1.0
  F  F402  1  0.53063000  0.09692000  0.17494000  1.0
  F  F403  1  0.17494000  0.53063000  0.09692000  1.0
  F  F404  1  0.09692000  0.17494000  0.53062000  1.0
  F  F405  1  0.40308000  0.96938000  0.32506000  1.0
  F  F406  1  0.96938000  0.32506000  0.40308000  1.0
  F  F407  1  0.32506000  0.40308000  0.96938000  1.0
  F  F408  1  0.27691000  0.89974000  0.86707000  1.0
  F  F409  1  0.86707000  0.27692000  0.89974000  1.0
  F  F410  1  0.89974000  0.86707000  0.27692000  1.0
  F  F411  1  0.60025000  0.22308000  0.63293000  1.0
  F  F412  1  0.22308000  0.63293000  0.60026000  1.0
  F  F413  1  0.63293000  0.60025000  0.22308000  1.0
  F  F414  1  0.72309000  0.10026000  0.13293000  1.0
  F  F415  1  0.13293000  0.72309000  0.10026000  1.0
  F  F416  1  0.10026000  0.13293000  0.72308000  1.0
  F  F417  1  0.39974000  0.77691000  0.36707000  1.0
  F  F418  1  0.77691000  0.36707000  0.39974000  1.0
  F  F419  1  0.36707000  0.39975000  0.77691000  1.0
  F  F420  1  0.36086000  0.94848000  0.93055000  1.0
  F  F421  1  0.93055000  0.36086000  0.94848000  1.0
  F  F422  1  0.94848000  0.93055000  0.36086000  1.0
  F  F423  1  0.55153000  0.13914000  0.56945000  1.0
  F  F424  1  0.13914000  0.56945000  0.55153000  1.0
  F  F425  1  0.56945000  0.55152000  0.13914000  1.0
  F  F426  1  0.63914000  0.05152000  0.06945000  1.0
  F  F427  1  0.06945000  0.63914000  0.05152000  1.0
  F  F428  1  0.05152000  0.06945000  0.63914000  1.0
  F  F429  1  0.44847000  0.86086000  0.43055000  1.0
  F  F430  1  0.86086000  0.43055000  0.44847000  1.0
  F  F431  1  0.43055000  0.44847000  0.86086000  1.0
