# generated using pymatgen
data_ZnH6C6SO6
_symmetry_space_group_name_H-M   'P 1'
_cell_length_a   4.91303000
_cell_length_b   6.51909095
_cell_length_c   14.28210000
_cell_angle_alpha   90.00019947
_cell_angle_beta   90.00040000
_cell_angle_gamma   111.98550787
_symmetry_Int_Tables_number   1
_chemical_formula_structural   ZnH6C6SO6
_chemical_formula_sum   'Zn2 H12 C12 S2 O12'
_cell_volume   424.16883021
_cell_formula_units_Z   2
loop_
 _symmetry_equiv_pos_site_id
 _symmetry_equiv_pos_as_xyz
  1  'x, y, z'
loop_
 _atom_site_type_symbol
 _atom_site_label
 _atom_site_symmetry_multiplicity
 _atom_site_fract_x
 _atom_site_fract_y
 _atom_site_fract_z
 _atom_site_occupancy
  Zn  Zn0  1  0.30598000  0.99468000  0.99870000  1.0
  Zn  Zn1  1  0.69400000  0.00530000  0.49871000  1.0
  H  H2  1  0.21244000  0.36592000  0.94041000  1.0
  H  H3  1  0.78755000  0.63406000  0.44042000  1.0
  H  H4  1  0.16263000  0.37214000  0.55805000  1.0
  H  H5  1  0.83736000  0.62785000  0.05805000  1.0
  H  H6  1  0.92704000  0.13554000  0.92141000  1.0
  H  H7  1  0.07294000  0.86445000  0.42141000  1.0
  H  H8  1  0.21192000  0.13871000  0.57594000  1.0
  H  H9  1  0.78808000  0.86128000  0.07594000  1.0
  H  H10  1  0.50574000  0.33521000  0.82009000  1.0
  H  H11  1  0.49430000  0.66481000  0.32010000  1.0
  H  H12  1  0.87909000  0.33811000  0.68758000  1.0
  H  H13  1  0.12094000  0.66190000  0.18757000  1.0
  C  C14  1  0.50995000  0.76287000  0.88197000  1.0
  C  C15  1  0.49007000  0.23715000  0.38198000  1.0
  C  C16  1  0.26536000  0.76715000  0.61695000  1.0
  C  C17  1  0.73463000  0.23287000  0.11695000  1.0
  C  C18  1  0.68072000  0.69641000  0.81198000  1.0
  C  C19  1  0.31927000  0.30360000  0.31199000  1.0
  C  C20  1  0.03398000  0.69904000  0.68865000  1.0
  C  C21  1  0.96603000  0.30096000  0.18864000  1.0
  C  C22  1  0.65952000  0.48437000  0.78750000  1.0
  C  C23  1  0.34050000  0.51564000  0.28750000  1.0
  C  C24  1  0.86016000  0.48595000  0.71706000  1.0
  C  C25  1  0.13985000  0.51405000  0.21705000  1.0
  S  S26  1  0.94858000  0.89546000  0.74858000  1.0
  S  S27  1  0.05141000  0.10455000  0.24858000  1.0
  O  O28  1  0.12907000  0.19940000  0.94710000  1.0
  O  O29  1  0.87092000  0.80058000  0.44711000  1.0
  O  O30  1  0.07471000  0.20544000  0.55148000  1.0
  O  O31  1  0.92529000  0.79455000  0.05149000  1.0
  O  O32  1  0.57126000  0.97434000  0.89234000  1.0
  O  O33  1  0.42874000  0.02567000  0.39235000  1.0
  O  O34  1  0.40767000  0.97894000  0.60508000  1.0
  O  O35  1  0.59233000  0.02106000  0.10507000  1.0
  O  O36  1  0.31127000  0.62447000  0.93043000  1.0
  O  O37  1  0.68871000  0.37554000  0.43044000  1.0
  O  O38  1  0.32759000  0.62902000  0.56867000  1.0
  O  O39  1  0.67240000  0.37097000  0.06867000  1.0
