# generated using pymatgen
data_NiH14(C3N2)6
_symmetry_space_group_name_H-M   'P 1'
_cell_length_a   7.84354000
_cell_length_b   9.14581000
_cell_length_c   12.97730000
_cell_angle_alpha   102.54000000
_cell_angle_beta   89.99990000
_cell_angle_gamma   89.99980000
_symmetry_Int_Tables_number   1
_chemical_formula_structural   NiH14(C3N2)6
_chemical_formula_sum   'Ni2 H28 C36 N24'
_cell_volume   908.72572043
_cell_formula_units_Z   2
loop_
 _symmetry_equiv_pos_site_id
 _symmetry_equiv_pos_as_xyz
  1  'x, y, z'
loop_
 _atom_site_type_symbol
 _atom_site_label
 _atom_site_symmetry_multiplicity
 _atom_site_fract_x
 _atom_site_fract_y
 _atom_site_fract_z
 _atom_site_occupancy
  Ni  Ni0  1  0.00000000  0.00000000  0.00000000  1.0
  Ni  Ni1  1  0.50000000  0.50000000  0.50000000  1.0
  H  H2  1  0.30698000  0.15754000  0.88717000  1.0
  H  H3  1  0.80698000  0.34247000  0.61283000  1.0
  H  H4  1  0.69302000  0.84247000  0.11283000  1.0
  H  H5  1  0.19302000  0.65753000  0.38717000  1.0
  H  H6  1  0.99718000  0.60687000  0.81540000  1.0
  H  H7  1  0.49717000  0.89313000  0.68460000  1.0
  H  H8  1  0.00283000  0.39313000  0.18461000  1.0
  H  H9  1  0.50283000  0.10688000  0.31540000  1.0
  H  H10  1  0.45702000  0.34439000  0.80814000  1.0
  H  H11  1  0.95702000  0.15561000  0.69186000  1.0
  H  H12  1  0.54298000  0.65561000  0.19186000  1.0
  H  H13  1  0.04298000  0.84440000  0.30814000  1.0
  H  H14  1  0.30577000  0.56476000  0.77108000  1.0
  H  H15  1  0.80577000  0.93524000  0.72892000  1.0
  H  H16  1  0.69423000  0.43524000  0.22893000  1.0
  H  H17  1  0.19423000  0.06477000  0.27108000  1.0
  H  H18  1  0.66084000  0.12721000  0.01218000  1.0
  H  H19  1  0.16083000  0.37280000  0.48783000  1.0
  H  H20  1  0.33916000  0.87279000  0.98783000  1.0
  H  H21  1  0.83916000  0.62721000  0.51217000  1.0
  H  H22  1  0.57231000  0.30135000  0.02286000  1.0
  H  H23  1  0.07230000  0.19865000  0.47715000  1.0
  H  H24  1  0.42769000  0.69865000  0.97715000  1.0
  H  H25  1  0.92769000  0.80135000  0.52285000  1.0
  H  H26  1  0.71999000  0.46690000  0.90185000  1.0
  H  H27  1  0.21999000  0.03310000  0.59815000  1.0
  H  H28  1  0.28001000  0.53310000  0.09815000  1.0
  H  H29  1  0.78001000  0.96690000  0.40185000  1.0
  C  C30  1  0.98159000  0.40441000  0.87623000  1.0
  C  C31  1  0.48159000  0.09559000  0.62377000  1.0
  C  C32  1  0.01841000  0.59559000  0.12377000  1.0
  C  C33  1  0.51842000  0.90441000  0.37623000  1.0
  C  C34  1  0.23907000  0.25490000  0.87318000  1.0
  C  C35  1  0.73907000  0.24510000  0.62682000  1.0
  C  C36  1  0.76093000  0.74510000  0.12683000  1.0
  C  C37  1  0.26093000  0.75490000  0.37318000  1.0
  C  C38  1  0.80094000  0.26662000  0.94791000  1.0
  C  C39  1  0.30094000  0.23338000  0.55209000  1.0
  C  C40  1  0.19906000  0.73338000  0.05209000  1.0
  C  C41  1  0.69905000  0.76662000  0.44791000  1.0
  C  C42  1  0.06605000  0.27689000  0.89752000  1.0
  C  C43  1  0.56605000  0.22311000  0.60248000  1.0
  C  C44  1  0.93395000  0.72311000  0.10248000  1.0
  C  C45  1  0.43395000  0.77689000  0.39752000  1.0
  C  C46  1  0.06380000  0.50968000  0.83098000  1.0
  C  C47  1  0.56380000  0.99032000  0.66902000  1.0
  C  C48  1  0.93620000  0.49033000  0.16902000  1.0
  C  C49  1  0.43620000  0.00968000  0.33098000  1.0
  C  C50  1  0.32286000  0.36171000  0.82922000  1.0
  C  C51  1  0.82286000  0.13829000  0.67079000  1.0
  C  C52  1  0.67714000  0.63829000  0.17079000  1.0
  C  C53  1  0.17714000  0.86172000  0.32921000  1.0
  C  C54  1  0.71617000  0.79259000  0.88493000  1.0
  C  C55  1  0.21617000  0.70740000  0.61506000  1.0
  C  C56  1  0.28384000  0.20741000  0.11506000  1.0
  C  C57  1  0.78383000  0.29259000  0.38493000  1.0
  C  C58  1  0.23694000  0.48630000  0.80784000  1.0
  C  C59  1  0.73694000  0.01370000  0.69216000  1.0
  C  C60  1  0.76306000  0.51370000  0.19217000  1.0
  C  C61  1  0.26305000  0.98630000  0.30784000  1.0
  C  C62  1  0.63224000  0.63103000  0.73340000  1.0
  C  C63  1  0.13223000  0.86896000  0.76660000  1.0
  C  C64  1  0.36777000  0.36897000  0.26660000  1.0
  C  C65  1  0.86776000  0.13102000  0.23340000  1.0
  N  N66  1  0.81470000  0.39369000  0.90883000  1.0
  N  N67  1  0.31470000  0.10631000  0.59117000  1.0
  N  N68  1  0.18530000  0.60631000  0.09117000  1.0
  N  N69  1  0.68530000  0.89369000  0.40883000  1.0
  N  N70  1  0.94975000  0.19359000  0.94280000  1.0
  N  N71  1  0.44975000  0.30641000  0.55720000  1.0
  N  N72  1  0.05025000  0.80641000  0.05720000  1.0
  N  N73  1  0.55025000  0.69359000  0.44279000  1.0
  N  N74  1  0.65128000  0.22099000  0.98252000  1.0
  N  N75  1  0.15128000  0.27901000  0.51749000  1.0
  N  N76  1  0.34872000  0.77901000  0.01748000  1.0
  N  N77  1  0.84872000  0.72099000  0.48251000  1.0
  N  N78  1  0.77396000  0.90243000  0.93789000  1.0
  N  N79  1  0.27396000  0.59756000  0.56210000  1.0
  N  N80  1  0.22604000  0.09756000  0.06210000  1.0
  N  N81  1  0.72604000  0.40243000  0.43790000  1.0
  N  N82  1  0.64824000  0.66694000  0.83593000  1.0
  N  N83  1  0.14824000  0.83305000  0.66406000  1.0
  N  N84  1  0.35176000  0.33306000  0.16406000  1.0
  N  N85  1  0.85176000  0.16693000  0.33594000  1.0
  N  N86  1  0.61393000  0.58731000  0.64201000  1.0
  N  N87  1  0.11392000  0.91268000  0.85798000  1.0
  N  N88  1  0.38608000  0.41269000  0.35798000  1.0
  N  N89  1  0.88607000  0.08731000  0.14201000  1.0
