# generated using pymatgen
data_Zn3H8(C3O2)8
_symmetry_space_group_name_H-M   'P 1'
_cell_length_a   18.08220290
_cell_length_b   18.08220000
_cell_length_c   18.08230000
_cell_angle_alpha   105.17600000
_cell_angle_beta   118.45209416
_cell_angle_gamma   105.17646466
_symmetry_Int_Tables_number   1
_chemical_formula_structural   Zn3H8(C3O2)8
_chemical_formula_sum   'Zn6 H16 C48 O32'
_cell_volume   4466.23763039
_cell_formula_units_Z   2
loop_
 _symmetry_equiv_pos_site_id
 _symmetry_equiv_pos_as_xyz
  1  'x, y, z'
loop_
 _atom_site_type_symbol
 _atom_site_label
 _atom_site_symmetry_multiplicity
 _atom_site_fract_x
 _atom_site_fract_y
 _atom_site_fract_z
 _atom_site_occupancy
  Zn  Zn0  1  1.00000000  0.55881000  0.55881000  1.0
  Zn  Zn1  1  0.56967000  0.00000000  0.56967000  1.0
  Zn  Zn2  1  0.43033000  0.00000000  0.43033000  1.0
  Zn  Zn3  1  0.44119000  0.44119000  0.00000000  1.0
  Zn  Zn4  1  0.00000000  0.44119000  0.44118000  1.0
  Zn  Zn5  1  0.55882000  0.55882000  0.00001000  1.0
  H  H6  1  0.12455000  0.61321000  0.35301000  1.0
  H  H7  1  0.51134000  0.77153000  0.12455000  1.0
  H  H8  1  0.73981000  0.38679000  0.51135000  1.0
  H  H9  1  0.35302000  0.22846000  0.73981000  1.0
  H  H10  1  0.87545000  0.22847000  0.48866000  1.0
  H  H11  1  0.48865000  0.61321000  0.26019000  1.0
  H  H12  1  0.26018000  0.77153000  0.64697000  1.0
  H  H13  1  0.64698000  0.38679000  0.87544000  1.0
  H  H14  1  0.15798000  0.65547000  0.26476000  1.0
  H  H15  1  0.50251000  0.89322000  0.15798000  1.0
  H  H16  1  0.60929000  0.34452000  0.50251000  1.0
  H  H17  1  0.26476000  0.10678000  0.60929000  1.0
  H  H18  1  0.84202000  0.10678000  0.49749000  1.0
  H  H19  1  0.49749000  0.65548000  0.39071000  1.0
  H  H20  1  0.39070000  0.89321000  0.73522000  1.0
  H  H21  1  0.73523000  0.34452000  0.84201000  1.0
  C  C22  1  0.11689000  0.61689000  0.49999000  1.0
  C  C23  1  0.63936000  0.50003000  0.13934000  1.0
  C  C24  1  0.86067000  0.50003000  0.36068000  1.0
  C  C25  1  0.36067000  0.50000000  0.86066000  1.0
  C  C26  1  0.13934000  0.49999000  0.63934000  1.0
  C  C27  1  0.21715000  0.49998000  0.71715000  1.0
  C  C28  1  0.71718000  0.50003000  0.21716000  1.0
  C  C29  1  0.78286000  0.50003000  0.28286000  1.0
  C  C30  1  0.49999000  0.61688000  0.11689000  1.0
  C  C31  1  0.28285000  0.49999000  0.78284000  1.0
  C  C32  1  0.17922000  0.67296000  0.41786000  1.0
  C  C33  1  0.50626000  0.76136000  0.17923000  1.0
  C  C34  1  0.74491000  0.32704000  0.50627000  1.0
  C  C35  1  0.41786000  0.23864000  0.74490000  1.0
  C  C36  1  0.82078000  0.23864000  0.49374000  1.0
  C  C37  1  0.88311000  0.38311000  0.50000000  1.0
  C  C38  1  0.49374000  0.67297000  0.25510000  1.0
  C  C39  1  0.25509000  0.76135000  0.58212000  1.0
  C  C40  1  0.58213000  0.32703000  0.82077000  1.0
  C  C41  1  0.50000000  0.38310000  0.88311000  1.0
  C  C42  1  0.24241000  0.73616000  0.41678000  1.0
  C  C43  1  0.50625000  0.82563000  0.24241000  1.0
  C  C44  1  0.68063000  0.26384000  0.50626000  1.0
  C  C45  1  0.41678000  0.17437000  0.68062000  1.0
  C  C46  1  0.75760000  0.17438000  0.49376000  1.0
  C  C47  1  0.49375000  0.73616000  0.31938000  1.0
  C  C48  1  0.31937000  0.82562000  0.58321000  1.0
  C  C49  1  0.58321000  0.26384000  0.75758000  1.0
  C  C50  1  0.31395000  0.81395000  0.49999000  1.0
  C  C51  1  0.49999000  0.81395000  0.31395000  1.0
  C  C52  1  0.68605000  0.18604000  0.50001000  1.0
  C  C53  1  0.49999000  0.18604000  0.68603000  1.0
  C  C54  1  0.49999000  0.11712000  0.61711000  1.0
  C  C55  1  0.38288000  0.88287000  0.50000000  1.0
  C  C56  1  0.49999000  0.88288000  0.38287000  1.0
  C  C57  1  0.61712000  0.11711000  0.50000000  1.0
  C  C58  1  0.18467000  0.68467000  0.50000000  1.0
  C  C59  1  0.49999000  0.68466000  0.18466000  1.0
  C  C60  1  0.81534000  0.31534000  0.50001000  1.0
  C  C61  1  0.50000000  0.31533000  0.81533000  1.0
  C  C62  1  0.22830000  0.71200000  0.32400000  1.0
  C  C63  1  0.51630000  0.90430000  0.22830000  1.0
  C  C64  1  0.61201000  0.28800000  0.51631000  1.0
  C  C65  1  0.32400000  0.09570000  0.61200000  1.0
  C  C66  1  0.77170000  0.09570000  0.48370000  1.0
  C  C67  1  0.48370000  0.71201000  0.38800000  1.0
  C  C68  1  0.38799000  0.90430000  0.67599000  1.0
  C  C69  1  0.67599000  0.28799000  0.77169000  1.0
  O  O70  1  0.10465000  0.64071000  0.56472000  1.0
  O  O71  1  0.46392000  0.53991000  0.10465000  1.0
  O  O72  1  0.92401000  0.35928000  0.46393000  1.0
  O  O73  1  0.56472000  0.46007000  0.92401000  1.0
  O  O74  1  0.89535000  0.46007000  0.53607000  1.0
  O  O75  1  0.53605000  0.64071000  0.07598000  1.0
  O  O76  1  0.07599000  0.53992000  0.43527000  1.0
  O  O77  1  0.43526000  0.35927000  0.89534000  1.0
  O  O78  1  0.09796000  0.54011000  0.65978000  1.0
  O  O79  1  0.55787000  0.43820000  0.09795000  1.0
  O  O80  1  0.11967000  0.45988000  0.55784000  1.0
  O  O81  1  0.65981000  0.56186000  0.11968000  1.0
  O  O82  1  0.90205000  0.56185000  0.44218000  1.0
  O  O83  1  0.44216000  0.54012000  0.88033000  1.0
  O  O84  1  0.88033000  0.43819000  0.34023000  1.0
  O  O85  1  0.34022000  0.45988000  0.90205000  1.0
  O  O86  1  0.44642000  0.09908000  0.53071000  1.0
  O  O87  1  0.34735000  0.91571000  0.44643000  1.0
  O  O88  1  0.43163000  0.90092000  0.34735000  1.0
  O  O89  1  0.53072000  0.08428000  0.43164000  1.0
  O  O90  1  0.55356000  0.08429000  0.65264000  1.0
  O  O91  1  0.65266000  0.09908000  0.56838000  1.0
  O  O92  1  0.56836000  0.91571000  0.46928000  1.0
  O  O93  1  0.46928000  0.90092000  0.55357000  1.0
  O  O94  1  0.28445000  0.74543000  0.30947000  1.0
  O  O95  1  0.53903000  0.97498000  0.28445000  1.0
  O  O96  1  0.56405000  0.25458000  0.53903000  1.0
  O  O97  1  0.30946000  0.02502000  0.56404000  1.0
  O  O98  1  0.71556000  0.02502000  0.46099000  1.0
  O  O99  1  0.46097000  0.74542000  0.43595000  1.0
  O  O100  1  0.43594000  0.97498000  0.69052000  1.0
  O  O101  1  0.69053000  0.25458000  0.71554000  1.0
