# generated using pymatgen
data_CuH8C8(NO)4
_symmetry_space_group_name_H-M   'P 1'
_cell_length_a   8.19832000
_cell_length_b   8.19829000
_cell_length_c   9.19304000
_cell_angle_alpha   85.31130000
_cell_angle_beta   85.31130000
_cell_angle_gamma   80.88620000
_symmetry_Int_Tables_number   1
_chemical_formula_structural   CuH8C8(NO)4
_chemical_formula_sum   'Cu2 H16 C16 N8 O8'
_cell_volume   606.55488372
_cell_formula_units_Z   2
loop_
 _symmetry_equiv_pos_site_id
 _symmetry_equiv_pos_as_xyz
  1  'x, y, z'
loop_
 _atom_site_type_symbol
 _atom_site_label
 _atom_site_symmetry_multiplicity
 _atom_site_fract_x
 _atom_site_fract_y
 _atom_site_fract_z
 _atom_site_occupancy
  Cu  Cu0  1  0.65836000  0.34164000  0.25000000  1.0
  Cu  Cu1  1  0.34165000  0.65835000  0.75000000  1.0
  H  H2  1  0.79209000  0.80210000  0.97213000  1.0
  H  H3  1  0.19790000  0.20790000  0.52787000  1.0
  H  H4  1  0.20790000  0.19790000  0.02787000  1.0
  H  H5  1  0.80210000  0.79210000  0.47213000  1.0
  H  H6  1  0.81917000  0.13877000  0.96922000  1.0
  H  H7  1  0.86123000  0.18082000  0.53077000  1.0
  H  H8  1  0.18082000  0.86122000  0.03078000  1.0
  H  H9  1  0.13878000  0.81919000  0.46923000  1.0
  H  H10  1  0.64097000  0.73721000  0.22448000  1.0
  H  H11  1  0.26279000  0.35903000  0.27552000  1.0
  H  H12  1  0.35902000  0.26279000  0.77552000  1.0
  H  H13  1  0.73721000  0.64098000  0.72448000  1.0
  H  H14  1  0.56149000  0.99483000  0.36317000  1.0
  H  H15  1  0.00517000  0.43851000  0.13683000  1.0
  H  H16  1  0.43851000  0.00517000  0.63682000  1.0
  H  H17  1  0.99484000  0.56149000  0.86317000  1.0
  C  C18  1  0.58123000  0.52391000  0.95902000  1.0
  C  C19  1  0.47609000  0.41876000  0.54098000  1.0
  C  C20  1  0.41875000  0.47610000  0.04099000  1.0
  C  C21  1  0.52391000  0.58125000  0.45902000  1.0
  C  C22  1  0.74999000  0.89300000  0.05129000  1.0
  C  C23  1  0.10700000  0.25001000  0.44871000  1.0
  C  C24  1  0.25001000  0.10700000  0.94871000  1.0
  C  C25  1  0.89300000  0.74999000  0.55130000  1.0
  C  C26  1  0.76197000  0.05875000  0.05096000  1.0
  C  C27  1  0.94125000  0.23802000  0.44904000  1.0
  C  C28  1  0.23802000  0.94125000  0.94904000  1.0
  C  C29  1  0.05875000  0.76198000  0.55096000  1.0
  C  C30  1  0.62822000  0.99068000  0.25651000  1.0
  C  C31  1  0.00932000  0.37178000  0.24349000  1.0
  C  C32  1  0.37178000  0.00932000  0.74349000  1.0
  C  C33  1  0.99068000  0.62822000  0.75651000  1.0
  N  N34  1  0.68538000  0.11746000  0.17980000  1.0
  N  N35  1  0.88255000  0.31462000  0.32019000  1.0
  N  N36  1  0.31462000  0.88254000  0.82019000  1.0
  N  N37  1  0.11746000  0.68538000  0.67981000  1.0
  N  N38  1  0.66542000  0.85313000  0.18153000  1.0
  N  N39  1  0.14687000  0.33458000  0.31847000  1.0
  N  N40  1  0.33458000  0.14687000  0.81847000  1.0
  N  N41  1  0.85313000  0.66542000  0.68153000  1.0
  O  O42  1  0.71605000  0.48386000  0.01708000  1.0
  O  O43  1  0.51614000  0.28395000  0.48292000  1.0
  O  O44  1  0.28395000  0.51613000  0.98293000  1.0
  O  O45  1  0.48387000  0.71605000  0.51707000  1.0
  O  O46  1  0.56510000  0.60423000  0.83380000  1.0
  O  O47  1  0.39577000  0.43490000  0.66620000  1.0
  O  O48  1  0.43490000  0.39577000  0.16621000  1.0
  O  O49  1  0.60423000  0.56510000  0.33379000  1.0
