# generated using pymatgen
data_Cu2H18C17(IN3)2
_symmetry_space_group_name_H-M   'P 1'
_cell_length_a   8.38843000
_cell_length_b   10.03870000
_cell_length_c   13.57280000
_cell_angle_alpha   75.83890000
_cell_angle_beta   74.53230000
_cell_angle_gamma   66.42590000
_symmetry_Int_Tables_number   1
_chemical_formula_structural   Cu2H18C17(IN3)2
_chemical_formula_sum   'Cu4 H36 C34 I4 N12'
_cell_volume   997.22823460
_cell_formula_units_Z   2
loop_
 _symmetry_equiv_pos_site_id
 _symmetry_equiv_pos_as_xyz
  1  'x, y, z'
loop_
 _atom_site_type_symbol
 _atom_site_label
 _atom_site_symmetry_multiplicity
 _atom_site_fract_x
 _atom_site_fract_y
 _atom_site_fract_z
 _atom_site_occupancy
  Cu  Cu0  1  0.59476000  0.08007000  0.46371000  1.0
  Cu  Cu1  1  0.40525000  0.91992000  0.53629000  1.0
  Cu  Cu2  1  0.29314000  0.09221000  0.68135000  1.0
  Cu  Cu3  1  0.70687000  0.90779000  0.31864000  1.0
  H  H4  1  0.61881000  0.39005000  0.32382000  1.0
  H  H5  1  0.38120000  0.60994000  0.67618000  1.0
  H  H6  1  0.51361000  0.66562000  0.26462000  1.0
  H  H7  1  0.48640000  0.33437000  0.73538000  1.0
  H  H8  1  0.23895000  0.83030000  0.35894000  1.0
  H  H9  1  0.76107000  0.16970000  0.64106000  1.0
  H  H10  1  0.05495000  0.73644000  0.51164000  1.0
  H  H11  1  0.94506000  0.26356000  0.48837000  1.0
  H  H12  1  0.01711000  0.34932000  0.71311000  1.0
  H  H13  1  0.98292000  0.65066000  0.28689000  1.0
  H  H14  1  0.91052000  0.51968000  0.63814000  1.0
  H  H15  1  0.08950000  0.48031000  0.36186000  1.0
  H  H16  1  0.17446000  0.47395000  0.77303000  1.0
  H  H17  1  0.82554000  0.52603000  0.22698000  1.0
  H  H18  1  0.06565000  0.64328000  0.69797000  1.0
  H  H19  1  0.93437000  0.35670000  0.30203000  1.0
  H  H20  1  0.88867000  0.47085000  0.88142000  1.0
  H  H21  1  0.11132000  0.52915000  0.11858000  1.0
  H  H22  1  0.77128000  0.62727000  0.79978000  1.0
  H  H23  1  0.22874000  0.37272000  0.20022000  1.0
  H  H24  1  0.00986000  0.61955000  0.93962000  1.0
  H  H25  1  0.99014000  0.38044000  0.06038000  1.0
  H  H26  1  0.93363000  0.76927000  0.84226000  1.0
  H  H27  1  0.06639000  0.23073000  0.15774000  1.0
  H  H28  1  0.61915000  0.79572000  0.92510000  1.0
  H  H29  1  0.38085000  0.20430000  0.07488000  1.0
  H  H30  1  0.69317000  0.64906000  0.02580000  1.0
  H  H31  1  0.30681000  0.35095000  0.97420000  1.0
  H  H32  1  0.72962000  0.03562000  0.82997000  1.0
  H  H33  1  0.27034000  0.96440000  0.17003000  1.0
  H  H34  1  0.73513000  0.28297000  0.82567000  1.0
  H  H35  1  0.26481000  0.71706000  0.17433000  1.0
  H  H36  1  0.73501000  0.36310000  0.98392000  1.0
  H  H37  1  0.26494000  0.63692000  0.01608000  1.0
  H  H38  1  0.73949000  0.19439000  0.15464000  1.0
  H  H39  1  0.26049000  0.80562000  0.84536000  1.0
  C  C40  1  0.39732000  0.41316000  0.45247000  1.0
  C  C41  1  0.60269000  0.58683000  0.54753000  1.0
  C  C42  1  0.49799000  0.46621000  0.36314000  1.0
  C  C43  1  0.50203000  0.53379000  0.63686000  1.0
  C  C44  1  0.43727000  0.61721000  0.33129000  1.0
  C  C45  1  0.56274000  0.38280000  0.66872000  1.0
  C  C46  1  0.27976000  0.71203000  0.38518000  1.0
  C  C47  1  0.72026000  0.28797000  0.61482000  1.0
  C  C48  1  0.17601000  0.66065000  0.47209000  1.0
  C  C49  1  0.82401000  0.33935000  0.52791000  1.0
  C  C50  1  0.23910000  0.50818000  0.50539000  1.0
  C  C51  1  0.76092000  0.49182000  0.49461000  1.0
  C  C52  1  0.02985000  0.45443000  0.67160000  1.0
  C  C53  1  0.97016000  0.54555000  0.32840000  1.0
  C  C54  1  0.05237000  0.53956000  0.74263000  1.0
  C  C55  1  0.94764000  0.46043000  0.25738000  1.0
  C  C56  1  0.89408000  0.57424000  0.83160000  1.0
  C  C57  1  0.10592000  0.42576000  0.16840000  1.0
  C  C58  1  0.90240000  0.67680000  0.89513000  1.0
  C  C59  1  0.09760000  0.32320000  0.10487000  1.0
  C  C60  1  0.72719000  0.73691000  0.96889000  1.0
  C  C61  1  0.27280000  0.26310000  0.03110000  1.0
  C  C62  1  0.73393000  0.97716000  0.99587000  1.0
  C  C63  1  0.26606000  0.02284000  0.00413000  1.0
  C  C64  1  0.73229000  0.06957000  0.89975000  1.0
  C  C65  1  0.26767000  0.93046000  0.10025000  1.0
  C  C66  1  0.73510000  0.20730000  0.89858000  1.0
  C  C67  1  0.26486000  0.79272000  0.10143000  1.0
  C  C68  1  0.73670000  0.25250000  0.98921000  1.0
  C  C69  1  0.26325000  0.74753000  0.01079000  1.0
  C  C70  1  0.73857000  0.16122000  0.08420000  1.0
  C  C71  1  0.26143000  0.83878000  0.91580000  1.0
  C  C72  1  0.73854000  0.02079000  0.08628000  1.0
  C  C73  1  0.26146000  0.97922000  0.91372000  1.0
  I  I74  1  0.89215000  0.05144000  0.34137000  1.0
  I  I75  1  0.10784000  0.94856000  0.65863000  1.0
  I  I76  1  0.64369000  0.91325000  0.64950000  1.0
  I  I77  1  0.35631000  0.08673000  0.35050000  1.0
  N  N78  1  0.42630000  0.27301000  0.50516000  1.0
  N  N79  1  0.57371000  0.72698000  0.49483000  1.0
  N  N80  1  0.29694000  0.27609000  0.58584000  1.0
  N  N81  1  0.70307000  0.72390000  0.41415000  1.0
  N  N82  1  0.18079000  0.41709000  0.58709000  1.0
  N  N83  1  0.81922000  0.58290000  0.41291000  1.0
  N  N84  1  0.73027000  0.83789000  0.02861000  1.0
  N  N85  1  0.26973000  0.16212000  0.97139000  1.0
  N  N86  1  0.73329000  0.79693000  0.13081000  1.0
  N  N87  1  0.26672000  0.20307000  0.86918000  1.0
  N  N88  1  0.73793000  0.90561000  0.16648000  1.0
  N  N89  1  0.26207000  0.09439000  0.83351000  1.0
