# generated using pymatgen
data_H8PbC10N2Cl2O
_symmetry_space_group_name_H-M   'P 1'
_cell_length_a   4.07733000
_cell_length_b   8.31389000
_cell_length_c   18.15230000
_cell_angle_alpha   85.55790000
_cell_angle_beta   89.78890000
_cell_angle_gamma   76.09900000
_symmetry_Int_Tables_number   1
_chemical_formula_structural   H8PbC10N2Cl2O
_chemical_formula_sum   'H16 Pb2 C20 N4 Cl4 O2'
_cell_volume   595.44842864
_cell_formula_units_Z   2
loop_
 _symmetry_equiv_pos_site_id
 _symmetry_equiv_pos_as_xyz
  1  'x, y, z'
loop_
 _atom_site_type_symbol
 _atom_site_label
 _atom_site_symmetry_multiplicity
 _atom_site_fract_x
 _atom_site_fract_y
 _atom_site_fract_z
 _atom_site_occupancy
  H  H0  1  0.66408000  0.53244000  0.53734000  1.0
  H  H1  1  0.19488000  0.46878000  0.46222000  1.0
  H  H2  1  0.81077000  0.42108000  0.87678000  1.0
  H  H3  1  0.23434000  0.57778000  0.12250000  1.0
  H  H4  1  0.99074000  0.28198000  0.78924000  1.0
  H  H5  1  0.28442000  0.71622000  0.20975000  1.0
  H  H6  1  0.55099000  0.59264000  0.97729000  1.0
  H  H7  1  0.14650000  0.40418000  0.02283000  1.0
  H  H8  1  0.35742000  0.66813000  0.64194000  1.0
  H  H9  1  0.01646000  0.33435000  0.35847000  1.0
  H  H10  1  0.89104000  0.92295000  0.83143000  1.0
  H  H11  1  0.80373000  0.07649000  0.16965000  1.0
  H  H12  1  0.11944000  0.77116000  0.72477000  1.0
  H  H13  1  0.88240000  0.22964000  0.27595000  1.0
  H  H14  1  0.27309000  0.16075000  0.67680000  1.0
  H  H15  1  0.44948000  0.83743000  0.32179000  1.0
  Pb  Pb16  1  0.97319000  0.00129000  0.99880000  1.0
  Pb  Pb17  1  0.25441000  0.99852000  0.50229000  1.0
  C  C18  1  0.49100000  0.57960000  0.79020000  1.0
  C  C19  1  0.06875000  0.42017000  0.20981000  1.0
  C  C20  1  0.64791000  0.49073000  0.72689000  1.0
  C  C21  1  0.13954000  0.50940000  0.27278000  1.0
  C  C22  1  0.72096000  0.48220000  0.59436000  1.0
  C  C23  1  0.20385000  0.51877000  0.40515000  1.0
  C  C24  1  0.60545000  0.53032000  0.86338000  1.0
  C  C25  1  0.13605000  0.46857000  0.13643000  1.0
  C  C26  1  0.90484000  0.34302000  0.73501000  1.0
  C  C27  1  0.25550000  0.65615000  0.26414000  1.0
  C  C28  1  0.46044000  0.62549000  0.92021000  1.0
  C  C29  1  0.08590000  0.37243000  0.08000000  1.0
  C  C30  1  0.55609000  0.55567000  0.65400000  1.0
  C  C31  1  0.10920000  0.44554000  0.34584000  1.0
  C  C32  1  0.09584000  0.81058000  0.83914000  1.0
  C  C33  1  0.89966000  0.18857000  0.16166000  1.0
  C  C34  1  0.22664000  0.72358000  0.77925000  1.0
  C  C35  1  0.94429000  0.27637000  0.22125000  1.0
  C  C36  1  0.06618000  0.27183000  0.67414000  1.0
  C  C37  1  0.34827000  0.72725000  0.32473000  1.0
  N  N38  1  0.97971000  0.34419000  0.60464000  1.0
  N  N39  1  0.33101000  0.65569000  0.39445000  1.0
  N  N40  1  0.21031000  0.76387000  0.90881000  1.0
  N  N41  1  0.97080000  0.23419000  0.09186000  1.0
  Cl  Cl42  1  0.79579000  0.92579000  0.61373000  1.0
  Cl  Cl43  1  0.72267000  0.08234000  0.39303000  1.0
  Cl  Cl44  1  0.36892000  0.16736000  0.90622000  1.0
  Cl  Cl45  1  0.53107000  0.83485000  0.09050000  1.0
  O  O46  1  0.15205000  0.28626000  0.54683000  1.0
  O  O47  1  0.44838000  0.71340000  0.45177000  1.0
