# generated using pymatgen
data_Zn4H24C30O13
_symmetry_space_group_name_H-M   'P 1'
_cell_length_a   17.93020000
_cell_length_b   18.23610000
_cell_length_c   18.25360000
_cell_angle_alpha   61.12340000
_cell_angle_beta   60.59460000
_cell_angle_gamma   60.55760000
_symmetry_Int_Tables_number   1
_chemical_formula_structural   Zn4H24C30O13
_chemical_formula_sum   'Zn8 H48 C60 O26'
_cell_volume   4292.33961279
_cell_formula_units_Z   2
loop_
 _symmetry_equiv_pos_site_id
 _symmetry_equiv_pos_as_xyz
  1  'x, y, z'
loop_
 _atom_site_type_symbol
 _atom_site_label
 _atom_site_symmetry_multiplicity
 _atom_site_fract_x
 _atom_site_fract_y
 _atom_site_fract_z
 _atom_site_occupancy
  Zn  Zn0  1  0.04817000  0.04958000  0.85887000  1.0
  Zn  Zn1  1  0.05097000  0.05406000  0.02986000  1.0
  Zn  Zn2  1  0.05196000  0.87845000  0.03007000  1.0
  Zn  Zn3  1  0.87261000  0.04975000  0.03322000  1.0
  Zn  Zn4  1  0.46202000  0.46648000  0.61659000  1.0
  Zn  Zn5  1  0.45914000  0.46673000  0.44345000  1.0
  Zn  Zn6  1  0.63951000  0.46312000  0.44473000  1.0
  Zn  Zn7  1  0.46365000  0.63818000  0.44686000  1.0
  H  H8  1  0.31965000  0.09989000  0.81660000  1.0
  H  H9  1  0.49242000  0.19044000  0.64298000  1.0
  H  H10  1  0.46805000  0.10433000  0.74462000  1.0
  H  H11  1  0.46984000  0.20186000  0.74336000  1.0
  H  H12  1  0.19347000  0.41606000  0.65320000  1.0
  H  H13  1  0.02060000  0.32629000  0.82658000  1.0
  H  H14  1  0.04340000  0.31268000  0.72729000  1.0
  H  H15  1  0.04517000  0.41121000  0.72387000  1.0
  H  H16  1  0.09331000  0.77354000  0.82175000  1.0
  H  H17  1  0.18414000  0.68054000  0.65085000  1.0
  H  H18  1  0.09583000  0.69259000  0.75244000  1.0
  H  H19  1  0.19410000  0.59518000  0.75158000  1.0
  H  H20  1  0.41788000  0.74102000  0.65558000  1.0
  H  H21  1  0.32746000  0.83269000  0.82738000  1.0
  H  H22  1  0.31534000  0.91925000  0.72771000  1.0
  H  H23  1  0.41487000  0.82310000  0.72472000  1.0
  H  H24  1  0.76906000  0.31514000  0.82868000  1.0
  H  H25  1  0.68095000  0.48948000  0.65650000  1.0
  H  H26  1  0.69228000  0.46195000  0.75910000  1.0
  H  H27  1  0.59226000  0.46558000  0.75663000  1.0
  H  H28  1  0.73783000  0.20157000  0.65159000  1.0
  H  H29  1  0.82444000  0.02738000  0.82468000  1.0
  H  H30  1  0.91388000  0.05045000  0.72492000  1.0
  H  H31  1  0.81392000  0.05465000  0.72177000  1.0
  H  H32  1  0.32316000  0.78218000  0.07618000  1.0
  H  H33  1  0.49296000  0.68887000  0.17346000  1.0
  H  H34  1  0.47019000  0.69896000  0.08397000  1.0
  H  H35  1  0.46959000  0.60219000  0.17951000  1.0
  H  H36  1  0.19181000  0.74427000  0.39688000  1.0
  H  H37  1  0.02181000  0.83751000  0.30042000  1.0
  H  H38  1  0.04547000  0.92463000  0.29303000  1.0
  H  H39  1  0.04513000  0.82838000  0.38914000  1.0
  H  H40  1  0.77633000  0.09736000  0.29930000  1.0
  H  H41  1  0.68843000  0.19159000  0.46772000  1.0
  H  H42  1  0.69573000  0.10353000  0.44474000  1.0
  H  H43  1  0.59649000  0.19995000  0.44856000  1.0
  H  H44  1  0.73114000  0.41875000  0.17636000  1.0
  H  H45  1  0.82197000  0.32225000  0.00802000  1.0
  H  H46  1  0.91096000  0.31910000  0.02756000  1.0
  H  H47  1  0.80919000  0.41289000  0.03090000  1.0
  H  H48  1  0.77275000  0.83662000  0.08121000  1.0
  H  H49  1  0.68129000  0.66286000  0.17350000  1.0
  H  H50  1  0.69283000  0.76299000  0.08582000  1.0
  H  H51  1  0.59395000  0.76498000  0.18229000  1.0
  H  H52  1  0.74791000  0.67203000  0.39659000  1.0
  H  H53  1  0.84036000  0.84475000  0.30468000  1.0
  H  H54  1  0.92721000  0.74259000  0.29556000  1.0
  H  H55  1  0.82837000  0.74456000  0.39208000  1.0
  C  C56  1  0.14314000  0.14783000  0.84935000  1.0
  C  C57  1  0.20013000  0.20665000  0.79034000  1.0
  C  C58  1  0.29249000  0.16981000  0.78040000  1.0
  C  C59  1  0.35095000  0.21954000  0.72512000  1.0
  C  C60  1  0.45060000  0.17662000  0.71363000  1.0
  C  C61  1  0.31280000  0.30950000  0.67992000  1.0
  C  C62  1  0.22052000  0.34618000  0.68952000  1.0
  C  C63  1  0.16211000  0.29642000  0.74474000  1.0
  C  C64  1  0.06253000  0.33907000  0.75599000  1.0
  C  C65  1  0.36890000  0.36918000  0.62235000  1.0
  C  C66  1  0.14467000  0.86838000  0.85097000  1.0
  C  C67  1  0.20398000  0.81038000  0.79319000  1.0
  C  C68  1  0.16511000  0.76555000  0.78507000  1.0
  C  C69  1  0.21509000  0.71179000  0.73076000  1.0
  C  C70  1  0.16971000  0.66760000  0.72114000  1.0
  C  C71  1  0.30736000  0.70385000  0.68439000  1.0
  C  C72  1  0.34619000  0.74872000  0.69258000  1.0
  C  C73  1  0.29629000  0.80222000  0.74708000  1.0
  C  C74  1  0.34107000  0.84675000  0.75702000  1.0
  C  C75  1  0.36683000  0.64642000  0.62615000  1.0
  C  C76  1  0.86242000  0.14285000  0.85456000  1.0
  C  C77  1  0.80490000  0.20084000  0.79618000  1.0
  C  C78  1  0.76141000  0.29074000  0.78955000  1.0
  C  C79  1  0.70953000  0.35019000  0.73374000  1.0
  C  C80  1  0.66646000  0.44697000  0.72626000  1.0
  C  C81  1  0.70193000  0.31582000  0.68420000  1.0
  C  C82  1  0.74531000  0.22587000  0.69093000  1.0
  C  C83  1  0.79694000  0.16643000  0.74692000  1.0
  C  C84  1  0.83962000  0.06954000  0.75479000  1.0
  C  C85  1  0.64543000  0.37343000  0.62494000  1.0
  C  C86  1  0.14718000  0.87498000  0.12323000  1.0
  C  C87  1  0.20265000  0.81752000  0.18354000  1.0
  C  C88  1  0.29490000  0.77323000  0.14706000  1.0
  C  C89  1  0.35176000  0.71858000  0.19844000  1.0
  C  C90  1  0.45142000  0.67473000  0.15644000  1.0
  C  C91  1  0.31217000  0.70869000  0.28958000  1.0
  C  C92  1  0.22007000  0.75331000  0.32598000  1.0
  C  C93  1  0.16318000  0.80810000  0.27458000  1.0
  C  C94  1  0.06359000  0.85208000  0.31671000  1.0
  C  C95  1  0.36717000  0.64929000  0.35028000  1.0
  C  C96  1  0.86627000  0.14655000  0.12574000  1.0
  C  C97  1  0.80781000  0.20579000  0.18235000  1.0
  C  C98  1  0.76601000  0.16832000  0.27287000  1.0
  C  C99  1  0.71221000  0.21886000  0.33044000  1.0
  C  C100  1  0.67095000  0.17600000  0.42809000  1.0
  C  C101  1  0.70054000  0.31010000  0.29355000  1.0
  C  C102  1  0.74193000  0.34767000  0.20298000  1.0
  C  C103  1  0.79589000  0.29709000  0.14545000  1.0
  C  C104  1  0.83673000  0.34032000  0.04778000  1.0
  C  C105  1  0.64303000  0.36933000  0.35024000  1.0
  C  C106  1  0.86904000  0.86903000  0.12840000  1.0
  C  C107  1  0.81264000  0.80977000  0.18752000  1.0
  C  C108  1  0.76655000  0.80012000  0.15094000  1.0
  C  C109  1  0.71378000  0.74477000  0.20068000  1.0
  C  C110  1  0.66799000  0.73350000  0.15817000  1.0
  C  C111  1  0.70773000  0.69918000  0.29037000  1.0
  C  C112  1  0.75412000  0.70847000  0.32684000  1.0
  C  C113  1  0.80710000  0.76369000  0.27705000  1.0
  C  C114  1  0.85321000  0.77429000  0.31976000  1.0
  C  C115  1  0.64931000  0.64180000  0.34976000  1.0
  O  O116  1  0.00550000  0.00829000  0.98832000  1.0
  O  O117  1  0.14242000  0.10762000  0.92946000  1.0
  O  O118  1  0.10049000  0.14217000  0.81417000  1.0
  O  O119  1  0.36744000  0.41287000  0.54309000  1.0
  O  O120  1  0.41284000  0.37245000  0.65797000  1.0
  O  O121  1  0.10210000  0.83242000  0.93146000  1.0
  O  O122  1  0.14103000  0.94948000  0.81459000  1.0
  O  O123  1  0.41337000  0.68152000  0.54731000  1.0
  O  O124  1  0.36713000  0.56645000  0.66020000  1.0
  O  O125  1  0.82563000  0.14141000  0.93529000  1.0
  O  O126  1  0.94459000  0.10011000  0.81799000  1.0
  O  O127  1  0.68285000  0.37232000  0.54502000  1.0
  O  O128  1  0.56355000  0.41822000  0.65973000  1.0
  O  O129  1  0.14768000  0.83826000  0.07846000  1.0
  O  O130  1  0.10451000  0.95606000  0.12082000  1.0
  O  O131  1  0.36891000  0.68442000  0.39507000  1.0
  O  O132  1  0.40703000  0.56803000  0.35297000  1.0
  O  O133  1  0.82980000  0.10126000  0.12608000  1.0
  O  O134  1  0.94817000  0.14574000  0.08219000  1.0
  O  O135  1  0.68210000  0.40994000  0.35328000  1.0
  O  O136  1  0.55968000  0.37470000  0.39020000  1.0
  O  O137  1  0.83074000  0.94778000  0.08462000  1.0
  O  O138  1  0.95156000  0.83565000  0.12564000  1.0
  O  O139  1  0.68634000  0.56191000  0.39246000  1.0
  O  O140  1  0.56630000  0.67835000  0.35353000  1.0
  O  O141  1  0.50671000  0.50836000  0.48699000  1.0
