# generated using pymatgen
data_CoH17C18(NO)4
_symmetry_space_group_name_H-M   'P 1'
_cell_length_a   10.95490000
_cell_length_b   12.76430000
_cell_length_c   14.38940000
_cell_angle_alpha   89.99980000
_cell_angle_beta   101.69900000
_cell_angle_gamma   89.99950000
_symmetry_Int_Tables_number   1
_chemical_formula_structural   CoH17C18(NO)4
_chemical_formula_sum   'Co4 H68 C72 N16 O16'
_cell_volume   1970.29473608
_cell_formula_units_Z   4
loop_
 _symmetry_equiv_pos_site_id
 _symmetry_equiv_pos_as_xyz
  1  'x, y, z'
loop_
 _atom_site_type_symbol
 _atom_site_label
 _atom_site_symmetry_multiplicity
 _atom_site_fract_x
 _atom_site_fract_y
 _atom_site_fract_z
 _atom_site_occupancy
  Co  Co0  1  0.38981000  0.27265000  0.31222000  1.0
  Co  Co1  1  0.61019000  0.77265000  0.18778000  1.0
  Co  Co2  1  0.61019000  0.72735000  0.68778000  1.0
  Co  Co3  1  0.38981000  0.22735000  0.81222000  1.0
  H  H4  1  0.78166000  0.93240000  0.33960000  1.0
  H  H5  1  0.21833000  0.43241000  0.16040000  1.0
  H  H6  1  0.21834000  0.06759000  0.66040000  1.0
  H  H7  1  0.78167000  0.56760000  0.83961000  1.0
  H  H8  1  0.84152000  0.62135000  0.26123000  1.0
  H  H9  1  0.15848000  0.12136000  0.23877000  1.0
  H  H10  1  0.15848000  0.37865000  0.73877000  1.0
  H  H11  1  0.84152000  0.87865000  0.76123000  1.0
  H  H12  1  0.01294000  0.86365000  0.44304000  1.0
  H  H13  1  0.98705000  0.36365000  0.05696000  1.0
  H  H14  1  0.98706000  0.13635000  0.55696000  1.0
  H  H15  1  0.01295000  0.63635000  0.94304000  1.0
  H  H16  1  0.14845000  0.69119000  0.38322000  1.0
  H  H17  1  0.85155000  0.19119000  0.11679000  1.0
  H  H18  1  0.85155000  0.30881000  0.61679000  1.0
  H  H19  1  0.14845000  0.80881000  0.88322000  1.0
  H  H20  1  0.04825000  0.58110000  0.36092000  1.0
  H  H21  1  0.95175000  0.08110000  0.13908000  1.0
  H  H22  1  0.95175000  0.41890000  0.63908000  1.0
  H  H23  1  0.04825000  0.91890000  0.86092000  1.0
  H  H24  1  0.61825000  0.98664000  0.45973000  1.0
  H  H25  1  0.38175000  0.48664000  0.04027000  1.0
  H  H26  1  0.38175000  0.01336000  0.54027000  1.0
  H  H27  1  0.61825000  0.51336000  0.95973000  1.0
  H  H28  1  0.43493000  0.84255000  0.42690000  1.0
  H  H29  1  0.56508000  0.34255000  0.07310000  1.0
  H  H30  1  0.56508000  0.15745000  0.57309000  1.0
  H  H31  1  0.43493000  0.65745000  0.92690000  1.0
  H  H32  1  0.35235000  0.94240000  0.35700000  1.0
  H  H33  1  0.64765000  0.44240000  0.14300000  1.0
  H  H34  1  0.64765000  0.05760000  0.64299000  1.0
  H  H35  1  0.35235000  0.55760000  0.85700000  1.0
  H  H36  1  0.33450000  0.51415000  0.35423000  1.0
  H  H37  1  0.66551000  0.01414000  0.14578000  1.0
  H  H38  1  0.66550000  0.48586000  0.64577000  1.0
  H  H39  1  0.33450000  0.98586000  0.85423000  1.0
  H  H40  1  0.31436000  0.65930000  0.46532000  1.0
  H  H41  1  0.68564000  0.15929000  0.03468000  1.0
  H  H42  1  0.68564000  0.34071000  0.53468000  1.0
  H  H43  1  0.31436000  0.84070000  0.96532000  1.0
  H  H44  1  0.39090000  0.64083000  0.58341000  1.0
  H  H45  1  0.60909000  0.14082000  0.91659000  1.0
  H  H46  1  0.60910000  0.35918000  0.41659000  1.0
  H  H47  1  0.39091000  0.85917000  0.08341000  1.0
  H  H48  1  0.40778000  0.25602000  0.54044000  1.0
  H  H49  1  0.59222000  0.75603000  0.95956000  1.0
  H  H50  1  0.59223000  0.74398000  0.45955000  1.0
  H  H51  1  0.40777000  0.24397000  0.04045000  1.0
  H  H52  1  0.37384000  0.43165000  0.64464000  1.0
  H  H53  1  0.62615000  0.93166000  0.85536000  1.0
  H  H54  1  0.62616000  0.56835000  0.35536000  1.0
  H  H55  1  0.37384000  0.06834000  0.14464000  1.0
  H  H56  1  0.29236000  0.59546000  0.70737000  1.0
  H  H57  1  0.70763000  0.09547000  0.79263000  1.0
  H  H58  1  0.70764000  0.40453000  0.29263000  1.0
  H  H59  1  0.29237000  0.90453000  0.20737000  1.0
  H  H60  1  0.87893000  0.65328000  0.49954000  1.0
  H  H61  1  0.12106000  0.15327000  0.00046000  1.0
  H  H62  1  0.12106000  0.34672000  0.50046000  1.0
  H  H63  1  0.87894000  0.84672000  0.99955000  1.0
  H  H64  1  0.10221000  0.59574000  0.77696000  1.0
  H  H65  1  0.89778000  0.09575000  0.72304000  1.0
  H  H66  1  0.89779000  0.40425000  0.22304000  1.0
  H  H67  1  0.10222000  0.90425000  0.27696000  1.0
  H  H68  1  0.89401000  0.62518000  0.67076000  1.0
  H  H69  1  0.10599000  0.12519000  0.82924000  1.0
  H  H70  1  0.10599000  0.37481000  0.32924000  1.0
  H  H71  1  0.89401000  0.87481000  0.17076000  1.0
  C  C72  1  0.50833000  0.88427000  0.30484000  1.0
  C  C73  1  0.49167000  0.38427000  0.19515000  1.0
  C  C74  1  0.49167000  0.11573000  0.69515000  1.0
  C  C75  1  0.50833000  0.61572000  0.80484000  1.0
  C  C76  1  0.82983000  0.85835000  0.33859000  1.0
  C  C77  1  0.17016000  0.35836000  0.16140000  1.0
  C  C78  1  0.17017000  0.14164000  0.66140000  1.0
  C  C79  1  0.82983000  0.64165000  0.83860000  1.0
  C  C80  1  0.85589000  0.69739000  0.29542000  1.0
  C  C81  1  0.14411000  0.19739000  0.20458000  1.0
  C  C82  1  0.14412000  0.30261000  0.70458000  1.0
  C  C83  1  0.85589000  0.80261000  0.79542000  1.0
  C  C84  1  0.94334000  0.82566000  0.38938000  1.0
  C  C85  1  0.05665000  0.32567000  0.11062000  1.0
  C  C86  1  0.05666000  0.17433000  0.61063000  1.0
  C  C87  1  0.94335000  0.67433000  0.88938000  1.0
  C  C88  1  0.06377000  0.65587000  0.39950000  1.0
  C  C89  1  0.93623000  0.15587000  0.10050000  1.0
  C  C90  1  0.93623000  0.34414000  0.60050000  1.0
  C  C91  1  0.06377000  0.84413000  0.89950000  1.0
  C  C92  1  0.51704000  0.99918000  0.44987000  1.0
  C  C93  1  0.48296000  0.49918000  0.05013000  1.0
  C  C94  1  0.48296000  0.00082000  0.55013000  1.0
  C  C95  1  0.51704000  0.50083000  0.94987000  1.0
  C  C96  1  0.44690000  0.91320000  0.38650000  1.0
  C  C97  1  0.55310000  0.41320000  0.11350000  1.0
  C  C98  1  0.55311000  0.08680000  0.61350000  1.0
  C  C99  1  0.44690000  0.58680000  0.88650000  1.0
  C  C100  1  0.34513000  0.46636000  0.41771000  1.0
  C  C101  1  0.65487000  0.96636000  0.08229000  1.0
  C  C102  1  0.65487000  0.53364000  0.58228000  1.0
  C  C103  1  0.34513000  0.03364000  0.91772000  1.0
  C  C104  1  0.49101000  0.10687000  0.40340000  1.0
  C  C105  1  0.50899000  0.60687000  0.09659000  1.0
  C  C106  1  0.50899000  0.89313000  0.59659000  1.0
  C  C107  1  0.49101000  0.39313000  0.90340000  1.0
  C  C108  1  0.07685000  0.63801000  0.50516000  1.0
  C  C109  1  0.92314000  0.13801000  0.99485000  1.0
  C  C110  1  0.92314000  0.36199000  0.49484000  1.0
  C  C111  1  0.07686000  0.86199000  0.00516000  1.0
  C  C112  1  0.19383000  0.61976000  0.56436000  1.0
  C  C113  1  0.80616000  0.11976000  0.93564000  1.0
  C  C114  1  0.80617000  0.38024000  0.43564000  1.0
  C  C115  1  0.19383000  0.88024000  0.06436000  1.0
  C  C116  1  0.31395000  0.61186000  0.52870000  1.0
  C  C117  1  0.68604000  0.11186000  0.97130000  1.0
  C  C118  1  0.68605000  0.38814000  0.47130000  1.0
  C  C119  1  0.31395000  0.88814000  0.02870000  1.0
  C  C120  1  0.38457000  0.33510000  0.51640000  1.0
  C  C121  1  0.61543000  0.83509000  0.98360000  1.0
  C  C122  1  0.61543000  0.66491000  0.48360000  1.0
  C  C123  1  0.38458000  0.16490000  0.01640000  1.0
  C  C124  1  0.36658000  0.42135000  0.56897000  1.0
  C  C125  1  0.63341000  0.92135000  0.93103000  1.0
  C  C126  1  0.63342000  0.57865000  0.43103000  1.0
  C  C127  1  0.36659000  0.07864000  0.06897000  1.0
  C  C128  1  0.20089000  0.60561000  0.66188000  1.0
  C  C129  1  0.79911000  0.10561000  0.83812000  1.0
  C  C130  1  0.79912000  0.39439000  0.33812000  1.0
  C  C131  1  0.20089000  0.89439000  0.16189000  1.0
  C  C132  1  0.97006000  0.63918000  0.54484000  1.0
  C  C133  1  0.02994000  0.13919000  0.95516000  1.0
  C  C134  1  0.02994000  0.36081000  0.45516000  1.0
  C  C135  1  0.97006000  0.86081000  0.04484000  1.0
  C  C136  1  0.09459000  0.60684000  0.70082000  1.0
  C  C137  1  0.90541000  0.10685000  0.79918000  1.0
  C  C138  1  0.90541000  0.39315000  0.29918000  1.0
  C  C139  1  0.09459000  0.89315000  0.20083000  1.0
  C  C140  1  0.97829000  0.62329000  0.64172000  1.0
  C  C141  1  0.02170000  0.12330000  0.85828000  1.0
  C  C142  1  0.02171000  0.37670000  0.35829000  1.0
  C  C143  1  0.97829000  0.87671000  0.14172000  1.0
  N  N144  1  0.77625000  0.77754000  0.28006000  1.0
  N  N145  1  0.22374000  0.27755000  0.21993000  1.0
  N  N146  1  0.22375000  0.22245000  0.71993000  1.0
  N  N147  1  0.77626000  0.72246000  0.78007000  1.0
  N  N148  1  0.95864000  0.72380000  0.36109000  1.0
  N  N149  1  0.04136000  0.22380000  0.13891000  1.0
  N  N150  1  0.04136000  0.27620000  0.63891000  1.0
  N  N151  1  0.95864000  0.77620000  0.86109000  1.0
  N  N152  1  0.34122000  0.50352000  0.50530000  1.0
  N  N153  1  0.65878000  0.00352000  0.99470000  1.0
  N  N154  1  0.65878000  0.49649000  0.49469000  1.0
  N  N155  1  0.34122000  0.99648000  0.00531000  1.0
  N  N156  1  0.37160000  0.36398000  0.42214000  1.0
  N  N157  1  0.62840000  0.86397000  0.07786000  1.0
  N  N158  1  0.62841000  0.63603000  0.57785000  1.0
  N  N159  1  0.37160000  0.13602000  0.92215000  1.0
  O  O160  1  0.49155000  0.78913000  0.27338000  1.0
  O  O161  1  0.50844000  0.28912000  0.22661000  1.0
  O  O162  1  0.50845000  0.21088000  0.72660000  1.0
  O  O163  1  0.49155000  0.71087000  0.77338000  1.0
  O  O164  1  0.38062000  0.12326000  0.35174000  1.0
  O  O165  1  0.61937000  0.62326000  0.14826000  1.0
  O  O166  1  0.61937000  0.87673000  0.64826000  1.0
  O  O167  1  0.38063000  0.37674000  0.85174000  1.0
  O  O168  1  0.57139000  0.17816000  0.41863000  1.0
  O  O169  1  0.42860000  0.67817000  0.08137000  1.0
  O  O170  1  0.42859000  0.82184000  0.58137000  1.0
  O  O171  1  0.57140000  0.32184000  0.91863000  1.0
  O  O172  1  0.57299000  0.94923000  0.26984000  1.0
  O  O173  1  0.42701000  0.44923000  0.23015000  1.0
  O  O174  1  0.42701000  0.05077000  0.73016000  1.0
  O  O175  1  0.57299000  0.55077000  0.76984000  1.0
