# generated using pymatgen
data_MnH5C10N2Cl2O5
_symmetry_space_group_name_H-M   'P 1'
_cell_length_a   8.94283000
_cell_length_b   9.41190000
_cell_length_c   10.53981236
_cell_angle_alpha   112.95756435
_cell_angle_beta   102.55167391
_cell_angle_gamma   101.66190000
_symmetry_Int_Tables_number   1
_chemical_formula_structural   MnH5C10N2Cl2O5
_chemical_formula_sum   'Mn2 H10 C20 N4 Cl4 O10'
_cell_volume   755.62398489
_cell_formula_units_Z   2
loop_
 _symmetry_equiv_pos_site_id
 _symmetry_equiv_pos_as_xyz
  1  'x, y, z'
loop_
 _atom_site_type_symbol
 _atom_site_label
 _atom_site_symmetry_multiplicity
 _atom_site_fract_x
 _atom_site_fract_y
 _atom_site_fract_z
 _atom_site_occupancy
  Mn  Mn0  1  0.63459000  0.70693000  0.44796000  1.0
  Mn  Mn1  1  0.36511000  0.29285000  0.55192000  1.0
  H  H2  1  0.48603000  0.68092000  0.64055000  1.0
  H  H3  1  0.51382000  0.31892000  0.35900000  1.0
  H  H4  1  0.66728000  0.71676000  0.72031000  1.0
  H  H5  1  0.33248000  0.28279000  0.27923000  1.0
  H  H6  1  0.22037000  0.55610000  0.28946000  1.0
  H  H7  1  0.77988000  0.44378000  0.71061000  1.0
  H  H8  1  0.98380000  0.66855000  0.26510000  1.0
  H  H9  1  0.01634000  0.33121000  0.73483000  1.0
  H  H10  1  0.05132000  0.97371000  0.37935000  1.0
  H  H11  1  0.94868000  0.02598000  0.62054000  1.0
  C  C12  1  0.95346000  0.64554000  0.54736000  1.0
  C  C13  1  0.04663000  0.35469000  0.45263000  1.0
  C  C14  1  0.16925000  0.52419000  0.54967000  1.0
  C  C15  1  0.83088000  0.47606000  0.45032000  1.0
  C  C16  1  0.11783000  0.66089000  0.60030000  1.0
  C  C17  1  0.88231000  0.33937000  0.39965000  1.0
  C  C18  1  0.61841000  0.61760000  0.14020000  1.0
  C  C19  1  0.38144000  0.38246000  0.85991000  1.0
  C  C20  1  0.53396000  0.50555000  0.87498000  1.0
  C  C21  1  0.46599000  0.49453000  0.12513000  1.0
  C  C22  1  0.64456000  0.61771000  0.01391000  1.0
  C  C23  1  0.35536000  0.38239000  0.98624000  1.0
  C  C24  1  0.23719000  0.68626000  0.33605000  1.0
  C  C25  1  0.76298000  0.31370000  0.66401000  1.0
  C  C26  1  0.10862000  0.74734000  0.32194000  1.0
  C  C27  1  0.89147000  0.25257000  0.67805000  1.0
  C  C28  1  0.14481000  0.91580000  0.38545000  1.0
  C  C29  1  0.85521000  0.08406000  0.61449000  1.0
  C  C30  1  0.41495000  0.94576000  0.46252000  1.0
  C  C31  1  0.58510000  0.05424000  0.53751000  1.0
  N  N32  1  0.39070000  0.78533000  0.40727000  1.0
  N  N33  1  0.60948000  0.21466000  0.59283000  1.0
  N  N34  1  0.29835000  0.01544000  0.45520000  1.0
  N  N35  1  0.70165000  0.98443000  0.54474000  1.0
  Cl  Cl36  1  0.25644000  0.85172000  0.71355000  1.0
  Cl  Cl37  1  0.74348000  0.14864000  0.28658000  1.0
  Cl  Cl38  1  0.81517000  0.75483000  0.02640000  1.0
  Cl  Cl39  1  0.18487000  0.24541000  0.97413000  1.0
  O  O40  1  0.89771000  0.76332000  0.57194000  1.0
  O  O41  1  0.10227000  0.23684000  0.42812000  1.0
  O  O42  1  0.31617000  0.52719000  0.57606000  1.0
  O  O43  1  0.68394000  0.47299000  0.42396000  1.0
  O  O44  1  0.71299000  0.71242000  0.26976000  1.0
  O  O45  1  0.28679000  0.28762000  0.73039000  1.0
  O  O46  1  0.55154000  0.49696000  0.75654000  1.0
  O  O47  1  0.44840000  0.50306000  0.24356000  1.0
  O  O48  1  0.59766000  0.74584000  0.65595000  1.0
  O  O49  1  0.40225000  0.25410000  0.34384000  1.0
