# generated using pymatgen
data_CdH16C6N(ClO)3
_symmetry_space_group_name_H-M   'P 1'
_cell_length_a   7.71558000
_cell_length_b   9.39390000
_cell_length_c   16.56390000
_cell_angle_alpha   90.00000000
_cell_angle_beta   90.00000000
_cell_angle_gamma   101.88300000
_symmetry_Int_Tables_number   1
_chemical_formula_structural   CdH16C6N(ClO)3
_chemical_formula_sum   'Cd4 H64 C24 N4 Cl12 O12'
_cell_volume   1174.81386618
_cell_formula_units_Z   4
loop_
 _symmetry_equiv_pos_site_id
 _symmetry_equiv_pos_as_xyz
  1  'x, y, z'
loop_
 _atom_site_type_symbol
 _atom_site_label
 _atom_site_symmetry_multiplicity
 _atom_site_fract_x
 _atom_site_fract_y
 _atom_site_fract_z
 _atom_site_occupancy
  Cd  Cd0  1  0.72462000  0.32101000  0.23968000  1.0
  Cd  Cd1  1  0.77538000  0.67899000  0.73968000  1.0
  Cd  Cd2  1  0.27538000  0.67899000  0.76032000  1.0
  Cd  Cd3  1  0.22462000  0.32101000  0.26032000  1.0
  H  H4  1  0.03534000  0.22077000  0.66707000  1.0
  H  H5  1  0.46466000  0.77923000  0.16707000  1.0
  H  H6  1  0.96466000  0.77923000  0.33293000  1.0
  H  H7  1  0.53534000  0.22077000  0.83293000  1.0
  H  H8  1  0.81722000  0.13008000  0.69246000  1.0
  H  H9  1  0.68278000  0.86993000  0.19246000  1.0
  H  H10  1  0.18278000  0.86992000  0.30754000  1.0
  H  H11  1  0.31722000  0.13008000  0.80754000  1.0
  H  H12  1  0.59067000  0.42437000  0.54755000  1.0
  H  H13  1  0.90933000  0.57563000  0.04756000  1.0
  H  H14  1  0.40933000  0.57563000  0.45245000  1.0
  H  H15  1  0.09067000  0.42437000  0.95244000  1.0
  H  H16  1  0.54902000  0.23832000  0.66515000  1.0
  H  H17  1  0.95098000  0.76168000  0.16516000  1.0
  H  H18  1  0.45098000  0.76168000  0.33485000  1.0
  H  H19  1  0.04902000  0.23832000  0.83484000  1.0
  H  H20  1  0.56595000  0.05823000  0.63580000  1.0
  H  H21  1  0.93405000  0.94177000  0.13580000  1.0
  H  H22  1  0.43405000  0.94177000  0.36420000  1.0
  H  H23  1  0.06596000  0.05823000  0.86420000  1.0
  H  H24  1  0.86710000  0.46338000  0.46605000  1.0
  H  H25  1  0.63290000  0.53662000  0.96605000  1.0
  H  H26  1  0.13290000  0.53662000  0.53395000  1.0
  H  H27  1  0.36709000  0.46338000  0.03395000  1.0
  H  H28  1  0.26164000  0.07428000  0.63836000  1.0
  H  H29  1  0.23836000  0.92572000  0.13836000  1.0
  H  H30  1  0.73836000  0.92572000  0.36164000  1.0
  H  H31  1  0.76164000  0.07428000  0.86164000  1.0
  H  H32  1  0.66548000  0.13296000  0.51035000  1.0
  H  H33  1  0.83452000  0.86704000  0.01035000  1.0
  H  H34  1  0.33452000  0.86704000  0.48965000  1.0
  H  H35  1  0.16548000  0.13296000  0.98965000  1.0
  H  H36  1  0.48172000  0.29392000  0.47487000  1.0
  H  H37  1  0.01828000  0.70608000  0.97487000  1.0
  H  H38  1  0.51828000  0.70608000  0.52513000  1.0
  H  H39  1  0.98172000  0.29392000  0.02513000  1.0
  H  H40  1  0.84731000  0.37118000  0.61836000  1.0
  H  H41  1  0.65269000  0.62882000  0.11837000  1.0
  H  H42  1  0.15269000  0.62882000  0.38164000  1.0
  H  H43  1  0.34731000  0.37118000  0.88164000  1.0
  H  H44  1  0.29502000  0.23147000  0.57534000  1.0
  H  H45  1  0.20497000  0.76853000  0.07534000  1.0
  H  H46  1  0.70498000  0.76853000  0.42466000  1.0
  H  H47  1  0.79503000  0.23147000  0.92466000  1.0
  H  H48  1  0.68360000  0.48994000  0.40786000  1.0
  H  H49  1  0.81640000  0.51006000  0.90786000  1.0
  H  H50  1  0.31640000  0.51006000  0.59214000  1.0
  H  H51  1  0.18360000  0.48994000  0.09214000  1.0
  H  H52  1  0.93894000  0.29158000  0.53457000  1.0
  H  H53  1  0.56106000  0.70842000  0.03457000  1.0
  H  H54  1  0.06107000  0.70842000  0.46543000  1.0
  H  H55  1  0.43894000  0.29158000  0.96543000  1.0
  H  H56  1  0.89677000  0.29245000  0.38778000  1.0
  H  H57  1  0.60322000  0.70754000  0.88778000  1.0
  H  H58  1  0.10323000  0.70754000  0.61222000  1.0
  H  H59  1  0.39677000  0.29246000  0.11222000  1.0
  H  H60  1  0.95667000  0.96416000  0.63409000  1.0
  H  H61  1  0.54333000  0.03584000  0.13409000  1.0
  H  H62  1  0.04333000  0.03584000  0.36591000  1.0
  H  H63  1  0.45667000  0.96417000  0.86591000  1.0
  H  H64  1  0.21306000  0.04664000  0.48688000  1.0
  H  H65  1  0.28694000  0.95336000  0.98688000  1.0
  H  H66  1  0.78694000  0.95335000  0.51312000  1.0
  H  H67  1  0.71306000  0.04665000  0.01312000  1.0
  C  C68  1  0.60843000  0.34063000  0.50385000  1.0
  C  C69  1  0.89157000  0.65937000  0.00385000  1.0
  C  C70  1  0.39157000  0.65937000  0.49615000  1.0
  C  C71  1  0.10843000  0.34063000  0.99615000  1.0
  C  C72  1  0.84672000  0.26943000  0.58562000  1.0
  C  C73  1  0.65328000  0.73058000  0.08562000  1.0
  C  C74  1  0.15328000  0.73057000  0.41438000  1.0
  C  C75  1  0.34672000  0.26943000  0.91438000  1.0
  C  C76  1  0.53177000  0.15977000  0.61516000  1.0
  C  C77  1  0.96823000  0.84023000  0.11516000  1.0
  C  C78  1  0.46823000  0.84023000  0.38484000  1.0
  C  C79  1  0.03177000  0.15977000  0.88484000  1.0
  C  C80  1  0.34063000  0.13005000  0.58776000  1.0
  C  C81  1  0.15937000  0.86995000  0.08776000  1.0
  C  C82  1  0.65937000  0.86994000  0.41224000  1.0
  C  C83  1  0.84063000  0.13005000  0.91224000  1.0
  C  C84  1  0.74055000  0.40789000  0.43993000  1.0
  C  C85  1  0.75945000  0.59211000  0.93994000  1.0
  C  C86  1  0.25945000  0.59211000  0.56006000  1.0
  C  C87  1  0.24055000  0.40789000  0.06006000  1.0
  C  C88  1  0.90830000  0.16238000  0.64144000  1.0
  C  C89  1  0.59169000  0.83762000  0.14144000  1.0
  C  C90  1  0.09169000  0.83762000  0.35856000  1.0
  C  C91  1  0.40830000  0.16238000  0.85856000  1.0
  N  N92  1  0.66354000  0.22008000  0.55045000  1.0
  N  N93  1  0.83646000  0.77992000  0.05045000  1.0
  N  N94  1  0.33646000  0.77992000  0.44955000  1.0
  N  N95  1  0.16354000  0.22008000  0.94955000  1.0
  Cl  Cl96  1  0.02563000  0.51551000  0.23141000  1.0
  Cl  Cl97  1  0.47437000  0.48449000  0.73141000  1.0
  Cl  Cl98  1  0.97437000  0.48449000  0.76859000  1.0
  Cl  Cl99  1  0.52563000  0.51551000  0.26859000  1.0
  Cl  Cl100  1  0.66362000  0.31824000  0.08550000  1.0
  Cl  Cl101  1  0.83638000  0.68176000  0.58550000  1.0
  Cl  Cl102  1  0.33638000  0.68176000  0.91450000  1.0
  Cl  Cl103  1  0.16362000  0.31824000  0.41450000  1.0
  Cl  Cl104  1  0.92558000  0.12109000  0.24698000  1.0
  Cl  Cl105  1  0.57442000  0.87891000  0.74698000  1.0
  Cl  Cl106  1  0.07442000  0.87891000  0.75302000  1.0
  Cl  Cl107  1  0.42558000  0.12109000  0.25302000  1.0
  O  O108  1  0.76984000  0.29955000  0.38318000  1.0
  O  O109  1  0.73016000  0.70044000  0.88318000  1.0
  O  O110  1  0.23016000  0.70044000  0.61682000  1.0
  O  O111  1  0.26984000  0.29956000  0.11682000  1.0
  O  O112  1  0.32170000  0.04123000  0.51726000  1.0
  O  O113  1  0.17831000  0.95877000  0.01726000  1.0
  O  O114  1  0.67831000  0.95877000  0.48274000  1.0
  O  O115  1  0.82170000  0.04123000  0.98274000  1.0
  O  O116  1  0.93152000  0.03796000  0.59626000  1.0
  O  O117  1  0.56848000  0.96204000  0.09626000  1.0
  O  O118  1  0.06848000  0.96204000  0.40374000  1.0
  O  O119  1  0.43152000  0.03796000  0.90374000  1.0
