# generated using pymatgen
data_MnH14C14S2N2O5
_symmetry_space_group_name_H-M   'P 1'
_cell_length_a   6.42167000
_cell_length_b   11.08086376
_cell_length_c   11.89196482
_cell_angle_alpha   85.89693139
_cell_angle_beta   74.34344986
_cell_angle_gamma   73.18354844
_symmetry_Int_Tables_number   1
_chemical_formula_structural   MnH14C14S2N2O5
_chemical_formula_sum   'Mn2 H28 C28 S4 N4 O10'
_cell_volume   779.94370691
_cell_formula_units_Z   2
loop_
 _symmetry_equiv_pos_site_id
 _symmetry_equiv_pos_as_xyz
  1  'x, y, z'
loop_
 _atom_site_type_symbol
 _atom_site_label
 _atom_site_symmetry_multiplicity
 _atom_site_fract_x
 _atom_site_fract_y
 _atom_site_fract_z
 _atom_site_occupancy
  Mn  Mn0  1  0.80556000  0.74998000  0.24997000  1.0
  Mn  Mn1  1  0.19443000  0.25002000  0.75004000  1.0
  H  H2  1  0.28739000  0.72614000  0.18578000  1.0
  H  H3  1  0.80099000  0.22602000  0.68576000  1.0
  H  H4  1  0.71260000  0.27386000  0.81422000  1.0
  H  H5  1  0.19902000  0.77398000  0.31423000  1.0
  H  H6  1  0.27890000  0.99304000  0.55284000  1.0
  H  H7  1  0.17594000  0.49318000  0.05297000  1.0
  H  H8  1  0.72109000  0.00698000  0.44715000  1.0
  H  H9  1  0.82410000  0.50681000  0.94702000  1.0
  H  H10  1  0.38443000  0.86535000  0.63774000  1.0
  H  H11  1  0.11282000  0.36546000  0.13776000  1.0
  H  H12  1  0.61556000  0.13467000  0.36225000  1.0
  H  H13  1  0.88720000  0.63454000  0.86225000  1.0
  H  H14  1  0.42394000  0.67101000  0.66019000  1.0
  H  H15  1  0.24468000  0.17073000  0.16020000  1.0
  H  H16  1  0.57609000  0.32898000  0.33979000  1.0
  H  H17  1  0.75534000  0.82926000  0.83980000  1.0
  H  H18  1  0.45463000  0.44970000  0.71696000  1.0
  H  H19  1  0.37867000  0.94931000  0.21667000  1.0
  H  H20  1  0.54537000  0.55030000  0.28302000  1.0
  H  H21  1  0.62134000  0.05069000  0.78333000  1.0
  H  H22  1  0.84983000  0.46416000  0.64848000  1.0
  H  H23  1  0.03717000  0.96420000  0.14846000  1.0
  H  H24  1  0.15016000  0.53584000  0.35153000  1.0
  H  H25  1  0.96284000  0.03579000  0.85153000  1.0
  H  H26  1  0.79231000  0.68949000  0.58503000  1.0
  H  H27  1  0.93258000  0.18974000  0.08540000  1.0
  H  H28  1  0.20768000  0.31051000  0.41498000  1.0
  H  H29  1  0.06743000  0.81025000  0.91460000  1.0
  C  C30  1  0.48282000  0.82903000  0.45140000  1.0
  C  C31  1  0.23715000  0.32925000  0.95136000  1.0
  C  C32  1  0.51718000  0.17099000  0.54860000  1.0
  C  C33  1  0.76284000  0.67075000  0.04865000  1.0
  C  C34  1  0.31251000  0.88984000  0.56251000  1.0
  C  C35  1  0.23556000  0.38996000  0.06258000  1.0
  C  C36  1  0.68746000  0.11018000  0.43748000  1.0
  C  C37  1  0.76447000  0.61003000  0.93742000  1.0
  C  C38  1  0.09908000  0.70192000  0.62066000  1.0
  C  C39  1  0.57800000  0.20187000  0.12094000  1.0
  C  C40  1  0.90090000  0.29809000  0.37934000  1.0
  C  C41  1  0.42203000  0.79812000  0.87906000  1.0
  C  C42  1  0.29156000  0.63054000  0.65480000  1.0
  C  C43  1  0.42281000  0.13043000  0.15496000  1.0
  C  C44  1  0.70843000  0.36946000  0.34520000  1.0
  C  C45  1  0.57719000  0.86958000  0.84505000  1.0
  C  C46  1  0.31045000  0.50570000  0.68676000  1.0
  C  C47  1  0.49685000  0.00551000  0.18678000  1.0
  C  C48  1  0.68955000  0.49430000  0.31324000  1.0
  C  C49  1  0.50316000  0.99448000  0.81322000  1.0
  C  C50  1  0.97185000  0.51454000  0.65015000  1.0
  C  C51  1  0.86308000  0.01455000  0.15026000  1.0
  C  C52  1  0.02813000  0.48546000  0.34986000  1.0
  C  C53  1  0.13691000  0.98544000  0.84975000  1.0
  C  C54  1  0.93778000  0.63990000  0.61719000  1.0
  C  C55  1  0.80468000  0.13994000  0.11748000  1.0
  C  C56  1  0.06220000  0.36011000  0.38281000  1.0
  C  C57  1  0.19534000  0.86005000  0.88251000  1.0
  S  S58  1  0.04217000  0.86206000  0.58804000  1.0
  S  S59  1  0.50790000  0.36202000  0.08838000  1.0
  S  S60  1  0.95781000  0.13794000  0.41195000  1.0
  S  S61  1  0.49211000  0.63797000  0.91162000  1.0
  N  N62  1  0.15369000  0.44705000  0.68614000  1.0
  N  N63  1  0.71279000  0.94696000  0.18614000  1.0
  N  N64  1  0.84632000  0.55294000  0.31386000  1.0
  N  N65  1  0.28720000  0.05304000  0.81387000  1.0
  O  O66  1  0.41990000  0.79213000  0.37087000  1.0
  O  O67  1  0.41736000  0.29265000  0.87076000  1.0
  O  O68  1  0.58012000  0.20788000  0.62913000  1.0
  O  O69  1  0.58263000  0.70734000  0.12924000  1.0
  O  O70  1  0.68881000  0.82167000  0.44175000  1.0
  O  O71  1  0.04823000  0.32169000  0.94176000  1.0
  O  O72  1  0.31119000  0.17834000  0.55826000  1.0
  O  O73  1  0.95176000  0.67831000  0.05826000  1.0
  O  O74  1  0.14703000  0.75029000  0.24988000  1.0
  O  O75  1  0.85298000  0.24969000  0.75012000  1.0
