# generated using pymatgen
data_Mn2H10C3(SeN)2
_symmetry_space_group_name_H-M   'P 1'
_cell_length_a   6.49825000
_cell_length_b   6.61352000
_cell_length_c   10.69730000
_cell_angle_alpha   72.01600000
_cell_angle_beta   89.99950000
_cell_angle_gamma   89.99950000
_symmetry_Int_Tables_number   1
_chemical_formula_structural   Mn2H10C3(SeN)2
_chemical_formula_sum   'Mn4 H20 C6 Se4 N4'
_cell_volume   437.26928725
_cell_formula_units_Z   2
loop_
 _symmetry_equiv_pos_site_id
 _symmetry_equiv_pos_as_xyz
  1  'x, y, z'
loop_
 _atom_site_type_symbol
 _atom_site_label
 _atom_site_symmetry_multiplicity
 _atom_site_fract_x
 _atom_site_fract_y
 _atom_site_fract_z
 _atom_site_occupancy
  Mn  Mn0  1  0.99891000  0.63725000  0.41607000  1.0
  Mn  Mn1  1  0.49892000  0.36273000  0.58393000  1.0
  Mn  Mn2  1  0.49851000  0.94696000  0.41603000  1.0
  Mn  Mn3  1  0.99852000  0.05304000  0.58397000  1.0
  H  H4  1  0.79409000  0.15083000  0.25881000  1.0
  H  H5  1  0.29410000  0.84916000  0.74119000  1.0
  H  H6  1  0.29413000  0.59033000  0.25871000  1.0
  H  H7  1  0.79414000  0.40968000  0.74128000  1.0
  H  H8  1  0.61821000  0.33167000  0.25864000  1.0
  H  H9  1  0.11821000  0.66833000  0.74136000  1.0
  H  H10  1  0.11814000  0.40980000  0.25854000  1.0
  H  H11  1  0.61814000  0.59021000  0.74146000  1.0
  H  H12  1  0.58114000  0.00348000  0.12314000  1.0
  H  H13  1  0.08114000  0.99653000  0.87686000  1.0
  H  H14  1  0.08102000  0.87333000  0.12319000  1.0
  H  H15  1  0.58105000  0.12667000  0.87681000  1.0
  H  H16  1  0.39265000  0.19643000  0.12098000  1.0
  H  H17  1  0.89264000  0.80359000  0.87901000  1.0
  H  H18  1  0.89263000  0.68250000  0.12095000  1.0
  H  H19  1  0.39265000  0.31749000  0.87905000  1.0
  H  H20  1  0.82648000  0.28945000  0.00002000  1.0
  H  H21  1  0.32646000  0.71055000  0.99998000  1.0
  H  H22  1  0.64118000  0.48663000  0.00008000  1.0
  H  H23  1  0.14117000  0.51338000  0.99991000  1.0
  C  C24  1  0.56011000  0.16910000  0.12280000  1.0
  C  C25  1  0.06011000  0.83090000  0.87720000  1.0
  C  C26  1  0.06008000  0.70809000  0.12278000  1.0
  C  C27  1  0.56010000  0.29192000  0.87722000  1.0
  C  C28  1  0.65960000  0.32081000  0.00004000  1.0
  C  C29  1  0.15959000  0.67919000  0.99996000  1.0
  Se  Se30  1  0.11846000  0.01984000  0.36778000  1.0
  Se  Se31  1  0.61848000  0.98014000  0.63222000  1.0
  Se  Se32  1  0.61880000  0.61264000  0.36801000  1.0
  Se  Se33  1  0.11881000  0.38736000  0.63200000  1.0
  N  N34  1  0.63804000  0.18215000  0.24916000  1.0
  N  N35  1  0.13804000  0.81785000  0.75083000  1.0
  N  N36  1  0.13807000  0.56874000  0.24908000  1.0
  N  N37  1  0.63808000  0.43126000  0.75091000  1.0
