# generated using pymatgen
data_CdH9C8NO6
_symmetry_space_group_name_H-M   'P 1'
_cell_length_a   8.49317000
_cell_length_b   10.18981251
_cell_length_c   14.86230000
_cell_angle_alpha   78.50961536
_cell_angle_beta   90.01740000
_cell_angle_gamma   65.36526137
_symmetry_Int_Tables_number   1
_chemical_formula_structural   CdH9C8NO6
_chemical_formula_sum   'Cd4 H36 C32 N4 O24'
_cell_volume   1140.71332851
_cell_formula_units_Z   4
loop_
 _symmetry_equiv_pos_site_id
 _symmetry_equiv_pos_as_xyz
  1  'x, y, z'
loop_
 _atom_site_type_symbol
 _atom_site_label
 _atom_site_symmetry_multiplicity
 _atom_site_fract_x
 _atom_site_fract_y
 _atom_site_fract_z
 _atom_site_occupancy
  Cd  Cd0  1  0.72352000  0.55283000  0.83320000  1.0
  Cd  Cd1  1  0.27653000  0.44704000  0.66682000  1.0
  Cd  Cd2  1  0.27648000  0.44717000  0.16680000  1.0
  Cd  Cd3  1  0.72346000  0.55297000  0.33318000  1.0
  H  H4  1  0.95324000  0.32061000  0.75153000  1.0
  H  H5  1  0.27323000  0.67952000  0.74853000  1.0
  H  H6  1  0.04675000  0.67939000  0.24847000  1.0
  H  H7  1  0.72677000  0.32048000  0.25147000  1.0
  H  H8  1  0.87551000  0.45934000  0.67097000  1.0
  H  H9  1  0.33475000  0.54069000  0.82905000  1.0
  H  H10  1  0.12450000  0.54065000  0.32903000  1.0
  H  H11  1  0.66526000  0.45931000  0.17095000  1.0
  H  H12  1  0.08145000  0.42186000  0.84402000  1.0
  H  H13  1  0.50330000  0.57812000  0.65606000  1.0
  H  H14  1  0.91855000  0.57814000  0.15598000  1.0
  H  H15  1  0.49671000  0.42188000  0.34394000  1.0
  H  H16  1  0.05339000  0.58336000  0.83537000  1.0
  H  H17  1  0.63694000  0.41664000  0.66470000  1.0
  H  H18  1  0.94661000  0.41664000  0.16463000  1.0
  H  H19  1  0.36306000  0.58336000  0.33530000  1.0
  H  H20  1  0.21125000  0.30951000  0.03742000  1.0
  H  H21  1  0.52048000  0.69052000  0.46266000  1.0
  H  H22  1  0.78875000  0.69049000  0.96257000  1.0
  H  H23  1  0.47952000  0.30948000  0.53734000  1.0
  H  H24  1  0.32133000  0.40435000  0.98539000  1.0
  H  H25  1  0.72555000  0.59561000  0.51462000  1.0
  H  H26  1  0.67868000  0.59564000  0.01461000  1.0
  H  H27  1  0.27446000  0.40439000  0.48538000  1.0
  H  H28  1  0.37953000  0.06372000  0.14614000  1.0
  H  H29  1  0.44303000  0.93629000  0.35383000  1.0
  H  H30  1  0.62047000  0.93628000  0.85386000  1.0
  H  H31  1  0.55696000  0.06372000  0.64617000  1.0
  H  H32  1  0.90928000  0.83557000  0.08530000  1.0
  H  H33  1  0.74474000  0.16433000  0.41474000  1.0
  H  H34  1  0.09072000  0.16443000  0.91470000  1.0
  H  H35  1  0.25526000  0.83567000  0.58526000  1.0
  H  H36  1  0.87990000  0.06704000  0.97661000  1.0
  H  H37  1  0.94666000  0.93307000  0.52359000  1.0
  H  H38  1  0.12009000  0.93296000  0.02340000  1.0
  H  H39  1  0.05332000  0.06694000  0.47642000  1.0
  C  C40  1  0.62133000  0.19648000  0.00356000  1.0
  C  C41  1  0.81744000  0.80356000  0.49667000  1.0
  C  C42  1  0.37867000  0.80352000  0.99644000  1.0
  C  C43  1  0.18256000  0.19644000  0.50332000  1.0
  C  C44  1  0.47653000  0.19530000  0.04989000  1.0
  C  C45  1  0.67147000  0.80477000  0.45027000  1.0
  C  C46  1  0.52347000  0.80470000  0.95011000  1.0
  C  C47  1  0.32853000  0.19523000  0.54973000  1.0
  C  C48  1  0.48953000  0.06474000  0.10878000  1.0
  C  C49  1  0.55399000  0.93530000  0.39126000  1.0
  C  C50  1  0.51048000  0.93525000  0.89122000  1.0
  C  C51  1  0.44601000  0.06470000  0.60874000  1.0
  C  C52  1  0.64486000  0.93648000  0.12352000  1.0
  C  C53  1  0.58121000  0.06349000  0.37647000  1.0
  C  C54  1  0.35513000  0.06352000  0.87649000  1.0
  C  C55  1  0.41879000  0.93652000  0.62353000  1.0
  C  C56  1  0.78789000  0.93558000  0.07559000  1.0
  C  C57  1  0.72329000  0.06437000  0.42449000  1.0
  C  C58  1  0.21211000  0.06441000  0.92441000  1.0
  C  C59  1  0.27670000  0.93564000  0.57551000  1.0
  C  C60  1  0.77320000  0.06427000  0.01595000  1.0
  C  C61  1  0.83718000  0.93574000  0.48426000  1.0
  C  C62  1  0.22680000  0.93573000  0.98405000  1.0
  C  C63  1  0.16281000  0.06427000  0.51574000  1.0
  C  C64  1  0.65867000  0.80340000  0.19302000  1.0
  C  C65  1  0.46213000  0.19659000  0.30690000  1.0
  C  C66  1  0.34134000  0.19660000  0.80698000  1.0
  C  C67  1  0.53787000  0.80341000  0.69310000  1.0
  C  C68  1  0.62140000  0.33197000  0.94189000  1.0
  C  C69  1  0.95320000  0.66794000  0.55823000  1.0
  C  C70  1  0.37860000  0.66803000  0.05811000  1.0
  C  C71  1  0.04679000  0.33207000  0.44176000  1.0
  N  N72  1  0.32117000  0.32625000  0.04147000  1.0
  N  N73  1  0.64713000  0.67382000  0.45860000  1.0
  N  N74  1  0.67883000  0.67375000  0.95854000  1.0
  N  N75  1  0.35287000  0.32618000  0.54140000  1.0
  O  O76  1  0.76864000  0.32873000  0.92096000  1.0
  O  O77  1  0.09715000  0.67124000  0.57924000  1.0
  O  O78  1  0.23136000  0.67127000  0.07904000  1.0
  O  O79  1  0.90285000  0.32876000  0.42076000  1.0
  O  O80  1  0.47788000  0.44584000  0.91433000  1.0
  O  O81  1  0.92385000  0.55389000  0.58560000  1.0
  O  O82  1  0.52212000  0.55416000  0.08567000  1.0
  O  O83  1  0.07615000  0.44611000  0.41440000  1.0
  O  O84  1  0.52654000  0.79140000  0.22398000  1.0
  O  O85  1  0.31789000  0.20874000  0.27592000  1.0
  O  O86  1  0.47347000  0.20859000  0.77602000  1.0
  O  O87  1  0.68212000  0.79125000  0.72408000  1.0
  O  O88  1  0.81509000  0.70052000  0.22216000  1.0
  O  O89  1  0.51584000  0.29935000  0.27781000  1.0
  O  O90  1  0.18491000  0.29948000  0.77784000  1.0
  O  O91  1  0.48416000  0.70065000  0.72219000  1.0
  O  O92  1  0.84052000  0.39926000  0.72221000  1.0
  O  O93  1  0.23944000  0.60076000  0.77788000  1.0
  O  O94  1  0.15947000  0.60075000  0.27779000  1.0
  O  O95  1  0.76056000  0.39924000  0.22211000  1.0
  O  O96  1  0.01307000  0.51088000  0.86915000  1.0
  O  O97  1  0.52406000  0.48908000  0.63094000  1.0
  O  O98  1  0.98693000  0.48912000  0.13086000  1.0
  O  O99  1  0.47594000  0.51092000  0.36906000  1.0
