# generated using pymatgen
data_NdH8C7N3O8
_symmetry_space_group_name_H-M   'P 1'
_cell_length_a   10.36942222
_cell_length_b   10.53890000
_cell_length_c   13.02170000
_cell_angle_alpha   75.36810000
_cell_angle_beta   90.00009834
_cell_angle_gamma   60.53055000
_symmetry_Int_Tables_number   1
_chemical_formula_structural   NdH8C7N3O8
_chemical_formula_sum   'Nd4 H32 C28 N12 O32'
_cell_volume   1185.62889552
_cell_formula_units_Z   4
loop_
 _symmetry_equiv_pos_site_id
 _symmetry_equiv_pos_as_xyz
  1  'x, y, z'
loop_
 _atom_site_type_symbol
 _atom_site_label
 _atom_site_symmetry_multiplicity
 _atom_site_fract_x
 _atom_site_fract_y
 _atom_site_fract_z
 _atom_site_occupancy
  Nd  Nd0  1  0.73829000  0.50451000  0.29163000  1.0
  Nd  Nd1  1  0.24279000  0.49549000  0.20837000  1.0
  Nd  Nd2  1  0.26171000  0.49549000  0.70837000  1.0
  Nd  Nd3  1  0.75720000  0.50451000  0.79163000  1.0
  H  H4  1  0.40430000  0.67449000  0.31843000  1.0
  H  H5  1  0.07879000  0.32551000  0.18157000  1.0
  H  H6  1  0.59569000  0.32552000  0.68157000  1.0
  H  H7  1  0.92121000  0.67448000  0.81843000  1.0
  H  H8  1  0.48661000  0.75547000  0.34939000  1.0
  H  H9  1  0.24208000  0.24453000  0.15061000  1.0
  H  H10  1  0.51339000  0.24453000  0.65061000  1.0
  H  H11  1  0.75792000  0.75547000  0.84939000  1.0
  H  H12  1  0.06508000  0.36783000  0.40565000  1.0
  H  H13  1  0.43292000  0.63216000  0.09435000  1.0
  H  H14  1  0.93492000  0.63216000  0.59435000  1.0
  H  H15  1  0.56708000  0.36784000  0.90566000  1.0
  H  H16  1  0.00479000  0.27312000  0.48503000  1.0
  H  H17  1  0.27791000  0.72688000  0.01497000  1.0
  H  H18  1  0.99521000  0.72688000  0.51497000  1.0
  H  H19  1  0.72209000  0.27312000  0.98503000  1.0
  H  H20  1  0.71904000  0.84200000  0.40885000  1.0
  H  H21  1  0.56104000  0.15800000  0.09115000  1.0
  H  H22  1  0.28096000  0.15800000  0.59114000  1.0
  H  H23  1  0.43895000  0.84201000  0.90885000  1.0
  H  H24  1  0.57899000  0.03935000  0.36470000  1.0
  H  H25  1  0.61834000  0.96065000  0.13530000  1.0
  H  H26  1  0.42102000  0.96063000  0.63530000  1.0
  H  H27  1  0.38165000  0.03937000  0.86470000  1.0
  H  H28  1  0.15454000  0.84810000  0.41499000  1.0
  H  H29  1  0.00264000  0.15190000  0.08501000  1.0
  H  H30  1  0.84546000  0.15189000  0.58502000  1.0
  H  H31  1  0.99736000  0.84810000  0.91498000  1.0
  H  H32  1  0.07693000  0.12697000  0.34320000  1.0
  H  H33  1  0.20390000  0.87303000  0.15680000  1.0
  H  H34  1  0.92308000  0.87302000  0.65680000  1.0
  H  H35  1  0.79609000  0.12698000  0.84320000  1.0
  C  C36  1  0.74638000  0.15689000  0.33942000  1.0
  C  C37  1  0.90327000  0.84311000  0.16058000  1.0
  C  C38  1  0.25362000  0.84311000  0.66058000  1.0
  C  C39  1  0.09673000  0.15689000  0.83942000  1.0
  C  C40  1  0.78912000  0.99943000  0.37921000  1.0
  C  C41  1  0.78855000  0.00057000  0.12079000  1.0
  C  C42  1  0.21089000  0.00056000  0.62079000  1.0
  C  C43  1  0.21145000  0.99944000  0.87921000  1.0
  C  C44  1  0.03677000  0.93744000  0.39230000  1.0
  C  C45  1  0.97421000  0.06256000  0.10769000  1.0
  C  C46  1  0.96323000  0.06256000  0.60770000  1.0
  C  C47  1  0.02580000  0.93743000  0.89230000  1.0
  C  C48  1  0.99483000  0.09059000  0.35345000  1.0
  C  C49  1  0.08542000  0.90941000  0.14655000  1.0
  C  C50  1  0.00517000  0.90941000  0.64655000  1.0
  C  C51  1  0.91458000  0.09058000  0.85345000  1.0
  C  C52  1  0.58847000  0.28313000  0.30164000  1.0
  C  C53  1  0.87160000  0.71687000  0.19836000  1.0
  C  C54  1  0.41153000  0.71687000  0.69835000  1.0
  C  C55  1  0.12839000  0.28314000  0.80164000  1.0
  C  C56  1  0.73886000  0.58683000  0.52305000  1.0
  C  C57  1  0.32570000  0.41317000  0.97695000  1.0
  C  C58  1  0.26115000  0.41316000  0.47696000  1.0
  C  C59  1  0.67431000  0.58684000  0.02304000  1.0
  C  C60  1  0.70426000  0.45571000  0.55129000  1.0
  C  C61  1  0.15997000  0.54430000  0.94871000  1.0
  C  C62  1  0.29572000  0.54431000  0.44871000  1.0
  C  C63  1  0.84003000  0.45570000  0.05129000  1.0
  N  N64  1  0.84970000  0.19835000  0.33016000  1.0
  N  N65  1  0.04806000  0.80164000  0.16984000  1.0
  N  N66  1  0.15030000  0.80164000  0.66984000  1.0
  N  N67  1  0.95194000  0.19835000  0.83016000  1.0
  N  N68  1  0.93719000  0.89172000  0.40742000  1.0
  N  N69  1  0.82891000  0.10828000  0.09258000  1.0
  N  N70  1  0.06281000  0.10828000  0.59259000  1.0
  N  N71  1  0.17109000  0.89172000  0.90741000  1.0
  N  N72  1  0.68811000  0.95484000  0.39094000  1.0
  N  N73  1  0.64295000  0.04516000  0.10906000  1.0
  N  N74  1  0.31189000  0.04516000  0.60906000  1.0
  N  N75  1  0.35704000  0.95486000  0.89094000  1.0
  O  O76  1  0.47270000  0.71454000  0.29387000  1.0
  O  O77  1  0.18724000  0.28546000  0.20613000  1.0
  O  O78  1  0.52730000  0.28546000  0.70613000  1.0
  O  O79  1  0.81276000  0.71454000  0.79387000  1.0
  O  O80  1  0.97590000  0.35674000  0.41645000  1.0
  O  O81  1  0.33264000  0.64327000  0.08355000  1.0
  O  O82  1  0.02410000  0.64326000  0.58354000  1.0
  O  O83  1  0.66736000  0.35674000  0.91646000  1.0
  O  O84  1  0.56447000  0.41831000  0.26467000  1.0
  O  O85  1  0.98278000  0.58169000  0.23533000  1.0
  O  O86  1  0.43553000  0.58170000  0.73533000  1.0
  O  O87  1  0.01722000  0.41830000  0.76467000  1.0
  O  O88  1  0.48314000  0.25337000  0.30403000  1.0
  O  O89  1  0.73651000  0.74663000  0.19596000  1.0
  O  O90  1  0.51686000  0.74663000  0.69596000  1.0
  O  O91  1  0.26348000  0.25338000  0.80403000  1.0
  O  O92  1  0.72354000  0.65485000  0.42448000  1.0
  O  O93  1  0.37839000  0.34516000  0.07552000  1.0
  O  O94  1  0.27648000  0.34513000  0.57552000  1.0
  O  O95  1  0.62161000  0.65487000  0.92448000  1.0
  O  O96  1  0.77985000  0.61636000  0.60097000  1.0
  O  O97  1  0.39622000  0.38363000  0.89903000  1.0
  O  O98  1  0.22016000  0.38363000  0.39903000  1.0
  O  O99  1  0.60379000  0.61637000  0.10097000  1.0
  O  O100  1  0.68334000  0.40935000  0.47616000  1.0
  O  O101  1  0.09269000  0.59065000  0.02385000  1.0
  O  O102  1  0.31665000  0.59065000  0.52384000  1.0
  O  O103  1  0.90730000  0.40935000  0.97616000  1.0
  O  O104  1  0.70148000  0.40358000  0.65031000  1.0
  O  O105  1  0.10506000  0.59642000  0.84969000  1.0
  O  O106  1  0.29852000  0.59643000  0.34968000  1.0
  O  O107  1  0.89495000  0.40357000  0.15032000  1.0
