# generated using pymatgen
data_AgH13C13S(NO)4
_symmetry_space_group_name_H-M   'P 1'
_cell_length_a   7.83451000
_cell_length_b   9.58937000
_cell_length_c   10.67220000
_cell_angle_alpha   90.62360000
_cell_angle_beta   109.78330000
_cell_angle_gamma   103.10060000
_symmetry_Int_Tables_number   1
_chemical_formula_structural   AgH13C13S(NO)4
_chemical_formula_sum   'Ag2 H26 C26 S2 N8 O8'
_cell_volume   731.45938769
_cell_formula_units_Z   2
loop_
 _symmetry_equiv_pos_site_id
 _symmetry_equiv_pos_as_xyz
  1  'x, y, z'
loop_
 _atom_site_type_symbol
 _atom_site_label
 _atom_site_symmetry_multiplicity
 _atom_site_fract_x
 _atom_site_fract_y
 _atom_site_fract_z
 _atom_site_occupancy
  Ag  Ag0  1  0.69034000  0.05442000  0.41578000  1.0
  Ag  Ag1  1  0.30966000  0.94558000  0.58422000  1.0
  H  H2  1  0.18475000  0.87071000  0.05990000  1.0
  H  H3  1  0.81525000  0.12929000  0.94010000  1.0
  H  H4  1  0.39662000  0.03355000  0.18106000  1.0
  H  H5  1  0.60338000  0.96645000  0.81894000  1.0
  H  H6  1  0.61051000  0.72163000  0.25703000  1.0
  H  H7  1  0.38949000  0.27837000  0.74297000  1.0
  H  H8  1  0.49684000  0.67706000  0.37733000  1.0
  H  H9  1  0.50316000  0.32294000  0.62267000  1.0
  H  H10  1  0.67914000  0.59337000  0.37259000  1.0
  H  H11  1  0.32086000  0.40663000  0.62741000  1.0
  H  H12  1  0.97069000  0.55158000  0.29662000  1.0
  H  H13  1  0.02931000  0.44842000  0.70338000  1.0
  H  H14  1  0.05497000  0.98159000  0.71310000  1.0
  H  H15  1  0.94503000  0.01841000  0.28690000  1.0
  H  H16  1  0.93355000  0.69132000  0.99263000  1.0
  H  H17  1  0.06645000  0.30868000  0.00737000  1.0
  H  H18  1  0.67093000  0.53527000  0.80745000  1.0
  H  H19  1  0.32907000  0.46473000  0.19255000  1.0
  H  H20  1  0.60084000  0.59823000  0.57369000  1.0
  H  H21  1  0.39916000  0.40177000  0.42631000  1.0
  H  H22  1  0.49743000  0.31383000  0.96124000  1.0
  H  H23  1  0.50257000  0.68617000  0.03876000  1.0
  H  H24  1  0.76369000  0.53105000  0.05432000  1.0
  H  H25  1  0.23632000  0.46895000  0.94568000  1.0
  H  H26  1  0.89354000  0.35310000  0.43396000  1.0
  H  H27  1  0.10646000  0.64690000  0.56604000  1.0
  C  C28  1  0.62840000  0.69167000  0.35862000  1.0
  C  C29  1  0.37160000  0.30833000  0.64138000  1.0
  C  C30  1  0.82554000  0.79271000  0.62912000  1.0
  C  C31  1  0.17446000  0.20729000  0.37088000  1.0
  C  C32  1  0.97080000  0.88384000  0.73312000  1.0
  C  C33  1  0.02920000  0.11615000  0.26688000  1.0
  C  C34  1  0.01139000  0.84617000  0.86447000  1.0
  C  C35  1  0.98861000  0.15383000  0.13553000  1.0
  C  C36  1  0.90085000  0.71959000  0.89007000  1.0
  C  C37  1  0.09915000  0.28041000  0.10993000  1.0
  C  C38  1  0.75469000  0.63296000  0.78613000  1.0
  C  C39  1  0.24531000  0.36704000  0.21387000  1.0
  C  C40  1  0.71519000  0.66775000  0.65409000  1.0
  C  C41  1  0.28481000  0.33225000  0.34591000  1.0
  C  C42  1  0.28217000  0.05340000  0.97814000  1.0
  C  C43  1  0.71782000  0.94660000  0.02186000  1.0
  C  C44  1  0.55804000  0.21886000  0.14811000  1.0
  C  C45  1  0.44196000  0.78114000  0.85189000  1.0
  C  C46  1  0.58943000  0.32739000  0.06487000  1.0
  C  C47  1  0.41057000  0.67261000  0.93513000  1.0
  C  C48  1  0.73746000  0.44692000  0.11795000  1.0
  C  C49  1  0.26253000  0.55308000  0.88205000  1.0
  C  C50  1  0.85150000  0.45994000  0.25260000  1.0
  C  C51  1  0.14851000  0.54006000  0.74740000  1.0
  C  C52  1  0.81034000  0.34953000  0.32834000  1.0
  C  C53  1  0.18966000  0.65047000  0.67166000  1.0
  S  S54  1  0.80516000  0.83956000  0.46519000  1.0
  S  S55  1  0.19484000  0.16044000  0.53481000  1.0
  N  N56  1  0.16049000  0.92394000  0.97442000  1.0
  N  N57  1  0.83951000  0.07606000  0.02558000  1.0
  N  N58  1  0.41608000  0.09458000  0.10571000  1.0
  N  N59  1  0.58392000  0.90542000  0.89429000  1.0
  N  N60  1  0.66872000  0.23077000  0.27857000  1.0
  N  N61  1  0.33128000  0.76923000  0.72143000  1.0
  N  N62  1  0.75205000  0.19200000  0.69964000  1.0
  N  N63  1  0.24795000  0.80800000  0.30036000  1.0
  O  O64  1  0.27436000  0.12429000  0.88067000  1.0
  O  O65  1  0.72564000  0.87571000  0.11933000  1.0
  O  O66  1  0.77684000  0.25512000  0.60121000  1.0
  O  O67  1  0.22316000  0.74488000  0.39879000  1.0
  O  O68  1  0.67214000  0.05771000  0.68276000  1.0
  O  O69  1  0.32786000  0.94229000  0.31724000  1.0
  O  O70  1  0.80391000  0.26070000  0.81305000  1.0
  O  O71  1  0.19609000  0.73930000  0.18695000  1.0
