# generated using pymatgen
data_MnH11(C5O2)3
_symmetry_space_group_name_H-M   'P 1'
_cell_length_a   8.47480000
_cell_length_b   13.26020000
_cell_length_c   29.56370000
_cell_angle_alpha   90.00020000
_cell_angle_beta   90.00070000
_cell_angle_gamma   95.48610000
_symmetry_Int_Tables_number   1
_chemical_formula_structural   MnH11(C5O2)3
_chemical_formula_sum   'Mn8 H88 C120 O48'
_cell_volume   3307.07792848
_cell_formula_units_Z   8
loop_
 _symmetry_equiv_pos_site_id
 _symmetry_equiv_pos_as_xyz
  1  'x, y, z'
loop_
 _atom_site_type_symbol
 _atom_site_label
 _atom_site_symmetry_multiplicity
 _atom_site_fract_x
 _atom_site_fract_y
 _atom_site_fract_z
 _atom_site_occupancy
  Mn  Mn0  1  0.99003000  0.95116000  0.87669000  1.0
  Mn  Mn1  1  0.00996000  0.54883000  0.37670000  1.0
  Mn  Mn2  1  0.00996000  0.04884000  0.12331000  1.0
  Mn  Mn3  1  0.99004000  0.45117000  0.62331000  1.0
  Mn  Mn4  1  0.58252000  0.93264000  0.84090000  1.0
  Mn  Mn5  1  0.41746000  0.56737000  0.34091000  1.0
  Mn  Mn6  1  0.41748000  0.06736000  0.15910000  1.0
  Mn  Mn7  1  0.58252000  0.43264000  0.65909000  1.0
  H  H8  1  0.05548000  0.70701000  0.87122000  1.0
  H  H9  1  0.94449000  0.79297000  0.37122000  1.0
  H  H10  1  0.94456000  0.29298000  0.12878000  1.0
  H  H11  1  0.05549000  0.20703000  0.62879000  1.0
  H  H12  1  0.12535000  0.49120000  0.76487000  1.0
  H  H13  1  0.87463000  0.00881000  0.26487000  1.0
  H  H14  1  0.87465000  0.50881000  0.23513000  1.0
  H  H15  1  0.12534000  0.99118000  0.73513000  1.0
  H  H16  1  0.71881000  0.66413000  0.76294000  1.0
  H  H17  1  0.28119000  0.83590000  0.26295000  1.0
  H  H18  1  0.28120000  0.33589000  0.23707000  1.0
  H  H19  1  0.71881000  0.16412000  0.73706000  1.0
  H  H20  1  0.18099000  0.59053000  0.90786000  1.0
  H  H21  1  0.81897000  0.90944000  0.40786000  1.0
  H  H22  1  0.81906000  0.40948000  0.09213000  1.0
  H  H23  1  0.18100000  0.09054000  0.59214000  1.0
  H  H24  1  0.31867000  0.68160000  0.87984000  1.0
  H  H25  1  0.68128000  0.81838000  0.37983000  1.0
  H  H26  1  0.68140000  0.31840000  0.12014000  1.0
  H  H27  1  0.31869000  0.18161000  0.62017000  1.0
  H  H28  1  0.27545000  0.45863000  0.95117000  1.0
  H  H29  1  0.72454000  0.04136000  0.45116000  1.0
  H  H30  1  0.72457000  0.54140000  0.04883000  1.0
  H  H31  1  0.27545000  0.95863000  0.54883000  1.0
  H  H32  1  0.49559000  0.36566000  0.97842000  1.0
  H  H33  1  0.50442000  0.13434000  0.47841000  1.0
  H  H34  1  0.50443000  0.63436000  0.02158000  1.0
  H  H35  1  0.49558000  0.86568000  0.52158000  1.0
  H  H36  1  0.81139000  0.53122000  0.88432000  1.0
  H  H37  1  0.18859000  0.96878000  0.38432000  1.0
  H  H38  1  0.18863000  0.46874000  0.11566000  1.0
  H  H39  1  0.81140000  0.03123000  0.61567000  1.0
  H  H40  1  0.58821000  0.62094000  0.85624000  1.0
  H  H41  1  0.41174000  0.87905000  0.35624000  1.0
  H  H42  1  0.41182000  0.37902000  0.14374000  1.0
  H  H43  1  0.58824000  0.12095000  0.64376000  1.0
  H  H44  1  0.92446000  0.27432000  0.04680000  1.0
  H  H45  1  0.07555000  0.22571000  0.54680000  1.0
  H  H46  1  0.07554000  0.72568000  0.95319000  1.0
  H  H47  1  0.92445000  0.77429000  0.45320000  1.0
  H  H48  1  0.70665000  0.36756000  0.01775000  1.0
  H  H49  1  0.29335000  0.13245000  0.51776000  1.0
  H  H50  1  0.29335000  0.63244000  0.98224000  1.0
  H  H51  1  0.70665000  0.86755000  0.48224000  1.0
  H  H52  1  0.93010000  0.38791000  0.88683000  1.0
  H  H53  1  0.06990000  0.11210000  0.38683000  1.0
  H  H54  1  0.06991000  0.61209000  0.11317000  1.0
  H  H55  1  0.93010000  0.88792000  0.61317000  1.0
  H  H56  1  0.15199000  0.30042000  0.91691000  1.0
  H  H57  1  0.84801000  0.19959000  0.41690000  1.0
  H  H58  1  0.84802000  0.69958000  0.08310000  1.0
  H  H59  1  0.15199000  0.80042000  0.58310000  1.0
  H  H60  1  0.40340000  0.18357000  0.05721000  1.0
  H  H61  1  0.59659000  0.31643000  0.55721000  1.0
  H  H62  1  0.59661000  0.81644000  0.94279000  1.0
  H  H63  1  0.40339000  0.68356000  0.44280000  1.0
  H  H64  1  0.83180000  0.06267000  0.01405000  1.0
  H  H65  1  0.16819000  0.43734000  0.51405000  1.0
  H  H66  1  0.16821000  0.93734000  0.98595000  1.0
  H  H67  1  0.83180000  0.56266000  0.48595000  1.0
  H  H68  1  0.48141000  0.12435000  0.91523000  1.0
  H  H69  1  0.51856000  0.37566000  0.41522000  1.0
  H  H70  1  0.51860000  0.87564000  0.08478000  1.0
  H  H71  1  0.48143000  0.62435000  0.58478000  1.0
  H  H72  1  0.13935000  0.16772000  0.02751000  1.0
  H  H73  1  0.86063000  0.33228000  0.52751000  1.0
  H  H74  1  0.86066000  0.83227000  0.97249000  1.0
  H  H75  1  0.13936000  0.66771000  0.47249000  1.0
  H  H76  1  0.25973000  0.28520000  0.02548000  1.0
  H  H77  1  0.74025000  0.21480000  0.52547000  1.0
  H  H78  1  0.74026000  0.71480000  0.97452000  1.0
  H  H79  1  0.25973000  0.78519000  0.47453000  1.0
  H  H80  1  0.19815000  0.12856000  0.90911000  1.0
  H  H81  1  0.80183000  0.37144000  0.40911000  1.0
  H  H82  1  0.80185000  0.87144000  0.09090000  1.0
  H  H83  1  0.19817000  0.62856000  0.59089000  1.0
  H  H84  1  0.11402000  0.15809000  0.86479000  1.0
  H  H85  1  0.88595000  0.34190000  0.36479000  1.0
  H  H86  1  0.88598000  0.84191000  0.13521000  1.0
  H  H87  1  0.11404000  0.65809000  0.63521000  1.0
  H  H88  1  0.43990000  0.07813000  0.79552000  1.0
  H  H89  1  0.56007000  0.42187000  0.29553000  1.0
  H  H90  1  0.56010000  0.92187000  0.20448000  1.0
  H  H91  1  0.43991000  0.57814000  0.70448000  1.0
  H  H92  1  0.31993000  0.05576000  0.83607000  1.0
  H  H93  1  0.68005000  0.44424000  0.33608000  1.0
  H  H94  1  0.68007000  0.94425000  0.16393000  1.0
  H  H95  1  0.31993000  0.55576000  0.66392000  1.0
  C  C96  1  0.88051000  0.69374000  0.81856000  1.0
  C  C97  1  0.11947000  0.80627000  0.31856000  1.0
  C  C98  1  0.11950000  0.30626000  0.18144000  1.0
  C  C99  1  0.88052000  0.19374000  0.68144000  1.0
  C  C100  1  0.01820000  0.66736000  0.84028000  1.0
  C  C101  1  0.98176000  0.83264000  0.34028000  1.0
  C  C102  1  0.98182000  0.33265000  0.15972000  1.0
  C  C103  1  0.01822000  0.16736000  0.65973000  1.0
  C  C104  1  0.10364000  0.59221000  0.82152000  1.0
  C  C105  1  0.89633000  0.90779000  0.32152000  1.0
  C  C106  1  0.89638000  0.40779000  0.17848000  1.0
  C  C107  1  0.10364000  0.09221000  0.67848000  1.0
  C  C108  1  0.05557000  0.54716000  0.78015000  1.0
  C  C109  1  0.94442000  0.95284000  0.28016000  1.0
  C  C110  1  0.94443000  0.45285000  0.21984000  1.0
  C  C111  1  0.05557000  0.04715000  0.71985000  1.0
  C  C112  1  0.91697000  0.57263000  0.75941000  1.0
  C  C113  1  0.08303000  0.92738000  0.25942000  1.0
  C  C114  1  0.08302000  0.42737000  0.24059000  1.0
  C  C115  1  0.91697000  0.07263000  0.74059000  1.0
  C  C116  1  0.82762000  0.64487000  0.77885000  1.0
  C  C117  1  0.17237000  0.85514000  0.27886000  1.0
  C  C118  1  0.17239000  0.35515000  0.22115000  1.0
  C  C119  1  0.82762000  0.14486000  0.72115000  1.0
  C  C120  1  0.78946000  0.77431000  0.83805000  1.0
  C  C121  1  0.21052000  0.72570000  0.33805000  1.0
  C  C122  1  0.21057000  0.22570000  0.16196000  1.0
  C  C123  1  0.78946000  0.27431000  0.66195000  1.0
  C  C124  1  0.86051000  0.52178000  0.71645000  1.0
  C  C125  1  0.13949000  0.97823000  0.21646000  1.0
  C  C126  1  0.13948000  0.47822000  0.28355000  1.0
  C  C127  1  0.86051000  0.02176000  0.78355000  1.0
  C  C128  1  0.28233000  0.60022000  0.88437000  1.0
  C  C129  1  0.71762000  0.89976000  0.38437000  1.0
  C  C130  1  0.71771000  0.39978000  0.11562000  1.0
  C  C131  1  0.28235000  0.10022000  0.61563000  1.0
  C  C132  1  0.41684000  0.54564000  0.90163000  1.0
  C  C133  1  0.58312000  0.95435000  0.40163000  1.0
  C  C134  1  0.58318000  0.45435000  0.09836000  1.0
  C  C135  1  0.41685000  0.04564000  0.59837000  1.0
  C  C136  1  0.39298000  0.47408000  0.93630000  1.0
  C  C137  1  0.60701000  0.02593000  0.43629000  1.0
  C  C138  1  0.60705000  0.52593000  0.06370000  1.0
  C  C139  1  0.39298000  0.97408000  0.56370000  1.0
  C  C140  1  0.51743000  0.42221000  0.95188000  1.0
  C  C141  1  0.48256000  0.07778000  0.45188000  1.0
  C  C142  1  0.48260000  0.57779000  0.04812000  1.0
  C  C143  1  0.51743000  0.92222000  0.54812000  1.0
  C  C144  1  0.67002000  0.44048000  0.93328000  1.0
  C  C145  1  0.32997000  0.05952000  0.43329000  1.0
  C  C146  1  0.32999000  0.55951000  0.06671000  1.0
  C  C147  1  0.67003000  0.94049000  0.56671000  1.0
  C  C148  1  0.69356000  0.51327000  0.89868000  1.0
  C  C149  1  0.30642000  0.98673000  0.39868000  1.0
  C  C150  1  0.30646000  0.48670000  0.10130000  1.0
  C  C151  1  0.69357000  0.01329000  0.60131000  1.0
  C  C152  1  0.56884000  0.56491000  0.88310000  1.0
  C  C153  1  0.43112000  0.93509000  0.38310000  1.0
  C  C154  1  0.43118000  0.43507000  0.11688000  1.0
  C  C155  1  0.56885000  0.06492000  0.61689000  1.0
  C  C156  1  0.92634000  0.30069000  0.01183000  1.0
  C  C157  1  0.07365000  0.19933000  0.51183000  1.0
  C  C158  1  0.07366000  0.69930000  0.98816000  1.0
  C  C159  1  0.92635000  0.80068000  0.48817000  1.0
  C  C160  1  0.80358000  0.35245000  0.99533000  1.0
  C  C161  1  0.19642000  0.14756000  0.49533000  1.0
  C  C162  1  0.19643000  0.64754000  0.00466000  1.0
  C  C163  1  0.80357000  0.85244000  0.50466000  1.0
  C  C164  1  0.80173000  0.38555000  0.95019000  1.0
  C  C165  1  0.19826000  0.11446000  0.45019000  1.0
  C  C166  1  0.19828000  0.61444000  0.04980000  1.0
  C  C167  1  0.80173000  0.88555000  0.54981000  1.0
  C  C168  1  0.92848000  0.36439000  0.92221000  1.0
  C  C169  1  0.07152000  0.13562000  0.42221000  1.0
  C  C170  1  0.07152000  0.63560000  0.07779000  1.0
  C  C171  1  0.92849000  0.86440000  0.57779000  1.0
  C  C172  1  0.05254000  0.31310000  0.93889000  1.0
  C  C173  1  0.94746000  0.18691000  0.43889000  1.0
  C  C174  1  0.94747000  0.68690000  0.06111000  1.0
  C  C175  1  0.05254000  0.81309000  0.56111000  1.0
  C  C176  1  0.05288000  0.28063000  0.98391000  1.0
  C  C177  1  0.94712000  0.21939000  0.48391000  1.0
  C  C178  1  0.94713000  0.71937000  0.01609000  1.0
  C  C179  1  0.05287000  0.78062000  0.51609000  1.0
  C  C180  1  0.42551000  0.15973000  0.98443000  1.0
  C  C181  1  0.57448000  0.34027000  0.48443000  1.0
  C  C182  1  0.57451000  0.84028000  0.01557000  1.0
  C  C183  1  0.42550000  0.65972000  0.51558000  1.0
  C  C184  1  0.47596000  0.15989000  0.02949000  1.0
  C  C185  1  0.52403000  0.34012000  0.52949000  1.0
  C  C186  1  0.52406000  0.84012000  0.97051000  1.0
  C  C187  1  0.47596000  0.65988000  0.47052000  1.0
  C  C188  1  0.62376000  0.12576000  0.03978000  1.0
  C  C189  1  0.37623000  0.37425000  0.53978000  1.0
  C  C190  1  0.37624000  0.87425000  0.96022000  1.0
  C  C191  1  0.62376000  0.62574000  0.46023000  1.0
  C  C192  1  0.71862000  0.09054000  0.00582000  1.0
  C  C193  1  0.28136000  0.40947000  0.50582000  1.0
  C  C194  1  0.28139000  0.90947000  0.99418000  1.0
  C  C195  1  0.71863000  0.59053000  0.49419000  1.0
  C  C196  1  0.66537000  0.08917000  0.96111000  1.0
  C  C197  1  0.33461000  0.41084000  0.46112000  1.0
  C  C198  1  0.33463000  0.91083000  0.03889000  1.0
  C  C199  1  0.66538000  0.58916000  0.53889000  1.0
  C  C200  1  0.52069000  0.12520000  0.95031000  1.0
  C  C201  1  0.47928000  0.37481000  0.45030000  1.0
  C  C202  1  0.47932000  0.87480000  0.04969000  1.0
  C  C203  1  0.52070000  0.62520000  0.54970000  1.0
  C  C204  1  0.67940000  0.12503000  0.08771000  1.0
  C  C205  1  0.32060000  0.37497000  0.58771000  1.0
  C  C206  1  0.32060000  0.87497000  0.91229000  1.0
  C  C207  1  0.67938000  0.62502000  0.41230000  1.0
  C  C208  1  0.75770000  0.04463000  0.92468000  1.0
  C  C209  1  0.24226000  0.45538000  0.42469000  1.0
  C  C210  1  0.24232000  0.95536000  0.07533000  1.0
  C  C211  1  0.75772000  0.54462000  0.57532000  1.0
  C  C212  1  0.18548000  0.22966000  0.00484000  1.0
  C  C213  1  0.81450000  0.27035000  0.50483000  1.0
  C  C214  1  0.81453000  0.77034000  0.99516000  1.0
  C  C215  1  0.18549000  0.72965000  0.49517000  1.0
  O  O216  1  0.84073000  0.81926000  0.87455000  1.0
  O  O217  1  0.15924000  0.68073000  0.37455000  1.0
  O  O218  1  0.15929000  0.18072000  0.12546000  1.0
  O  O219  1  0.84073000  0.31926000  0.62545000  1.0
  O  O220  1  0.66444000  0.79613000  0.81787000  1.0
  O  O221  1  0.33554000  0.70387000  0.31787000  1.0
  O  O222  1  0.33559000  0.20388000  0.18214000  1.0
  O  O223  1  0.66445000  0.29614000  0.68213000  1.0
  O  O224  1  0.71153000  0.51022000  0.71043000  1.0
  O  O225  1  0.28847000  0.98979000  0.21044000  1.0
  O  O226  1  0.28847000  0.48979000  0.28957000  1.0
  O  O227  1  0.71152000  0.01020000  0.78956000  1.0
  O  O228  1  0.96591000  0.49400000  0.68926000  1.0
  O  O229  1  0.03409000  0.00601000  0.18927000  1.0
  O  O230  1  0.03408000  0.50600000  0.31074000  1.0
  O  O231  1  0.96589000  0.99398000  0.81074000  1.0
  O  O232  1  0.23393000  0.55716000  0.84092000  1.0
  O  O233  1  0.76604000  0.94283000  0.34092000  1.0
  O  O234  1  0.76609000  0.44283000  0.15907000  1.0
  O  O235  1  0.23394000  0.05717000  0.65908000  1.0
  O  O236  1  0.28265000  0.19026000  0.97035000  1.0
  O  O237  1  0.71734000  0.30975000  0.47034000  1.0
  O  O238  1  0.71737000  0.80974000  0.02965000  1.0
  O  O239  1  0.28266000  0.69026000  0.52966000  1.0
  O  O240  1  0.58337000  0.14419000  0.11903000  1.0
  O  O241  1  0.41664000  0.35581000  0.61903000  1.0
  O  O242  1  0.41664000  0.85581000  0.88097000  1.0
  O  O243  1  0.58335000  0.64418000  0.38097000  1.0
  O  O244  1  0.82287000  0.10786000  0.09451000  1.0
  O  O245  1  0.17714000  0.39215000  0.59451000  1.0
  O  O246  1  0.17715000  0.89216000  0.90549000  1.0
  O  O247  1  0.82284000  0.60783000  0.40549000  1.0
  O  O248  1  0.89385000  0.01586000  0.93392000  1.0
  O  O249  1  0.10610000  0.48414000  0.43393000  1.0
  O  O250  1  0.10615000  0.98411000  0.06610000  1.0
  O  O251  1  0.89390000  0.51587000  0.56608000  1.0
  O  O252  1  0.69625000  0.03613000  0.88526000  1.0
  O  O253  1  0.30366000  0.46389000  0.38526000  1.0
  O  O254  1  0.30376000  0.96386000  0.11475000  1.0
  O  O255  1  0.69632000  0.53612000  0.61475000  1.0
  O  O256  1  0.17525000  0.10661000  0.87772000  1.0
  O  O257  1  0.82472000  0.39338000  0.37772000  1.0
  O  O258  1  0.82474000  0.89339000  0.12228000  1.0
  O  O259  1  0.17528000  0.60661000  0.62228000  1.0
  O  O260  1  0.39450000  0.02522000  0.81577000  1.0
  O  O261  1  0.60547000  0.47478000  0.31578000  1.0
  O  O262  1  0.60550000  0.97479000  0.18424000  1.0
  O  O263  1  0.39451000  0.52522000  0.68423000  1.0
