# generated using pymatgen
data_ZnH15C20N2ClO6
_symmetry_space_group_name_H-M   'P 1'
_cell_length_a   7.95022000
_cell_length_b   8.91337838
_cell_length_c   15.47600000
_cell_angle_alpha   97.90499170
_cell_angle_beta   98.82790000
_cell_angle_gamma   112.01857424
_symmetry_Int_Tables_number   1
_chemical_formula_structural   ZnH15C20N2ClO6
_chemical_formula_sum   'Zn2 H30 C40 N4 Cl2 O12'
_cell_volume   981.60696311
_cell_formula_units_Z   2
loop_
 _symmetry_equiv_pos_site_id
 _symmetry_equiv_pos_as_xyz
  1  'x, y, z'
loop_
 _atom_site_type_symbol
 _atom_site_label
 _atom_site_symmetry_multiplicity
 _atom_site_fract_x
 _atom_site_fract_y
 _atom_site_fract_z
 _atom_site_occupancy
  Zn  Zn0  1  0.63354000  0.71368000  0.30632000  1.0
  Zn  Zn1  1  0.36645000  0.28633000  0.69368000  1.0
  H  H2  1  0.67745000  0.19566000  0.87144000  1.0
  H  H3  1  0.32254000  0.80433000  0.12856000  1.0
  H  H4  1  0.99742000  0.87661000  0.43503000  1.0
  H  H5  1  0.00260000  0.12339000  0.56497000  1.0
  H  H6  1  0.72614000  0.88895000  0.08094000  1.0
  H  H7  1  0.27386000  0.11105000  0.91906000  1.0
  H  H8  1  0.23581000  0.21223000  0.26792000  1.0
  H  H9  1  0.76419000  0.78777000  0.73209000  1.0
  H  H10  1  0.07248000  0.35291000  0.02501000  1.0
  H  H11  1  0.92754000  0.64709000  0.97499000  1.0
  H  H12  1  0.27272000  0.81512000  0.68766000  1.0
  H  H13  1  0.72728000  0.18488000  0.31234000  1.0
  H  H14  1  0.15470000  0.84527000  0.57772000  1.0
  H  H15  1  0.84531000  0.15472000  0.42228000  1.0
  H  H16  1  0.41259000  0.77561000  0.83110000  1.0
  H  H17  1  0.58740000  0.22439000  0.16889000  1.0
  H  H18  1  0.67948000  0.37849000  0.54752000  1.0
  H  H19  1  0.32051000  0.62151000  0.45247000  1.0
  H  H20  1  0.80060000  0.34882000  0.66760000  1.0
  H  H21  1  0.19940000  0.65117000  0.33239000  1.0
  H  H22  1  0.54370000  0.43425000  0.40636000  1.0
  H  H23  1  0.45629000  0.56576000  0.59365000  1.0
  H  H24  1  0.96216000  0.33281000  0.81291000  1.0
  H  H25  1  0.03783000  0.66718000  0.18709000  1.0
  H  H26  1  0.28630000  0.41327000  0.90301000  1.0
  H  H27  1  0.71370000  0.58673000  0.09699000  1.0
  H  H28  1  0.20241000  0.55033000  0.96233000  1.0
  H  H29  1  0.79757000  0.44967000  0.03766000  1.0
  H  H30  1  0.42213000  0.63336000  0.93334000  1.0
  H  H31  1  0.57786000  0.36664000  0.06666000  1.0
  C  C32  1  0.88759000  0.11383000  0.04165000  1.0
  C  C33  1  0.11242000  0.88617000  0.95836000  1.0
  C  C34  1  0.02083000  0.58559000  0.66257000  1.0
  C  C35  1  0.97917000  0.41440000  0.33743000  1.0
  C  C36  1  0.17513000  0.29769000  0.14763000  1.0
  C  C37  1  0.82488000  0.70231000  0.85237000  1.0
  C  C38  1  0.93226000  0.77014000  0.46421000  1.0
  C  C39  1  0.06774000  0.22986000  0.53579000  1.0
  C  C40  1  0.85386000  0.00140000  0.09851000  1.0
  C  C41  1  0.14615000  0.99861000  0.90150000  1.0
  C  C42  1  0.97938000  0.03796000  0.18009000  1.0
  C  C43  1  0.02062000  0.96203000  0.81991000  1.0
  C  C44  1  0.14089000  0.18443000  0.20357000  1.0
  C  C45  1  0.85911000  0.81557000  0.79643000  1.0
  C  C46  1  0.04756000  0.26196000  0.06686000  1.0
  C  C47  1  0.95245000  0.73804000  0.93314000  1.0
  C  C48  1  0.93071000  0.60842000  0.57744000  1.0
  C  C49  1  0.06929000  0.39157000  0.42255000  1.0
  C  C50  1  0.33609000  0.46454000  0.17786000  1.0
  C  C51  1  0.66392000  0.53547000  0.82214000  1.0
  C  C52  1  0.74509000  0.07821000  0.95864000  1.0
  C  C53  1  0.25494000  0.92181000  0.04137000  1.0
  C  C54  1  0.19613000  0.70418000  0.71069000  1.0
  C  C55  1  0.80386000  0.29582000  0.28930000  1.0
  C  C56  1  0.01889000  0.74899000  0.54363000  1.0
  C  C57  1  0.98111000  0.25100000  0.45637000  1.0
  C  C58  1  0.27865000  0.68490000  0.79115000  1.0
  C  C59  1  0.72134000  0.31510000  0.20885000  1.0
  C  C60  1  0.75613000  0.49224000  0.52676000  1.0
  C  C61  1  0.24386000  0.50776000  0.47324000  1.0
  C  C62  1  0.93229000  0.93438000  0.24890000  1.0
  C  C63  1  0.06772000  0.06562000  0.75110000  1.0
  C  C64  1  0.93640000  0.44775000  0.69949000  1.0
  C  C65  1  0.06359000  0.55224000  0.30050000  1.0
  C  C66  1  0.67817000  0.52196000  0.44760000  1.0
  C  C67  1  0.32182000  0.47804000  0.55240000  1.0
  C  C68  1  0.02370000  0.43466000  0.78068000  1.0
  C  C69  1  0.97629000  0.56533000  0.21932000  1.0
  C  C70  1  0.28147000  0.53564000  0.91208000  1.0
  C  C71  1  0.71851000  0.46436000  0.08792000  1.0
  N  N72  1  0.76343000  0.65939000  0.41701000  1.0
  N  N73  1  0.23657000  0.34061000  0.58300000  1.0
  N  N74  1  0.19200000  0.55242000  0.82548000  1.0
  N  N75  1  0.80799000  0.44758000  0.17451000  1.0
  Cl  Cl76  1  0.51282000  0.89455000  0.35092000  1.0
  Cl  Cl77  1  0.48717000  0.10546000  0.64908000  1.0
  O  O78  1  0.44753000  0.48458000  0.25339000  1.0
  O  O79  1  0.55248000  0.51543000  0.74662000  1.0
  O  O80  1  0.78566000  0.20638000  0.91648000  1.0
  O  O81  1  0.21434000  0.79364000  0.08352000  1.0
  O  O82  1  0.60383000  0.94972000  0.93228000  1.0
  O  O83  1  0.39616000  0.05025000  0.06771000  1.0
  O  O84  1  0.35065000  0.57258000  0.13241000  1.0
  O  O85  1  0.64934000  0.42743000  0.86760000  1.0
  O  O86  1  0.02671000  0.98929000  0.32723000  1.0
  O  O87  1  0.97331000  0.01071000  0.67277000  1.0
  O  O88  1  0.78650000  0.79495000  0.22039000  1.0
  O  O89  1  0.21352000  0.20505000  0.77961000  1.0
