# generated using pymatgen
data_Zn2P2H6(CO2)3
_symmetry_space_group_name_H-M   'P 1'
_cell_length_a   5.31986000
_cell_length_b   8.36067000
_cell_length_c   18.89370000
_cell_angle_alpha   89.99940000
_cell_angle_beta   89.99740000
_cell_angle_gamma   89.99970000
_symmetry_Int_Tables_number   1
_chemical_formula_structural   Zn2P2H6(CO2)3
_chemical_formula_sum   'Zn8 P8 H24 C12 O24'
_cell_volume   840.34631506
_cell_formula_units_Z   4
loop_
 _symmetry_equiv_pos_site_id
 _symmetry_equiv_pos_as_xyz
  1  'x, y, z'
loop_
 _atom_site_type_symbol
 _atom_site_label
 _atom_site_symmetry_multiplicity
 _atom_site_fract_x
 _atom_site_fract_y
 _atom_site_fract_z
 _atom_site_occupancy
  Zn  Zn0  1  0.56382000  0.25621000  0.05274000  1.0
  Zn  Zn1  1  0.06381000  0.24382000  0.94726000  1.0
  Zn  Zn2  1  0.93621000  0.75619000  0.44726000  1.0
  Zn  Zn3  1  0.43614000  0.74376000  0.55274000  1.0
  Zn  Zn4  1  0.43616000  0.74379000  0.94726000  1.0
  Zn  Zn5  1  0.93614000  0.75619000  0.05274000  1.0
  Zn  Zn6  1  0.06384000  0.24382000  0.55274000  1.0
  Zn  Zn7  1  0.56387000  0.25620000  0.44726000  1.0
  P  P8  1  0.06316000  0.09904000  0.10423000  1.0
  P  P9  1  0.56317000  0.40097000  0.89578000  1.0
  P  P10  1  0.43681000  0.59902000  0.39578000  1.0
  P  P11  1  0.93684000  0.90093000  0.60424000  1.0
  P  P12  1  0.93687000  0.90091000  0.89576000  1.0
  P  P13  1  0.43675000  0.59904000  0.10422000  1.0
  P  P14  1  0.56319000  0.40095000  0.60423000  1.0
  P  P15  1  0.06324000  0.09907000  0.39577000  1.0
  H  H16  1  0.08206000  0.33690000  0.17396000  1.0
  H  H17  1  0.58204000  0.16310000  0.82605000  1.0
  H  H18  1  0.41788000  0.83693000  0.32604000  1.0
  H  H19  1  0.91797000  0.66310000  0.67396000  1.0
  H  H20  1  0.91796000  0.66312000  0.82606000  1.0
  H  H21  1  0.41790000  0.83691000  0.17396000  1.0
  H  H22  1  0.58208000  0.16306000  0.67395000  1.0
  H  H23  1  0.08214000  0.33692000  0.32604000  1.0
  H  H24  1  0.80410000  0.22712000  0.18812000  1.0
  H  H25  1  0.30408000  0.27287000  0.81189000  1.0
  H  H26  1  0.69586000  0.72716000  0.31188000  1.0
  H  H27  1  0.19587000  0.77287000  0.68810000  1.0
  H  H28  1  0.19590000  0.77288000  0.81189000  1.0
  H  H29  1  0.69590000  0.72712000  0.18810000  1.0
  H  H30  1  0.30412000  0.27288000  0.68811000  1.0
  H  H31  1  0.80416000  0.22714000  0.31189000  1.0
  H  H32  1  0.32425000  0.14680000  0.24999000  1.0
  H  H33  1  0.82422000  0.35317000  0.75000000  1.0
  H  H34  1  0.17573000  0.64680000  0.25001000  1.0
  H  H35  1  0.67581000  0.85318000  0.75001000  1.0
  H  H36  1  0.06993000  0.00991000  0.25000000  1.0
  H  H37  1  0.56992000  0.49009000  0.75000000  1.0
  H  H38  1  0.43009000  0.50991000  0.25000000  1.0
  H  H39  1  0.93010000  0.99008000  0.75000000  1.0
  C  C40  1  0.00956000  0.21557000  0.18311000  1.0
  C  C41  1  0.50959000  0.28441000  0.81689000  1.0
  C  C42  1  0.49045000  0.71556000  0.31689000  1.0
  C  C43  1  0.99048000  0.78444000  0.68312000  1.0
  C  C44  1  0.99043000  0.78442000  0.81688000  1.0
  C  C45  1  0.49038000  0.71559000  0.18310000  1.0
  C  C46  1  0.50952000  0.28444000  0.68311000  1.0
  C  C47  1  0.00959000  0.21557000  0.31689000  1.0
  C  C48  1  0.11781000  0.13794000  0.25000000  1.0
  C  C49  1  0.61778000  0.36206000  0.75000000  1.0
  C  C50  1  0.38220000  0.63793000  0.25000000  1.0
  C  C51  1  0.88225000  0.86206000  0.75000000  1.0
  O  O52  1  0.94616000  0.93478000  0.11778000  1.0
  O  O53  1  0.44617000  0.56526000  0.88222000  1.0
  O  O54  1  0.55385000  0.43478000  0.38222000  1.0
  O  O55  1  0.05371000  0.06522000  0.61777000  1.0
  O  O56  1  0.05375000  0.06522000  0.88223000  1.0
  O  O57  1  0.55374000  0.43473000  0.11778000  1.0
  O  O58  1  0.44620000  0.56523000  0.61777000  1.0
  O  O59  1  0.94629000  0.93476000  0.38222000  1.0
  O  O60  1  0.91916000  0.18895000  0.04226000  1.0
  O  O61  1  0.41916000  0.31108000  0.95775000  1.0
  O  O62  1  0.58085000  0.68896000  0.45774000  1.0
  O  O63  1  0.08078000  0.81108000  0.54225000  1.0
  O  O64  1  0.08077000  0.81108000  0.95775000  1.0
  O  O65  1  0.58084000  0.68892000  0.04226000  1.0
  O  O66  1  0.41921000  0.31105000  0.54226000  1.0
  O  O67  1  0.91921000  0.18893000  0.45774000  1.0
  O  O68  1  0.34256000  0.08743000  0.08505000  1.0
  O  O69  1  0.84258000  0.41256000  0.91493000  1.0
  O  O70  1  0.15741000  0.58744000  0.41495000  1.0
  O  O71  1  0.65749000  0.91255000  0.58507000  1.0
  O  O72  1  0.65750000  0.91258000  0.91495000  1.0
  O  O73  1  0.15733000  0.58747000  0.08506000  1.0
  O  O74  1  0.84257000  0.41254000  0.58506000  1.0
  O  O75  1  0.34263000  0.08746000  0.41493000  1.0
