# generated using pymatgen
data_ZnPH17C16NO8
_symmetry_space_group_name_H-M   'P 1'
_cell_length_a   7.74753000
_cell_length_b   11.27020000
_cell_length_c   11.53580000
_cell_angle_alpha   115.41400000
_cell_angle_beta   93.05810000
_cell_angle_gamma   100.80200000
_symmetry_Int_Tables_number   1
_chemical_formula_structural   ZnPH17C16NO8
_chemical_formula_sum   'Zn2 P2 H34 C32 N2 O16'
_cell_volume   883.45171297
_cell_formula_units_Z   2
loop_
 _symmetry_equiv_pos_site_id
 _symmetry_equiv_pos_as_xyz
  1  'x, y, z'
loop_
 _atom_site_type_symbol
 _atom_site_label
 _atom_site_symmetry_multiplicity
 _atom_site_fract_x
 _atom_site_fract_y
 _atom_site_fract_z
 _atom_site_occupancy
  Zn  Zn0  1  0.63434000  0.98729000  0.29423000  1.0
  Zn  Zn1  1  0.36566000  0.01270000  0.70577000  1.0
  P  P2  1  0.20677000  0.87014000  0.25545000  1.0
  P  P3  1  0.79324000  0.12987000  0.74455000  1.0
  H  H4  1  0.27006000  0.91794000  0.02620000  1.0
  H  H5  1  0.72996000  0.08206000  0.97380000  1.0
  H  H6  1  0.42670000  0.38429000  0.62917000  1.0
  H  H7  1  0.57328000  0.61569000  0.37083000  1.0
  H  H8  1  0.09864000  0.12429000  0.39738000  1.0
  H  H9  1  0.90136000  0.87572000  0.60261000  1.0
  H  H10  1  0.51302000  0.16691000  0.54494000  1.0
  H  H11  1  0.48696000  0.83307000  0.45506000  1.0
  H  H12  1  0.41558000  0.72058000  0.09796000  1.0
  H  H13  1  0.58441000  0.27941000  0.90203000  1.0
  H  H14  1  0.70580000  0.21583000  0.23620000  1.0
  H  H15  1  0.29421000  0.78417000  0.76382000  1.0
  H  H16  1  0.63763000  0.44079000  0.31089000  1.0
  H  H17  1  0.36241000  0.55922000  0.68914000  1.0
  H  H18  1  0.16333000  0.30885000  0.13886000  1.0
  H  H19  1  0.83669000  0.69116000  0.86113000  1.0
  H  H20  1  0.89527000  0.90766000  0.37151000  1.0
  H  H21  1  0.10473000  0.09234000  0.62849000  1.0
  H  H22  1  0.83565000  0.02252000  0.49618000  1.0
  H  H23  1  0.16435000  0.97748000  0.50381000  1.0
  H  H24  1  0.34735000  0.54732000  0.87536000  1.0
  H  H25  1  0.65262000  0.45264000  0.12464000  1.0
  H  H26  1  0.37599000  0.48702000  0.07127000  1.0
  H  H27  1  0.62397000  0.51298000  0.92875000  1.0
  H  H28  1  0.11532000  0.51508000  0.88006000  1.0
  H  H29  1  0.88466000  0.48491000  0.11995000  1.0
  H  H30  1  0.22822000  0.67275000  0.88911000  1.0
  H  H31  1  0.77176000  0.32722000  0.11088000  1.0
  H  H32  1  0.01999000  0.52161000  0.41253000  1.0
  H  H33  1  0.98001000  0.47839000  0.58746000  1.0
  H  H34  1  0.29683000  0.58723000  0.21642000  1.0
  H  H35  1  0.70314000  0.41280000  0.78360000  1.0
  H  H36  1  0.14592000  0.47033000  0.07254000  1.0
  H  H37  1  0.85405000  0.52968000  0.92749000  1.0
  C  C38  1  0.18268000  0.00540000  0.21421000  1.0
  C  C39  1  0.81733000  0.99461000  0.78579000  1.0
  C  C40  1  0.22832000  0.00410000  0.09770000  1.0
  C  C41  1  0.77170000  0.99591000  0.90230000  1.0
  C  C42  1  0.22198000  0.11356000  0.07117000  1.0
  C  C43  1  0.77804000  0.88645000  0.92883000  1.0
  C  C44  1  0.16852000  0.22501000  0.16123000  1.0
  C  C45  1  0.83150000  0.77500000  0.83876000  1.0
  C  C46  1  0.12427000  0.22830000  0.27851000  1.0
  C  C47  1  0.87575000  0.77171000  0.72148000  1.0
  C  C48  1  0.13195000  0.11869000  0.30487000  1.0
  C  C49  1  0.86807000  0.88132000  0.69512000  1.0
  C  C50  1  0.28280000  0.65233000  0.06498000  1.0
  C  C51  1  0.71719000  0.34767000  0.93503000  1.0
  C  C52  1  0.27461000  0.54371000  0.11018000  1.0
  C  C53  1  0.72537000  0.45630000  0.88984000  1.0
  C  C54  1  0.23932000  0.59371000  0.91863000  1.0
  C  C55  1  0.76066000  0.40627000  0.08137000  1.0
  C  C56  1  0.27307000  0.11414000  0.94748000  1.0
  C  C57  1  0.72696000  0.88586000  0.05252000  1.0
  C  C58  1  0.07206000  0.34763000  0.37729000  1.0
  C  C59  1  0.92795000  0.65237000  0.62271000  1.0
  C  C60  1  0.53723000  0.23056000  0.49558000  1.0
  C  C61  1  0.46277000  0.76942000  0.50442000  1.0
  C  C62  1  0.49116000  0.35423000  0.54288000  1.0
  C  C63  1  0.50884000  0.64576000  0.45713000  1.0
  C  C64  1  0.52447000  0.43441000  0.47757000  1.0
  C  C65  1  0.47554000  0.56559000  0.52245000  1.0
  C  C66  1  0.60591000  0.38443000  0.36625000  1.0
  C  C67  1  0.39410000  0.61557000  0.63377000  1.0
  C  C68  1  0.64664000  0.25964000  0.32403000  1.0
  C  C69  1  0.35337000  0.74036000  0.67598000  1.0
  N  N70  1  0.61273000  0.18350000  0.38728000  1.0
  N  N71  1  0.38728000  0.81650000  0.61272000  1.0
  O  O72  1  0.40182000  0.89427000  0.30877000  1.0
  O  O73  1  0.59818000  0.10573000  0.69122000  1.0
  O  O74  1  0.08212000  0.86596000  0.35146000  1.0
  O  O75  1  0.91788000  0.13404000  0.64854000  1.0
  O  O76  1  0.15319000  0.73420000  0.12247000  1.0
  O  O77  1  0.84681000  0.26582000  0.87752000  1.0
  O  O78  1  0.31273000  0.00348000  0.86608000  1.0
  O  O79  1  0.68728000  0.99652000  0.13392000  1.0
  O  O80  1  0.27728000  0.21461000  0.92716000  1.0
  O  O81  1  0.72274000  0.78539000  0.07283000  1.0
  O  O82  1  0.04382000  0.35626000  0.48589000  1.0
  O  O83  1  0.95620000  0.64375000  0.51409000  1.0
  O  O84  1  0.05890000  0.44248000  0.34070000  1.0
  O  O85  1  0.94109000  0.55752000  0.65928000  1.0
  O  O86  1  0.79124000  0.94726000  0.40594000  1.0
  O  O87  1  0.20876000  0.05273000  0.59406000  1.0
