# generated using pymatgen
data_AgH5C7N4
_symmetry_space_group_name_H-M   'P 1'
_cell_length_a   6.27128000
_cell_length_b   6.30067000
_cell_length_c   19.25450000
_cell_angle_alpha   89.99660000
_cell_angle_beta   89.99740000
_cell_angle_gamma   103.67800000
_symmetry_Int_Tables_number   1
_chemical_formula_structural   AgH5C7N4
_chemical_formula_sum   'Ag4 H20 C28 N16'
_cell_volume   739.23164363
_cell_formula_units_Z   4
loop_
 _symmetry_equiv_pos_site_id
 _symmetry_equiv_pos_as_xyz
  1  'x, y, z'
loop_
 _atom_site_type_symbol
 _atom_site_label
 _atom_site_symmetry_multiplicity
 _atom_site_fract_x
 _atom_site_fract_y
 _atom_site_fract_z
 _atom_site_occupancy
  Ag  Ag0  1  0.16104000  0.27320000  0.97112000  1.0
  Ag  Ag1  1  0.33896000  0.22679000  0.47112000  1.0
  Ag  Ag2  1  0.83895000  0.72682000  0.02888000  1.0
  Ag  Ag3  1  0.66102000  0.77320000  0.52888000  1.0
  H  H4  1  0.84549000  0.87598000  0.87361000  1.0
  H  H5  1  0.65452000  0.62406000  0.37361000  1.0
  H  H6  1  0.15449000  0.12407000  0.12640000  1.0
  H  H7  1  0.34548000  0.37592000  0.62640000  1.0
  H  H8  1  0.13556000  0.12985000  0.80713000  1.0
  H  H9  1  0.36452000  0.37017000  0.30712000  1.0
  H  H10  1  0.86446000  0.87012000  0.19287000  1.0
  H  H11  1  0.63546000  0.62984000  0.69289000  1.0
  H  H12  1  0.08304000  0.49535000  0.77078000  1.0
  H  H13  1  0.41710000  0.00473000  0.27079000  1.0
  H  H14  1  0.91702000  0.50465000  0.22920000  1.0
  H  H15  1  0.58285000  0.99527000  0.72921000  1.0
  H  H16  1  0.73478000  0.60006000  0.80305000  1.0
  H  H17  1  0.76532000  0.90000000  0.30306000  1.0
  H  H18  1  0.26526000  0.39997000  0.19694000  1.0
  H  H19  1  0.23465000  0.09998000  0.69693000  1.0
  H  H20  1  0.44695000  0.34693000  0.86773000  1.0
  H  H21  1  0.05312000  0.15311000  0.36775000  1.0
  H  H22  1  0.55308000  0.65311000  0.13226000  1.0
  H  H23  1  0.94687000  0.84689000  0.63224000  1.0
  C  C24  1  0.45373000  0.93454000  0.91113000  1.0
  C  C25  1  0.04629000  0.56553000  0.41113000  1.0
  C  C26  1  0.54628000  0.06553000  0.08887000  1.0
  C  C27  1  0.95368000  0.43448000  0.58886000  1.0
  C  C28  1  0.62446000  0.09157000  0.87405000  1.0
  C  C29  1  0.87560000  0.40846000  0.37406000  1.0
  C  C30  1  0.37555000  0.90845000  0.12596000  1.0
  C  C31  1  0.12441000  0.59151000  0.62594000  1.0
  C  C32  1  0.82145000  0.03391000  0.85705000  1.0
  C  C33  1  0.67858000  0.46610000  0.35704000  1.0
  C  C34  1  0.17854000  0.96611000  0.14296000  1.0
  C  C35  1  0.32142000  0.53387000  0.64296000  1.0
  C  C36  1  0.98467000  0.17816000  0.81998000  1.0
  C  C37  1  0.51539000  0.32185000  0.31997000  1.0
  C  C38  1  0.01534000  0.82182000  0.18002000  1.0
  C  C39  1  0.48459000  0.67812000  0.68003000  1.0
  C  C40  1  0.95490000  0.38245000  0.79958000  1.0
  C  C41  1  0.54519000  0.11759000  0.29958000  1.0
  C  C42  1  0.04513000  0.61754000  0.20041000  1.0
  C  C43  1  0.45476000  0.88238000  0.70042000  1.0
  C  C44  1  0.76052000  0.44084000  0.81726000  1.0
  C  C45  1  0.73954000  0.05921000  0.31726000  1.0
  C  C46  1  0.23949000  0.55918000  0.18274000  1.0
  C  C47  1  0.26042000  0.94076000  0.68274000  1.0
  C  C48  1  0.59623000  0.29692000  0.85401000  1.0
  C  C49  1  0.90383000  0.20311000  0.35402000  1.0
  C  C50  1  0.40380000  0.70310000  0.14599000  1.0
  C  C51  1  0.09615000  0.79685000  0.64598000  1.0
  N  N52  1  0.27553000  0.97497000  0.94332000  1.0
  N  N53  1  0.22459000  0.52512000  0.44333000  1.0
  N  N54  1  0.72456000  0.02512000  0.05667000  1.0
  N  N55  1  0.77545000  0.47490000  0.55667000  1.0
  N  N56  1  0.16332000  0.78119000  0.96814000  1.0
  N  N57  1  0.33674000  0.71878000  0.46815000  1.0
  N  N58  1  0.83672000  0.21884000  0.03185000  1.0
  N  N59  1  0.66328000  0.28117000  0.53186000  1.0
  N  N60  1  0.27164000  0.63101000  0.95209000  1.0
  N  N61  1  0.22835000  0.86892000  0.45209000  1.0
  N  N62  1  0.72836000  0.36898000  0.04791000  1.0
  N  N63  1  0.77163000  0.13101000  0.54791000  1.0
  N  N64  1  0.45340000  0.72122000  0.91668000  1.0
  N  N65  1  0.04652000  0.77878000  0.41666000  1.0
  N  N66  1  0.54655000  0.27881000  0.08333000  1.0
  N  N67  1  0.95341000  0.22120000  0.58332000  1.0
