# generated using pymatgen
data_NaH4C4SNO4
_symmetry_space_group_name_H-M   'P 1'
_cell_length_a   7.14611000
_cell_length_b   8.99624000
_cell_length_c   10.45620000
_cell_angle_alpha   89.99960000
_cell_angle_beta   98.13390000
_cell_angle_gamma   90.00000000
_symmetry_Int_Tables_number   1
_chemical_formula_structural   NaH4C4SNO4
_chemical_formula_sum   'Na4 H16 C16 S4 N4 O16'
_cell_volume   665.44709908
_cell_formula_units_Z   4
loop_
 _symmetry_equiv_pos_site_id
 _symmetry_equiv_pos_as_xyz
  1  'x, y, z'
loop_
 _atom_site_type_symbol
 _atom_site_label
 _atom_site_symmetry_multiplicity
 _atom_site_fract_x
 _atom_site_fract_y
 _atom_site_fract_z
 _atom_site_occupancy
  Na  Na0  1  0.82495000  0.11456000  0.92571000  1.0
  Na  Na1  1  0.67505000  0.61456000  0.07429000  1.0
  Na  Na2  1  0.17505000  0.88544000  0.07429000  1.0
  Na  Na3  1  0.32495000  0.38544000  0.92571000  1.0
  H  H4  1  0.65426000  0.38620000  0.34794000  1.0
  H  H5  1  0.84574000  0.88620000  0.65205000  1.0
  H  H6  1  0.34575000  0.61380000  0.65206000  1.0
  H  H7  1  0.15426000  0.11380000  0.34795000  1.0
  H  H8  1  0.80412000  0.29235000  0.55776000  1.0
  H  H9  1  0.69588000  0.79235000  0.44224000  1.0
  H  H10  1  0.19589000  0.70765000  0.44224000  1.0
  H  H11  1  0.30411000  0.20765000  0.55776000  1.0
  H  H12  1  0.94216000  0.12775000  0.55217000  1.0
  H  H13  1  0.55784000  0.62775000  0.44783000  1.0
  H  H14  1  0.05784000  0.87224000  0.44783000  1.0
  H  H15  1  0.44216000  0.37224000  0.55218000  1.0
  H  H16  1  0.70410000  0.11514000  0.58213000  1.0
  H  H17  1  0.79590000  0.61514000  0.41787000  1.0
  H  H18  1  0.29590000  0.88486000  0.41787000  1.0
  H  H19  1  0.20410000  0.38486000  0.58214000  1.0
  C  C20  1  0.61628000  0.26016000  0.16828000  1.0
  C  C21  1  0.88373000  0.76016000  0.83172000  1.0
  C  C22  1  0.38372000  0.73984000  0.83172000  1.0
  C  C23  1  0.11628000  0.23984000  0.16828000  1.0
  C  C24  1  0.66482000  0.27580000  0.30758000  1.0
  C  C25  1  0.83518000  0.77580000  0.69242000  1.0
  C  C26  1  0.33519000  0.72420000  0.69242000  1.0
  C  C27  1  0.16481000  0.22420000  0.30758000  1.0
  C  C28  1  0.73515000  0.16405000  0.38663000  1.0
  C  C29  1  0.76485000  0.66405000  0.61337000  1.0
  C  C30  1  0.26485000  0.83595000  0.61337000  1.0
  C  C31  1  0.23514000  0.33595000  0.38663000  1.0
  C  C32  1  0.80030000  0.17601000  0.52729000  1.0
  C  C33  1  0.69970000  0.67601000  0.47271000  1.0
  C  C34  1  0.19970000  0.82399000  0.47271000  1.0
  C  C35  1  0.30029000  0.32399000  0.52729000  1.0
  S  S36  1  0.62913000  0.97976000  0.19757000  1.0
  S  S37  1  0.87086000  0.47975000  0.80244000  1.0
  S  S38  1  0.37086000  0.02025000  0.80244000  1.0
  S  S39  1  0.12913000  0.52025000  0.19757000  1.0
  N  N40  1  0.62881000  0.12286000  0.11216000  1.0
  N  N41  1  0.87119000  0.62286000  0.88784000  1.0
  N  N42  1  0.37119000  0.87714000  0.88784000  1.0
  N  N43  1  0.12881000  0.37714000  0.11216000  1.0
  O  O44  1  0.73657000  0.86062000  0.15123000  1.0
  O  O45  1  0.76343000  0.36062000  0.84877000  1.0
  O  O46  1  0.26342000  0.13938000  0.84877000  1.0
  O  O47  1  0.23657000  0.63938000  0.15123000  1.0
  O  O48  1  0.44500000  0.94053000  0.23081000  1.0
  O  O49  1  0.05500000  0.44053000  0.76919000  1.0
  O  O50  1  0.55500000  0.05947000  0.76920000  1.0
  O  O51  1  0.94500000  0.55948000  0.23080000  1.0
  O  O52  1  0.75606000  0.02178000  0.34167000  1.0
  O  O53  1  0.74393000  0.52178000  0.65833000  1.0
  O  O54  1  0.24394000  0.97822000  0.65833000  1.0
  O  O55  1  0.25606000  0.47822000  0.34167000  1.0
  O  O56  1  0.57255000  0.37172000  0.09783000  1.0
  O  O57  1  0.92745000  0.87172000  0.90217000  1.0
  O  O58  1  0.42746000  0.62828000  0.90217000  1.0
  O  O59  1  0.07255000  0.12828000  0.09783000  1.0
