# generated using pymatgen
data_TbPH15C7NO7
_symmetry_space_group_name_H-M   'P 1'
_cell_length_a   5.35992000
_cell_length_b   12.70390000
_cell_length_c   19.88910000
_cell_angle_alpha   89.99970000
_cell_angle_beta   90.81910000
_cell_angle_gamma   89.99930000
_symmetry_Int_Tables_number   1
_chemical_formula_structural   TbPH15C7NO7
_chemical_formula_sum   'Tb4 P4 H60 C28 N4 O28'
_cell_volume   1354.14797425
_cell_formula_units_Z   4
loop_
 _symmetry_equiv_pos_site_id
 _symmetry_equiv_pos_as_xyz
  1  'x, y, z'
loop_
 _atom_site_type_symbol
 _atom_site_label
 _atom_site_symmetry_multiplicity
 _atom_site_fract_x
 _atom_site_fract_y
 _atom_site_fract_z
 _atom_site_occupancy
  Tb  Tb0  1  0.87445000  0.35944000  0.47480000  1.0
  Tb  Tb1  1  0.12556000  0.85944000  0.02520000  1.0
  Tb  Tb2  1  0.12555000  0.64056000  0.52520000  1.0
  Tb  Tb3  1  0.87445000  0.14056000  0.97480000  1.0
  P  P4  1  0.61747000  0.47637000  0.59134000  1.0
  P  P5  1  0.38254000  0.97637000  0.90866000  1.0
  P  P6  1  0.38253000  0.52363000  0.40865000  1.0
  P  P7  1  0.61747000  0.02363000  0.09134000  1.0
  H  H8  1  0.91884000  0.42241000  0.67783000  1.0
  H  H9  1  0.77996000  0.54420000  0.69340000  1.0
  H  H10  1  0.74377000  0.27041000  0.73846000  1.0
  H  H11  1  0.53835000  0.27692000  0.66730000  1.0
  H  H12  1  0.16961000  0.27536000  0.74176000  1.0
  H  H13  1  0.36845000  0.16796000  0.76066000  1.0
  H  H14  1  0.56124000  0.26362000  0.85466000  1.0
  H  H15  1  0.41729000  0.43989000  0.88902000  1.0
  H  H16  1  0.20454000  0.44413000  0.81932000  1.0
  H  H17  1  0.59244000  0.53935000  0.79229000  1.0
  H  H18  1  0.77527000  0.42661000  0.81337000  1.0
  H  H19  1  0.28192000  0.32161000  0.56965000  1.0
  H  H20  1  0.04658000  0.32440000  0.61704000  1.0
  H  H21  1  0.69536000  0.15420000  0.52008000  1.0
  H  H22  1  0.48645000  0.20214000  0.46950000  1.0
  H  H23  1  0.08116000  0.92241000  0.82218000  1.0
  H  H24  1  0.22003000  0.04419000  0.80661000  1.0
  H  H25  1  0.25621000  0.77041000  0.76154000  1.0
  H  H26  1  0.46163000  0.77692000  0.83270000  1.0
  H  H27  1  0.83037000  0.77536000  0.75824000  1.0
  H  H28  1  0.63154000  0.66797000  0.73934000  1.0
  H  H29  1  0.43873000  0.76362000  0.64535000  1.0
  H  H30  1  0.58270000  0.93989000  0.61099000  1.0
  H  H31  1  0.79544000  0.94412000  0.68068000  1.0
  H  H32  1  0.40753000  0.03934000  0.70771000  1.0
  H  H33  1  0.22473000  0.92662000  0.68664000  1.0
  H  H34  1  0.71809000  0.82161000  0.93035000  1.0
  H  H35  1  0.95343000  0.82440000  0.88296000  1.0
  H  H36  1  0.30466000  0.65419000  0.97992000  1.0
  H  H37  1  0.51357000  0.70214000  0.03050000  1.0
  H  H38  1  0.08116000  0.57759000  0.32217000  1.0
  H  H39  1  0.22003000  0.45581000  0.30660000  1.0
  H  H40  1  0.25622000  0.72959000  0.26154000  1.0
  H  H41  1  0.46163000  0.72308000  0.33270000  1.0
  H  H42  1  0.83038000  0.72463000  0.25824000  1.0
  H  H43  1  0.63156000  0.83204000  0.23934000  1.0
  H  H44  1  0.43876000  0.73638000  0.14534000  1.0
  H  H45  1  0.58272000  0.56011000  0.11098000  1.0
  H  H46  1  0.79548000  0.55588000  0.18068000  1.0
  H  H47  1  0.40756000  0.46066000  0.20771000  1.0
  H  H48  1  0.22475000  0.57338000  0.18663000  1.0
  H  H49  1  0.71808000  0.67839000  0.43035000  1.0
  H  H50  1  0.95342000  0.67559000  0.38296000  1.0
  H  H51  1  0.30465000  0.84580000  0.47991000  1.0
  H  H52  1  0.51356000  0.79786000  0.53050000  1.0
  H  H53  1  0.91884000  0.07759000  0.17783000  1.0
  H  H54  1  0.77998000  0.95581000  0.19340000  1.0
  H  H55  1  0.74377000  0.22959000  0.23846000  1.0
  H  H56  1  0.53837000  0.22308000  0.16730000  1.0
  H  H57  1  0.16962000  0.22463000  0.24176000  1.0
  H  H58  1  0.36844000  0.33204000  0.26066000  1.0
  H  H59  1  0.56126000  0.23638000  0.35465000  1.0
  H  H60  1  0.41729000  0.06012000  0.38902000  1.0
  H  H61  1  0.20454000  0.05588000  0.31932000  1.0
  H  H62  1  0.59245000  0.96066000  0.29229000  1.0
  H  H63  1  0.77526000  0.07338000  0.31337000  1.0
  H  H64  1  0.28192000  0.17839000  0.06964000  1.0
  H  H65  1  0.04659000  0.17560000  0.11703000  1.0
  H  H66  1  0.69533000  0.34580000  0.02009000  1.0
  H  H67  1  0.48643000  0.29786000  0.96951000  1.0
  C  C68  1  0.73486000  0.46348000  0.67759000  1.0
  C  C69  1  0.56027000  0.30113000  0.72003000  1.0
  C  C70  1  0.35408000  0.25397000  0.76257000  1.0
  C  C71  1  0.37910000  0.29137000  0.83519000  1.0
  C  C72  1  0.38479000  0.41237000  0.83727000  1.0
  C  C73  1  0.59181000  0.45288000  0.79237000  1.0
  C  C74  1  0.18498000  0.24763000  0.88212000  1.0
  C  C75  1  0.26514000  0.96348000  0.82241000  1.0
  C  C76  1  0.43972000  0.80112000  0.77998000  1.0
  C  C77  1  0.64591000  0.75397000  0.73744000  1.0
  C  C78  1  0.62090000  0.79137000  0.66481000  1.0
  C  C79  1  0.61520000  0.91237000  0.66274000  1.0
  C  C80  1  0.40818000  0.95288000  0.70763000  1.0
  C  C81  1  0.81497000  0.74762000  0.61788000  1.0
  C  C82  1  0.26514000  0.53653000  0.32241000  1.0
  C  C83  1  0.43973000  0.69888000  0.27997000  1.0
  C  C84  1  0.64593000  0.74603000  0.23743000  1.0
  C  C85  1  0.62092000  0.70863000  0.16481000  1.0
  C  C86  1  0.61522000  0.58763000  0.16273000  1.0
  C  C87  1  0.40818000  0.54712000  0.20763000  1.0
  C  C88  1  0.81502000  0.75236000  0.11788000  1.0
  C  C89  1  0.73487000  0.03652000  0.17759000  1.0
  C  C90  1  0.56028000  0.19888000  0.22003000  1.0
  C  C91  1  0.35409000  0.24603000  0.26257000  1.0
  C  C92  1  0.37911000  0.20863000  0.33519000  1.0
  C  C93  1  0.38480000  0.08763000  0.33727000  1.0
  C  C94  1  0.59183000  0.04712000  0.29237000  1.0
  C  C95  1  0.18501000  0.25238000  0.38212000  1.0
  N  N96  1  0.55670000  0.41635000  0.72302000  1.0
  N  N97  1  0.44328000  0.91636000  0.77698000  1.0
  N  N98  1  0.44329000  0.58364000  0.27697000  1.0
  N  N99  1  0.55672000  0.08364000  0.22302000  1.0
  O  O100  1  0.55522000  0.36630000  0.56166000  1.0
  O  O101  1  0.84168000  0.51359000  0.54863000  1.0
  O  O102  1  0.40194000  0.55423000  0.59086000  1.0
  O  O103  1  0.99295000  0.19867000  0.86118000  1.0
  O  O104  1  0.22039000  0.25949000  0.94622000  1.0
  O  O105  1  0.10028000  0.29837000  0.57355000  1.0
  O  O106  1  0.67365000  0.18933000  0.47700000  1.0
  O  O107  1  0.44480000  0.86630000  0.93834000  1.0
  O  O108  1  0.15832000  0.01359000  0.95137000  1.0
  O  O109  1  0.59806000  0.05423000  0.90915000  1.0
  O  O110  1  0.00703000  0.69865000  0.63883000  1.0
  O  O111  1  0.77960000  0.75948000  0.55378000  1.0
  O  O112  1  0.89974000  0.79837000  0.92645000  1.0
  O  O113  1  0.32637000  0.68933000  0.02300000  1.0
  O  O114  1  0.44477000  0.63370000  0.43833000  1.0
  O  O115  1  0.15833000  0.48642000  0.45137000  1.0
  O  O116  1  0.59806000  0.44577000  0.40914000  1.0
  O  O117  1  0.00707000  0.80132000  0.13882000  1.0
  O  O118  1  0.77961000  0.74051000  0.05377000  1.0
  O  O119  1  0.89972000  0.70162000  0.42645000  1.0
  O  O120  1  0.32635000  0.81067000  0.52300000  1.0
  O  O121  1  0.55521000  0.13370000  0.06166000  1.0
  O  O122  1  0.84169000  0.98641000  0.04863000  1.0
  O  O123  1  0.40196000  0.94576000  0.09085000  1.0
  O  O124  1  0.99297000  0.30133000  0.36118000  1.0
  O  O125  1  0.22039000  0.24052000  0.44622000  1.0
  O  O126  1  0.10028000  0.20163000  0.07355000  1.0
  O  O127  1  0.67362000  0.31066000  0.97700000  1.0
