# generated using pymatgen
data_Hg2H14C14Se(SN2)4
_symmetry_space_group_name_H-M   'P 1'
_cell_length_a   9.40232000
_cell_length_b   10.41400000
_cell_length_c   12.89420000
_cell_angle_alpha   111.04500000
_cell_angle_beta   98.11420000
_cell_angle_gamma   91.74830000
_symmetry_Int_Tables_number   1
_chemical_formula_structural   Hg2H14C14Se(SN2)4
_chemical_formula_sum   'Hg4 H28 C28 Se2 S8 N16'
_cell_volume   1162.02234913
_cell_formula_units_Z   2
loop_
 _symmetry_equiv_pos_site_id
 _symmetry_equiv_pos_as_xyz
  1  'x, y, z'
loop_
 _atom_site_type_symbol
 _atom_site_label
 _atom_site_symmetry_multiplicity
 _atom_site_fract_x
 _atom_site_fract_y
 _atom_site_fract_z
 _atom_site_occupancy
  Hg  Hg0  1  0.79783000  0.35028000  0.77556000  1.0
  Hg  Hg1  1  0.20217000  0.64972000  0.22444000  1.0
  Hg  Hg2  1  0.34024000  0.17989000  0.92447000  1.0
  Hg  Hg3  1  0.65976000  0.82011000  0.07553000  1.0
  H  H4  1  0.00377000  0.64819000  0.84898000  1.0
  H  H5  1  0.99623000  0.35182000  0.15102000  1.0
  H  H6  1  0.60971000  0.14954000  0.52147000  1.0
  H  H7  1  0.39029000  0.85046000  0.47853000  1.0
  H  H8  1  0.02843000  0.18256000  0.58326000  1.0
  H  H9  1  0.97157000  0.81744000  0.41674000  1.0
  H  H10  1  0.05721000  0.23917000  0.47225000  1.0
  H  H11  1  0.94279000  0.76083000  0.52775000  1.0
  H  H12  1  0.88298000  0.23691000  0.51022000  1.0
  H  H13  1  0.11702000  0.76309000  0.48978000  1.0
  H  H14  1  0.12544000  0.84415000  0.77400000  1.0
  H  H15  1  0.87456000  0.15585000  0.22600000  1.0
  H  H16  1  0.26740000  0.77518000  0.69821000  1.0
  H  H17  1  0.73260000  0.22482000  0.30179000  1.0
  H  H18  1  0.27445000  0.78493000  0.83938000  1.0
  H  H19  1  0.72555000  0.21507000  0.16062000  1.0
  H  H20  1  0.48108000  0.59263000  0.80697000  1.0
  H  H21  1  0.51892000  0.40737000  0.19303000  1.0
  H  H22  1  0.50381000  0.66272000  0.70344000  1.0
  H  H23  1  0.49619000  0.33729000  0.29656000  1.0
  H  H24  1  0.65546000  0.61165000  0.77430000  1.0
  H  H25  1  0.34454000  0.38835000  0.22570000  1.0
  H  H26  1  0.42044000  0.08706000  0.33897000  1.0
  H  H27  1  0.57956000  0.91294000  0.66103000  1.0
  H  H28  1  0.28088000  0.20017000  0.34156000  1.0
  H  H29  1  0.71912000  0.79983000  0.65844000  1.0
  H  H30  1  0.27702000  0.08464000  0.41465000  1.0
  H  H31  1  0.72298000  0.91536000  0.58535000  1.0
  C  C32  1  0.03628000  0.40179000  0.62473000  1.0
  C  C33  1  0.96371000  0.59821000  0.37527000  1.0
  C  C34  1  0.99902000  0.25746000  0.54350000  1.0
  C  C35  1  0.00098000  0.74255000  0.45650000  1.0
  C  C36  1  0.13479000  0.50552000  0.62176000  1.0
  C  C37  1  0.86521000  0.49448000  0.37824000  1.0
  C  C38  1  0.12642000  0.62382000  0.71662000  1.0
  C  C39  1  0.87358000  0.37618000  0.28338000  1.0
  C  C40  1  0.20239000  0.76456000  0.75926000  1.0
  C  C41  1  0.79761000  0.23544000  0.24074000  1.0
  C  C42  1  0.51597000  0.44626000  0.64817000  1.0
  C  C43  1  0.48403000  0.55374000  0.35183000  1.0
  C  C44  1  0.54089000  0.58517000  0.73797000  1.0
  C  C45  1  0.45911000  0.41483000  0.26203000  1.0
  C  C46  1  0.40340000  0.39479000  0.55475000  1.0
  C  C47  1  0.59660000  0.60521000  0.44525000  1.0
  C  C48  1  0.42976000  0.25865000  0.49464000  1.0
  C  C49  1  0.57024000  0.74135000  0.50536000  1.0
  C  C50  1  0.34825000  0.15189000  0.39130000  1.0
  C  C51  1  0.65175000  0.84811000  0.60870000  1.0
  C  C52  1  0.65618000  0.39774000  0.99554000  1.0
  C  C53  1  0.34383000  0.60225000  0.00446000  1.0
  C  C54  1  0.94994000  0.19223000  0.91713000  1.0
  C  C55  1  0.05005000  0.80776000  0.08287000  1.0
  C  C56  1  0.40521000  0.04913000  0.10973000  1.0
  C  C57  1  0.59479000  0.95087000  0.89027000  1.0
  C  C58  1  0.30353000  0.09464000  0.65574000  1.0
  C  C59  1  0.69647000  0.90536000  0.34426000  1.0
  Se  Se60  1  0.25236000  0.49192000  0.50975000  1.0
  Se  Se61  1  0.74763000  0.50809000  0.49025000  1.0
  S  S62  1  0.77677000  0.50465000  0.97966000  1.0
  S  S63  1  0.22323000  0.49535000  0.02034000  1.0
  S  S64  1  0.87688000  0.12173000  0.78336000  1.0
  S  S65  1  0.12310000  0.87826000  0.21664000  1.0
  S  S66  1  0.25297000  0.10225000  0.06495000  1.0
  S  S67  1  0.74703000  0.89775000  0.93505000  1.0
  S  S68  1  0.29430000  0.24447000  0.75795000  1.0
  S  S69  1  0.70570000  0.75553000  0.24205000  1.0
  N  N70  1  0.97415000  0.45442000  0.71716000  1.0
  N  N71  1  0.02585000  0.54558000  0.28284000  1.0
  N  N72  1  0.02866000  0.58792000  0.77071000  1.0
  N  N73  1  0.97134000  0.41208000  0.22929000  1.0
  N  N74  1  0.60443000  0.34603000  0.64471000  1.0
  N  N75  1  0.39557000  0.65398000  0.35529000  1.0
  N  N76  1  0.55037000  0.23340000  0.55207000  1.0
  N  N77  1  0.44963000  0.76660000  0.44793000  1.0
  N  N78  1  0.57244000  0.32265000  0.01130000  1.0
  N  N79  1  0.42756000  0.67734000  0.98870000  1.0
  N  N80  1  0.00336000  0.24201000  0.01267000  1.0
  N  N81  1  0.99665000  0.75799000  0.98733000  1.0
  N  N82  1  0.51112000  0.01393000  0.14859000  1.0
  N  N83  1  0.48889000  0.98607000  0.85141000  1.0
  N  N84  1  0.30707000  0.99240000  0.57772000  1.0
  N  N85  1  0.69293000  0.00760000  0.42228000  1.0
