# generated using pymatgen
data_CuH10C8BrN2
_symmetry_space_group_name_H-M   'P 1'
_cell_length_a   10.80340000
_cell_length_b   10.80300000
_cell_length_c   11.18334696
_cell_angle_alpha   111.12976160
_cell_angle_beta   111.12847762
_cell_angle_gamma   104.22900000
_symmetry_Int_Tables_number   1
_chemical_formula_structural   CuH10C8BrN2
_chemical_formula_sum   'Cu4 H40 C32 Br4 N8'
_cell_volume   1024.25014908
_cell_formula_units_Z   4
loop_
 _symmetry_equiv_pos_site_id
 _symmetry_equiv_pos_as_xyz
  1  'x, y, z'
loop_
 _atom_site_type_symbol
 _atom_site_label
 _atom_site_symmetry_multiplicity
 _atom_site_fract_x
 _atom_site_fract_y
 _atom_site_fract_z
 _atom_site_occupancy
  Cu  Cu0  1  0.63223000  0.66186000  0.05487000  1.0
  Cu  Cu1  1  0.33812000  0.36773000  0.94516000  1.0
  Cu  Cu2  1  0.85477000  0.92591000  0.03808000  1.0
  Cu  Cu3  1  0.07399000  0.14515000  0.96185000  1.0
  H  H4  1  0.04534000  0.28067000  0.35349000  1.0
  H  H5  1  0.71929000  0.95470000  0.64644000  1.0
  H  H6  1  0.09084000  0.14902000  0.25159000  1.0
  H  H7  1  0.85092000  0.90922000  0.74838000  1.0
  H  H8  1  0.62387000  0.65537000  0.26988000  1.0
  H  H9  1  0.34464000  0.37615000  0.73011000  1.0
  H  H10  1  0.57398000  0.79199000  0.34925000  1.0
  H  H11  1  0.20801000  0.42601000  0.65073000  1.0
  H  H12  1  0.42301000  0.21724000  0.57701000  1.0
  H  H13  1  0.78282000  0.57705000  0.42302000  1.0
  H  H14  1  0.31887000  0.12350000  0.38004000  1.0
  H  H15  1  0.87654000  0.68122000  0.61999000  1.0
  H  H16  1  0.24672000  0.06751000  0.48122000  1.0
  H  H17  1  0.93250000  0.75337000  0.51880000  1.0
  H  H18  1  0.44982000  0.45877000  0.58502000  1.0
  H  H19  1  0.54125000  0.55019000  0.41498000  1.0
  H  H20  1  0.29303000  0.48559000  0.50041000  1.0
  H  H21  1  0.51442000  0.70698000  0.49959000  1.0
  H  H22  1  0.34359000  0.36825000  0.38845000  1.0
  H  H23  1  0.63177000  0.65643000  0.61155000  1.0
  H  H24  1  0.04223000  0.45658000  0.98543000  1.0
  H  H25  1  0.54341000  0.95775000  0.01458000  1.0
  H  H26  1  0.15102000  0.43723000  0.13230000  1.0
  H  H27  1  0.56277000  0.84896000  0.86771000  1.0
  H  H28  1  0.91016000  0.70062000  0.19743000  1.0
  H  H29  1  0.29942000  0.08985000  0.80261000  1.0
  H  H30  1  0.90787000  0.62780000  0.02884000  1.0
  H  H31  1  0.37222000  0.09212000  0.97120000  1.0
  H  H32  1  0.18097000  0.58184000  0.38853000  1.0
  H  H33  1  0.41820000  0.81905000  0.61149000  1.0
  H  H34  1  0.98779000  0.49724000  0.31515000  1.0
  H  H35  1  0.50279000  0.01225000  0.68490000  1.0
  H  H36  1  0.08421000  0.69140000  0.41387000  1.0
  H  H37  1  0.30865000  0.91583000  0.58618000  1.0
  H  H38  1  0.17540000  0.73312000  0.13246000  1.0
  H  H39  1  0.26691000  0.82456000  0.86754000  1.0
  H  H40  1  0.29065000  0.71610000  0.27981000  1.0
  H  H41  1  0.28393000  0.70932000  0.72017000  1.0
  H  H42  1  0.19643000  0.82822000  0.31032000  1.0
  H  H43  1  0.17181000  0.80355000  0.68969000  1.0
  C  C44  1  0.78123000  0.87576000  0.36553000  1.0
  C  C45  1  0.12426000  0.21876000  0.63445000  1.0
  C  C46  1  0.89705000  0.99907000  0.50168000  1.0
  C  C47  1  0.00094000  0.10294000  0.49829000  1.0
  C  C48  1  0.98172000  0.08206000  0.35894000  1.0
  C  C49  1  0.91791000  0.01831000  0.64103000  1.0
  C  C50  1  0.08701000  0.19708000  0.35465000  1.0
  C  C51  1  0.80288000  0.91304000  0.64532000  1.0
  C  C52  1  0.24298000  0.27324000  0.49002000  1.0
  C  C53  1  0.72676000  0.75705000  0.50997000  1.0
  C  C54  1  0.66863000  0.76441000  0.36623000  1.0
  C  C55  1  0.23561000  0.33136000  0.63375000  1.0
  C  C56  1  0.31166000  0.16377000  0.48152000  1.0
  C  C57  1  0.83626000  0.68841000  0.51850000  1.0
  C  C58  1  0.33802000  0.40375000  0.49060000  1.0
  C  C59  1  0.59626000  0.66199000  0.50939000  1.0
  C  C60  1  0.77873000  0.46980000  0.05678000  1.0
  C  C61  1  0.53022000  0.22129000  0.94328000  1.0
  C  C62  1  0.78932000  0.33493000  0.02455000  1.0
  C  C63  1  0.66508000  0.21068000  0.97549000  1.0
  C  C64  1  0.91959000  0.31926000  0.03922000  1.0
  C  C65  1  0.68074000  0.08040000  0.96080000  1.0
  C  C66  1  0.04982000  0.44996000  0.08398000  1.0
  C  C67  1  0.55004000  0.95016000  0.91604000  1.0
  C  C68  1  0.05730000  0.59310000  0.19316000  1.0
  C  C69  1  0.40692000  0.94270000  0.80686000  1.0
  C  C70  1  0.91326000  0.60569000  0.11930000  1.0
  C  C71  1  0.39434000  0.08674000  0.88074000  1.0
  C  C72  1  0.07827000  0.59014000  0.33526000  1.0
  C  C73  1  0.40990000  0.92174000  0.66477000  1.0
  C  C74  1  0.18730000  0.72519000  0.23085000  1.0
  C  C75  1  0.27483000  0.81268000  0.76915000  1.0
  Br  Br76  1  0.37837000  0.62161000  0.00004000  1.0
  Br  Br77  1  0.67857000  0.66453000  0.85594000  1.0
  Br  Br78  1  0.33535000  0.32122000  0.14402000  1.0
  Br  Br79  1  0.06852000  0.93106000  0.99972000  1.0
  N  N80  1  0.77402000  0.85487000  0.23718000  1.0
  N  N81  1  0.14513000  0.22597000  0.76280000  1.0
  N  N82  1  0.87394000  0.96045000  0.23333000  1.0
  N  N83  1  0.03951000  0.12607000  0.76664000  1.0
  N  N84  1  0.65010000  0.47600000  0.03182000  1.0
  N  N85  1  0.52401000  0.34991000  0.96826000  1.0
  N  N86  1  0.92598000  0.19100000  0.01433000  1.0
  N  N87  1  0.80898000  0.07400000  0.98567000  1.0
