# generated using pymatgen
data_Fe2H15C12O7
_symmetry_space_group_name_H-M   'P 1'
_cell_length_a   5.02201000
_cell_length_b   12.09010000
_cell_length_c   12.42580000
_cell_angle_alpha   118.76600000
_cell_angle_beta   93.97060000
_cell_angle_gamma   90.96290000
_symmetry_Int_Tables_number   1
_chemical_formula_structural   Fe2H15C12O7
_chemical_formula_sum   'Fe4 H30 C24 O14'
_cell_volume   658.67495905
_cell_formula_units_Z   2
loop_
 _symmetry_equiv_pos_site_id
 _symmetry_equiv_pos_as_xyz
  1  'x, y, z'
loop_
 _atom_site_type_symbol
 _atom_site_label
 _atom_site_symmetry_multiplicity
 _atom_site_fract_x
 _atom_site_fract_y
 _atom_site_fract_z
 _atom_site_occupancy
  Fe  Fe0  1  0.45734000  0.00148000  0.38121000  1.0
  Fe  Fe1  1  0.55439000  0.00752000  0.62741000  1.0
  Fe  Fe2  1  0.96422000  0.85750000  0.39188000  1.0
  Fe  Fe3  1  0.03391000  0.13443000  0.60575000  1.0
  H  H4  1  0.23285000  0.02988000  0.15017000  1.0
  H  H5  1  0.76713000  0.96946000  0.84932000  1.0
  H  H6  1  0.66642000  0.08141000  0.08139000  1.0
  H  H7  1  0.33242000  0.91782000  0.91901000  1.0
  H  H8  1  0.90478000  0.19589000  0.19121000  1.0
  H  H9  1  0.09426000  0.80335000  0.80896000  1.0
  H  H10  1  0.10355000  0.80502000  0.01235000  1.0
  H  H11  1  0.89528000  0.19435000  0.98790000  1.0
  H  H12  1  0.78688000  0.84317000  0.97118000  1.0
  H  H13  1  0.21187000  0.15625000  0.02910000  1.0
  H  H14  1  0.70925000  0.58497000  0.16571000  1.0
  H  H15  1  0.29201000  0.41351000  0.83316000  1.0
  H  H16  1  0.32148000  0.44447000  0.15219000  1.0
  H  H17  1  0.67971000  0.55427000  0.84698000  1.0
  H  H18  1  0.13387000  0.48640000  0.05370000  1.0
  H  H19  1  0.86732000  0.51239000  0.94555000  1.0
  H  H20  1  0.34770000  0.65285000  0.00042000  1.0
  H  H21  1  0.65324000  0.34584000  0.99872000  1.0
  H  H22  1  0.67205000  0.71951000  0.06891000  1.0
  H  H23  1  0.32868000  0.27924000  0.93036000  1.0
  H  H24  1  0.12301000  0.42227000  0.46070000  1.0
  H  H25  1  0.87346000  0.58084000  0.54141000  1.0
  H  H26  1  0.69295000  0.34432000  0.39818000  1.0
  H  H27  1  0.30345000  0.65814000  0.60403000  1.0
  H  H28  1  0.41929000  0.31480000  0.28983000  1.0
  H  H29  1  0.57787000  0.68760000  0.71220000  1.0
  H  H30  1  0.29358000  0.49793000  0.67664000  1.0
  H  H31  1  0.70463000  0.50420000  0.32555000  1.0
  H  H32  1  0.62074000  0.45584000  0.63210000  1.0
  H  H33  1  0.37682000  0.54625000  0.36906000  1.0
  C  C34  1  0.90275000  0.97710000  0.21622000  1.0
  C  C35  1  0.10138000  0.02092000  0.78418000  1.0
  C  C36  1  0.01905000  0.00257000  0.12056000  1.0
  C  C37  1  0.98069000  0.99675000  0.87949000  1.0
  C  C38  1  0.88245000  0.10618000  0.10392000  1.0
  C  C39  1  0.11647000  0.89298000  0.89629000  1.0
  C  C40  1  0.99902000  0.87674000  0.99813000  1.0
  C  C41  1  0.99984000  0.12261000  0.00207000  1.0
  C  C42  1  0.39411000  0.70690000  0.23685000  1.0
  C  C43  1  0.60692000  0.29158000  0.76241000  1.0
  C  C44  1  0.50784000  0.59537000  0.13144000  1.0
  C  C45  1  0.49333000  0.40317000  0.86757000  1.0
  C  C46  1  0.33825000  0.47189000  0.08030000  1.0
  C  C47  1  0.66289000  0.52676000  0.91880000  1.0
  C  C48  1  0.54434000  0.63216000  0.02990000  1.0
  C  C49  1  0.45658000  0.36649000  0.96924000  1.0
  C  C50  1  0.26701000  0.26635000  0.47680000  1.0
  C  C51  1  0.72930000  0.73610000  0.52477000  1.0
  C  C52  1  0.31902000  0.39184000  0.47901000  1.0
  C  C53  1  0.67712000  0.61096000  0.52305000  1.0
  C  C54  1  0.50561000  0.38297000  0.38323000  1.0
  C  C55  1  0.49103000  0.61957000  0.61884000  1.0
  C  C56  1  0.43428000  0.49050000  0.60975000  1.0
  C  C57  1  0.56284000  0.51189000  0.39215000  1.0
  O  O58  1  0.65570000  0.98805000  0.22978000  1.0
  O  O59  1  0.34828000  0.01187000  0.77287000  1.0
  O  O60  1  0.06309000  0.93794000  0.27455000  1.0
  O  O61  1  0.94296000  0.05708000  0.72175000  1.0
  O  O62  1  0.14918000  0.70467000  0.25432000  1.0
  O  O63  1  0.85141000  0.29191000  0.74481000  1.0
  O  O64  1  0.55571000  0.80446000  0.30101000  1.0
  O  O65  1  0.44332000  0.19402000  0.69778000  1.0
  O  O66  1  0.08465000  0.25932000  0.53961000  1.0
  O  O67  1  0.91815000  0.74201000  0.46369000  1.0
  O  O68  1  0.41614000  0.17764000  0.41365000  1.0
  O  O69  1  0.57848000  0.82507000  0.58348000  1.0
  O  O70  1  0.75557000  0.01527000  0.48656000  1.0
  O  O71  1  0.24887000  0.98717000  0.49897000  1.0
