# generated using pymatgen
data_CuMoP2H12C11N2O9
_symmetry_space_group_name_H-M   'P 1'
_cell_length_a   8.08679000
_cell_length_b   8.64382000
_cell_length_c   11.85620000
_cell_angle_alpha   82.14990000
_cell_angle_beta   77.32480000
_cell_angle_gamma   75.53190000
_symmetry_Int_Tables_number   1
_chemical_formula_structural   CuMoP2H12C11N2O9
_chemical_formula_sum   'Cu2 Mo2 P4 H24 C22 N4 O18'
_cell_volume   779.98051734
_cell_formula_units_Z   2
loop_
 _symmetry_equiv_pos_site_id
 _symmetry_equiv_pos_as_xyz
  1  'x, y, z'
loop_
 _atom_site_type_symbol
 _atom_site_label
 _atom_site_symmetry_multiplicity
 _atom_site_fract_x
 _atom_site_fract_y
 _atom_site_fract_z
 _atom_site_occupancy
  Cu  Cu0  1  0.23645000  0.91055000  0.29889000  1.0
  Cu  Cu1  1  0.76354000  0.08947000  0.70109000  1.0
  Mo  Mo2  1  0.32787000  0.27362000  0.86222000  1.0
  Mo  Mo3  1  0.67212000  0.72638000  0.13780000  1.0
  P  P4  1  0.08489000  0.67997000  0.17138000  1.0
  P  P5  1  0.91510000  0.32002000  0.82862000  1.0
  P  P6  1  0.31295000  0.90206000  0.03172000  1.0
  P  P7  1  0.68703000  0.09793000  0.96829000  1.0
  H  H8  1  0.38629000  0.19922000  0.18621000  1.0
  H  H9  1  0.61373000  0.80079000  0.81377000  1.0
  H  H10  1  0.45627000  0.42716000  0.26201000  1.0
  H  H11  1  0.54374000  0.57282000  0.73801000  1.0
  H  H12  1  0.41044000  0.43434000  0.47885000  1.0
  H  H13  1  0.58958000  0.56564000  0.52115000  1.0
  H  H14  1  0.29897000  0.21633000  0.60909000  1.0
  H  H15  1  0.70103000  0.78365000  0.39090000  1.0
  H  H16  1  0.21423000  0.01424000  0.70723000  1.0
  H  H17  1  0.78575000  0.98576000  0.29276000  1.0
  H  H18  1  0.11652000  0.76707000  0.80104000  1.0
  H  H19  1  0.88348000  0.23294000  0.19896000  1.0
  H  H20  1  0.06337000  0.57903000  0.67937000  1.0
  H  H21  1  0.93662000  0.42099000  0.32063000  1.0
  H  H22  1  0.11581000  0.64505000  0.45954000  1.0
  H  H23  1  0.88419000  0.35494000  0.54047000  1.0
  H  H24  1  0.04587000  0.86313000  0.00281000  1.0
  H  H25  1  0.95413000  0.13689000  0.99720000  1.0
  H  H26  1  0.21729000  0.69235000  0.96916000  1.0
  H  H27  1  0.78271000  0.30766000  0.03083000  1.0
  H  H28  1  0.18037000  0.18944000  0.08567000  1.0
  H  H29  1  0.81961000  0.81056000  0.91433000  1.0
  H  H30  1  0.14488000  0.38506000  0.08229000  1.0
  H  H31  1  0.85513000  0.61496000  0.91771000  1.0
  C  C32  1  0.36738000  0.20896000  0.27890000  1.0
  C  C33  1  0.63263000  0.79105000  0.72109000  1.0
  C  C34  1  0.40686000  0.33487000  0.32218000  1.0
  C  C35  1  0.59316000  0.66513000  0.67783000  1.0
  C  C36  1  0.38121000  0.33795000  0.44187000  1.0
  C  C37  1  0.61880000  0.66204000  0.55812000  1.0
  C  C38  1  0.31834000  0.21637000  0.51533000  1.0
  C  C39  1  0.68168000  0.78362000  0.48466000  1.0
  C  C40  1  0.28229000  0.09373000  0.46637000  1.0
  C  C41  1  0.71770000  0.90627000  0.53364000  1.0
  C  C42  1  0.22051000  0.95632000  0.53379000  1.0
  C  C43  1  0.77948000  0.04367000  0.46622000  1.0
  C  C44  1  0.19319000  0.92949000  0.65477000  1.0
  C  C45  1  0.80679000  0.07051000  0.34523000  1.0
  C  C46  1  0.13792000  0.79197000  0.70722000  1.0
  C  C47  1  0.86206000  0.20804000  0.29277000  1.0
  C  C48  1  0.11024000  0.68499000  0.63899000  1.0
  C  C49  1  0.88974000  0.31502000  0.36101000  1.0
  C  C50  1  0.13750000  0.72004000  0.51922000  1.0
  C  C51  1  0.86248000  0.27995000  0.48079000  1.0
  C  C52  1  0.15989000  0.78320000  0.03174000  1.0
  C  C53  1  0.84012000  0.21682000  0.96827000  1.0
  N  N54  1  0.30531000  0.09311000  0.34941000  1.0
  N  N55  1  0.69471000  0.90692000  0.65060000  1.0
  N  N56  1  0.19142000  0.85209000  0.46876000  1.0
  N  N57  1  0.80856000  0.14790000  0.53126000  1.0
  O  O58  1  0.24704000  0.00280000  0.13831000  1.0
  O  O59  1  0.75297000  0.99722000  0.86169000  1.0
  O  O60  1  0.47419000  0.22209000  0.73535000  1.0
  O  O61  1  0.52586000  0.77789000  0.26466000  1.0
  O  O62  1  0.32562000  0.01255000  0.91993000  1.0
  O  O63  1  0.67442000  0.98740000  0.08005000  1.0
  O  O64  1  0.48731000  0.77730000  0.04032000  1.0
  O  O65  1  0.51268000  0.22272000  0.95967000  1.0
  O  O66  1  0.29601000  0.47720000  0.85570000  1.0
  O  O67  1  0.70396000  0.52280000  0.14430000  1.0
  O  O68  1  0.87829000  0.74067000  0.19437000  1.0
  O  O69  1  0.12172000  0.25930000  0.80562000  1.0
  O  O70  1  0.15263000  0.29093000  0.03509000  1.0
  O  O71  1  0.84737000  0.70907000  0.96491000  1.0
  O  O72  1  0.14637000  0.73366000  0.27006000  1.0
  O  O73  1  0.85359000  0.26633000  0.72995000  1.0
  O  O74  1  0.13766000  0.50096000  0.16600000  1.0
  O  O75  1  0.86235000  0.49908000  0.83399000  1.0
