# generated using pymatgen
data_FeH6C2(NO2)2
_symmetry_space_group_name_H-M   'P 1'
_cell_length_a   6.58517000
_cell_length_b   7.43147000
_cell_length_c   7.59228979
_cell_angle_alpha   84.95981162
_cell_angle_beta   64.30604969
_cell_angle_gamma   63.70330000
_symmetry_Int_Tables_number   1
_chemical_formula_structural   FeH6C2(NO2)2
_chemical_formula_sum   'Fe2 H12 C4 N4 O8'
_cell_volume   297.65285145
_cell_formula_units_Z   2
loop_
 _symmetry_equiv_pos_site_id
 _symmetry_equiv_pos_as_xyz
  1  'x, y, z'
loop_
 _atom_site_type_symbol
 _atom_site_label
 _atom_site_symmetry_multiplicity
 _atom_site_fract_x
 _atom_site_fract_y
 _atom_site_fract_z
 _atom_site_occupancy
  Fe  Fe0  1  0.50772000  0.74995000  0.74996000  1.0
  Fe  Fe1  1  0.50307000  0.25000000  0.25006000  1.0
  H  H2  1  0.33305000  0.50526000  0.71002000  1.0
  H  H3  1  0.04860000  0.99485000  0.78974000  1.0
  H  H4  1  0.65875000  0.52402000  0.28578000  1.0
  H  H5  1  0.96855000  0.97628000  0.21431000  1.0
  H  H6  1  0.22724000  0.57983000  0.94528000  1.0
  H  H7  1  0.25271000  0.92045000  0.55448000  1.0
  H  H8  1  0.76948000  0.45601000  0.04817000  1.0
  H  H9  1  0.77386000  0.04415000  0.45194000  1.0
  H  H10  1  0.51697000  0.41057000  0.82063000  1.0
  H  H11  1  0.24847000  0.08952000  0.67942000  1.0
  H  H12  1  0.47382000  0.60927000  0.17521000  1.0
  H  H13  1  0.75851000  0.89086000  0.32488000  1.0
  C  C14  1  0.02557000  0.46562000  0.59192000  1.0
  C  C15  1  0.58343000  0.03419000  0.90813000  1.0
  C  C16  1  0.96289000  0.52769000  0.41956000  1.0
  C  C17  1  0.41038000  0.97212000  0.08044000  1.0
  N  N18  1  0.37958000  0.54334000  0.80931000  1.0
  N  N19  1  0.23251000  0.95677000  0.69054000  1.0
  N  N20  1  0.61941000  0.48213000  0.18335000  1.0
  N  N21  1  0.78497000  0.01806000  0.31679000  1.0
  O  O22  1  0.84567000  0.53519000  0.76465000  1.0
  O  O23  1  0.64588000  0.96452000  0.73539000  1.0
  O  O24  1  0.13933000  0.46742000  0.24618000  1.0
  O  O25  1  0.35333000  0.03223000  0.25386000  1.0
  O  O26  1  0.25661000  0.34790000  0.55322000  1.0
  O  O27  1  0.65803000  0.15191000  0.94683000  1.0
  O  O28  1  0.72703000  0.64275000  0.46469000  1.0
  O  O29  1  0.33457000  0.85717000  0.03526000  1.0
