# generated using pymatgen
data_NdH8C6O7
_symmetry_space_group_name_H-M   'P 1'
_cell_length_a   7.87059000
_cell_length_b   10.75920000
_cell_length_c   12.95481164
_cell_angle_alpha   71.57771041
_cell_angle_beta   72.33019449
_cell_angle_gamma   68.55800000
_symmetry_Int_Tables_number   1
_chemical_formula_structural   NdH8C6O7
_chemical_formula_sum   'Nd4 H32 C24 O28'
_cell_volume   946.56420356
_cell_formula_units_Z   4
loop_
 _symmetry_equiv_pos_site_id
 _symmetry_equiv_pos_as_xyz
  1  'x, y, z'
loop_
 _atom_site_type_symbol
 _atom_site_label
 _atom_site_symmetry_multiplicity
 _atom_site_fract_x
 _atom_site_fract_y
 _atom_site_fract_z
 _atom_site_occupancy
  Nd  Nd0  1  0.94461000  0.31092000  0.22943000  1.0
  Nd  Nd1  1  0.48500000  0.18908000  0.27055000  1.0
  Nd  Nd2  1  0.05539000  0.68908000  0.77057000  1.0
  Nd  Nd3  1  0.51500000  0.81092000  0.72945000  1.0
  H  H4  1  0.00743000  0.58537000  0.08648000  1.0
  H  H5  1  0.67918000  0.91463000  0.41353000  1.0
  H  H6  1  0.99257000  0.41463000  0.91352000  1.0
  H  H7  1  0.32082000  0.08537000  0.58647000  1.0
  H  H8  1  0.19019000  0.50513000  0.14297000  1.0
  H  H9  1  0.83817000  0.99489000  0.35697000  1.0
  H  H10  1  0.80981000  0.49487000  0.85703000  1.0
  H  H11  1  0.16183000  0.00511000  0.64303000  1.0
  H  H12  1  0.16704000  0.78901000  0.35732000  1.0
  H  H13  1  0.31352000  0.71109000  0.14262000  1.0
  H  H14  1  0.83297000  0.21098000  0.64268000  1.0
  H  H15  1  0.68648000  0.28891000  0.85738000  1.0
  H  H16  1  0.09337000  0.82685000  0.48901000  1.0
  H  H17  1  0.40931000  0.67316000  0.01097000  1.0
  H  H18  1  0.90663000  0.17316000  0.51099000  1.0
  H  H19  1  0.59068000  0.32684000  0.98904000  1.0
  H  H20  1  0.39921000  0.63215000  0.46137000  1.0
  H  H21  1  0.49290000  0.86798000  0.03849000  1.0
  H  H22  1  0.60079000  0.36785000  0.53863000  1.0
  H  H23  1  0.50711000  0.13202000  0.96151000  1.0
  H  H24  1  0.50693000  0.75652000  0.36483000  1.0
  H  H25  1  0.62841000  0.74365000  0.13510000  1.0
  H  H26  1  0.49307000  0.24348000  0.63517000  1.0
  H  H27  1  0.37159000  0.25634000  0.86490000  1.0
  H  H28  1  0.18863000  0.50292000  0.41783000  1.0
  H  H29  1  0.10934000  0.99721000  0.08215000  1.0
  H  H30  1  0.81137000  0.49707000  0.58217000  1.0
  H  H31  1  0.89066000  0.00279000  0.91785000  1.0
  H  H32  1  0.15572000  0.36380000  0.52722000  1.0
  H  H33  1  0.04665000  0.13627000  0.97273000  1.0
  H  H34  1  0.84428000  0.63620000  0.47278000  1.0
  H  H35  1  0.95335000  0.86373000  0.02727000  1.0
  C  C36  1  0.19157000  0.97953000  0.35850000  1.0
  C  C37  1  0.52977000  0.52061000  0.14153000  1.0
  C  C38  1  0.80843000  0.02047000  0.64150000  1.0
  C  C39  1  0.47022000  0.47939000  0.85847000  1.0
  C  C40  1  0.20389000  0.82965000  0.41294000  1.0
  C  C41  1  0.44660000  0.67045000  0.08702000  1.0
  C  C42  1  0.79611000  0.17035000  0.58706000  1.0
  C  C43  1  0.55341000  0.32955000  0.91298000  1.0
  C  C44  1  0.39584000  0.74042000  0.43830000  1.0
  C  C45  1  0.57469000  0.75973000  0.06162000  1.0
  C  C46  1  0.60416000  0.25958000  0.56170000  1.0
  C  C47  1  0.42531000  0.24027000  0.93838000  1.0
  C  C48  1  0.43633000  0.76643000  0.53527000  1.0
  C  C49  1  0.73807000  0.73357000  0.96470000  1.0
  C  C50  1  0.56367000  0.23357000  0.46473000  1.0
  C  C51  1  0.26193000  0.26643000  0.03530000  1.0
  C  C52  1  0.02800000  0.39769000  0.39440000  1.0
  C  C53  1  0.82008000  0.10230000  0.10556000  1.0
  C  C54  1  0.97200000  0.60231000  0.60560000  1.0
  C  C55  1  0.17992000  0.89770000  0.89444000  1.0
  C  C56  1  0.08229000  0.45179000  0.46937000  1.0
  C  C57  1  0.00341000  0.04826000  0.03060000  1.0
  C  C58  1  0.91772000  0.54820000  0.53063000  1.0
  C  C59  1  0.99659000  0.95174000  0.96940000  1.0
  O  O60  1  0.03648000  0.06033000  0.33298000  1.0
  O  O61  1  0.43007000  0.43973000  0.16704000  1.0
  O  O62  1  0.96351000  0.93967000  0.66702000  1.0
  O  O63  1  0.56993000  0.56027000  0.83296000  1.0
  O  O64  1  0.33543000  0.01537000  0.34185000  1.0
  O  O65  1  0.69278000  0.48484000  0.15823000  1.0
  O  O66  1  0.66457000  0.98463000  0.65815000  1.0
  O  O67  1  0.30722000  0.51516000  0.84177000  1.0
  O  O68  1  0.34002000  0.73415000  0.63418000  1.0
  O  O69  1  0.70828000  0.76578000  0.86581000  1.0
  O  O70  1  0.65998000  0.26585000  0.36582000  1.0
  O  O71  1  0.29172000  0.23422000  0.13419000  1.0
  O  O72  1  0.56698000  0.81617000  0.52269000  1.0
  O  O73  1  0.90586000  0.68379000  0.97728000  1.0
  O  O74  1  0.43303000  0.18383000  0.47731000  1.0
  O  O75  1  0.09414000  0.31620000  0.02272000  1.0
  O  O76  1  0.86171000  0.43541000  0.38296000  1.0
  O  O77  1  0.68008000  0.06459000  0.11693000  1.0
  O  O78  1  0.13830000  0.56460000  0.61703000  1.0
  O  O79  1  0.31992000  0.93541000  0.88307000  1.0
  O  O80  1  0.15642000  0.30947000  0.34146000  1.0
  O  O81  1  0.80740000  0.19049000  0.15854000  1.0
  O  O82  1  0.84358000  0.69053000  0.65854000  1.0
  O  O83  1  0.19260000  0.80951000  0.84146000  1.0
  O  O84  1  0.05530000  0.51949000  0.15232000  1.0
  O  O85  1  0.72691000  0.98053000  0.34768000  1.0
  O  O86  1  0.94470000  0.48050000  0.84768000  1.0
  O  O87  1  0.27309000  0.01947000  0.65232000  1.0
