# generated using pymatgen
data_CuH14C16S(N3O2)2
_symmetry_space_group_name_H-M   'P 1'
_cell_length_a   9.14316000
_cell_length_b   10.06510000
_cell_length_c   10.21510000
_cell_angle_alpha   85.64190000
_cell_angle_beta   83.71780000
_cell_angle_gamma   70.57780000
_symmetry_Int_Tables_number   1
_chemical_formula_structural   CuH14C16S(N3O2)2
_chemical_formula_sum   'Cu2 H28 C32 S2 N12 O8'
_cell_volume   880.45723275
_cell_formula_units_Z   2
loop_
 _symmetry_equiv_pos_site_id
 _symmetry_equiv_pos_as_xyz
  1  'x, y, z'
loop_
 _atom_site_type_symbol
 _atom_site_label
 _atom_site_symmetry_multiplicity
 _atom_site_fract_x
 _atom_site_fract_y
 _atom_site_fract_z
 _atom_site_occupancy
  Cu  Cu0  1  0.83021000  0.05061000  0.58975000  1.0
  Cu  Cu1  1  0.16979000  0.94939000  0.41025000  1.0
  H  H2  1  0.81023000  0.53567000  0.78041000  1.0
  H  H3  1  0.18977000  0.46433000  0.21959000  1.0
  H  H4  1  0.79848000  0.72959000  0.14759000  1.0
  H  H5  1  0.20152000  0.27041000  0.85240000  1.0
  H  H6  1  0.67113000  0.35366000  0.14891000  1.0
  H  H7  1  0.32887000  0.64634000  0.85109000  1.0
  H  H8  1  0.86878000  0.31208000  0.71580000  1.0
  H  H9  1  0.13121000  0.68793000  0.28420000  1.0
  H  H10  1  0.55561000  0.08757000  0.83735000  1.0
  H  H11  1  0.44439000  0.91242000  0.16265000  1.0
  H  H12  1  0.52986000  0.27889000  0.02745000  1.0
  H  H13  1  0.47014000  0.72111000  0.97255000  1.0
  H  H14  1  0.75585000  0.77282000  0.70059000  1.0
  H  H15  1  0.24417000  0.22717000  0.29940000  1.0
  H  H16  1  0.04577000  0.97920000  0.82600000  1.0
  H  H17  1  0.95423000  0.02080000  0.17401000  1.0
  H  H18  1  0.99224000  0.79492000  0.03126000  1.0
  H  H19  1  0.00775000  0.20508000  0.96875000  1.0
  H  H20  1  0.59171000  0.63951000  0.33592000  1.0
  H  H21  1  0.40830000  0.36049000  0.66408000  1.0
  H  H22  1  0.79229000  0.57023000  0.35509000  1.0
  H  H23  1  0.20772000  0.42977000  0.64491000  1.0
  H  H24  1  0.89972000  0.32029000  0.44957000  1.0
  H  H25  1  0.10028000  0.67971000  0.55043000  1.0
  H  H26  1  0.51035000  0.18027000  0.45503000  1.0
  H  H27  1  0.48965000  0.81974000  0.54496000  1.0
  H  H28  1  0.43866000  0.45108000  0.33642000  1.0
  H  H29  1  0.56134000  0.54892000  0.66356000  1.0
  C  C30  1  0.73108000  0.43754000  0.95819000  1.0
  C  C31  1  0.26892000  0.56246000  0.04182000  1.0
  C  C32  1  0.78475000  0.53885000  0.88707000  1.0
  C  C33  1  0.21525000  0.46115000  0.11293000  1.0
  C  C34  1  0.81022000  0.64219000  0.95724000  1.0
  C  C35  1  0.18977000  0.35781000  0.04276000  1.0
  C  C36  1  0.78349000  0.64514000  0.09429000  1.0
  C  C37  1  0.21652000  0.35485000  0.90571000  1.0
  C  C38  1  0.73117000  0.54172000  0.16363000  1.0
  C  C39  1  0.26883000  0.45828000  0.83637000  1.0
  C  C40  1  0.70666000  0.43721000  0.09551000  1.0
  C  C41  1  0.29334000  0.56279000  0.90450000  1.0
  C  C42  1  0.77622000  0.27966000  0.77198000  1.0
  C  C43  1  0.22378000  0.72034000  0.22803000  1.0
  C  C44  1  0.61759000  0.16201000  0.84138000  1.0
  C  C45  1  0.38240000  0.83799000  0.15862000  1.0
  C  C46  1  0.60418000  0.25540000  0.93639000  1.0
  C  C47  1  0.39582000  0.74459000  0.06361000  1.0
  C  C48  1  0.82899000  0.80167000  0.76241000  1.0
  C  C49  1  0.17102000  0.19833000  0.23758000  1.0
  C  C50  1  0.97672000  0.90880000  0.83302000  1.0
  C  C51  1  0.02328000  0.09120000  0.16698000  1.0
  C  C52  1  0.95432000  0.81682000  0.93286000  1.0
  C  C53  1  0.04568000  0.18318000  0.06714000  1.0
  C  C54  1  0.69722000  0.54957000  0.31162000  1.0
  C  C55  1  0.30279000  0.45042000  0.68838000  1.0
  C  C56  1  0.78690000  0.31529000  0.43087000  1.0
  C  C57  1  0.21310000  0.68471000  0.56913000  1.0
  C  C58  1  0.58198000  0.24766000  0.43258000  1.0
  C  C59  1  0.41802000  0.75234000  0.56741000  1.0
  C  C60  1  0.54466000  0.38124000  0.37464000  1.0
  C  C61  1  0.45534000  0.61875000  0.62535000  1.0
  S  S62  1  0.83854000  0.83343000  0.39300000  1.0
  S  S63  1  0.16146000  0.16658000  0.60700000  1.0
  N  N64  1  0.70457000  0.33003000  0.89139000  1.0
  N  N65  1  0.29542000  0.66996000  0.10861000  1.0
  N  N66  1  0.72508000  0.17820000  0.74063000  1.0
  N  N67  1  0.27492000  0.82179000  0.25937000  1.0
  N  N68  1  0.86202000  0.74801000  0.88698000  1.0
  N  N69  1  0.13798000  0.25198000  0.11302000  1.0
  N  N70  1  0.89653000  0.89870000  0.72873000  1.0
  N  N71  1  0.10347000  0.10130000  0.27127000  1.0
  N  N72  1  0.67511000  0.42234000  0.37436000  1.0
  N  N73  1  0.32489000  0.57767000  0.62563000  1.0
  N  N74  1  0.73291000  0.20899000  0.46678000  1.0
  N  N75  1  0.26709000  0.79101000  0.53322000  1.0
  O  O76  1  0.93233000  0.91797000  0.44564000  1.0
  O  O77  1  0.06767000  0.08203000  0.55436000  1.0
  O  O78  1  0.69668000  0.85471000  0.48380000  1.0
  O  O79  1  0.30330000  0.14532000  0.51619000  1.0
  O  O80  1  0.94151000  0.68303000  0.39516000  1.0
  O  O81  1  0.05848000  0.31697000  0.60485000  1.0
  O  O82  1  0.80616000  0.88651000  0.25663000  1.0
  O  O83  1  0.19386000  0.11349000  0.74336000  1.0
