# generated using pymatgen
data_KH11C5S2NO
_symmetry_space_group_name_H-M   'P 1'
_cell_length_a   6.31801000
_cell_length_b   7.17085000
_cell_length_c   11.50120000
_cell_angle_alpha   80.35170000
_cell_angle_beta   76.09130000
_cell_angle_gamma   67.29620000
_symmetry_Int_Tables_number   1
_chemical_formula_structural   KH11C5S2NO
_chemical_formula_sum   'K2 H22 C10 S4 N2 O2'
_cell_volume   464.96581776
_cell_formula_units_Z   2
loop_
 _symmetry_equiv_pos_site_id
 _symmetry_equiv_pos_as_xyz
  1  'x, y, z'
loop_
 _atom_site_type_symbol
 _atom_site_label
 _atom_site_symmetry_multiplicity
 _atom_site_fract_x
 _atom_site_fract_y
 _atom_site_fract_z
 _atom_site_occupancy
  K  K0  1  0.31419000  0.80090000  0.94734000  1.0
  K  K1  1  0.68584000  0.19909000  0.05266000  1.0
  H  H2  1  0.20719000  0.43191000  0.85078000  1.0
  H  H3  1  0.79283000  0.56809000  0.14918000  1.0
  H  H4  1  0.44362000  0.21807000  0.79015000  1.0
  H  H5  1  0.55641000  0.78195000  0.20982000  1.0
  H  H6  1  0.29218000  0.65564000  0.67113000  1.0
  H  H7  1  0.70785000  0.34437000  0.32885000  1.0
  H  H8  1  0.25461000  0.44626000  0.62580000  1.0
  H  H9  1  0.74543000  0.55376000  0.37416000  1.0
  H  H10  1  0.54057000  0.45075000  0.60862000  1.0
  H  H11  1  0.45945000  0.54927000  0.39136000  1.0
  H  H12  1  0.87674000  0.20313000  0.55691000  1.0
  H  H13  1  0.12323000  0.79688000  0.44312000  1.0
  H  H14  1  0.74295000  0.08236000  0.48779000  1.0
  H  H15  1  0.25703000  0.91763000  0.51223000  1.0
  H  H16  1  0.78509000  0.66352000  0.70929000  1.0
  H  H17  1  0.21484000  0.33648000  0.29074000  1.0
  H  H18  1  0.77389000  0.75087000  0.55435000  1.0
  H  H19  1  0.22603000  0.24914000  0.44569000  1.0
  H  H20  1  0.53383000  0.86780000  0.67004000  1.0
  H  H21  1  0.46611000  0.13224000  0.32998000  1.0
  H  H22  1  0.69414000  0.36440000  0.80782000  1.0
  H  H23  1  0.30588000  0.63559000  0.19217000  1.0
  C  C24  1  0.89323000  0.96288000  0.75288000  1.0
  C  C25  1  0.10678000  0.03709000  0.24715000  1.0
  C  C26  1  0.38103000  0.38391000  0.79225000  1.0
  C  C27  1  0.61900000  0.61607000  0.20771000  1.0
  C  C28  1  0.36675000  0.49039000  0.66701000  1.0
  C  C29  1  0.63331000  0.50962000  0.33296000  1.0
  C  C30  1  0.88102000  0.05697000  0.53768000  1.0
  C  C31  1  0.11894000  0.94299000  0.46234000  1.0
  C  C32  1  0.72601000  0.79671000  0.64644000  1.0
  C  C33  1  0.27393000  0.20331000  0.35359000  1.0
  S  S34  1  0.03598000  0.12865000  0.74712000  1.0
  S  S35  1  0.96402000  0.87132000  0.25289000  1.0
  S  S36  1  0.82692000  0.82662000  0.88463000  1.0
  S  S37  1  0.17314000  0.17337000  0.11539000  1.0
  N  N38  1  0.83563000  0.94026000  0.65115000  1.0
  N  N39  1  0.16433000  0.05973000  0.34887000  1.0
  O  O40  1  0.53025000  0.43556000  0.84857000  1.0
  O  O41  1  0.46979000  0.56444000  0.15141000  1.0
