# generated using pymatgen
data_UH2(C3O4)2
_symmetry_space_group_name_H-M   'P 1'
_cell_length_a   8.93006000
_cell_length_b   8.93109000
_cell_length_c   11.26090000
_cell_angle_alpha   109.25500000
_cell_angle_beta   109.17700000
_cell_angle_gamma   99.79430000
_symmetry_Int_Tables_number   1
_chemical_formula_structural   UH2(C3O4)2
_chemical_formula_sum   'U4 H8 C24 O32'
_cell_volume   760.77956912
_cell_formula_units_Z   4
loop_
 _symmetry_equiv_pos_site_id
 _symmetry_equiv_pos_as_xyz
  1  'x, y, z'
loop_
 _atom_site_type_symbol
 _atom_site_label
 _atom_site_symmetry_multiplicity
 _atom_site_fract_x
 _atom_site_fract_y
 _atom_site_fract_z
 _atom_site_occupancy
  U  U0  1  0.59413000  0.85203000  0.45497000  1.0
  U  U1  1  0.39697000  0.13913000  0.54502000  1.0
  U  U2  1  0.38946000  0.14623000  0.04206000  1.0
  U  U3  1  0.10403000  0.34723000  0.95786000  1.0
  H  H4  1  0.81122000  0.73520000  0.68586000  1.0
  H  H5  1  0.04919000  0.12514000  0.31413000  1.0
  H  H6  1  0.37513000  0.79647000  0.81262000  1.0
  H  H7  1  0.98380000  0.56244000  0.18741000  1.0
  H  H8  1  0.62776000  0.71867000  0.68009000  1.0
  H  H9  1  0.03852000  0.94748000  0.31991000  1.0
  H  H10  1  0.19763000  0.78893000  0.81793000  1.0
  H  H11  1  0.97107000  0.37967000  0.18217000  1.0
  C  C12  1  0.90781000  0.73914000  0.39331000  1.0
  C  C13  1  0.34579000  0.51449000  0.60668000  1.0
  C  C14  1  0.76636000  0.09644000  0.10877000  1.0
  C  C15  1  0.98778000  0.65758000  0.89141000  1.0
  C  C16  1  0.82701000  0.48385000  0.43992000  1.0
  C  C17  1  0.04378000  0.38701000  0.55989000  1.0
  C  C18  1  0.63775000  0.79439000  0.06066000  1.0
  C  C19  1  0.73371000  0.57713000  0.93946000  1.0
  C  C20  1  0.94991000  0.61102000  0.44654000  1.0
  C  C21  1  0.16442000  0.50333000  0.55330000  1.0
  C  C22  1  0.75475000  0.91501000  0.05471000  1.0
  C  C23  1  0.86044000  0.70006000  0.94549000  1.0
  C  C24  1  0.24773000  0.74767000  0.49991000  1.0
  C  C25  1  0.99846000  0.99833000  0.00014000  1.0
  C  C26  1  0.74452000  0.24461000  0.49983000  1.0
  C  C27  1  0.49502000  0.49511000  0.00013000  1.0
  C  C28  1  0.11772000  0.61769000  0.49988000  1.0
  C  C29  1  0.86831000  0.86819000  0.00016000  1.0
  C  C30  1  0.87509000  0.37510000  0.49985000  1.0
  C  C31  1  0.62544000  0.62547000  0.00011000  1.0
  C  C32  1  0.64585000  0.45037000  0.35401000  1.0
  C  C33  1  0.09622000  0.29181000  0.64583000  1.0
  C  C34  1  0.54074000  0.84603000  0.14541000  1.0
  C  C35  1  0.70043000  0.39533000  0.85462000  1.0
  O  O36  1  0.58666000  0.02350000  0.61838000  1.0
  O  O37  1  0.40490000  0.96812000  0.38162000  1.0
  O  O38  1  0.21580000  0.15446000  0.88152000  1.0
  O  O39  1  0.27274000  0.33412000  0.11839000  1.0
  O  O40  1  0.93284000  0.74144000  0.29042000  1.0
  O  O41  1  0.45100000  0.64246000  0.70959000  1.0
  O  O42  1  0.89373000  0.20219000  0.21132000  1.0
  O  O43  1  0.99113000  0.68249000  0.78896000  1.0
  O  O44  1  0.70934000  0.76510000  0.64894000  1.0
  O  O45  1  0.11611000  0.06017000  0.35093000  1.0
  O  O46  1  0.31103000  0.86522000  0.84917000  1.0
  O  O47  1  0.01590000  0.46175000  0.15077000  1.0
  O  O48  1  0.85347000  0.84326000  0.46394000  1.0
  O  O49  1  0.37930000  0.38948000  0.53617000  1.0
  O  O50  1  0.64040000  0.12912000  0.03835000  1.0
  O  O51  1  0.09079000  0.60190000  0.96177000  1.0
  O  O52  1  0.64340000  0.29458000  0.54809000  1.0
  O  O53  1  0.74620000  0.09519000  0.45159000  1.0
  O  O54  1  0.34624000  0.49972000  0.95650000  1.0
  O  O55  1  0.54325000  0.38993000  0.04374000  1.0
  O  O56  1  0.24149000  0.89652000  0.54015000  1.0
  O  O57  1  0.35643000  0.70123000  0.45977000  1.0
  O  O58  1  0.95254000  0.10938000  0.96338000  1.0
  O  O59  1  0.14629000  0.98914000  0.03681000  1.0
  O  O60  1  0.56615000  0.29623000  0.27276000  1.0
  O  O61  1  0.02341000  0.29346000  0.72713000  1.0
  O  O62  1  0.54126000  0.77193000  0.22595000  1.0
  O  O63  1  0.54576000  0.31534000  0.77414000  1.0
  O  O64  1  0.58165000  0.56570000  0.35753000  1.0
  O  O65  1  0.20793000  0.22397000  0.64222000  1.0
  O  O66  1  0.47196000  0.95674000  0.14158000  1.0
  O  O67  1  0.81497000  0.33036000  0.85836000  1.0
