# generated using pymatgen
data_Na3Dy2H54C42N6Cl2O10F3
_symmetry_space_group_name_H-M   'P 1'
_cell_length_a   13.69830000
_cell_length_b   15.06990000
_cell_length_c   15.44850000
_cell_angle_alpha   112.20700000
_cell_angle_beta   95.74820000
_cell_angle_gamma   103.55600000
_symmetry_Int_Tables_number   1
_chemical_formula_structural   Na3Dy2H54C42N6Cl2O10F3
_chemical_formula_sum   'Na6 Dy4 H108 C84 N12 Cl4 O20 F6'
_cell_volume   2806.43551550
_cell_formula_units_Z   2
loop_
 _symmetry_equiv_pos_site_id
 _symmetry_equiv_pos_as_xyz
  1  'x, y, z'
loop_
 _atom_site_type_symbol
 _atom_site_label
 _atom_site_symmetry_multiplicity
 _atom_site_fract_x
 _atom_site_fract_y
 _atom_site_fract_z
 _atom_site_occupancy
  Na  Na0  1  0.72598000  0.05471000  0.27865000  1.0
  Na  Na1  1  0.27402000  0.94529000  0.72135000  1.0
  Na  Na2  1  0.88450000  0.36420000  0.15638000  1.0
  Na  Na3  1  0.11550000  0.63581000  0.84363000  1.0
  Na  Na4  1  0.91817000  0.14356000  0.17745000  1.0
  Na  Na5  1  0.08182000  0.85643000  0.82255000  1.0
  Dy  Dy6  1  0.65453000  0.10532000  0.07262000  1.0
  Dy  Dy7  1  0.34548000  0.89468000  0.92739000  1.0
  Dy  Dy8  1  0.91603000  0.34772000  0.39000000  1.0
  Dy  Dy9  1  0.08397000  0.65228000  0.61001000  1.0
  H  H10  1  0.70492000  0.21890000  0.95653000  1.0
  H  H11  1  0.29507000  0.78110000  0.04346000  1.0
  H  H12  1  0.88120000  0.21388000  0.48872000  1.0
  H  H13  1  0.11879000  0.78611000  0.51127000  1.0
  H  H14  1  0.44688000  0.14657000  0.45815000  1.0
  H  H15  1  0.55311000  0.85341000  0.54184000  1.0
  H  H16  1  0.36291000  0.26536000  0.43036000  1.0
  H  H17  1  0.63708000  0.73464000  0.56964000  1.0
  H  H18  1  0.40009000  0.32064000  0.30068000  1.0
  H  H19  1  0.59993000  0.67937000  0.69933000  1.0
  H  H20  1  0.61808000  0.99405000  0.43053000  1.0
  H  H21  1  0.38190000  0.00593000  0.56946000  1.0
  H  H22  1  0.48466000  0.99204000  0.41458000  1.0
  H  H23  1  0.51532000  0.00795000  0.58540000  1.0
  H  H24  1  0.58263000  0.10238000  0.49947000  1.0
  H  H25  1  0.41735000  0.89759000  0.50052000  1.0
  H  H26  1  0.48200000  0.32904000  0.18611000  1.0
  H  H27  1  0.51802000  0.67098000  0.81390000  1.0
  H  H28  1  0.65376000  0.34776000  0.06946000  1.0
  H  H29  1  0.34626000  0.65225000  0.93054000  1.0
  H  H30  1  0.52016000  0.33868000  0.06118000  1.0
  H  H31  1  0.47984000  0.66133000  0.93883000  1.0
  H  H32  1  0.47995000  0.16251000  0.93185000  1.0
  H  H33  1  0.52005000  0.83749000  0.06816000  1.0
  H  H34  1  0.55753000  0.25455000  0.90108000  1.0
  H  H35  1  0.44247000  0.74545000  0.09893000  1.0
  H  H36  1  0.62336000  0.11365000  0.79283000  1.0
  H  H37  1  0.37662000  0.88635000  0.20718000  1.0
  H  H38  1  0.54568000  0.02929000  0.83187000  1.0
  H  H39  1  0.45432000  0.97071000  0.16814000  1.0
  H  H40  1  0.70038000  0.97686000  0.77934000  1.0
  H  H41  1  0.29961000  0.02314000  0.22067000  1.0
  H  H42  1  0.78084000  0.09518000  0.86799000  1.0
  H  H43  1  0.21915000  0.90482000  0.13201000  1.0
  H  H44  1  0.73691000  0.87375000  0.83149000  1.0
  H  H45  1  0.26310000  0.12625000  0.16849000  1.0
  H  H46  1  0.73449000  0.72919000  0.84380000  1.0
  H  H47  1  0.26552000  0.27082000  0.15621000  1.0
  H  H48  1  0.72053000  0.62051000  0.93157000  1.0
  H  H49  1  0.27948000  0.37950000  0.06843000  1.0
  H  H50  1  0.70306000  0.68779000  0.10098000  1.0
  H  H51  1  0.29696000  0.31221000  0.89902000  1.0
  H  H52  1  0.70088000  0.86865000  0.33037000  1.0
  H  H53  1  0.29911000  0.13135000  0.66962000  1.0
  H  H54  1  0.76571000  0.79074000  0.25631000  1.0
  H  H55  1  0.23429000  0.20926000  0.74368000  1.0
  H  H56  1  0.62720000  0.75480000  0.22761000  1.0
  H  H57  1  0.37280000  0.24520000  0.77238000  1.0
  H  H58  1  0.67738000  0.61379000  0.22764000  1.0
  H  H59  1  0.32263000  0.38622000  0.77235000  1.0
  H  H60  1  0.55902000  0.61184000  0.33901000  1.0
  H  H61  1  0.44098000  0.38817000  0.66098000  1.0
  H  H62  1  0.56436000  0.50930000  0.43255000  1.0
  H  H63  1  0.43564000  0.49071000  0.56746000  1.0
  H  H64  1  0.87959000  0.55709000  0.10486000  1.0
  H  H65  1  0.12040000  0.44291000  0.89513000  1.0
  H  H66  1  0.83933000  0.65148000  0.19360000  1.0
  H  H67  1  0.16067000  0.34852000  0.80638000  1.0
  H  H68  1  0.74608000  0.54496000  0.09793000  1.0
  H  H69  1  0.25391000  0.45504000  0.90208000  1.0
  H  H70  1  0.62374000  0.39948000  0.47357000  1.0
  H  H71  1  0.37627000  0.60053000  0.52644000  1.0
  H  H72  1  0.70797000  0.22900000  0.47388000  1.0
  H  H73  1  0.29202000  0.77101000  0.52612000  1.0
  H  H74  1  0.68206000  0.33454000  0.56018000  1.0
  H  H75  1  0.31794000  0.66548000  0.43984000  1.0
  H  H76  1  0.82574000  0.29558000  0.63387000  1.0
  H  H77  1  0.17426000  0.70443000  0.36614000  1.0
  H  H78  1  0.87425000  0.41152000  0.62511000  1.0
  H  H79  1  0.12576000  0.58848000  0.37489000  1.0
  H  H80  1  0.01139000  0.28132000  0.63200000  1.0
  H  H81  1  0.98860000  0.71865000  0.36799000  1.0
  H  H82  1  0.04599000  0.39615000  0.61790000  1.0
  H  H83  1  0.95401000  0.60384000  0.38211000  1.0
  H  H84  1  0.15726000  0.28591000  0.54801000  1.0
  H  H85  1  0.84273000  0.71408000  0.45198000  1.0
  H  H86  1  0.04272000  0.18918000  0.47312000  1.0
  H  H87  1  0.95728000  0.81081000  0.52687000  1.0
  H  H88  1  0.23517000  0.33296000  0.45367000  1.0
  H  H89  1  0.76483000  0.66703000  0.54633000  1.0
  H  H90  1  0.34880000  0.42656000  0.40383000  1.0
  H  H91  1  0.65121000  0.57344000  0.59618000  1.0
  H  H92  1  0.39856000  0.51375000  0.29931000  1.0
  H  H93  1  0.60144000  0.48625000  0.70069000  1.0
  H  H94  1  0.26197000  0.52471000  0.18779000  1.0
  H  H95  1  0.73803000  0.47528000  0.81220000  1.0
  H  H96  1  0.01190000  0.47299000  0.05576000  1.0
  H  H97  1  0.98810000  0.52700000  0.94424000  1.0
  H  H98  1  0.13848000  0.45984000  0.05933000  1.0
  H  H99  1  0.86153000  0.54016000  0.94067000  1.0
  H  H100  1  0.11888000  0.56911000  0.14639000  1.0
  H  H101  1  0.88113000  0.43088000  0.85361000  1.0
  H  H102  1  0.94124000  0.04809000  0.30940000  1.0
  H  H103  1  0.05876000  0.95190000  0.69061000  1.0
  H  H104  1  0.12184000  0.09529000  0.23736000  1.0
  H  H105  1  0.87815000  0.90470000  0.76262000  1.0
  H  H106  1  0.08821000  0.98054000  0.25183000  1.0
  H  H107  1  0.91178000  0.01946000  0.74817000  1.0
  H  H108  1  0.11488000  0.09810000  0.35283000  1.0
  H  H109  1  0.88512000  0.90190000  0.64717000  1.0
  H  H110  1  0.05539000  0.07610000  0.03602000  1.0
  H  H111  1  0.94457000  0.92386000  0.96395000  1.0
  H  H112  1  0.92968000  0.18904000  0.99657000  1.0
  H  H113  1  0.07032000  0.81097000  0.00343000  1.0
  H  H114  1  0.00587000  0.12743000  0.91983000  1.0
  H  H115  1  0.99412000  0.87257000  0.08016000  1.0
  H  H116  1  0.06674000  0.23564000  0.02930000  1.0
  H  H117  1  0.93327000  0.76435000  0.97069000  1.0
  C  C118  1  0.55066000  0.16291000  0.26757000  1.0
  C  C119  1  0.44934000  0.83710000  0.73244000  1.0
  C  C120  1  0.52945000  0.13465000  0.34435000  1.0
  C  C121  1  0.47055000  0.86535000  0.65566000  1.0
  C  C122  1  0.46282000  0.17010000  0.40115000  1.0
  C  C123  1  0.53717000  0.82989000  0.59884000  1.0
  C  C124  1  0.41519000  0.23772000  0.38551000  1.0
  C  C125  1  0.58480000  0.76228000  0.61449000  1.0
  C  C126  1  0.43595000  0.26832000  0.31377000  1.0
  C  C127  1  0.56406000  0.73168000  0.68623000  1.0
  C  C128  1  0.50284000  0.23252000  0.25443000  1.0
  C  C129  1  0.49715000  0.76747000  0.74557000  1.0
  C  C130  1  0.56492000  0.03798000  0.42944000  1.0
  C  C131  1  0.43506000  0.96201000  0.57054000  1.0
  C  C132  1  0.51997000  0.27126000  0.18307000  1.0
  C  C133  1  0.48003000  0.72874000  0.81692000  1.0
  C  C134  1  0.57610000  0.29551000  0.05312000  1.0
  C  C135  1  0.42392000  0.70450000  0.94689000  1.0
  C  C136  1  0.55604000  0.21739000  0.95076000  1.0
  C  C137  1  0.44396000  0.78262000  0.04925000  1.0
  C  C138  1  0.62109000  0.08461000  0.84877000  1.0
  C  C139  1  0.37890000  0.91539000  0.15123000  1.0
  C  C140  1  0.70704000  0.03667000  0.85031000  1.0
  C  C141  1  0.29295000  0.96333000  0.14968000  1.0
  C  C142  1  0.72417000  0.91351000  0.90379000  1.0
  C  C143  1  0.27584000  0.08649000  0.09620000  1.0
  C  C144  1  0.71969000  0.90104000  0.06196000  1.0
  C  C145  1  0.28033000  0.09897000  0.93804000  1.0
  C  C146  1  0.72564000  0.85934000  0.96357000  1.0
  C  C147  1  0.27437000  0.14066000  0.03643000  1.0
  C  C148  1  0.72799000  0.75878000  0.91860000  1.0
  C  C149  1  0.27202000  0.24122000  0.08140000  1.0
  C  C150  1  0.72001000  0.69791000  0.96725000  1.0
  C  C151  1  0.28000000  0.30209000  0.03275000  1.0
  C  C152  1  0.71104000  0.73642000  0.06339000  1.0
  C  C153  1  0.28898000  0.26359000  0.93661000  1.0
  C  C154  1  0.71200000  0.83550000  0.11005000  1.0
  C  C155  1  0.28801000  0.16451000  0.88996000  1.0
  C  C156  1  0.69816000  0.81841000  0.25669000  1.0
  C  C157  1  0.30184000  0.18159000  0.74330000  1.0
  C  C158  1  0.76146000  0.46112000  0.31814000  1.0
  C  C159  1  0.23854000  0.53888000  0.68186000  1.0
  C  C160  1  0.75300000  0.51780000  0.26236000  1.0
  C  C161  1  0.24699000  0.48221000  0.73764000  1.0
  C  C162  1  0.68176000  0.57089000  0.27016000  1.0
  C  C163  1  0.31824000  0.42913000  0.72984000  1.0
  C  C164  1  0.61401000  0.56905000  0.33281000  1.0
  C  C165  1  0.38600000  0.43096000  0.66721000  1.0
  C  C166  1  0.61793000  0.51283000  0.38530000  1.0
  C  C167  1  0.38208000  0.48718000  0.61471000  1.0
  C  C168  1  0.69098000  0.45908000  0.37982000  1.0
  C  C169  1  0.30902000  0.54092000  0.62018000  1.0
  C  C170  1  0.82098000  0.57097000  0.14708000  1.0
  C  C171  1  0.17902000  0.42903000  0.85292000  1.0
  C  C172  1  0.68966000  0.40336000  0.43824000  1.0
  C  C173  1  0.31035000  0.59664000  0.56176000  1.0
  C  C174  1  0.73868000  0.31041000  0.51783000  1.0
  C  C175  1  0.26132000  0.68959000  0.48217000  1.0
  C  C176  1  0.83964000  0.33036000  0.58296000  1.0
  C  C177  1  0.16036000  0.66964000  0.41704000  1.0
  C  C178  1  0.01348000  0.31431000  0.57905000  1.0
  C  C179  1  0.98652000  0.68567000  0.42095000  1.0
  C  C180  1  0.07879000  0.27116000  0.50954000  1.0
  C  C181  1  0.92121000  0.72884000  0.49044000  1.0
  C  C182  1  0.16650000  0.33985000  0.41592000  1.0
  C  C183  1  0.83351000  0.66016000  0.58409000  1.0
  C  C184  1  0.10704000  0.38458000  0.28192000  1.0
  C  C185  1  0.89297000  0.61543000  0.71809000  1.0
  C  C186  1  0.18632000  0.38359000  0.34837000  1.0
  C  C187  1  0.81368000  0.61642000  0.65164000  1.0
  C  C188  1  0.29042000  0.42925000  0.35230000  1.0
  C  C189  1  0.70959000  0.57075000  0.64770000  1.0
  C  C190  1  0.31805000  0.47882000  0.29528000  1.0
  C  C191  1  0.68195000  0.52118000  0.70472000  1.0
  C  C192  1  0.24102000  0.48334000  0.23103000  1.0
  C  C193  1  0.75898000  0.51666000  0.76897000  1.0
  C  C194  1  0.13840000  0.43558000  0.22290000  1.0
  C  C195  1  0.86160000  0.56442000  0.77711000  1.0
  C  C196  1  0.08471000  0.48835000  0.10285000  1.0
  C  C197  1  0.91529000  0.51165000  0.89714000  1.0
  C  C198  1  0.07951000  0.05663000  0.27618000  1.0
  C  C199  1  0.92049000  0.94337000  0.72382000  1.0
  C  C200  1  0.00081000  0.16764000  0.99451000  1.0
  C  C201  1  0.99919000  0.83237000  0.00548000  1.0
  N  N202  1  0.57303000  0.24543000  0.11801000  1.0
  N  N203  1  0.42698000  0.75458000  0.88200000  1.0
  N  N204  1  0.63467000  0.16505000  0.94367000  1.0
  N  N205  1  0.36533000  0.83494000  0.05634000  1.0
  N  N206  1  0.70598000  0.99880000  0.92475000  1.0
  N  N207  1  0.29402000  0.00119000  0.07525000  1.0
  N  N208  1  0.75677000  0.36032000  0.45356000  1.0
  N  N209  1  0.24322000  0.63968000  0.54644000  1.0
  N  N210  1  0.91021000  0.29179000  0.52371000  1.0
  N  N211  1  0.08978000  0.70820000  0.47628000  1.0
  N  N212  1  0.07932000  0.31236000  0.43778000  1.0
  N  N213  1  0.92068000  0.68765000  0.56223000  1.0
  Cl  Cl214  1  0.85308000  0.04813000  0.42029000  1.0
  Cl  Cl215  1  0.14692000  0.95186000  0.57971000  1.0
  Cl  Cl216  1  0.82929000  0.33989000  0.97282000  1.0
  Cl  Cl217  1  0.17071000  0.66010000  0.02718000  1.0
  O  O218  1  0.58204000  0.07051000  0.35534000  1.0
  O  O219  1  0.41795000  0.92947000  0.64464000  1.0
  O  O220  1  0.61139000  0.12437000  0.21485000  1.0
  O  O221  1  0.38861000  0.87563000  0.78515000  1.0
  O  O222  1  0.71949000  0.99396000  0.10898000  1.0
  O  O223  1  0.28051000  0.00604000  0.89102000  1.0
  O  O224  1  0.70241000  0.87831000  0.20340000  1.0
  O  O225  1  0.29760000  0.12169000  0.79661000  1.0
  O  O226  1  0.82155000  0.51401000  0.20292000  1.0
  O  O227  1  0.17845000  0.48598000  0.79708000  1.0
  O  O228  1  0.83135000  0.41421000  0.30876000  1.0
  O  O229  1  0.16866000  0.58579000  0.69124000  1.0
  O  O230  1  0.00861000  0.34292000  0.27309000  1.0
  O  O231  1  0.99139000  0.65709000  0.72691000  1.0
  O  O232  1  0.05910000  0.43485000  0.16123000  1.0
  O  O233  1  0.94091000  0.56515000  0.83877000  1.0
  O  O234  1  0.97470000  0.05436000  0.25678000  1.0
  O  O235  1  0.02529000  0.94563000  0.74322000  1.0
  O  O236  1  0.99773000  0.10383000  0.04523000  1.0
  O  O237  1  0.00226000  0.89618000  0.95477000  1.0
  F  F238  1  0.50000000  0.00000000  0.00000000  1.0
  F  F239  1  0.99998000  0.50000000  0.50001000  1.0
  F  F240  1  0.84049000  0.19477000  0.30103000  1.0
  F  F241  1  0.15951000  0.80524000  0.69898000  1.0
  F  F242  1  0.80789000  0.20235000  0.11173000  1.0
  F  F243  1  0.19211000  0.79766000  0.88828000  1.0
