# generated using pymatgen
data_CuH12(CO)6
_symmetry_space_group_name_H-M   'P 1'
_cell_length_a   3.75630000
_cell_length_b   4.91422000
_cell_length_c   11.22680000
_cell_angle_alpha   91.62100000
_cell_angle_beta   90.25190000
_cell_angle_gamma   97.45710000
_symmetry_Int_Tables_number   1
_chemical_formula_structural   CuH12(CO)6
_chemical_formula_sum   'Cu1 H12 C6 O6'
_cell_volume   205.39689901
_cell_formula_units_Z   1
loop_
 _symmetry_equiv_pos_site_id
 _symmetry_equiv_pos_as_xyz
  1  'x, y, z'
loop_
 _atom_site_type_symbol
 _atom_site_label
 _atom_site_symmetry_multiplicity
 _atom_site_fract_x
 _atom_site_fract_y
 _atom_site_fract_z
 _atom_site_occupancy
  Cu  Cu0  1  0.50000000  0.99999000  0.50000000  1.0
  H  H1  1  0.59589000  0.35907000  0.19507000  1.0
  H  H2  1  0.40411000  0.64095000  0.80493000  1.0
  H  H3  1  0.17951000  0.47660000  0.18145000  1.0
  H  H4  1  0.82049000  0.52340000  0.81855000  1.0
  H  H5  1  0.41921000  0.79578000  0.02095000  1.0
  H  H6  1  0.58078000  0.20423000  0.97905000  1.0
  H  H7  1  0.84429000  0.69026000  0.03597000  1.0
  H  H8  1  0.15570000  0.30975000  0.96402000  1.0
  H  H9  1  0.74225000  0.59145000  0.59833000  1.0
  H  H10  1  0.25775000  0.40854000  0.40167000  1.0
  H  H11  1  0.96426000  0.87888000  0.65325000  1.0
  H  H12  1  0.03574000  0.12111000  0.34675000  1.0
  C  C13  1  0.58665000  0.76210000  0.26513000  1.0
  C  C14  1  0.41334000  0.23789000  0.73488000  1.0
  C  C15  1  0.46870000  0.54080000  0.17171000  1.0
  C  C16  1  0.53131000  0.45921000  0.82828000  1.0
  C  C17  1  0.55606000  0.61946000  0.04393000  1.0
  C  C18  1  0.44393000  0.38056000  0.95607000  1.0
  O  O19  1  0.44626000  0.71967000  0.37008000  1.0
  O  O20  1  0.55375000  0.28030000  0.62993000  1.0
  O  O21  1  0.80852000  0.96635000  0.24107000  1.0
  O  O22  1  0.19147000  0.03367000  0.75894000  1.0
  O  O23  1  0.84178000  0.78517000  0.57887000  1.0
  O  O24  1  0.15823000  0.21481000  0.42114000  1.0
