# generated using pymatgen
data_Zn3H21C30N14(O2F)3
_symmetry_space_group_name_H-M   'P 1'
_cell_length_a   12.89470000
_cell_length_b   12.89470000
_cell_length_c   12.89470000
_cell_angle_alpha   108.36000000
_cell_angle_beta   108.36000000
_cell_angle_gamma   108.36000000
_symmetry_Int_Tables_number   1
_chemical_formula_structural   Zn3H21C30N14(O2F)3
_chemical_formula_sum   'Zn3 H21 C30 N14 O6 F3'
_cell_volume   1715.02996615
_cell_formula_units_Z   1
loop_
 _symmetry_equiv_pos_site_id
 _symmetry_equiv_pos_as_xyz
  1  'x, y, z'
loop_
 _atom_site_type_symbol
 _atom_site_label
 _atom_site_symmetry_multiplicity
 _atom_site_fract_x
 _atom_site_fract_y
 _atom_site_fract_z
 _atom_site_occupancy
  Zn  Zn0  1  0.03014000  0.03015000  0.03015000  1.0
  Zn  Zn1  1  0.28741000  0.28741000  0.28741000  1.0
  Zn  Zn2  1  0.78102000  0.78102000  0.78102000  1.0
  H  H3  1  0.43331000  0.34902000  0.54954000  1.0
  H  H4  1  0.60859000  0.52373000  0.72305000  1.0
  H  H5  1  0.54954000  0.43331000  0.34902000  1.0
  H  H6  1  0.72305000  0.60859000  0.52373000  1.0
  H  H7  1  0.34902000  0.54954000  0.43331000  1.0
  H  H8  1  0.52373000  0.72305000  0.60859000  1.0
  H  H9  1  0.54954000  0.34902000  0.43331000  1.0
  H  H10  1  0.72305000  0.52373000  0.60859000  1.0
  H  H11  1  0.34902000  0.43331000  0.54954000  1.0
  H  H12  1  0.52373000  0.60859000  0.72305000  1.0
  H  H13  1  0.43331000  0.54954000  0.34902000  1.0
  H  H14  1  0.60859000  0.72305000  0.52373000  1.0
  H  H15  1  0.20457000  0.20457000  0.64118000  1.0
  H  H16  1  0.82678000  0.82678000  0.49603000  1.0
  H  H17  1  0.87901000  0.87901000  0.34226000  1.0
  H  H18  1  0.64117000  0.20457000  0.20457000  1.0
  H  H19  1  0.49603000  0.82678000  0.82678000  1.0
  H  H20  1  0.34226000  0.87900000  0.87900000  1.0
  H  H21  1  0.20457000  0.64117000  0.20457000  1.0
  H  H22  1  0.82678000  0.49603000  0.82678000  1.0
  H  H23  1  0.87901000  0.34226000  0.87901000  1.0
  C  C24  1  0.07776000  0.07776000  0.39298000  1.0
  C  C25  1  0.04508000  0.04508000  0.48086000  1.0
  C  C26  1  0.12115000  0.12115000  0.60751000  1.0
  C  C27  1  0.09023000  0.09022000  0.69129000  1.0
  C  C28  1  0.98401000  0.98401000  0.65408000  1.0
  C  C29  1  0.90945000  0.90945000  0.52626000  1.0
  C  C30  1  0.93814000  0.93814000  0.44059000  1.0
  C  C31  1  0.94668000  0.94668000  0.74047000  1.0
  C  C32  1  0.43553000  0.43553000  0.55199000  1.0
  C  C33  1  0.54958000  0.54958000  0.66528000  1.0
  C  C34  1  0.39298000  0.07776000  0.07776000  1.0
  C  C35  1  0.48086000  0.04508000  0.04508000  1.0
  C  C36  1  0.60751000  0.12115000  0.12115000  1.0
  C  C37  1  0.69129000  0.09022000  0.09023000  1.0
  C  C38  1  0.65408000  0.98401000  0.98401000  1.0
  C  C39  1  0.52626000  0.90945000  0.90945000  1.0
  C  C40  1  0.44059000  0.93813000  0.93814000  1.0
  C  C41  1  0.74047000  0.94668000  0.94668000  1.0
  C  C42  1  0.55199000  0.43553000  0.43553000  1.0
  C  C43  1  0.66528000  0.54958000  0.54958000  1.0
  C  C44  1  0.07776000  0.39298000  0.07776000  1.0
  C  C45  1  0.04508000  0.48086000  0.04508000  1.0
  C  C46  1  0.12115000  0.60751000  0.12115000  1.0
  C  C47  1  0.09022000  0.69129000  0.09023000  1.0
  C  C48  1  0.98401000  0.65408000  0.98401000  1.0
  C  C49  1  0.90945000  0.52626000  0.90945000  1.0
  C  C50  1  0.93814000  0.44059000  0.93814000  1.0
  C  C51  1  0.94668000  0.74047000  0.94668000  1.0
  C  C52  1  0.43553000  0.55199000  0.43553000  1.0
  C  C53  1  0.54958000  0.66528000  0.54958000  1.0
  N  N54  1  0.07410000  0.07410000  0.22610000  1.0
  N  N55  1  0.17416000  0.17416000  0.32126000  1.0
  N  N56  1  0.17946000  0.17946000  0.42725000  1.0
  N  N57  1  0.01181000  0.01181000  0.26871000  1.0
  N  N58  1  0.22610000  0.07410000  0.07409000  1.0
  N  N59  1  0.32126000  0.17416000  0.17416000  1.0
  N  N60  1  0.42725000  0.17946000  0.17946000  1.0
  N  N61  1  0.26871000  0.01181000  0.01180000  1.0
  N  N62  1  0.07409000  0.22610000  0.07410000  1.0
  N  N63  1  0.17416000  0.32126000  0.17416000  1.0
  N  N64  1  0.17946000  0.42725000  0.17946000  1.0
  N  N65  1  0.01180000  0.26871000  0.01181000  1.0
  N  N66  1  0.43662000  0.43662000  0.43662000  1.0
  N  N67  1  0.62473000  0.62473000  0.62473000  1.0
  O  O68  1  0.01089000  0.01088000  0.85485000  1.0
  O  O69  1  0.84537000  0.84537000  0.68624000  1.0
  O  O70  1  0.85485000  0.01089000  0.01089000  1.0
  O  O71  1  0.68625000  0.84538000  0.84537000  1.0
  O  O72  1  0.01089000  0.85485000  0.01088000  1.0
  O  O73  1  0.84537000  0.68625000  0.84537000  1.0
  F  F74  1  0.16792000  0.16791000  0.81233000  1.0
  F  F75  1  0.81233000  0.16791000  0.16792000  1.0
  F  F76  1  0.16791000  0.81232000  0.16792000  1.0
