# generated using pymatgen
data_CoH20C14SN2(ClO)2
_symmetry_space_group_name_H-M   'P 1'
_cell_length_a   8.51472000
_cell_length_b   8.51458000
_cell_length_c   11.98690000
_cell_angle_alpha   101.55200000
_cell_angle_beta   101.55400000
_cell_angle_gamma   97.47420000
_symmetry_Int_Tables_number   1
_chemical_formula_structural   CoH20C14SN2(ClO)2
_chemical_formula_sum   'Co2 H40 C28 S2 N4 Cl4 O4'
_cell_volume   820.96809710
_cell_formula_units_Z   2
loop_
 _symmetry_equiv_pos_site_id
 _symmetry_equiv_pos_as_xyz
  1  'x, y, z'
loop_
 _atom_site_type_symbol
 _atom_site_label
 _atom_site_symmetry_multiplicity
 _atom_site_fract_x
 _atom_site_fract_y
 _atom_site_fract_z
 _atom_site_occupancy
  Co  Co0  1  0.50000000  0.50000000  0.00000000  1.0
  Co  Co1  1  0.50000000  0.50000000  0.50000000  1.0
  H  H2  1  0.37802000  0.35101000  0.17087000  1.0
  H  H3  1  0.64899000  0.62198000  0.32913000  1.0
  H  H4  1  0.62199000  0.64900000  0.82913000  1.0
  H  H5  1  0.35100000  0.37801000  0.67087000  1.0
  H  H6  1  0.71960000  0.41976000  0.84785000  1.0
  H  H7  1  0.58024000  0.28038000  0.65215000  1.0
  H  H8  1  0.28040000  0.58025000  0.15216000  1.0
  H  H9  1  0.41975000  0.71961000  0.34785000  1.0
  H  H10  1  0.69802000  0.39246000  0.18547000  1.0
  H  H11  1  0.60753000  0.30198000  0.31453000  1.0
  H  H12  1  0.30198000  0.60755000  0.81452000  1.0
  H  H13  1  0.39247000  0.69801000  0.68547000  1.0
  H  H14  1  0.93948000  0.25019000  0.20679000  1.0
  H  H15  1  0.74981000  0.06053000  0.29322000  1.0
  H  H16  1  0.06052000  0.74981000  0.79321000  1.0
  H  H17  1  0.25020000  0.93947000  0.70678000  1.0
  H  H18  1  0.06774000  0.18556000  0.03673000  1.0
  H  H19  1  0.81445000  0.93226000  0.46327000  1.0
  H  H20  1  0.93226000  0.81443000  0.96326000  1.0
  H  H21  1  0.18556000  0.06775000  0.53673000  1.0
  H  H22  1  0.11053000  0.30438000  0.85052000  1.0
  H  H23  1  0.69563000  0.88946000  0.64948000  1.0
  H  H24  1  0.88947000  0.69562000  0.14948000  1.0
  H  H25  1  0.30437000  0.11054000  0.35052000  1.0
  H  H26  1  0.93114000  0.34012000  0.76160000  1.0
  H  H27  1  0.65988000  0.06883000  0.73840000  1.0
  H  H28  1  0.06886000  0.65988000  0.23840000  1.0
  H  H29  1  0.34012000  0.93117000  0.26161000  1.0
  H  H30  1  0.33900000  0.09867000  0.96657000  1.0
  H  H31  1  0.90133000  0.66101000  0.53343000  1.0
  H  H32  1  0.66101000  0.90134000  0.03344000  1.0
  H  H33  1  0.09865000  0.33897000  0.46656000  1.0
  H  H34  1  0.29931000  0.08304000  0.10574000  1.0
  H  H35  1  0.91695000  0.70068000  0.39424000  1.0
  H  H36  1  0.70070000  0.91697000  0.89426000  1.0
  H  H37  1  0.08304000  0.29931000  0.60575000  1.0
  H  H38  1  0.50449000  0.11276000  0.08830000  1.0
  H  H39  1  0.88723000  0.49551000  0.41171000  1.0
  H  H40  1  0.49553000  0.88725000  0.91171000  1.0
  H  H41  1  0.11276000  0.50447000  0.58828000  1.0
  C  C42  1  0.76960000  0.37798000  0.92527000  1.0
  C  C43  1  0.62202000  0.23039000  0.57473000  1.0
  C  C44  1  0.23041000  0.62202000  0.07472000  1.0
  C  C45  1  0.37798000  0.76961000  0.42527000  1.0
  C  C46  1  0.75849000  0.36222000  0.11444000  1.0
  C  C47  1  0.63778000  0.24151000  0.38557000  1.0
  C  C48  1  0.24151000  0.63779000  0.88556000  1.0
  C  C49  1  0.36222000  0.75849000  0.61443000  1.0
  C  C50  1  0.89197000  0.28342000  0.12507000  1.0
  C  C51  1  0.71658000  0.10804000  0.37493000  1.0
  C  C52  1  0.10803000  0.71658000  0.87493000  1.0
  C  C53  1  0.28342000  0.89196000  0.62507000  1.0
  C  C54  1  0.96414000  0.24865000  0.03073000  1.0
  C  C55  1  0.75135000  0.03585000  0.46927000  1.0
  C  C56  1  0.03585000  0.75135000  0.96927000  1.0
  C  C57  1  0.24865000  0.96415000  0.53073000  1.0
  C  C58  1  0.90306000  0.29854000  0.92858000  1.0
  C  C59  1  0.70147000  0.09694000  0.57142000  1.0
  C  C60  1  0.09694000  0.70146000  0.07142000  1.0
  C  C61  1  0.29853000  0.90306000  0.42858000  1.0
  C  C62  1  0.97717000  0.26948000  0.82457000  1.0
  C  C63  1  0.73052000  0.02282000  0.67543000  1.0
  C  C64  1  0.02283000  0.73052000  0.17542000  1.0
  C  C65  1  0.26947000  0.97718000  0.32457000  1.0
  C  C66  1  0.38276000  0.14337000  0.06168000  1.0
  C  C67  1  0.85663000  0.61724000  0.43832000  1.0
  C  C68  1  0.61725000  0.85664000  0.93833000  1.0
  C  C69  1  0.14336000  0.38274000  0.56167000  1.0
  S  S70  1  0.94433000  0.05567000  0.75001000  1.0
  S  S71  1  0.05567000  0.94433000  0.24999000  1.0
  N  N72  1  0.69584000  0.40745000  0.01547000  1.0
  N  N73  1  0.59254000  0.30416000  0.48453000  1.0
  N  N74  1  0.30416000  0.59256000  0.98453000  1.0
  N  N75  1  0.40745000  0.69584000  0.51547000  1.0
  Cl  Cl76  1  0.60295000  0.68893000  0.17375000  1.0
  Cl  Cl77  1  0.31107000  0.39706000  0.32625000  1.0
  Cl  Cl78  1  0.39705000  0.31108000  0.82625000  1.0
  Cl  Cl79  1  0.68893000  0.60293000  0.67375000  1.0
  O  O80  1  0.38742000  0.31577000  0.08849000  1.0
  O  O81  1  0.68422000  0.61258000  0.41151000  1.0
  O  O82  1  0.61259000  0.68424000  0.91151000  1.0
  O  O83  1  0.31576000  0.38740000  0.58849000  1.0
