# generated using pymatgen
data_Zn2H12C25N2O13
_symmetry_space_group_name_H-M   'P 1'
_cell_length_a   9.32149000
_cell_length_b   9.83725000
_cell_length_c   11.00540000
_cell_angle_alpha   84.40830000
_cell_angle_beta   83.47670000
_cell_angle_gamma   85.27220000
_symmetry_Int_Tables_number   1
_chemical_formula_structural   Zn2H12C25N2O13
_chemical_formula_sum   'Zn2 H12 C25 N2 O13'
_cell_volume   995.26518923
_cell_formula_units_Z   1
loop_
 _symmetry_equiv_pos_site_id
 _symmetry_equiv_pos_as_xyz
  1  'x, y, z'
loop_
 _atom_site_type_symbol
 _atom_site_label
 _atom_site_symmetry_multiplicity
 _atom_site_fract_x
 _atom_site_fract_y
 _atom_site_fract_z
 _atom_site_occupancy
  Zn  Zn0  1  0.51591000  0.36139000  0.51110000  1.0
  Zn  Zn1  1  0.48869000  0.65453000  0.48470000  1.0
  H  H2  1  0.20689000  0.20255000  0.41349000  1.0
  H  H3  1  0.68731000  0.20603000  0.11342000  1.0
  H  H4  1  0.75900000  0.19923000  0.59813000  1.0
  H  H5  1  0.04387000  0.23411000  0.60188000  1.0
  H  H6  1  0.19267000  0.95658000  0.38180000  1.0
  H  H7  1  0.71322000  0.84313000  0.51530000  1.0
  H  H8  1  0.43598000  0.70757000  0.10314000  1.0
  H  H9  1  0.15407000  0.91559000  0.54379000  1.0
  H  H10  1  0.43842000  0.71390000  0.87701000  1.0
  H  H11  1  0.39784000  0.17671000  0.83342000  1.0
  H  H12  1  0.77500000  0.09520000  0.88181000  1.0
  H  H13  1  0.53786000  0.01077000  0.15611000  1.0
  C  C14  1  0.49924000  0.49248000  0.26583000  1.0
  C  C15  1  0.39168000  0.09474000  0.50105000  1.0
  C  C16  1  0.23257000  0.13189000  0.49266000  1.0
  C  C17  1  0.21914000  0.53016000  0.51117000  1.0
  C  C18  1  0.22209000  0.97342000  0.47256000  1.0
  C  C19  1  0.50021000  0.49789000  0.73349000  1.0
  C  C20  1  0.78515000  0.51660000  0.48055000  1.0
  C  C21  1  0.06581000  0.52566000  0.50193000  1.0
  C  C22  1  0.93846000  0.52059000  0.48997000  1.0
  C  C23  1  0.52287000  0.37363000  0.06936000  1.0
  C  C24  1  0.49299000  0.49166000  0.13124000  1.0
  C  C25  1  0.46122000  0.61693000  0.93059000  1.0
  C  C26  1  0.46041000  0.61348000  0.05782000  1.0
  C  C27  1  0.48555000  0.13038000  0.88788000  1.0
  C  C28  1  0.73423000  0.20531000  0.87673000  1.0
  C  C29  1  0.48620000  0.11725000  0.15639000  1.0
  C  C30  1  0.76541000  0.09657000  0.56366000  1.0
  C  C31  1  0.15012000  0.17668000  0.61157000  1.0
  C  C32  1  0.49398000  0.49753000  0.86912000  1.0
  C  C33  1  0.52320000  0.37744000  0.94286000  1.0
  C  C34  1  0.57836000  0.22977000  0.93526000  1.0
  C  C35  1  0.57699000  0.22420000  0.08514000  1.0
  C  C36  1  0.38182000  0.95664000  0.48517000  1.0
  C  C37  1  0.61810000  0.91500000  0.51061000  1.0
  C  C38  1  0.62715000  0.05253000  0.52936000  1.0
  N  N39  1  0.49393000  0.86395000  0.48745000  1.0
  N  N40  1  0.51133000  0.14726000  0.52361000  1.0
  O  O41  1  0.52558000  0.37677000  0.32530000  1.0
  O  O42  1  0.80833000  0.29601000  0.82936000  1.0
  O  O43  1  0.36645000  0.14035000  0.21078000  1.0
  O  O44  1  0.87835000  0.02347000  0.55527000  1.0
  O  O45  1  0.19537000  0.14917000  0.71139000  1.0
  O  O46  1  0.47848000  0.60797000  0.31057000  1.0
  O  O47  1  0.29246000  0.41487000  0.51666000  1.0
  O  O48  1  0.26621000  0.64769000  0.51106000  1.0
  O  O49  1  0.50822000  0.38003000  0.69205000  1.0
  O  O50  1  0.49740000  0.61255000  0.66969000  1.0
  O  O51  1  0.73550000  0.39882000  0.49354000  1.0
  O  O52  1  0.71426000  0.63117000  0.46129000  1.0
  O  O53  1  0.51002000  0.00622000  0.90565000  1.0
