# generated using pymatgen
data_ZnH10C20(NO3)2
_symmetry_space_group_name_H-M   'P 1'
_cell_length_a   10.85370000
_cell_length_b   11.32500000
_cell_length_c   17.80420000
_cell_angle_alpha   89.99940000
_cell_angle_beta   89.99990000
_cell_angle_gamma   74.44500000
_symmetry_Int_Tables_number   1
_chemical_formula_structural   ZnH10C20(NO3)2
_chemical_formula_sum   'Zn4 H40 C80 N8 O24'
_cell_volume   2108.30371719
_cell_formula_units_Z   4
loop_
 _symmetry_equiv_pos_site_id
 _symmetry_equiv_pos_as_xyz
  1  'x, y, z'
loop_
 _atom_site_type_symbol
 _atom_site_label
 _atom_site_symmetry_multiplicity
 _atom_site_fract_x
 _atom_site_fract_y
 _atom_site_fract_z
 _atom_site_occupancy
  Zn  Zn0  1  0.54088000  0.86628000  0.00750000  1.0
  Zn  Zn1  1  0.95912000  0.13372000  0.50750000  1.0
  Zn  Zn2  1  0.45912000  0.13372000  0.99250000  1.0
  Zn  Zn3  1  0.04088000  0.86628000  0.49250000  1.0
  H  H4  1  0.35095000  0.84007000  0.36570000  1.0
  H  H5  1  0.14904000  0.15995000  0.86569000  1.0
  H  H6  1  0.64905000  0.15993000  0.63431000  1.0
  H  H7  1  0.85094000  0.84006000  0.13431000  1.0
  H  H8  1  0.45040000  0.83032000  0.23727000  1.0
  H  H9  1  0.04960000  0.16969000  0.73727000  1.0
  H  H10  1  0.54960000  0.16968000  0.76273000  1.0
  H  H11  1  0.95039000  0.83030000  0.26273000  1.0
  H  H12  1  0.29438000  0.21920000  0.21348000  1.0
  H  H13  1  0.20562000  0.78080000  0.71349000  1.0
  H  H14  1  0.70562000  0.78079000  0.78651000  1.0
  H  H15  1  0.79439000  0.21919000  0.28652000  1.0
  H  H16  1  0.19294000  0.22786000  0.34097000  1.0
  H  H17  1  0.30706000  0.77215000  0.84097000  1.0
  H  H18  1  0.80706000  0.77214000  0.65903000  1.0
  H  H19  1  0.69295000  0.22786000  0.15903000  1.0
  H  H20  1  0.78628000  0.72438000  0.95468000  1.0
  H  H21  1  0.71372000  0.27562000  0.45467000  1.0
  H  H22  1  0.21372000  0.27562000  0.04532000  1.0
  H  H23  1  0.28629000  0.72438000  0.54533000  1.0
  H  H24  1  0.91539000  0.50532000  0.94719000  1.0
  H  H25  1  0.58461000  0.49469000  0.44719000  1.0
  H  H26  1  0.08461000  0.49468000  0.05281000  1.0
  H  H27  1  0.41540000  0.50532000  0.55281000  1.0
  H  H28  1  0.61659000  0.40845000  0.07361000  1.0
  H  H29  1  0.88341000  0.59155000  0.57361000  1.0
  H  H30  1  0.38341000  0.59156000  0.92639000  1.0
  H  H31  1  0.11660000  0.40845000  0.42639000  1.0
  H  H32  1  0.49847000  0.63307000  0.07588000  1.0
  H  H33  1  0.00153000  0.36692000  0.57588000  1.0
  H  H34  1  0.50153000  0.36693000  0.92411000  1.0
  H  H35  1  0.99848000  0.63308000  0.42412000  1.0
  H  H36  1  0.10055000  0.13888000  0.16245000  1.0
  H  H37  1  0.39944000  0.86111000  0.66244000  1.0
  H  H38  1  0.89944000  0.86112000  0.83756000  1.0
  H  H39  1  0.60056000  0.13888000  0.33755000  1.0
  H  H40  1  0.79099000  0.08702000  0.84102000  1.0
  H  H41  1  0.70901000  0.91298000  0.34101000  1.0
  H  H42  1  0.20901000  0.91298000  0.15899000  1.0
  H  H43  1  0.29099000  0.08701000  0.65898000  1.0
  C  C44  1  0.19581000  0.03639000  0.43303000  1.0
  C  C45  1  0.30417000  0.96362000  0.93303000  1.0
  C  C46  1  0.80418000  0.96361000  0.56697000  1.0
  C  C47  1  0.69582000  0.03639000  0.06697000  1.0
  C  C48  1  0.26753000  0.03457000  0.36092000  1.0
  C  C49  1  0.23245000  0.96545000  0.86092000  1.0
  C  C50  1  0.73247000  0.96544000  0.63908000  1.0
  C  C51  1  0.76754000  0.03456000  0.13908000  1.0
  C  C52  1  0.34130000  0.92256000  0.33223000  1.0
  C  C53  1  0.15869000  0.07745000  0.83222000  1.0
  C  C54  1  0.65870000  0.07744000  0.66777000  1.0
  C  C55  1  0.84130000  0.92255000  0.16777000  1.0
  C  C56  1  0.39589000  0.91713000  0.26125000  1.0
  C  C57  1  0.10410000  0.08288000  0.76124000  1.0
  C  C58  1  0.60411000  0.08287000  0.73875000  1.0
  C  C59  1  0.89589000  0.91712000  0.23875000  1.0
  C  C60  1  0.37710000  0.02391000  0.21790000  1.0
  C  C61  1  0.12289000  0.97610000  0.71790000  1.0
  C  C62  1  0.62289000  0.97609000  0.78210000  1.0
  C  C63  1  0.87711000  0.02390000  0.28210000  1.0
  C  C64  1  0.30733000  0.13688000  0.24760000  1.0
  C  C65  1  0.19266000  0.86313000  0.74760000  1.0
  C  C66  1  0.69267000  0.86312000  0.75240000  1.0
  C  C67  1  0.80734000  0.13687000  0.25240000  1.0
  C  C68  1  0.25214000  0.14188000  0.31846000  1.0
  C  C69  1  0.24785000  0.85814000  0.81846000  1.0
  C  C70  1  0.74786000  0.85812000  0.68154000  1.0
  C  C71  1  0.75215000  0.14187000  0.18154000  1.0
  C  C72  1  0.42321000  0.01573000  0.13823000  1.0
  C  C73  1  0.07679000  0.98427000  0.63823000  1.0
  C  C74  1  0.57679000  0.98427000  0.86177000  1.0
  C  C75  1  0.92321000  0.01571000  0.36177000  1.0
  C  C76  1  0.75328000  0.65138000  0.98076000  1.0
  C  C77  1  0.74672000  0.34862000  0.48076000  1.0
  C  C78  1  0.24672000  0.34862000  0.01924000  1.0
  C  C79  1  0.25329000  0.65138000  0.51924000  1.0
  C  C80  1  0.82441000  0.52975000  0.97695000  1.0
  C  C81  1  0.67559000  0.47025000  0.47695000  1.0
  C  C82  1  0.17559000  0.47025000  0.02305000  1.0
  C  C83  1  0.32441000  0.52975000  0.52305000  1.0
  C  C84  1  0.77464000  0.44163000  0.01082000  1.0
  C  C85  1  0.72536000  0.55836000  0.51082000  1.0
  C  C86  1  0.22536000  0.55837000  0.98918000  1.0
  C  C87  1  0.27465000  0.44164000  0.48918000  1.0
  C  C88  1  0.65726000  0.47662000  0.04769000  1.0
  C  C89  1  0.84274000  0.52338000  0.54769000  1.0
  C  C90  1  0.34274000  0.52339000  0.95231000  1.0
  C  C91  1  0.15727000  0.47662000  0.45231000  1.0
  C  C92  1  0.59175000  0.60047000  0.04885000  1.0
  C  C93  1  0.90825000  0.39953000  0.54884000  1.0
  C  C94  1  0.40826000  0.39954000  0.95116000  1.0
  C  C95  1  0.09175000  0.60047000  0.45116000  1.0
  C  C96  1  0.81115000  0.24696000  0.94625000  1.0
  C  C97  1  0.68885000  0.75304000  0.44625000  1.0
  C  C98  1  0.18885000  0.75303000  0.05375000  1.0
  C  C99  1  0.31115000  0.24696000  0.55375000  1.0
  C  C100  1  0.88150000  0.11608000  0.94326000  1.0
  C  C101  1  0.61849000  0.88392000  0.44326000  1.0
  C  C102  1  0.11849000  0.88392000  0.05674000  1.0
  C  C103  1  0.38151000  0.11608000  0.55674000  1.0
  C  C104  1  0.96942000  0.06400000  0.00082000  1.0
  C  C105  1  0.53058000  0.93600000  0.50082000  1.0
  C  C106  1  0.03057000  0.93600000  0.99918000  1.0
  C  C107  1  0.46943000  0.06400000  0.49918000  1.0
  C  C108  1  0.99758000  0.13596000  0.06015000  1.0
  C  C109  1  0.50242000  0.86403000  0.56015000  1.0
  C  C110  1  0.00241000  0.86403000  0.93986000  1.0
  C  C111  1  0.49759000  0.13597000  0.43985000  1.0
  C  C112  1  0.93616000  0.26904000  0.06227000  1.0
  C  C113  1  0.56384000  0.73096000  0.56227000  1.0
  C  C114  1  0.06384000  0.73096000  0.93773000  1.0
  C  C115  1  0.43617000  0.26904000  0.43773000  1.0
  C  C116  1  0.08194000  0.08203000  0.11680000  1.0
  C  C117  1  0.41806000  0.91797000  0.61680000  1.0
  C  C118  1  0.91806000  0.91797000  0.88320000  1.0
  C  C119  1  0.58194000  0.08203000  0.38320000  1.0
  C  C120  1  0.85801000  0.04401000  0.88482000  1.0
  C  C121  1  0.64199000  0.95599000  0.38482000  1.0
  C  C122  1  0.14199000  0.95599000  0.11518000  1.0
  C  C123  1  0.35802000  0.04400000  0.61518000  1.0
  N  N124  1  0.63902000  0.68569000  0.01557000  1.0
  N  N125  1  0.86098000  0.31431000  0.51556000  1.0
  N  N126  1  0.36098000  0.31431000  0.98444000  1.0
  N  N127  1  0.13902000  0.68569000  0.48444000  1.0
  N  N128  1  0.84312000  0.31411000  0.00667000  1.0
  N  N129  1  0.65688000  0.68589000  0.50667000  1.0
  N  N130  1  0.15688000  0.68589000  0.99333000  1.0
  N  N131  1  0.34312000  0.31411000  0.49333000  1.0
  O  O132  1  0.19862000  0.93315000  0.46220000  1.0
  O  O133  1  0.30136000  0.06686000  0.96220000  1.0
  O  O134  1  0.80137000  0.06685000  0.53780000  1.0
  O  O135  1  0.69862000  0.93316000  0.03780000  1.0
  O  O136  1  0.13185000  0.14041000  0.45857000  1.0
  O  O137  1  0.36814000  0.85960000  0.95857000  1.0
  O  O138  1  0.86814000  0.85959000  0.54142000  1.0
  O  O139  1  0.63186000  0.14042000  0.04143000  1.0
  O  O140  1  0.47322000  0.90846000  0.11234000  1.0
  O  O141  1  0.02678000  0.09155000  0.61233000  1.0
  O  O142  1  0.52678000  0.09154000  0.88766000  1.0
  O  O143  1  0.97322000  0.90844000  0.38766000  1.0
  O  O144  1  0.40666000  0.11578000  0.10238000  1.0
  O  O145  1  0.09333000  0.88422000  0.60238000  1.0
  O  O146  1  0.59334000  0.88422000  0.89762000  1.0
  O  O147  1  0.90667000  0.11576000  0.39762000  1.0
  O  O148  1  0.73000000  0.29843000  0.90019000  1.0
  O  O149  1  0.77000000  0.70157000  0.40019000  1.0
  O  O150  1  0.26999000  0.70157000  0.09982000  1.0
  O  O151  1  0.23001000  0.29843000  0.59981000  1.0
  O  O152  1  0.96179000  0.33947000  0.10883000  1.0
  O  O153  1  0.53822000  0.66052000  0.60884000  1.0
  O  O154  1  0.03821000  0.66052000  0.89117000  1.0
  O  O155  1  0.46180000  0.33948000  0.39117000  1.0
