# generated using pymatgen
data_CoH18C27SNClO6
_symmetry_space_group_name_H-M   'P 1'
_cell_length_a   9.39995000
_cell_length_b   11.30430000
_cell_length_c   12.79320000
_cell_angle_alpha   102.60100000
_cell_angle_beta   107.60100000
_cell_angle_gamma   107.24500000
_symmetry_Int_Tables_number   1
_chemical_formula_structural   CoH18C27SNClO6
_chemical_formula_sum   'Co2 H36 C54 S2 N2 Cl2 O12'
_cell_volume   1164.62656089
_cell_formula_units_Z   2
loop_
 _symmetry_equiv_pos_site_id
 _symmetry_equiv_pos_as_xyz
  1  'x, y, z'
loop_
 _atom_site_type_symbol
 _atom_site_label
 _atom_site_symmetry_multiplicity
 _atom_site_fract_x
 _atom_site_fract_y
 _atom_site_fract_z
 _atom_site_occupancy
  Co  Co0  1  0.11963000  0.59302000  0.54659000  1.0
  Co  Co1  1  0.88037000  0.40698000  0.45340000  1.0
  H  H2  1  0.38425000  0.75395000  0.48726000  1.0
  H  H3  1  0.61574000  0.24603000  0.51274000  1.0
  H  H4  1  0.60190000  0.97876000  0.57144000  1.0
  H  H5  1  0.39809000  0.02123000  0.42856000  1.0
  H  H6  1  0.48626000  0.03065000  0.87681000  1.0
  H  H7  1  0.51374000  0.96933000  0.12319000  1.0
  H  H8  1  0.27672000  0.80627000  0.78025000  1.0
  H  H9  1  0.72327000  0.19372000  0.21974000  1.0
  H  H10  1  0.73530000  0.19484000  0.71970000  1.0
  H  H11  1  0.26470000  0.80514000  0.28030000  1.0
  H  H12  1  0.69859000  0.20533000  0.95257000  1.0
  H  H13  1  0.30140000  0.79466000  0.04743000  1.0
  H  H14  1  0.89135000  0.39878000  0.78445000  1.0
  H  H15  1  0.10865000  0.60121000  0.21554000  1.0
  H  H16  1  0.88262000  0.38468000  0.11697000  1.0
  H  H17  1  0.11737000  0.61532000  0.88303000  1.0
  H  H18  1  0.94717000  0.19904000  0.18035000  1.0
  H  H19  1  0.05284000  0.80096000  0.81965000  1.0
  H  H20  1  0.02874000  0.10179000  0.02899000  1.0
  H  H21  1  0.97127000  0.89822000  0.97101000  1.0
  H  H22  1  0.52871000  0.36417000  0.24092000  1.0
  H  H23  1  0.47129000  0.63584000  0.75908000  1.0
  H  H24  1  0.44202000  0.47034000  0.38810000  1.0
  H  H25  1  0.55798000  0.52968000  0.61191000  1.0
  H  H26  1  0.02527000  0.07397000  0.81845000  1.0
  H  H27  1  0.97474000  0.92603000  0.18156000  1.0
  H  H28  1  0.93416000  0.17469000  0.66844000  1.0
  H  H29  1  0.06584000  0.82530000  0.33157000  1.0
  H  H30  1  0.40343000  0.49066000  0.81991000  1.0
  H  H31  1  0.59656000  0.50935000  0.18009000  1.0
  H  H32  1  0.50023000  0.38608000  0.96477000  1.0
  H  H33  1  0.49978000  0.61393000  0.03523000  1.0
  H  H34  1  0.96959000  0.15307000  0.38929000  1.0
  H  H35  1  0.03042000  0.84694000  0.61071000  1.0
  H  H36  1  0.72677000  0.96751000  0.36559000  1.0
  H  H37  1  0.27324000  0.03250000  0.63441000  1.0
  C  C38  1  0.41062000  0.81944000  0.57314000  1.0
  C  C39  1  0.58937000  0.18054000  0.42686000  1.0
  C  C40  1  0.53172000  0.94510000  0.62085000  1.0
  C  C41  1  0.46828000  0.05489000  0.37915000  1.0
  C  C42  1  0.56388000  0.02810000  0.73211000  1.0
  C  C43  1  0.43611000  0.97189000  0.26788000  1.0
  C  C44  1  0.46924000  0.97458000  0.79013000  1.0
  C  C45  1  0.53075000  0.02541000  0.20987000  1.0
  C  C46  1  0.35069000  0.84823000  0.73640000  1.0
  C  C47  1  0.64930000  0.15175000  0.26360000  1.0
  C  C48  1  0.68700000  0.16104000  0.78037000  1.0
  C  C49  1  0.31300000  0.83894000  0.21964000  1.0
  C  C50  1  0.74535000  0.24167000  0.89223000  1.0
  C  C51  1  0.25464000  0.75832000  0.10777000  1.0
  C  C52  1  0.87136000  0.37339000  0.94363000  1.0
  C  C53  1  0.12862000  0.62659000  0.05636000  1.0
  C  C54  1  0.93898000  0.44190000  0.87904000  1.0
  C  C55  1  0.06102000  0.55809000  0.12096000  1.0
  C  C56  1  0.93463000  0.43552000  0.06572000  1.0
  C  C57  1  0.06536000  0.56447000  0.93428000  1.0
  C  C58  1  0.12893000  0.40584000  0.37657000  1.0
  C  C59  1  0.87107000  0.59416000  0.62343000  1.0
  C  C60  1  0.18812000  0.34380000  0.29262000  1.0
  C  C61  1  0.81189000  0.65621000  0.70738000  1.0
  C  C62  1  0.07383000  0.23710000  0.19272000  1.0
  C  C63  1  0.92618000  0.76291000  0.80728000  1.0
  C  C64  1  0.12031000  0.18107000  0.10778000  1.0
  C  C65  1  0.87970000  0.81894000  0.89222000  1.0
  C  C66  1  0.28370000  0.22953000  0.12466000  1.0
  C  C67  1  0.71630000  0.77050000  0.87534000  1.0
  C  C68  1  0.40074000  0.33164000  0.22599000  1.0
  C  C69  1  0.59926000  0.66838000  0.77401000  1.0
  C  C70  1  0.35198000  0.38977000  0.30938000  1.0
  C  C71  1  0.64802000  0.61025000  0.69062000  1.0
  C  C72  1  0.26639000  0.22773000  0.90215000  1.0
  C  C73  1  0.73363000  0.77228000  0.09785000  1.0
  C  C74  1  0.10683000  0.16616000  0.81945000  1.0
  C  C75  1  0.89318000  0.83384000  0.18054000  1.0
  C  C76  1  0.05581000  0.22273000  0.73643000  1.0
  C  C77  1  0.94419000  0.77727000  0.26357000  1.0
  C  C78  1  0.16115000  0.34126000  0.73783000  1.0
  C  C79  1  0.83885000  0.65874000  0.26218000  1.0
  C  C80  1  0.32119000  0.40033000  0.82058000  1.0
  C  C81  1  0.67880000  0.59967000  0.17941000  1.0
  C  C82  1  0.37497000  0.34312000  0.90207000  1.0
  C  C83  1  0.62504000  0.65688000  0.09793000  1.0
  C  C84  1  0.10337000  0.40295000  0.65072000  1.0
  C  C85  1  0.89662000  0.59704000  0.34928000  1.0
  C  C86  1  0.13525000  0.10211000  0.51214000  1.0
  C  C87  1  0.86476000  0.89789000  0.48786000  1.0
  C  C88  1  0.98272000  0.08549000  0.43686000  1.0
  C  C89  1  0.01729000  0.91452000  0.56315000  1.0
  C  C90  1  0.84634000  0.98261000  0.42502000  1.0
  C  C91  1  0.15367000  0.01739000  0.57498000  1.0
  S  S92  1  0.33842000  0.16084000  0.01108000  1.0
  S  S93  1  0.66158000  0.83916000  0.98891000  1.0
  N  N94  1  0.31935000  0.77053000  0.62905000  1.0
  N  N95  1  0.68064000  0.22946000  0.37095000  1.0
  Cl  Cl96  1  0.30544000  0.23392000  0.53204000  1.0
  Cl  Cl97  1  0.69457000  0.76608000  0.46796000  1.0
  O  O98  1  0.22048000  0.51860000  0.45421000  1.0
  O  O99  1  0.77951000  0.48139000  0.54578000  1.0
  O  O100  1  0.98342000  0.34044000  0.36272000  1.0
  O  O101  1  0.01658000  0.65957000  0.63728000  1.0
  O  O102  1  0.51393000  0.21368000  0.05212000  1.0
  O  O103  1  0.48608000  0.78634000  0.94789000  1.0
  O  O104  1  0.24690000  0.01933000  0.96530000  1.0
  O  O105  1  0.75312000  0.98068000  0.03472000  1.0
  O  O106  1  0.19792000  0.51643000  0.66031000  1.0
  O  O107  1  0.80207000  0.48357000  0.33969000  1.0
  O  O108  1  0.96066000  0.33813000  0.57124000  1.0
  O  O109  1  0.03933000  0.66186000  0.42875000  1.0
