# generated using pymatgen
data_CoH6(C3N2)2
_symmetry_space_group_name_H-M   'P 1'
_cell_length_a   8.85671000
_cell_length_b   9.89056000
_cell_length_c   14.45114943
_cell_angle_alpha   82.12286995
_cell_angle_beta   72.14963854
_cell_angle_gamma   63.41510000
_symmetry_Int_Tables_number   1
_chemical_formula_structural   CoH6(C3N2)2
_chemical_formula_sum   'Co4 H24 C24 N16'
_cell_volume   1077.55303449
_cell_formula_units_Z   4
loop_
 _symmetry_equiv_pos_site_id
 _symmetry_equiv_pos_as_xyz
  1  'x, y, z'
loop_
 _atom_site_type_symbol
 _atom_site_label
 _atom_site_symmetry_multiplicity
 _atom_site_fract_x
 _atom_site_fract_y
 _atom_site_fract_z
 _atom_site_occupancy
  Co  Co0  1  0.52286000  0.58000000  0.87217000  1.0
  Co  Co1  1  0.97494000  0.42016000  0.12774000  1.0
  Co  Co2  1  0.14500000  0.07998000  0.62795000  1.0
  Co  Co3  1  0.85276000  0.92018000  0.37219000  1.0
  H  H4  1  0.86201000  0.45737000  0.93886000  1.0
  H  H5  1  0.25829000  0.54272000  0.06108000  1.0
  H  H6  1  0.55086000  0.95746000  0.56119000  1.0
  H  H7  1  0.06971000  0.04262000  0.43887000  1.0
  H  H8  1  0.34007000  0.72803000  0.09281000  1.0
  H  H9  1  0.16102000  0.27195000  0.90715000  1.0
  H  H10  1  0.18294000  0.22744000  0.40709000  1.0
  H  H11  1  0.81754000  0.77261000  0.59289000  1.0
  H  H12  1  0.55280000  0.64187000  0.21700000  1.0
  H  H13  1  0.41183000  0.35812000  0.78297000  1.0
  H  H14  1  0.52006000  0.14189000  0.28304000  1.0
  H  H15  1  0.94496000  0.85812000  0.71700000  1.0
  H  H16  1  0.75629000  0.24400000  0.77320000  1.0
  H  H17  1  0.77378000  0.75597000  0.22670000  1.0
  H  H18  1  0.27949000  0.74386000  0.72684000  1.0
  H  H19  1  0.75042000  0.25604000  0.27327000  1.0
  H  H20  1  0.84340000  0.63548000  0.73936000  1.0
  H  H21  1  0.21782000  0.36423000  0.26094000  1.0
  H  H22  1  0.33263000  0.13544000  0.76064000  1.0
  H  H23  1  0.22869000  0.86426000  0.23903000  1.0
  H  H24  1  0.12974000  0.40812000  0.62029000  1.0
  H  H25  1  0.15846000  0.59206000  0.37949000  1.0
  H  H26  1  0.49996000  0.90813000  0.87966000  1.0
  H  H27  1  0.28797000  0.09207000  0.12047000  1.0
  C  C28  1  0.74882000  0.51821000  0.99820000  1.0
  C  C29  1  0.26523000  0.48190000  0.00174000  1.0
  C  C30  1  0.49707000  0.01806000  0.50180000  1.0
  C  C31  1  0.01712000  0.98201000  0.49825000  1.0
  C  C32  1  0.48003000  0.65748000  0.07932000  1.0
  C  C33  1  0.21699000  0.34248000  0.92065000  1.0
  C  C34  1  0.30943000  0.15698000  0.42056000  1.0
  C  C35  1  0.88709000  0.84305000  0.57945000  1.0
  C  C36  1  0.58582000  0.61558000  0.14083000  1.0
  C  C37  1  0.34244000  0.38437000  0.85914000  1.0
  C  C38  1  0.47673000  0.11560000  0.35918000  1.0
  C  C39  1  0.95158000  0.88443000  0.64086000  1.0
  C  C40  1  0.81911000  0.31980000  0.74762000  1.0
  C  C41  1  0.88674000  0.68022000  0.25229000  1.0
  C  C42  1  0.31664000  0.81971000  0.75243000  1.0
  C  C43  1  0.88900000  0.18029000  0.24772000  1.0
  C  C44  1  0.86809000  0.52029000  0.72872000  1.0
  C  C45  1  0.11682000  0.47947000  0.27156000  1.0
  C  C46  1  0.34664000  0.02023000  0.77131000  1.0
  C  C47  1  0.13835000  0.97952000  0.22842000  1.0
  C  C48  1  0.01028000  0.40738000  0.67017000  1.0
  C  C49  1  0.08806000  0.59261000  0.32973000  1.0
  C  C50  1  0.43027000  0.90739000  0.82986000  1.0
  C  C51  1  0.16780000  0.09261000  0.17024000  1.0
  N  N52  1  0.58431000  0.59478000  0.98901000  1.0
  N  N53  1  0.16811000  0.40528000  0.01095000  1.0
  N  N54  1  0.32337000  0.09415000  0.51087000  1.0
  N  N55  1  0.92855000  0.90592000  0.48913000  1.0
  N  N56  1  0.75655000  0.52724000  0.08879000  1.0
  N  N57  1  0.37268000  0.47282000  0.91117000  1.0
  N  N58  1  0.59541000  0.02754000  0.41133000  1.0
  N  N59  1  0.03436000  0.97253000  0.58874000  1.0
  N  N60  1  0.74723000  0.46412000  0.77753000  1.0
  N  N61  1  0.98853000  0.53565000  0.22277000  1.0
  N  N62  1  0.27464000  0.96403000  0.72252000  1.0
  N  N63  1  0.96125000  0.03572000  0.27722000  1.0
  N  N64  1  0.97836000  0.28044000  0.68245000  1.0
  N  N65  1  0.94177000  0.71976000  0.31722000  1.0
  N  N66  1  0.41069000  0.78041000  0.81759000  1.0
  N  N67  1  0.00899000  0.21977000  0.18277000  1.0
