# generated using pymatgen
data_Ag2H7C12N2ClO4
_symmetry_space_group_name_H-M   'P 1'
_cell_length_a   7.00986000
_cell_length_b   12.56360000
_cell_length_c   15.51700000
_cell_angle_alpha   113.15300000
_cell_angle_beta   90.00000000
_cell_angle_gamma   90.00000000
_symmetry_Int_Tables_number   1
_chemical_formula_structural   Ag2H7C12N2ClO4
_chemical_formula_sum   'Ag8 H28 C48 N8 Cl4 O16'
_cell_volume   1256.50200922
_cell_formula_units_Z   4
loop_
 _symmetry_equiv_pos_site_id
 _symmetry_equiv_pos_as_xyz
  1  'x, y, z'
loop_
 _atom_site_type_symbol
 _atom_site_label
 _atom_site_symmetry_multiplicity
 _atom_site_fract_x
 _atom_site_fract_y
 _atom_site_fract_z
 _atom_site_occupancy
  Ag  Ag0  1  0.71921000  0.48391000  0.49436000  1.0
  Ag  Ag1  1  0.21921000  0.01610000  0.50565000  1.0
  Ag  Ag2  1  0.28078000  0.51609000  0.50564000  1.0
  Ag  Ag3  1  0.78077000  0.98391000  0.49437000  1.0
  Ag  Ag4  1  0.44861000  0.28415000  0.45162000  1.0
  Ag  Ag5  1  0.94861000  0.21585000  0.54838000  1.0
  Ag  Ag6  1  0.55139000  0.71585000  0.54838000  1.0
  Ag  Ag7  1  0.05138000  0.78415000  0.45162000  1.0
  H  H8  1  0.67507000  0.56956000  0.82379000  1.0
  H  H9  1  0.17508000  0.93045000  0.17622000  1.0
  H  H10  1  0.32494000  0.43045000  0.17621000  1.0
  H  H11  1  0.82493000  0.06954000  0.82379000  1.0
  H  H12  1  0.70561000  0.52515000  0.96708000  1.0
  H  H13  1  0.20560000  0.97486000  0.03292000  1.0
  H  H14  1  0.29440000  0.47486000  0.03292000  1.0
  H  H15  1  0.79439000  0.02512000  0.96708000  1.0
  H  H16  1  0.62885000  0.32942000  0.95768000  1.0
  H  H17  1  0.12883000  0.17059000  0.04233000  1.0
  H  H18  1  0.37116000  0.67060000  0.04233000  1.0
  H  H19  1  0.87115000  0.82938000  0.95767000  1.0
  H  H20  1  0.52550000  0.17583000  0.80599000  1.0
  H  H21  1  0.02548000  0.32418000  0.19402000  1.0
  H  H22  1  0.47450000  0.82419000  0.19402000  1.0
  H  H23  1  0.97451000  0.67581000  0.80598000  1.0
  H  H24  1  0.46535000  0.31625000  0.26634000  1.0
  H  H25  1  0.96533000  0.18374000  0.73365000  1.0
  H  H26  1  0.53466000  0.68374000  0.73365000  1.0
  H  H27  1  0.03466000  0.81626000  0.26635000  1.0
  H  H28  1  0.57931000  0.03254000  0.33419000  1.0
  H  H29  1  0.07931000  0.46745000  0.66581000  1.0
  H  H30  1  0.42070000  0.96745000  0.66581000  1.0
  H  H31  1  0.92068000  0.53255000  0.33419000  1.0
  H  H32  1  0.71205000  0.92470000  0.17238000  1.0
  H  H33  1  0.21204000  0.57528000  0.82762000  1.0
  H  H34  1  0.28797000  0.07529000  0.82762000  1.0
  H  H35  1  0.78796000  0.42471000  0.17237000  1.0
  C  C36  1  0.57808000  0.39888000  0.73598000  1.0
  C  C37  1  0.07807000  0.10114000  0.26403000  1.0
  C  C38  1  0.42192000  0.60113000  0.26402000  1.0
  C  C39  1  0.92193000  0.89887000  0.73598000  1.0
  C  C40  1  0.64084000  0.48367000  0.82099000  1.0
  C  C41  1  0.14083000  0.01635000  0.17902000  1.0
  C  C42  1  0.35917000  0.51634000  0.17901000  1.0
  C  C43  1  0.85917000  0.98365000  0.82099000  1.0
  C  C44  1  0.65725000  0.45953000  0.90085000  1.0
  C  C45  1  0.15724000  0.04048000  0.09916000  1.0
  C  C46  1  0.34276000  0.54048000  0.09915000  1.0
  C  C47  1  0.84275000  0.95951000  0.90085000  1.0
  C  C48  1  0.61365000  0.34871000  0.89550000  1.0
  C  C49  1  0.11364000  0.15130000  0.10451000  1.0
  C  C50  1  0.38635000  0.65131000  0.10450000  1.0
  C  C51  1  0.88634000  0.84868000  0.89549000  1.0
  C  C52  1  0.55496000  0.26303000  0.81085000  1.0
  C  C53  1  0.05494000  0.23698000  0.18916000  1.0
  C  C54  1  0.44505000  0.73699000  0.18916000  1.0
  C  C55  1  0.94505000  0.76301000  0.81084000  1.0
  C  C56  1  0.53622000  0.28642000  0.73013000  1.0
  C  C57  1  0.03620000  0.21359000  0.26987000  1.0
  C  C58  1  0.46379000  0.71359000  0.26987000  1.0
  C  C59  1  0.96380000  0.78640000  0.73013000  1.0
  C  C60  1  0.47955000  0.18882000  0.63964000  1.0
  C  C61  1  0.97952000  0.31119000  0.36036000  1.0
  C  C62  1  0.52046000  0.81119000  0.36037000  1.0
  C  C63  1  0.02048000  0.68881000  0.63963000  1.0
  C  C64  1  0.55802000  0.42896000  0.65223000  1.0
  C  C65  1  0.05801000  0.07105000  0.34778000  1.0
  C  C66  1  0.44198000  0.57104000  0.34777000  1.0
  C  C67  1  0.94199000  0.92896000  0.65223000  1.0
  C  C68  1  0.58430000  0.16302000  0.15435000  1.0
  C  C69  1  0.08429000  0.33696000  0.84565000  1.0
  C  C70  1  0.41571000  0.83697000  0.84565000  1.0
  C  C71  1  0.91571000  0.66303000  0.15435000  1.0
  C  C72  1  0.51782000  0.22807000  0.24484000  1.0
  C  C73  1  0.01781000  0.27192000  0.75516000  1.0
  C  C74  1  0.48219000  0.77192000  0.75516000  1.0
  C  C75  1  0.98219000  0.72807000  0.24484000  1.0
  C  C76  1  0.58204000  0.07129000  0.28277000  1.0
  C  C77  1  0.08204000  0.42869000  0.71722000  1.0
  C  C78  1  0.41797000  0.92869000  0.71722000  1.0
  C  C79  1  0.91795000  0.57131000  0.28277000  1.0
  C  C80  1  0.65246000  0.01133000  0.19260000  1.0
  C  C81  1  0.15246000  0.48866000  0.80739000  1.0
  C  C82  1  0.34755000  0.98866000  0.80739000  1.0
  C  C83  1  0.84754000  0.51134000  0.19260000  1.0
  N  N84  1  0.65260000  0.05681000  0.12763000  1.0
  N  N85  1  0.15258000  0.44318000  0.87236000  1.0
  N  N86  1  0.34742000  0.94318000  0.87237000  1.0
  N  N87  1  0.84741000  0.55682000  0.12763000  1.0
  N  N88  1  0.51697000  0.18029000  0.30840000  1.0
  N  N89  1  0.01696000  0.31971000  0.69160000  1.0
  N  N90  1  0.48304000  0.81971000  0.69160000  1.0
  N  N91  1  0.98303000  0.68030000  0.30840000  1.0
  Cl  Cl92  1  0.57977000  0.22478000  0.07199000  1.0
  Cl  Cl93  1  0.07974000  0.27521000  0.92801000  1.0
  Cl  Cl94  1  0.42025000  0.77521000  0.92801000  1.0
  Cl  Cl95  1  0.92025000  0.72480000  0.07199000  1.0
  O  O96  1  0.57633000  0.16879000  0.56569000  1.0
  O  O97  1  0.07631000  0.33123000  0.43431000  1.0
  O  O98  1  0.42366000  0.83122000  0.43431000  1.0
  O  O99  1  0.92369000  0.66878000  0.56569000  1.0
  O  O100  1  0.33428000  0.13027000  0.64554000  1.0
  O  O101  1  0.83425000  0.36974000  0.35446000  1.0
  O  O102  1  0.66572000  0.86974000  0.35447000  1.0
  O  O103  1  0.16575000  0.63027000  0.64553000  1.0
  O  O104  1  0.68422000  0.49467000  0.64055000  1.0
  O  O105  1  0.18421000  0.00534000  0.35945000  1.0
  O  O106  1  0.31577000  0.50534000  0.35945000  1.0
  O  O107  1  0.81579000  0.99467000  0.64056000  1.0
  O  O108  1  0.41340000  0.38648000  0.59928000  1.0
  O  O109  1  0.91339000  0.11353000  0.40072000  1.0
  O  O110  1  0.58659000  0.61353000  0.40072000  1.0
  O  O111  1  0.08660000  0.88647000  0.59928000  1.0
