# generated using pymatgen
data_CuH8(CN)10
_symmetry_space_group_name_H-M   'P 1'
_cell_length_a   7.45364000
_cell_length_b   9.27498000
_cell_length_c   9.65945000
_cell_angle_alpha   77.47800000
_cell_angle_beta   90.00050000
_cell_angle_gamma   90.00010000
_symmetry_Int_Tables_number   1
_chemical_formula_structural   CuH8(CN)10
_chemical_formula_sum   'Cu2 H16 C20 N20'
_cell_volume   651.89598176
_cell_formula_units_Z   2
loop_
 _symmetry_equiv_pos_site_id
 _symmetry_equiv_pos_as_xyz
  1  'x, y, z'
loop_
 _atom_site_type_symbol
 _atom_site_label
 _atom_site_symmetry_multiplicity
 _atom_site_fract_x
 _atom_site_fract_y
 _atom_site_fract_z
 _atom_site_occupancy
  Cu  Cu0  1  1.00000000  0.50000000  0.50000000  1.0
  Cu  Cu1  1  0.50000000  0.50000000  0.00000000  1.0
  H  H2  1  0.27344000  0.99292000  0.51428000  1.0
  H  H3  1  0.77344000  0.00708000  0.98571000  1.0
  H  H4  1  0.72656000  0.00708000  0.48572000  1.0
  H  H5  1  0.22656000  0.99292000  0.01428000  1.0
  H  H6  1  0.22429000  0.25891000  0.36640000  1.0
  H  H7  1  0.72429000  0.74109000  0.13360000  1.0
  H  H8  1  0.77571000  0.74109000  0.63360000  1.0
  H  H9  1  0.27571000  0.25892000  0.86640000  1.0
  H  H10  1  0.12352000  0.95731000  0.75484000  1.0
  H  H11  1  0.62351000  0.04269000  0.74515000  1.0
  H  H12  1  0.87649000  0.04269000  0.24515000  1.0
  H  H13  1  0.37648000  0.95731000  0.25484000  1.0
  H  H14  1  0.96703000  0.22628000  0.76273000  1.0
  H  H15  1  0.46703000  0.77371000  0.73727000  1.0
  H  H16  1  0.03297000  0.77371000  0.23727000  1.0
  H  H17  1  0.53297000  0.22628000  0.26273000  1.0
  C  C18  1  0.17359000  0.21551000  0.47228000  1.0
  C  C19  1  0.67358000  0.78450000  0.02772000  1.0
  C  C20  1  0.82641000  0.78449000  0.52772000  1.0
  C  C21  1  0.32642000  0.21551000  0.97228000  1.0
  C  C22  1  0.11943000  0.05973000  0.67584000  1.0
  C  C23  1  0.61942000  0.94027000  0.82415000  1.0
  C  C24  1  0.88058000  0.94027000  0.32415000  1.0
  C  C25  1  0.38058000  0.05973000  0.17584000  1.0
  C  C26  1  0.04286000  0.19380000  0.67876000  1.0
  C  C27  1  0.54286000  0.80619000  0.82124000  1.0
  C  C28  1  0.95714000  0.80619000  0.32124000  1.0
  C  C29  1  0.45714000  0.19380000  0.17876000  1.0
  C  C30  1  0.10001000  0.56245000  0.79323000  1.0
  C  C31  1  0.60001000  0.43754000  0.70678000  1.0
  C  C32  1  0.89999000  0.43754000  0.20678000  1.0
  C  C33  1  0.39999000  0.56246000  0.29322000  1.0
  C  C34  1  0.13889000  0.71359000  0.95151000  1.0
  C  C35  1  0.63889000  0.28641000  0.54850000  1.0
  C  C36  1  0.86112000  0.28641000  0.04849000  1.0
  C  C37  1  0.36111000  0.71360000  0.45150000  1.0
  N  N38  1  0.07808000  0.28990000  0.55093000  1.0
  N  N39  1  0.57808000  0.71009000  0.94907000  1.0
  N  N40  1  0.92192000  0.71009000  0.44907000  1.0
  N  N41  1  0.42192000  0.28991000  0.05093000  1.0
  N  N42  1  0.20096000  0.07605000  0.54562000  1.0
  N  N43  1  0.70095000  0.92395000  0.95438000  1.0
  N  N44  1  0.79904000  0.92395000  0.45438000  1.0
  N  N45  1  0.29904000  0.07605000  0.04562000  1.0
  N  N46  1  0.04377000  0.51864000  0.69594000  1.0
  N  N47  1  0.54377000  0.48135000  0.80406000  1.0
  N  N48  1  0.95623000  0.48135000  0.30406000  1.0
  N  N49  1  0.45623000  0.51865000  0.19594000  1.0
  N  N50  1  0.16826000  0.59416000  0.90546000  1.0
  N  N51  1  0.66826000  0.40583000  0.59454000  1.0
  N  N52  1  0.83175000  0.40584000  0.09454000  1.0
  N  N53  1  0.33174000  0.59417000  0.40545000  1.0
  N  N54  1  0.12443000  0.81785000  0.00218000  1.0
  N  N55  1  0.62443000  0.18215000  0.49783000  1.0
  N  N56  1  0.87557000  0.18215000  0.99782000  1.0
  N  N57  1  0.37557000  0.81786000  0.50217000  1.0
