# generated using pymatgen
data_NaH8C6N7O6
_symmetry_space_group_name_H-M   'P 1'
_cell_length_a   7.04943000
_cell_length_b   7.63403000
_cell_length_c   11.51830000
_cell_angle_alpha   108.78390000
_cell_angle_beta   94.19520000
_cell_angle_gamma   107.20910000
_symmetry_Int_Tables_number   1
_chemical_formula_structural   NaH8C6N7O6
_chemical_formula_sum   'Na2 H16 C12 N14 O12'
_cell_volume   550.77021420
_cell_formula_units_Z   2
loop_
 _symmetry_equiv_pos_site_id
 _symmetry_equiv_pos_as_xyz
  1  'x, y, z'
loop_
 _atom_site_type_symbol
 _atom_site_label
 _atom_site_symmetry_multiplicity
 _atom_site_fract_x
 _atom_site_fract_y
 _atom_site_fract_z
 _atom_site_occupancy
  Na  Na0  1  0.70296000  0.70822000  0.05177000  1.0
  Na  Na1  1  0.29704000  0.29178000  0.94823000  1.0
  H  H2  1  0.85364000  0.47202000  0.55142000  1.0
  H  H3  1  0.14635000  0.52796000  0.44858000  1.0
  H  H4  1  0.02379000  0.76132000  0.32426000  1.0
  H  H5  1  0.97621000  0.23868000  0.67574000  1.0
  H  H6  1  0.63608000  0.34776000  0.11676000  1.0
  H  H7  1  0.36392000  0.65225000  0.88324000  1.0
  H  H8  1  0.75775000  0.35617000  0.00849000  1.0
  H  H9  1  0.24226000  0.64384000  0.99151000  1.0
  H  H10  1  0.73048000  0.53270000  0.77520000  1.0
  H  H11  1  0.26952000  0.46730000  0.22480000  1.0
  H  H12  1  0.91721000  0.72443000  0.85638000  1.0
  H  H13  1  0.08280000  0.27558000  0.14362000  1.0
  H  H14  1  0.76606000  0.03767000  0.99605000  1.0
  H  H15  1  0.23395000  0.96234000  0.00395000  1.0
  H  H16  1  0.73888000  0.11423000  0.13488000  1.0
  H  H17  1  0.26113000  0.88578000  0.86513000  1.0
  C  C18  1  0.55925000  0.29023000  0.50154000  1.0
  C  C19  1  0.44074000  0.70977000  0.49846000  1.0
  C  C20  1  0.45368000  0.13636000  0.27325000  1.0
  C  C21  1  0.54632000  0.86363000  0.72674000  1.0
  C  C22  1  0.25732000  0.01767000  0.41796000  1.0
  C  C23  1  0.74267000  0.98233000  0.58205000  1.0
  C  C24  1  0.76431000  0.38995000  0.35887000  1.0
  C  C25  1  0.23570000  0.61004000  0.64113000  1.0
  C  C26  1  0.16845000  0.85457000  0.19235000  1.0
  C  C27  1  0.83155000  0.14542000  0.80765000  1.0
  C  C28  1  0.36183000  0.17613000  0.63193000  1.0
  C  C29  1  0.63818000  0.82388000  0.36808000  1.0
  N  N30  1  0.41826000  0.15520000  0.39618000  1.0
  N  N31  1  0.58174000  0.84480000  0.60382000  1.0
  N  N32  1  0.72810000  0.40639000  0.47892000  1.0
  N  N33  1  0.27190000  0.59361000  0.52108000  1.0
  N  N34  1  0.62073000  0.26139000  0.25898000  1.0
  N  N35  1  0.37927000  0.73860000  0.74102000  1.0
  N  N36  1  0.32685000  0.99378000  0.17662000  1.0
  N  N37  1  0.67314000  0.00621000  0.82337000  1.0
  N  N38  1  0.13547000  0.87403000  0.31380000  1.0
  N  N39  1  0.86452000  0.12596000  0.68620000  1.0
  N  N40  1  0.22974000  0.02249000  0.52936000  1.0
  N  N41  1  0.77026000  0.97752000  0.47064000  1.0
  N  N42  1  0.53577000  0.30640000  0.61516000  1.0
  N  N43  1  0.46422000  0.69360000  0.38484000  1.0
  O  O44  1  0.93139000  0.49541000  0.34850000  1.0
  O  O45  1  0.06862000  0.50459000  0.65149000  1.0
  O  O46  1  0.05447000  0.71100000  0.10346000  1.0
  O  O47  1  0.94553000  0.28899000  0.89654000  1.0
  O  O48  1  0.32916000  0.19521000  0.73852000  1.0
  O  O49  1  0.67082000  0.80479000  0.26150000  1.0
  O  O50  1  0.63887000  0.38023000  0.04068000  1.0
  O  O51  1  0.36113000  0.61978000  0.95932000  1.0
  O  O52  1  0.77205000  0.65514000  0.84775000  1.0
  O  O53  1  0.22795000  0.34486000  0.15225000  1.0
  O  O54  1  0.82235000  0.05339000  0.08146000  1.0
  O  O55  1  0.17767000  0.94662000  0.91854000  1.0
