# generated using pymatgen
data_ZnH22C35(NO2)6
_symmetry_space_group_name_H-M   'P 1'
_cell_length_a   18.23350000
_cell_length_b   19.66380000
_cell_length_c   23.71610000
_cell_angle_alpha   90.54220000
_cell_angle_beta   89.93100000
_cell_angle_gamma   89.99060000
_symmetry_Int_Tables_number   1
_chemical_formula_structural   ZnH22C35(NO2)6
_chemical_formula_sum   'Zn2 H44 C70 N12 O24'
_cell_volume   8502.78102807
_cell_formula_units_Z   2
loop_
 _symmetry_equiv_pos_site_id
 _symmetry_equiv_pos_as_xyz
  1  'x, y, z'
loop_
 _atom_site_type_symbol
 _atom_site_label
 _atom_site_symmetry_multiplicity
 _atom_site_fract_x
 _atom_site_fract_y
 _atom_site_fract_z
 _atom_site_occupancy
  Zn  Zn0  1  0.42032000  0.50004000  0.49946000  1.0
  Zn  Zn1  1  0.57465000  0.49862000  0.50031000  1.0
  H  H2  1  0.30557000  0.42514000  0.43772000  1.0
  H  H3  1  0.44245000  0.34230000  0.05563000  1.0
  H  H4  1  0.61325000  0.45768000  0.77970000  1.0
  H  H5  1  0.61557000  0.46383000  0.21790000  1.0
  H  H6  1  0.60669000  0.46436000  0.67389000  1.0
  H  H7  1  0.60842000  0.46223000  0.32393000  1.0
  H  H8  1  0.38701000  0.28089000  0.52951000  1.0
  H  H9  1  0.39059000  0.71714000  0.46814000  1.0
  H  H10  1  0.61044000  0.71621000  0.53183000  1.0
  H  H11  1  0.60828000  0.28357000  0.46833000  1.0
  H  H12  1  0.50228000  0.06100000  0.40798000  1.0
  H  H13  1  0.68834000  0.57777000  0.55953000  1.0
  H  H14  1  0.50162000  0.93789000  0.59010000  1.0
  H  H15  1  0.50201000  0.93457000  0.40861000  1.0
  H  H16  1  0.49973000  0.06431000  0.58947000  1.0
  H  H17  1  0.65004000  0.73300000  0.09002000  1.0
  H  H18  1  0.44638000  0.23900000  0.90967000  1.0
  H  H19  1  0.10566000  0.40490000  0.43197000  1.0
  H  H20  1  0.18869000  0.37623000  0.40740000  1.0
  H  H21  1  0.80484000  0.62930000  0.58721000  1.0
  H  H22  1  0.88785000  0.59910000  0.56466000  1.0
  H  H23  1  0.10615000  0.59819000  0.56555000  1.0
  H  H24  1  0.30567000  0.57935000  0.55800000  1.0
  H  H25  1  0.18896000  0.62875000  0.58767000  1.0
  H  H26  1  0.80528000  0.36786000  0.41589000  1.0
  H  H27  1  0.88819000  0.39855000  0.43776000  1.0
  H  H28  1  0.32304000  0.52617000  0.70084000  1.0
  H  H29  1  0.36984000  0.53505000  0.63879000  1.0
  H  H30  1  0.37334000  0.54022000  0.36388000  1.0
  H  H31  1  0.35460000  0.59325000  0.30962000  1.0
  H  H32  1  0.36357000  0.51174000  0.83007000  1.0
  H  H33  1  0.33898000  0.56513000  0.77789000  1.0
  H  H34  1  0.39488000  0.58474000  0.17323000  1.0
  H  H35  1  0.68876000  0.41944000  0.44309000  1.0
  H  H36  1  0.33800000  0.56336000  0.22671000  1.0
  H  H37  1  0.30086000  0.07857000  0.51637000  1.0
  H  H38  1  0.30228000  0.91878000  0.47863000  1.0
  H  H39  1  0.70109000  0.91808000  0.52076000  1.0
  H  H40  1  0.70073000  0.08267000  0.47896000  1.0
  H  H41  1  0.06406000  0.59278000  0.45165000  1.0
  H  H42  1  0.93009000  0.40731000  0.54886000  1.0
  H  H43  1  0.06660000  0.40822000  0.54788000  1.0
  H  H44  1  0.92754000  0.59166000  0.45245000  1.0
  H  H45  1  0.57392000  0.65808000  0.94445000  1.0
  C  C46  1  0.49877000  0.63214000  0.50084000  1.0
  C  C47  1  0.43784000  0.52567000  0.29585000  1.0
  C  C48  1  0.43889000  0.51947000  0.76551000  1.0
  C  C49  1  0.44295000  0.52897000  0.23609000  1.0
  C  C50  1  0.50359000  0.49640000  0.79027000  1.0
  C  C51  1  0.50710000  0.50579000  0.20991000  1.0
  C  C52  1  0.43605000  0.25381000  0.51565000  1.0
  C  C53  1  0.43910000  0.74471000  0.48223000  1.0
  C  C54  1  0.56227000  0.74410000  0.51792000  1.0
  C  C55  1  0.56002000  0.25522000  0.48140000  1.0
  C  C56  1  0.43659000  0.18261000  0.51477000  1.0
  C  C57  1  0.49692000  0.36682000  0.49826000  1.0
  C  C58  1  0.43892000  0.81585000  0.48277000  1.0
  C  C59  1  0.56424000  0.81524000  0.51669000  1.0
  C  C60  1  0.56263000  0.18413000  0.48230000  1.0
  C  C61  1  0.50019000  0.14621000  0.49844000  1.0
  C  C62  1  0.50190000  0.85271000  0.49970000  1.0
  C  C63  1  0.49732000  0.29044000  0.49832000  1.0
  C  C64  1  0.50016000  0.70849000  0.50047000  1.0
  C  C65  1  0.49590000  0.50094000  0.61025000  1.0
  C  C66  1  0.49789000  0.49972000  0.38948000  1.0
  C  C67  1  0.50211000  0.03390000  0.44792000  1.0
  C  C68  1  0.56413000  0.47567000  0.75840000  1.0
  C  C69  1  0.50177000  0.96500000  0.55017000  1.0
  C  C70  1  0.50168000  0.96314000  0.44828000  1.0
  C  C71  1  0.50036000  0.03575000  0.54980000  1.0
  C  C72  1  0.50202000  0.92812000  0.49940000  1.0
  C  C73  1  0.50104000  0.07078000  0.49868000  1.0
  C  C74  1  0.27234000  0.45840000  0.46449000  1.0
  C  C75  1  0.72175000  0.54324000  0.53404000  1.0
  C  C76  1  0.27242000  0.54504000  0.53221000  1.0
  C  C77  1  0.72201000  0.45403000  0.46859000  1.0
  C  C78  1  0.19524000  0.45663000  0.46316000  1.0
  C  C79  1  0.56690000  0.48151000  0.24035000  1.0
  C  C80  1  0.79877000  0.54522000  0.53547000  1.0
  C  C81  1  0.19543000  0.54628000  0.53441000  1.0
  C  C82  1  0.79901000  0.45234000  0.46702000  1.0
  C  C83  1  0.15605000  0.50115000  0.49919000  1.0
  C  C84  1  0.83815000  0.49892000  0.50113000  1.0
  C  C85  1  0.03465000  0.55240000  0.47339000  1.0
  C  C86  1  0.95953000  0.44767000  0.52712000  1.0
  C  C87  1  0.03606000  0.44821000  0.52660000  1.0
  C  C88  1  0.95813000  0.55180000  0.47387000  1.0
  C  C89  1  0.91953000  0.49945000  0.50075000  1.0
  C  C90  1  0.56050000  0.47949000  0.70023000  1.0
  C  C91  1  0.07463000  0.50060000  0.49975000  1.0
  C  C92  1  0.48832000  0.44229000  0.12262000  1.0
  C  C93  1  0.53667000  0.55506000  0.87744000  1.0
  C  C94  1  0.52735000  0.56422000  0.12110000  1.0
  C  C95  1  0.47730000  0.44034000  0.87902000  1.0
  C  C96  1  0.53177000  0.56080000  0.05879000  1.0
  C  C97  1  0.48263000  0.44026000  0.94131000  1.0
  C  C98  1  0.50967000  0.50078000  0.03002000  1.0
  C  C99  1  0.50923000  0.49871000  0.97005000  1.0
  C  C100  1  0.48637000  0.44275000  0.06005000  1.0
  C  C101  1  0.56254000  0.47981000  0.29862000  1.0
  C  C102  1  0.53417000  0.55617000  0.94003000  1.0
  C  C103  1  0.55408000  0.61744000  0.02826000  1.0
  C  C104  1  0.45801000  0.38443000  0.97184000  1.0
  C  C105  1  0.55599000  0.61437000  0.96885000  1.0
  C  C106  1  0.46098000  0.38580000  0.03126000  1.0
  C  C107  1  0.57236000  0.68455000  0.05589000  1.0
  C  C108  1  0.42336000  0.32314000  0.94424000  1.0
  C  C109  1  0.36601000  0.15004000  0.53192000  1.0
  C  C110  1  0.36827000  0.84747000  0.46477000  1.0
  C  C111  1  0.63620000  0.84581000  0.53327000  1.0
  C  C112  1  0.49631000  0.50174000  0.67316000  1.0
  C  C113  1  0.63532000  0.15443000  0.46643000  1.0
  C  C114  1  0.49845000  0.50103000  0.32665000  1.0
  C  C115  1  0.43424000  0.52097000  0.70565000  1.0
  N  N116  1  0.50952000  0.50395000  0.14906000  1.0
  N  N117  1  0.37211000  0.54620000  0.32113000  1.0
  N  N118  1  0.38084000  0.54297000  0.79892000  1.0
  N  N119  1  0.38352000  0.55111000  0.20424000  1.0
  N  N120  1  0.50772000  0.49621000  0.85105000  1.0
  N  N121  1  0.30837000  0.50166000  0.49830000  1.0
  N  N122  1  0.68599000  0.49861000  0.50129000  1.0
  N  N123  1  0.15957000  0.41440000  0.42556000  1.0
  N  N124  1  0.83413000  0.58943000  0.57187000  1.0
  N  N125  1  0.16000000  0.58866000  0.57243000  1.0
  N  N126  1  0.83446000  0.40813000  0.43055000  1.0
  N  N127  1  0.36921000  0.54346000  0.68155000  1.0
  O  O128  1  0.43755000  0.60402000  0.48995000  1.0
  O  O129  1  0.56168000  0.60198000  0.84973000  1.0
  O  O130  1  0.53776000  0.61754000  0.14760000  1.0
  O  O131  1  0.44670000  0.39423000  0.85252000  1.0
  O  O132  1  0.52948000  0.73200000  0.05764000  1.0
  O  O133  1  0.64329000  0.68791000  0.07272000  1.0
  O  O134  1  0.35725000  0.31445000  0.94284000  1.0
  O  O135  1  0.47372000  0.27673000  0.92700000  1.0
  O  O136  1  0.32586000  0.17262000  0.56895000  1.0
  O  O137  1  0.34756000  0.09414000  0.50053000  1.0
  O  O138  1  0.32870000  0.82355000  0.42797000  1.0
  O  O139  1  0.55790000  0.39546000  0.48822000  1.0
  O  O140  1  0.34894000  0.90402000  0.49497000  1.0
  O  O141  1  0.67859000  0.81975000  0.56673000  1.0
  O  O142  1  0.65318000  0.90431000  0.50581000  1.0
  O  O143  1  0.67842000  0.18154000  0.43400000  1.0
  O  O144  1  0.65218000  0.09553000  0.49331000  1.0
  O  O145  1  0.43603000  0.39621000  0.50829000  1.0
  O  O146  1  0.55877000  0.60223000  0.51187000  1.0
  O  O147  1  0.43562000  0.51505000  0.58458000  1.0
  O  O148  1  0.55871000  0.50795000  0.41471000  1.0
  O  O149  1  0.43582000  0.49059000  0.41400000  1.0
  O  O150  1  0.55533000  0.48581000  0.58504000  1.0
  O  O151  1  0.47232000  0.39210000  0.15029000  1.0
