# generated using pymatgen
data_Al2H3C24S6(BrO4)3
_symmetry_space_group_name_H-M   'P 1'
_cell_length_a   3.97732000
_cell_length_b   20.14060000
_cell_length_c   20.14065000
_cell_angle_alpha   119.99975363
_cell_angle_beta   90.00000000
_cell_angle_gamma   89.99980000
_symmetry_Int_Tables_number   1
_chemical_formula_structural   Al2H3C24S6(BrO4)3
_chemical_formula_sum   'Al2 H3 C24 S6 Br3 O12'
_cell_volume   1397.23073619
_cell_formula_units_Z   1
loop_
 _symmetry_equiv_pos_site_id
 _symmetry_equiv_pos_as_xyz
  1  'x, y, z'
loop_
 _atom_site_type_symbol
 _atom_site_label
 _atom_site_symmetry_multiplicity
 _atom_site_fract_x
 _atom_site_fract_y
 _atom_site_fract_z
 _atom_site_occupancy
  Al  Al0  1  0.99987000  1.00000000  0.50000000  1.0
  Al  Al1  1  0.99735000  0.33334000  0.16667000  1.0
  H  H2  1  0.52458000  0.56252000  0.38511000  1.0
  H  H3  1  0.52458000  0.11489000  0.17741000  1.0
  H  H4  1  0.52458000  0.32259000  0.93748000  1.0
  C  C5  1  0.49947000  0.05755000  0.61733000  1.0
  C  C6  1  0.49947000  0.88267000  0.44022000  1.0
  C  C7  1  0.49947000  0.05978000  0.44245000  1.0
  C  C8  1  0.49793000  0.45091000  0.22491000  1.0
  C  C9  1  0.49793000  0.27509000  0.22600000  1.0
  C  C10  1  0.49793000  0.27400000  0.04909000  1.0
  C  C11  1  0.50812000  0.74904000  0.31912000  1.0
  C  C12  1  0.51415000  0.58357000  0.34486000  1.0
  C  C13  1  0.50054000  0.79780000  0.39757000  1.0
  C  C14  1  0.50141000  0.53577000  0.26639000  1.0
  C  C15  1  0.49673000  0.66140000  0.36406000  1.0
  C  C16  1  0.49311000  0.67104000  0.29960000  1.0
  C  C17  1  0.50812000  0.18089000  0.42992000  1.0
  C  C18  1  0.51415000  0.15514000  0.23871000  1.0
  C  C19  1  0.50054000  0.10244000  0.40024000  1.0
  C  C20  1  0.50140000  0.23361000  0.26938000  1.0
  C  C21  1  0.49674000  0.13594000  0.29734000  1.0
  C  C22  1  0.49312000  0.20040000  0.37144000  1.0
  C  C23  1  0.50812000  0.07008000  0.75096000  1.0
  C  C24  1  0.51415000  0.26129000  0.91643000  1.0
  C  C25  1  0.50054000  0.09977000  0.70220000  1.0
  C  C26  1  0.50140000  0.23062000  0.96423000  1.0
  C  C27  1  0.49672000  0.20267000  0.83861000  1.0
  C  C28  1  0.49311000  0.12856000  0.82896000  1.0
  S  S29  1  0.48275000  0.74856000  0.44798000  1.0
  S  S30  1  0.47657000  0.58456000  0.21562000  1.0
  S  S31  1  0.48275000  0.05202000  0.30058000  1.0
  S  S32  1  0.47657000  0.28439000  0.36894000  1.0
  S  S33  1  0.48275000  0.19942000  0.75144000  1.0
  S  S34  1  0.47657000  0.13106000  0.91544000  1.0
  Br  Br35  1  0.51420000  0.78045000  0.24554000  1.0
  Br  Br36  1  0.51420000  0.25447000  0.53491000  1.0
  Br  Br37  1  0.51420000  0.96510000  0.71956000  1.0
  O  O38  1  0.26476000  0.01091000  0.42657000  1.0
  O  O39  1  0.26476000  0.07344000  0.58434000  1.0
  O  O40  1  0.26476000  0.91566000  0.48910000  1.0
  O  O41  1  0.73361000  0.07440000  0.49096000  1.0
  O  O42  1  0.73361000  0.91656000  0.42560000  1.0
  O  O43  1  0.73361000  0.00904000  0.58344000  1.0
  O  O44  1  0.26261000  0.25902000  0.08274000  1.0
  O  O45  1  0.26261000  0.41727000  0.17628000  1.0
  O  O46  1  0.26261000  0.32373000  0.24099000  1.0
  O  O47  1  0.73033000  0.32338000  0.08267000  1.0
  O  O48  1  0.73032000  0.25930000  0.17663000  1.0
  O  O49  1  0.73032000  0.41734000  0.24071000  1.0
