# generated using pymatgen
data_Tb2H16C15(N3O7)2
_symmetry_space_group_name_H-M   'P 1'
_cell_length_a   9.61243000
_cell_length_b   9.71640000
_cell_length_c   15.95860000
_cell_angle_alpha   86.48760000
_cell_angle_beta   82.88510000
_cell_angle_gamma   60.35360000
_symmetry_Int_Tables_number   1
_chemical_formula_structural   Tb2H16C15(N3O7)2
_chemical_formula_sum   'Tb4 H32 C30 N12 O28'
_cell_volume   1285.41487188
_cell_formula_units_Z   2
loop_
 _symmetry_equiv_pos_site_id
 _symmetry_equiv_pos_as_xyz
  1  'x, y, z'
loop_
 _atom_site_type_symbol
 _atom_site_label
 _atom_site_symmetry_multiplicity
 _atom_site_fract_x
 _atom_site_fract_y
 _atom_site_fract_z
 _atom_site_occupancy
  Tb  Tb0  1  0.49991000  0.09819000  0.87570000  1.0
  Tb  Tb1  1  0.59809000  0.90182000  0.37572000  1.0
  Tb  Tb2  1  0.49559000  0.90764000  0.12470000  1.0
  Tb  Tb3  1  0.40321000  0.09237000  0.62470000  1.0
  H  H4  1  0.85215000  0.93849000  0.10223000  1.0
  H  H5  1  0.79064000  0.06150000  0.60222000  1.0
  H  H6  1  0.98460000  0.82243000  0.01518000  1.0
  H  H7  1  0.80701000  0.17756000  0.51516000  1.0
  H  H8  1  0.05540000  0.12499000  0.91664000  1.0
  H  H9  1  0.18037000  0.87502000  0.41664000  1.0
  H  H10  1  0.10291000  0.92543000  0.91470000  1.0
  H  H11  1  0.02833000  0.07457000  0.41470000  1.0
  H  H12  1  0.49351000  0.29126000  0.15127000  1.0
  H  H13  1  0.78477000  0.70876000  0.65128000  1.0
  H  H14  1  0.35184000  0.41651000  0.23415000  1.0
  H  H15  1  0.76834000  0.58350000  0.73417000  1.0
  H  H16  1  0.43253000  0.51011000  0.33681000  1.0
  H  H17  1  0.94264000  0.48989000  0.83680000  1.0
  H  H18  1  0.63635000  0.45619000  0.34015000  1.0
  H  H19  1  0.09256000  0.54378000  0.84015000  1.0
  H  H20  1  0.10102000  0.55583000  0.19766000  1.0
  H  H21  1  0.65684000  0.44419000  0.69768000  1.0
  H  H22  1  0.00548000  0.46295000  0.26009000  1.0
  H  H23  1  0.46841000  0.53703000  0.76010000  1.0
  H  H24  1  0.14061000  0.54242000  0.05663000  1.0
  H  H25  1  0.68304000  0.45758000  0.55663000  1.0
  H  H26  1  0.06434000  0.45139000  0.99747000  1.0
  H  H27  1  0.51572000  0.54863000  0.49747000  1.0
  H  H28  1  0.63729000  0.72788000  0.95820000  1.0
  H  H29  1  0.36516000  0.27212000  0.45820000  1.0
  H  H30  1  0.56161000  0.63751000  0.01436000  1.0
  H  H31  1  0.19911000  0.36250000  0.51438000  1.0
  H  H32  1  0.17761000  0.97992000  0.19880000  1.0
  H  H33  1  0.15751000  0.02008000  0.69880000  1.0
  H  H34  1  0.19353000  0.13130000  0.18695000  1.0
  H  H35  1  0.32483000  0.86869000  0.68695000  1.0
  C  C36  1  0.89809000  0.17701000  0.07320000  1.0
  C  C37  1  0.07512000  0.82297000  0.57319000  1.0
  C  C38  1  0.72777000  0.32386000  0.18358000  1.0
  C  C39  1  0.05162000  0.67615000  0.68357000  1.0
  C  C40  1  0.93094000  0.36597000  0.12840000  1.0
  C  C41  1  0.29694000  0.63399000  0.62840000  1.0
  C  C42  1  0.89178000  0.94294000  0.03535000  1.0
  C  C43  1  0.83472000  0.05704000  0.53534000  1.0
  C  C44  1  0.75073000  0.99404000  0.98415000  1.0
  C  C45  1  0.74476000  0.00596000  0.48414000  1.0
  C  C46  1  0.08718000  0.01931000  0.95625000  1.0
  C  C47  1  0.10647000  0.98070000  0.45625000  1.0
  C  C48  1  0.24925000  0.97143000  0.98725000  1.0
  C  C49  1  0.22066000  0.02858000  0.48724000  1.0
  C  C50  1  0.47587000  0.32048000  0.21820000  1.0
  C  C51  1  0.79635000  0.67953000  0.71820000  1.0
  C  C52  1  0.49788000  0.17640000  0.27122000  1.0
  C  C53  1  0.67427000  0.82361000  0.77121000  1.0
  C  C54  1  0.54197000  0.49435000  0.29779000  1.0
  C  C55  1  0.03633000  0.50564000  0.79779000  1.0
  C  C56  1  0.51092000  0.65603000  0.26181000  1.0
  C  C57  1  0.16695000  0.34397000  0.76182000  1.0
  C  C58  1  0.99971000  0.53209000  0.20219000  1.0
  C  C59  1  0.53180000  0.46790000  0.70219000  1.0
  C  C60  1  0.84520000  0.69088000  0.21509000  1.0
  C  C61  1  0.53609000  0.30911000  0.71507000  1.0
  C  C62  1  0.12090000  0.44042000  0.05511000  1.0
  C  C63  1  0.56134000  0.55959000  0.55510000  1.0
  C  C64  1  0.28547000  0.29101000  0.04450000  1.0
  C  C65  1  0.57650000  0.70900000  0.54449000  1.0
  N  N66  1  0.95999000  0.04688000  0.02301000  1.0
  N  N67  1  0.00687000  0.95309000  0.52300000  1.0
  N  N68  1  0.58627000  0.37460000  0.23470000  1.0
  N  N69  1  0.96087000  0.62540000  0.73469000  1.0
  N  N70  1  0.01612000  0.44423000  0.12873000  1.0
  N  N71  1  0.46038000  0.55576000  0.62873000  1.0
  N  N72  1  0.76805000  0.20739000  0.12831000  1.0
  N  N73  1  0.97544000  0.79260000  0.62830000  1.0
  N  N74  1  0.81375000  0.39660000  0.19231000  1.0
  N  N75  1  0.21035000  0.60339000  0.69230000  1.0
  N  N76  1  0.97486000  0.26244000  0.06478000  1.0
  N  N77  1  0.23732000  0.73754000  0.56478000  1.0
  O  O78  1  0.63420000  0.96892000  0.01306000  1.0
  O  O79  1  0.60311000  0.03107000  0.51305000  1.0
  O  O80  1  0.75058000  0.05872000  0.91323000  1.0
  O  O81  1  0.80930000  0.94128000  0.41322000  1.0
  O  O82  1  0.27966000  0.91151000  0.06000000  1.0
  O  O83  1  0.19118000  0.08848000  0.56000000  1.0
  O  O84  1  0.34904000  0.99239000  0.93564000  1.0
  O  O85  1  0.34141000  0.00763000  0.43563000  1.0
  O  O86  1  0.52120000  0.04976000  0.23679000  1.0
  O  O87  1  0.57096000  0.95025000  0.73679000  1.0
  O  O88  1  0.49734000  0.18250000  0.35070000  1.0
  O  O89  1  0.67985000  0.81753000  0.85070000  1.0
  O  O90  1  0.47128000  0.69332000  0.18732000  1.0
  O  O91  1  0.16462000  0.30667000  0.68733000  1.0
  O  O92  1  0.52380000  0.74643000  0.31070000  1.0
  O  O93  1  0.27024000  0.25356000  0.81070000  1.0
  O  O94  1  0.75643000  0.74865000  0.15592000  1.0
  O  O95  1  0.50509000  0.25136000  0.65591000  1.0
  O  O96  1  0.82128000  0.75391000  0.28646000  1.0
  O  O97  1  0.57521000  0.24606000  0.78645000  1.0
  O  O98  1  0.32129000  0.18372000  0.10025000  1.0
  O  O99  1  0.50500000  0.81629000  0.60024000  1.0
  O  O100  1  0.37504000  0.28721000  0.97802000  1.0
  O  O101  1  0.66226000  0.71281000  0.47801000  1.0
  O  O102  1  0.62307000  0.69205000  0.01606000  1.0
  O  O103  1  0.31511000  0.30795000  0.51605000  1.0
  O  O104  1  0.23230000  0.03145000  0.21902000  1.0
  O  O105  1  0.26373000  0.96855000  0.71901000  1.0
