# generated using pymatgen
data_ZnH19C22NO4
_symmetry_space_group_name_H-M   'P 1'
_cell_length_a   8.23502000
_cell_length_b   11.38550000
_cell_length_c   11.78820000
_cell_angle_alpha   67.22920000
_cell_angle_beta   72.92160000
_cell_angle_gamma   77.32890000
_symmetry_Int_Tables_number   1
_chemical_formula_structural   ZnH19C22NO4
_chemical_formula_sum   'Zn2 H38 C44 N2 O8'
_cell_volume   967.14840109
_cell_formula_units_Z   2
loop_
 _symmetry_equiv_pos_site_id
 _symmetry_equiv_pos_as_xyz
  1  'x, y, z'
loop_
 _atom_site_type_symbol
 _atom_site_label
 _atom_site_symmetry_multiplicity
 _atom_site_fract_x
 _atom_site_fract_y
 _atom_site_fract_z
 _atom_site_occupancy
  Zn  Zn0  1  0.42011000  0.47716000  0.41954000  1.0
  Zn  Zn1  1  0.57989000  0.52284000  0.58045000  1.0
  H  H2  1  0.52353000  0.37654000  0.20937000  1.0
  H  H3  1  0.47647000  0.62346000  0.79063000  1.0
  H  H4  1  0.39605000  0.37186000  0.04216000  1.0
  H  H5  1  0.60395000  0.62814000  0.95784000  1.0
  H  H6  1  0.92533000  0.56208000  0.20949000  1.0
  H  H7  1  0.07467000  0.43792000  0.79051000  1.0
  H  H8  1  0.07438000  0.56434000  0.36318000  1.0
  H  H9  1  0.92563000  0.43566000  0.63682000  1.0
  H  H10  1  0.16101000  0.42124000  0.94655000  1.0
  H  H11  1  0.83899000  0.57876000  0.05345000  1.0
  H  H12  1  0.20192000  0.82629000  0.68438000  1.0
  H  H13  1  0.79809000  0.17371000  0.31562000  1.0
  H  H14  1  0.94434000  0.97926000  0.72912000  1.0
  H  H15  1  0.05566000  0.02074000  0.27088000  1.0
  H  H16  1  0.68577000  0.85558000  0.53381000  1.0
  H  H17  1  0.31423000  0.14442000  0.46619000  1.0
  H  H18  1  0.94365000  0.70953000  0.48454000  1.0
  H  H19  1  0.05635000  0.29047000  0.51546000  1.0
  H  H20  1  0.54483000  0.96841000  0.74380000  1.0
  H  H21  1  0.45517000  0.03159000  0.25620000  1.0
  H  H22  1  0.57964000  0.06322000  0.58168000  1.0
  H  H23  1  0.42036000  0.93678000  0.41832000  1.0
  H  H24  1  0.67157000  0.09647000  0.68281000  1.0
  H  H25  1  0.32843000  0.90353000  0.31719000  1.0
  H  H26  1  0.80332000  0.87948000  0.31842000  1.0
  H  H27  1  0.19668000  0.12052000  0.68157000  1.0
  H  H28  1  0.86165000  0.08849000  0.14566000  1.0
  H  H29  1  0.13835000  0.91151000  0.85434000  1.0
  H  H30  1  0.67864000  0.97492000  0.90204000  1.0
  H  H31  1  0.32136000  0.02508000  0.09796000  1.0
  H  H32  1  0.61571000  0.76810000  0.07641000  1.0
  H  H33  1  0.38429000  0.23190000  0.92359000  1.0
  H  H34  1  0.79251000  0.17887000  0.81930000  1.0
  H  H35  1  0.20749000  0.82113000  0.18070000  1.0
  H  H36  1  0.91971000  0.20532000  0.90400000  1.0
  H  H37  1  0.08029000  0.79468000  0.09600000  1.0
  H  H38  1  0.69578000  0.25050000  0.93581000  1.0
  H  H39  1  0.30422000  0.74950000  0.06419000  1.0
  C  C40  1  0.39221000  0.41788000  0.20354000  1.0
  C  C41  1  0.60779000  0.58212000  0.79646000  1.0
  C  C42  1  0.32011000  0.41501000  0.11218000  1.0
  C  C43  1  0.67989000  0.58499000  0.88782000  1.0
  C  C44  1  0.14994000  0.46929000  0.10909000  1.0
  C  C45  1  0.85006000  0.53071000  0.89091000  1.0
  C  C46  1  0.05900000  0.52176000  0.20328000  1.0
  C  C47  1  0.94099000  0.47824000  0.79672000  1.0
  C  C48  1  0.14023000  0.52229000  0.29053000  1.0
  C  C49  1  0.85977000  0.47771000  0.70947000  1.0
  C  C50  1  0.07798000  0.47066000  0.00969000  1.0
  C  C51  1  0.92202000  0.52934000  0.99031000  1.0
  C  C52  1  0.24438000  0.66841000  0.55274000  1.0
  C  C53  1  0.75562000  0.33159000  0.44726000  1.0
  C  C54  1  0.08973000  0.75827000  0.58170000  1.0
  C  C55  1  0.91027000  0.24173000  0.41830000  1.0
  C  C56  1  0.08765000  0.83362000  0.65206000  1.0
  C  C57  1  0.91235000  0.16638000  0.34794000  1.0
  C  C58  1  0.94341000  0.91821000  0.67727000  1.0
  C  C59  1  0.05659000  0.08179000  0.32273000  1.0
  C  C60  1  0.79697000  0.92840000  0.63484000  1.0
  C  C61  1  0.20303000  0.07160000  0.36516000  1.0
  C  C62  1  0.79902000  0.85063000  0.56658000  1.0
  C  C63  1  0.20098000  0.14937000  0.43342000  1.0
  C  C64  1  0.94374000  0.76794000  0.53896000  1.0
  C  C65  1  0.05626000  0.23206000  0.46104000  1.0
  C  C66  1  0.64109000  0.01893000  0.66197000  1.0
  C  C67  1  0.35891000  0.98108000  0.33803000  1.0
  C  C68  1  0.65184000  0.69086000  0.31474000  1.0
  C  C69  1  0.34816000  0.30914000  0.68526000  1.0
  C  C70  1  0.70518000  0.81061000  0.20820000  1.0
  C  C71  1  0.29482000  0.18939000  0.79180000  1.0
  C  C72  1  0.77665000  0.90096000  0.22681000  1.0
  C  C73  1  0.22335000  0.09904000  0.77319000  1.0
  C  C74  1  0.80798000  0.01778000  0.13035000  1.0
  C  C75  1  0.19202000  0.98222000  0.86965000  1.0
  C  C76  1  0.77123000  0.04738000  0.01258000  1.0
  C  C77  1  0.22877000  0.95262000  0.98742000  1.0
  C  C78  1  0.70691000  0.95433000  0.99302000  1.0
  C  C79  1  0.29309000  0.04567000  0.00698000  1.0
  C  C80  1  0.67297000  0.83803000  0.08977000  1.0
  C  C81  1  0.32703000  0.16197000  0.91023000  1.0
  C  C82  1  0.79675000  0.17665000  0.91231000  1.0
  C  C83  1  0.20325000  0.82335000  0.08770000  1.0
  N  N84  1  0.30461000  0.47213000  0.29046000  1.0
  N  N85  1  0.69539000  0.52787000  0.70954000  1.0
  O  O86  1  0.24242000  0.61207000  0.47823000  1.0
  O  O87  1  0.75758000  0.38793000  0.52177000  1.0
  O  O88  1  0.36740000  0.65362000  0.60413000  1.0
  O  O89  1  0.63260000  0.34638000  0.39587000  1.0
  O  O90  1  0.57081000  0.62164000  0.29248000  1.0
  O  O91  1  0.42919000  0.37836000  0.70752000  1.0
  O  O92  1  0.68831000  0.66756000  0.41990000  1.0
  O  O93  1  0.31169000  0.33244000  0.58010000  1.0
