# generated using pymatgen
data_CdH10C13N2O7
_symmetry_space_group_name_H-M   'P 1'
_cell_length_a   8.02663000
_cell_length_b   12.78730000
_cell_length_c   18.84890000
_cell_angle_alpha   90.00000000
_cell_angle_beta   94.33900000
_cell_angle_gamma   90.00000000
_symmetry_Int_Tables_number   1
_chemical_formula_structural   CdH10C13N2O7
_chemical_formula_sum   'Cd4 H40 C52 N8 O28'
_cell_volume   1929.08593747
_cell_formula_units_Z   4
loop_
 _symmetry_equiv_pos_site_id
 _symmetry_equiv_pos_as_xyz
  1  'x, y, z'
loop_
 _atom_site_type_symbol
 _atom_site_label
 _atom_site_symmetry_multiplicity
 _atom_site_fract_x
 _atom_site_fract_y
 _atom_site_fract_z
 _atom_site_occupancy
  Cd  Cd0  1  0.88678000  0.82981000  0.88098000  1.0
  Cd  Cd1  1  0.61321000  0.32981000  0.61901000  1.0
  Cd  Cd2  1  0.11321000  0.17019000  0.11902000  1.0
  Cd  Cd3  1  0.38679000  0.67019000  0.38098000  1.0
  H  H4  1  0.92716000  0.88265000  0.03624000  1.0
  H  H5  1  0.57283000  0.38266000  0.46376000  1.0
  H  H6  1  0.07283000  0.11735000  0.96376000  1.0
  H  H7  1  0.42717000  0.61734000  0.53624000  1.0
  H  H8  1  0.04644000  0.78770000  0.02242000  1.0
  H  H9  1  0.45356000  0.28770000  0.47757000  1.0
  H  H10  1  0.95355000  0.21230000  0.97758000  1.0
  H  H11  1  0.54644000  0.71229000  0.52243000  1.0
  H  H12  1  0.83212000  0.06511000  0.92069000  1.0
  H  H13  1  0.66788000  0.56511000  0.57931000  1.0
  H  H14  1  0.16788000  0.93489000  0.07930000  1.0
  H  H15  1  0.33212000  0.43489000  0.42070000  1.0
  H  H16  1  0.30826000  0.14123000  0.92711000  1.0
  H  H17  1  0.19174000  0.64122000  0.57289000  1.0
  H  H18  1  0.69174000  0.85878000  0.07289000  1.0
  H  H19  1  0.80826000  0.35878000  0.42711000  1.0
  H  H20  1  0.48085000  0.83051000  0.88175000  1.0
  H  H21  1  0.01915000  0.33051000  0.61825000  1.0
  H  H22  1  0.51914000  0.16949000  0.11826000  1.0
  H  H23  1  0.98086000  0.66949000  0.38174000  1.0
  H  H24  1  0.41826000  0.26233000  0.99701000  1.0
  H  H25  1  0.08173000  0.76233000  0.50299000  1.0
  H  H26  1  0.58173000  0.73767000  0.00299000  1.0
  H  H27  1  0.91826000  0.23767000  0.49701000  1.0
  H  H28  1  0.58395000  0.35577000  0.98805000  1.0
  H  H29  1  0.91605000  0.85576000  0.51196000  1.0
  H  H30  1  0.41603000  0.64424000  0.01195000  1.0
  H  H31  1  0.08395000  0.14423000  0.48805000  1.0
  H  H32  1  0.56890000  0.51300000  0.92645000  1.0
  H  H33  1  0.93111000  0.01300000  0.57355000  1.0
  H  H34  1  0.43110000  0.48700000  0.07355000  1.0
  H  H35  1  0.06890000  0.98700000  0.42645000  1.0
  H  H36  1  0.76149000  0.52946000  0.72036000  1.0
  H  H37  1  0.73852000  0.02947000  0.77964000  1.0
  H  H38  1  0.23851000  0.47054000  0.27964000  1.0
  H  H39  1  0.26150000  0.97054000  0.22036000  1.0
  H  H40  1  0.47023000  0.27286000  0.76674000  1.0
  H  H41  1  0.02977000  0.77286000  0.73326000  1.0
  H  H42  1  0.52977000  0.72713000  0.23326000  1.0
  H  H43  1  0.97024000  0.22714000  0.26674000  1.0
  C  C44  1  0.70057000  0.04402000  0.91654000  1.0
  C  C45  1  0.79942000  0.54402000  0.58346000  1.0
  C  C46  1  0.29942000  0.95599000  0.08346000  1.0
  C  C47  1  0.20058000  0.45598000  0.41654000  1.0
  C  C48  1  0.57667000  0.11750000  0.92812000  1.0
  C  C49  1  0.92333000  0.61749000  0.57188000  1.0
  C  C50  1  0.42333000  0.88251000  0.07188000  1.0
  C  C51  1  0.07667000  0.38251000  0.42812000  1.0
  C  C52  1  0.40968000  0.08647000  0.92069000  1.0
  C  C53  1  0.09032000  0.58647000  0.57931000  1.0
  C  C54  1  0.59032000  0.91354000  0.07931000  1.0
  C  C55  1  0.90968000  0.41353000  0.42068000  1.0
  C  C56  1  0.37390000  0.98164000  0.90484000  1.0
  C  C57  1  0.12609000  0.48164000  0.59516000  1.0
  C  C58  1  0.62609000  0.01836000  0.09516000  1.0
  C  C59  1  0.87391000  0.51836000  0.40484000  1.0
  C  C60  1  0.19654000  0.94261000  0.90117000  1.0
  C  C61  1  0.30345000  0.44261000  0.59883000  1.0
  C  C62  1  0.80346000  0.05739000  0.09883000  1.0
  C  C63  1  0.69655000  0.55739000  0.40117000  1.0
  C  C64  1  0.50478000  0.91254000  0.89441000  1.0
  C  C65  1  0.99521000  0.41253000  0.60559000  1.0
  C  C66  1  0.49521000  0.08747000  0.10560000  1.0
  C  C67  1  0.00479000  0.58747000  0.39441000  1.0
  C  C68  1  0.51032000  0.29227000  0.96202000  1.0
  C  C69  1  0.98968000  0.79227000  0.53798000  1.0
  C  C70  1  0.48967000  0.70773000  0.03798000  1.0
  C  C71  1  0.01032000  0.20773000  0.46202000  1.0
  C  C72  1  0.51089000  0.38399000  0.85343000  1.0
  C  C73  1  0.98912000  0.88399000  0.64657000  1.0
  C  C74  1  0.48911000  0.61600000  0.14657000  1.0
  C  C75  1  0.01089000  0.11601000  0.35343000  1.0
  C  C76  1  0.58258000  0.47951000  0.87404000  1.0
  C  C77  1  0.91742000  0.97951000  0.62596000  1.0
  C  C78  1  0.41742000  0.52049000  0.12596000  1.0
  C  C79  1  0.08259000  0.02049000  0.37404000  1.0
  C  C80  1  0.67508000  0.53311000  0.82592000  1.0
  C  C81  1  0.82492000  0.03311000  0.67408000  1.0
  C  C82  1  0.32492000  0.46688000  0.17408000  1.0
  C  C83  1  0.17509000  0.96689000  0.32592000  1.0
  C  C84  1  0.68858000  0.48960000  0.75858000  1.0
  C  C85  1  0.81143000  0.98960000  0.74142000  1.0
  C  C86  1  0.31143000  0.51040000  0.24142000  1.0
  C  C87  1  0.18858000  0.01040000  0.25858000  1.0
  C  C88  1  0.52660000  0.34679000  0.78463000  1.0
  C  C89  1  0.97340000  0.84679000  0.71537000  1.0
  C  C90  1  0.47340000  0.65321000  0.21537000  1.0
  C  C91  1  0.02660000  0.15321000  0.28463000  1.0
  C  C92  1  0.75677000  0.63580000  0.84539000  1.0
  C  C93  1  0.74323000  0.13581000  0.65461000  1.0
  C  C94  1  0.24323000  0.36419000  0.15461000  1.0
  C  C95  1  0.25678000  0.86420000  0.34539000  1.0
  N  N96  1  0.66490000  0.94420000  0.90008000  1.0
  N  N97  1  0.83510000  0.44420000  0.59992000  1.0
  N  N98  1  0.33510000  0.05580000  0.09992000  1.0
  N  N99  1  0.16491000  0.55580000  0.40008000  1.0
  N  N100  1  0.61342000  0.39976000  0.73809000  1.0
  N  N101  1  0.88659000  0.89976000  0.76191000  1.0
  N  N102  1  0.38658000  0.60023000  0.26191000  1.0
  N  N103  1  0.11343000  0.10024000  0.23809000  1.0
  O  O104  1  0.63288000  0.21531000  0.94746000  1.0
  O  O105  1  0.86712000  0.71531000  0.55254000  1.0
  O  O106  1  0.36712000  0.78469000  0.05254000  1.0
  O  O107  1  0.13288000  0.28469000  0.44746000  1.0
  O  O108  1  0.41948000  0.32555000  0.89871000  1.0
  O  O109  1  0.08051000  0.82555000  0.60129000  1.0
  O  O110  1  0.58051000  0.67444000  0.10129000  1.0
  O  O111  1  0.91949000  0.17445000  0.39871000  1.0
  O  O112  1  0.87951000  0.66510000  0.81178000  1.0
  O  O113  1  0.62048000  0.16510000  0.68821000  1.0
  O  O114  1  0.12047000  0.33490000  0.18821000  1.0
  O  O115  1  0.37952000  0.83490000  0.31178000  1.0
  O  O116  1  0.69713000  0.68897000  0.89506000  1.0
  O  O117  1  0.80288000  0.18897000  0.60494000  1.0
  O  O118  1  0.30290000  0.31102000  0.10495000  1.0
  O  O119  1  0.19713000  0.81103000  0.39506000  1.0
  O  O120  1  0.17240000  0.84690000  0.88448000  1.0
  O  O121  1  0.32760000  0.34689000  0.61552000  1.0
  O  O122  1  0.82760000  0.15311000  0.11552000  1.0
  O  O123  1  0.67241000  0.65311000  0.38448000  1.0
  O  O124  1  0.08075000  0.00539000  0.91539000  1.0
  O  O125  1  0.41925000  0.50539000  0.58461000  1.0
  O  O126  1  0.91925000  0.99461000  0.08461000  1.0
  O  O127  1  0.58075000  0.49461000  0.41539000  1.0
  O  O128  1  0.93423000  0.81452000  0.01033000  1.0
  O  O129  1  0.56577000  0.31452000  0.48967000  1.0
  O  O130  1  0.06577000  0.18548000  0.98967000  1.0
  O  O131  1  0.43423000  0.68548000  0.51033000  1.0
