# generated using pymatgen
data_SrH18(C6O7)2
_symmetry_space_group_name_H-M   'P 1'
_cell_length_a   6.36464000
_cell_length_b   8.27511000
_cell_length_c   16.29640000
_cell_angle_alpha   89.99980000
_cell_angle_beta   89.99980000
_cell_angle_gamma   71.10400000
_symmetry_Int_Tables_number   1
_chemical_formula_structural   SrH18(C6O7)2
_chemical_formula_sum   'Sr2 H36 C24 O28'
_cell_volume   812.04481281
_cell_formula_units_Z   2
loop_
 _symmetry_equiv_pos_site_id
 _symmetry_equiv_pos_as_xyz
  1  'x, y, z'
loop_
 _atom_site_type_symbol
 _atom_site_label
 _atom_site_symmetry_multiplicity
 _atom_site_fract_x
 _atom_site_fract_y
 _atom_site_fract_z
 _atom_site_occupancy
  Sr  Sr0  1  0.02885000  0.22523000  0.88985000  1.0
  Sr  Sr1  1  0.97115000  0.77477000  0.38985000  1.0
  H  H2  1  0.61974000  0.53742000  0.82160000  1.0
  H  H3  1  0.38026000  0.46259000  0.32160000  1.0
  H  H4  1  0.60346000  0.56600000  0.91924000  1.0
  H  H5  1  0.39654000  0.43400000  0.41924000  1.0
  H  H6  1  0.49056000  0.01123000  0.79834000  1.0
  H  H7  1  0.50945000  0.98877000  0.29833000  1.0
  H  H8  1  0.55538000  0.07018000  0.88367000  1.0
  H  H9  1  0.44462000  0.92983000  0.38367000  1.0
  H  H10  1  0.58682000  0.79041000  0.70246000  1.0
  H  H11  1  0.41318000  0.20959000  0.20245000  1.0
  H  H12  1  0.40307000  0.76002000  0.49433000  1.0
  H  H13  1  0.59693000  0.23998000  0.99433000  1.0
  H  H14  1  0.71752000  0.15432000  0.46213000  1.0
  H  H15  1  0.28248000  0.84568000  0.96213000  1.0
  H  H16  1  0.26435000  0.78544000  0.62366000  1.0
  H  H17  1  0.73566000  0.21456000  0.12366000  1.0
  H  H18  1  0.33594000  0.02842000  0.55770000  1.0
  H  H19  1  0.66406000  0.97158000  0.05770000  1.0
  H  H20  1  0.93895000  0.22477000  0.54641000  1.0
  H  H21  1  0.06105000  0.77523000  0.04641000  1.0
  H  H22  1  0.10525000  0.20609000  0.45716000  1.0
  H  H23  1  0.89474000  0.79391000  0.95716000  1.0
  H  H24  1  0.72210000  0.65398000  0.55371000  1.0
  H  H25  1  0.27789000  0.34602000  0.05370000  1.0
  H  H26  1  0.11142000  0.25271000  0.69923000  1.0
  H  H27  1  0.88858000  0.74729000  0.19923000  1.0
  H  H28  1  0.35340000  0.46504000  0.88597000  1.0
  H  H29  1  0.64660000  0.53496000  0.38597000  1.0
  H  H30  1  0.50096000  0.30132000  0.75312000  1.0
  H  H31  1  0.49904000  0.69867000  0.25312000  1.0
  H  H32  1  0.08030000  0.55276000  0.67583000  1.0
  H  H33  1  0.91970000  0.44724000  0.17583000  1.0
  H  H34  1  0.19840000  0.68119000  0.80031000  1.0
  H  H35  1  0.80160000  0.31881000  0.30031000  1.0
  H  H36  1  0.94060000  0.64283000  0.81138000  1.0
  H  H37  1  0.05940000  0.35717000  0.31138000  1.0
  C  C38  1  0.89765000  0.01554000  0.71633000  1.0
  C  C39  1  0.10236000  0.98445000  0.21633000  1.0
  C  C40  1  0.78750000  0.92039000  0.67009000  1.0
  C  C41  1  0.21250000  0.07960000  0.17008000  1.0
  C  C42  1  0.91638000  0.84895000  0.60237000  1.0
  C  C43  1  0.08362000  0.15105000  0.10238000  1.0
  C  C44  1  0.12518000  0.90027000  0.60759000  1.0
  C  C45  1  0.87482000  0.09972000  0.10759000  1.0
  C  C46  1  0.20094000  0.98472000  0.53443000  1.0
  C  C47  1  0.79906000  0.01528000  0.03443000  1.0
  C  C48  1  0.02438000  0.13675000  0.49719000  1.0
  C  C49  1  0.97562000  0.86325000  0.99719000  1.0
  C  C50  1  0.47294000  0.36038000  0.56673000  1.0
  C  C51  1  0.52706000  0.63962000  0.06673000  1.0
  C  C52  1  0.53820000  0.50207000  0.59255000  1.0
  C  C53  1  0.46180000  0.49793000  0.09255000  1.0
  C  C54  1  0.51651000  0.51690000  0.67728000  1.0
  C  C55  1  0.48349000  0.48310000  0.17728000  1.0
  C  C56  1  0.40819000  0.38817000  0.70494000  1.0
  C  C57  1  0.59181000  0.61183000  0.20494000  1.0
  C  C58  1  0.16250000  0.47143000  0.72799000  1.0
  C  C59  1  0.83750000  0.52857000  0.22799000  1.0
  C  C60  1  0.12069000  0.58077000  0.80526000  1.0
  C  C61  1  0.87931000  0.41923000  0.30526000  1.0
  O  O62  1  0.64251000  0.47588000  0.87572000  1.0
  O  O63  1  0.35749000  0.52412000  0.37572000  1.0
  O  O64  1  0.43092000  0.05314000  0.85316000  1.0
  O  O65  1  0.56908000  0.94687000  0.35315000  1.0
  O  O66  1  0.84485000  0.09255000  0.78248000  1.0
  O  O67  1  0.15516000  0.90744000  0.28248000  1.0
  O  O68  1  0.58600000  0.91363000  0.69514000  1.0
  O  O69  1  0.41400000  0.08637000  0.19513000  1.0
  O  O70  1  0.89216000  0.74400000  0.54684000  1.0
  O  O71  1  0.10784000  0.25600000  0.04684000  1.0
  O  O72  1  0.09150000  0.01423000  0.67763000  1.0
  O  O73  1  0.90850000  0.98577000  0.17763000  1.0
  O  O74  1  0.28278000  0.85999000  0.47043000  1.0
  O  O75  1  0.71722000  0.14001000  0.97043000  1.0
  O  O76  1  0.87094000  0.07939000  0.45085000  1.0
  O  O77  1  0.12906000  0.92061000  0.95085000  1.0
  O  O78  1  0.47039000  0.29745000  0.49688000  1.0
  O  O79  1  0.52961000  0.70256000  0.99688000  1.0
  O  O80  1  0.59962000  0.60192000  0.53699000  1.0
  O  O81  1  0.40037000  0.39808000  0.03699000  1.0
  O  O82  1  0.56461000  0.61956000  0.72761000  1.0
  O  O83  1  0.43539000  0.38043000  0.22761000  1.0
  O  O84  1  0.40586000  0.28603000  0.63237000  1.0
  O  O85  1  0.59414000  0.71397000  0.13237000  1.0
  O  O86  1  0.06255000  0.34158000  0.74141000  1.0
  O  O87  1  0.93744000  0.65842000  0.24141000  1.0
  O  O88  1  0.19381000  0.48014000  0.87767000  1.0
  O  O89  1  0.80619000  0.51986000  0.37767000  1.0
