# generated using pymatgen
data_ZnH11C15Br3NO4
_symmetry_space_group_name_H-M   'P 1'
_cell_length_a   10.11940000
_cell_length_b   11.26100000
_cell_length_c   13.77870000
_cell_angle_alpha   85.11370000
_cell_angle_beta   68.65200000
_cell_angle_gamma   86.73310000
_symmetry_Int_Tables_number   1
_chemical_formula_structural   ZnH11C15Br3NO4
_chemical_formula_sum   'Zn2 H22 C30 Br6 N2 O8'
_cell_volume   1456.52672530
_cell_formula_units_Z   2
loop_
 _symmetry_equiv_pos_site_id
 _symmetry_equiv_pos_as_xyz
  1  'x, y, z'
loop_
 _atom_site_type_symbol
 _atom_site_label
 _atom_site_symmetry_multiplicity
 _atom_site_fract_x
 _atom_site_fract_y
 _atom_site_fract_z
 _atom_site_occupancy
  Zn  Zn0  1  0.64192000  0.52367000  0.48417000  1.0
  Zn  Zn1  1  0.34913000  0.53041000  0.51751000  1.0
  H  H2  1  0.25028000  0.35891000  0.82285000  1.0
  H  H3  1  0.06717000  0.22875000  0.33264000  1.0
  H  H4  1  0.09017000  0.44657000  0.27653000  1.0
  H  H5  1  0.07144000  0.36563000  0.17968000  1.0
  H  H6  1  0.71046000  0.33715000  0.27391000  1.0
  H  H7  1  0.79939000  0.28964000  0.14583000  1.0
  H  H8  1  0.89079000  0.29136000  0.23366000  1.0
  H  H9  1  0.95821000  0.46642000  0.10189000  1.0
  H  H10  1  0.86466000  0.51880000  0.22639000  1.0
  H  H11  1  0.94493000  0.75944000  0.96166000  1.0
  H  H12  1  0.00377000  0.66769000  0.04976000  1.0
  H  H13  1  0.59453000  0.12024000  0.52054000  1.0
  H  H14  1  0.11602000  0.68768000  0.91627000  1.0
  H  H15  1  0.00590000  0.48867000  0.94802000  1.0
  H  H16  1  0.94725000  0.58135000  0.86201000  1.0
  H  H17  1  0.89504000  0.35165000  0.50258000  1.0
  H  H18  1  0.88299000  0.61207000  0.47841000  1.0
  H  H19  1  0.12880000  0.36920000  0.50703000  1.0
  H  H20  1  0.72147000  0.57889000  0.88303000  1.0
  H  H21  1  0.31472000  0.49006000  0.27570000  1.0
  H  H22  1  0.21919000  0.19493000  0.22245000  1.0
  H  H23  1  0.23787000  0.27682000  0.32080000  1.0
  C  C24  1  0.49820000  0.75833000  0.48584000  1.0
  C  C25  1  0.60011000  0.52746000  0.18500000  1.0
  C  C26  1  0.38410000  0.08817000  0.55026000  1.0
  C  C27  1  0.55690000  0.52539000  0.30198000  1.0
  C  C28  1  0.49098000  0.16284000  0.53127000  1.0
  C  C29  1  0.40494000  0.95880000  0.55506000  1.0
  C  C30  1  0.48460000  0.89264000  0.47673000  1.0
  C  C31  1  0.92889000  0.44348000  0.49746000  1.0
  C  C32  1  0.06803000  0.45385000  0.50803000  1.0
  C  C33  1  0.49059000  0.29494000  0.51999000  1.0
  C  C34  1  0.41842000  0.52317000  0.70092000  1.0
  C  C35  1  0.54095000  0.54153000  0.02493000  1.0
  C  C36  1  0.26673000  0.37754000  0.97204000  1.0
  C  C37  1  0.38963000  0.49976000  0.81564000  1.0
  C  C38  1  0.74561000  0.52425000  0.12241000  1.0
  C  C39  1  0.78728000  0.55221000  0.01312000  1.0
  C  C40  1  0.68498000  0.56342000  0.96750000  1.0
  C  C41  1  0.14373000  0.38015000  0.21939000  1.0
  C  C42  1  0.16845000  0.26371000  0.27729000  1.0
  C  C43  1  0.85433000  0.46829000  0.16526000  1.0
  C  C44  1  0.81122000  0.33941000  0.20730000  1.0
  C  C45  1  0.94090000  0.56926000  0.94364000  1.0
  C  C46  1  0.49770000  0.52536000  0.13570000  1.0
  C  C47  1  0.00528000  0.67717000  0.96932000  1.0
  C  C48  1  0.44309000  0.51573000  0.97411000  1.0
  C  C49  1  0.32680000  0.43817000  0.03203000  1.0
  C  C50  1  0.27904000  0.43509000  0.14468000  1.0
  C  C51  1  0.35605000  0.48894000  0.19133000  1.0
  C  C52  1  0.46057000  0.55330000  0.86926000  1.0
  C  C53  1  0.29713000  0.40720000  0.86700000  1.0
  Br  Br54  1  0.30754000  0.87926000  0.68868000  1.0
  Br  Br55  1  0.58432000  0.96000000  0.34008000  1.0
  Br  Br56  1  0.05334000  0.69870000  0.52827000  1.0
  Br  Br57  1  0.15279000  0.23946000  0.02397000  1.0
  Br  Br58  1  0.56486000  0.69216000  0.79978000  1.0
  Br  Br59  1  0.19158000  0.13578000  0.56975000  1.0
  N  N60  1  0.84635000  0.52778000  0.48212000  1.0
  N  N61  1  0.13426000  0.54251000  0.52007000  1.0
  O  O62  1  0.60936000  0.71249000  0.49609000  1.0
  O  O63  1  0.39341000  0.70585000  0.48036000  1.0
  O  O64  1  0.64975000  0.55691000  0.33692000  1.0
  O  O65  1  0.43150000  0.49696000  0.36189000  1.0
  O  O66  1  0.61316000  0.34094000  0.48440000  1.0
  O  O67  1  0.37129000  0.35130000  0.54710000  1.0
  O  O68  1  0.54664000  0.50557000  0.64178000  1.0
  O  O69  1  0.31342000  0.54953000  0.67254000  1.0
