# generated using pymatgen
data_Tl2H6C9O7
_symmetry_space_group_name_H-M   'P 1'
_cell_length_a   4.14117000
_cell_length_b   16.22349572
_cell_length_c   17.56800000
_cell_angle_alpha   89.99964426
_cell_angle_beta   89.99980000
_cell_angle_gamma   86.21805789
_symmetry_Int_Tables_number   1
_chemical_formula_structural   Tl2H6C9O7
_chemical_formula_sum   'Tl8 H24 C36 O28'
_cell_volume   1177.72265393
_cell_formula_units_Z   4
loop_
 _symmetry_equiv_pos_site_id
 _symmetry_equiv_pos_as_xyz
  1  'x, y, z'
loop_
 _atom_site_type_symbol
 _atom_site_label
 _atom_site_symmetry_multiplicity
 _atom_site_fract_x
 _atom_site_fract_y
 _atom_site_fract_z
 _atom_site_occupancy
  Tl  Tl0  1  0.89291000  0.31071000  0.60926000  1.0
  Tl  Tl1  1  0.60693000  0.18927000  0.10926000  1.0
  Tl  Tl2  1  0.10707000  0.68929000  0.39074000  1.0
  Tl  Tl3  1  0.39302000  0.81071000  0.89075000  1.0
  Tl  Tl4  1  0.63123000  0.55641000  0.88971000  1.0
  Tl  Tl5  1  0.86878000  0.94361000  0.38970000  1.0
  Tl  Tl6  1  0.36871000  0.44358000  0.11031000  1.0
  Tl  Tl7  1  0.13123000  0.05639000  0.61032000  1.0
  H  H8  1  0.85602000  0.47397000  0.54812000  1.0
  H  H9  1  0.64399000  0.02600000  0.04810000  1.0
  H  H10  1  0.14397000  0.52602000  0.45186000  1.0
  H  H11  1  0.35601000  0.97399000  0.95183000  1.0
  H  H12  1  0.23588000  0.42259000  0.76649000  1.0
  H  H13  1  0.26408000  0.07746000  0.26651000  1.0
  H  H14  1  0.76402000  0.57741000  0.23353000  1.0
  H  H15  1  0.73598000  0.92256000  0.73351000  1.0
  H  H16  1  0.12114000  0.42874000  0.85229000  1.0
  H  H17  1  0.37879000  0.07125000  0.35232000  1.0
  H  H18  1  0.87884000  0.57126000  0.14773000  1.0
  H  H19  1  0.62123000  0.92874000  0.64771000  1.0
  H  H20  1  0.11643000  0.59120000  0.71277000  1.0
  H  H21  1  0.38375000  0.90882000  0.21271000  1.0
  H  H22  1  0.88359000  0.40877000  0.28723000  1.0
  H  H23  1  0.61625000  0.09123000  0.78725000  1.0
  H  H24  1  0.11831000  0.85020000  0.65949000  1.0
  H  H25  1  0.38184000  0.64981000  0.15949000  1.0
  H  H26  1  0.88163000  0.14978000  0.34053000  1.0
  H  H27  1  0.61818000  0.35022000  0.84054000  1.0
  H  H28  1  0.64689000  0.67244000  0.51836000  1.0
  H  H29  1  0.85321000  0.82754000  0.01834000  1.0
  H  H30  1  0.35310000  0.32756000  0.48165000  1.0
  H  H31  1  0.14678000  0.17244000  0.98165000  1.0
  C  C32  1  0.52669000  0.53724000  0.60183000  1.0
  C  C33  1  0.97347000  0.96276000  0.10179000  1.0
  C  C34  1  0.47335000  0.46276000  0.39817000  1.0
  C  C35  1  0.02658000  0.03725000  0.89816000  1.0
  C  C36  1  0.39849000  0.62308000  0.61452000  1.0
  C  C37  1  0.10169000  0.87692000  0.11449000  1.0
  C  C38  1  0.60153000  0.37692000  0.38548000  1.0
  C  C39  1  0.89835000  0.12308000  0.88549000  1.0
  C  C40  1  0.18946000  0.64076000  0.67588000  1.0
  C  C41  1  0.31073000  0.85925000  0.17585000  1.0
  C  C42  1  0.81049000  0.35923000  0.32412000  1.0
  C  C43  1  0.68939000  0.14077000  0.82413000  1.0
  C  C44  1  0.08693000  0.72277000  0.69124000  1.0
  C  C45  1  0.41321000  0.77725000  0.19124000  1.0
  C  C46  1  0.91306000  0.27722000  0.30876000  1.0
  C  C47  1  0.58682000  0.22277000  0.80877000  1.0
  C  C48  1  0.19050000  0.78635000  0.64508000  1.0
  C  C49  1  0.30964000  0.71366000  0.14509000  1.0
  C  C50  1  0.80952000  0.21363000  0.35493000  1.0
  C  C51  1  0.69040000  0.28636000  0.85493000  1.0
  C  C52  1  0.38105000  0.76858000  0.58072000  1.0
  C  C53  1  0.11908000  0.73141000  0.08072000  1.0
  C  C54  1  0.61892000  0.23140000  0.41929000  1.0
  C  C55  1  0.88095000  0.26859000  0.91929000  1.0
  C  C56  1  0.48686000  0.68658000  0.56635000  1.0
  C  C57  1  0.01325000  0.81340000  0.06632000  1.0
  C  C58  1  0.51309000  0.31341000  0.43366000  1.0
  C  C59  1  0.98679000  0.18658000  0.93366000  1.0
  C  C60  1  0.87340000  0.74402000  0.75861000  1.0
  C  C61  1  0.62676000  0.75601000  0.25860000  1.0
  C  C62  1  0.12665000  0.25596000  0.24140000  1.0
  C  C63  1  0.37320000  0.24403000  0.74142000  1.0
  C  C64  1  0.47322000  0.83593000  0.52724000  1.0
  C  C65  1  0.02695000  0.66405000  0.02724000  1.0
  C  C66  1  0.52676000  0.16407000  0.47278000  1.0
  C  C67  1  0.97314000  0.33593000  0.97277000  1.0
  O  O68  1  0.42901000  0.47549000  0.63223000  1.0
  O  O69  1  0.07109000  0.02453000  0.13217000  1.0
  O  O70  1  0.57095000  0.52450000  0.36775000  1.0
  O  O71  1  0.92894000  0.97550000  0.86775000  1.0
  O  O72  1  0.77506000  0.53209000  0.55072000  1.0
  O  O73  1  0.72499000  0.96789000  0.05068000  1.0
  O  O74  1  0.22488000  0.46791000  0.44927000  1.0
  O  O75  1  0.27504000  0.03210000  0.94926000  1.0
  O  O76  1  0.71107000  0.68898000  0.78820000  1.0
  O  O77  1  0.78904000  0.81106000  0.28817000  1.0
  O  O78  1  0.28886000  0.31102000  0.21180000  1.0
  O  O79  1  0.21095000  0.18899000  0.71182000  1.0
  O  O80  1  0.87108000  0.81903000  0.78266000  1.0
  O  O81  1  0.62898000  0.68098000  0.28264000  1.0
  O  O82  1  0.12893000  0.18096000  0.21734000  1.0
  O  O83  1  0.37097000  0.31905000  0.71737000  1.0
  O  O84  1  0.52512000  0.90629000  0.55480000  1.0
  O  O85  1  0.97499000  0.59370000  0.05482000  1.0
  O  O86  1  0.47482000  0.09371000  0.44519000  1.0
  O  O87  1  0.02512000  0.40629000  0.94520000  1.0
  O  O88  1  0.49253000  0.81778000  0.45653000  1.0
  O  O89  1  0.00764000  0.68219000  0.95653000  1.0
  O  O90  1  0.50740000  0.18221000  0.54348000  1.0
  O  O91  1  0.99241000  0.31779000  0.04348000  1.0
  O  O92  1  0.16664000  0.46242000  0.80653000  1.0
  O  O93  1  0.33331000  0.03761000  0.30653000  1.0
  O  O94  1  0.83328000  0.53759000  0.19349000  1.0
  O  O95  1  0.66671000  0.96239000  0.69348000  1.0
