# generated using pymatgen
data_TbCu2H8C8(N3O4)3
_symmetry_space_group_name_H-M   'P 1'
_cell_length_a   7.25982000
_cell_length_b   11.17450000
_cell_length_c   11.81300000
_cell_angle_alpha   77.66500000
_cell_angle_beta   89.99710000
_cell_angle_gamma   89.99730000
_symmetry_Int_Tables_number   1
_chemical_formula_structural   TbCu2H8C8(N3O4)3
_chemical_formula_sum   'Tb2 Cu4 H16 C16 N18 O24'
_cell_volume   936.20520033
_cell_formula_units_Z   2
loop_
 _symmetry_equiv_pos_site_id
 _symmetry_equiv_pos_as_xyz
  1  'x, y, z'
loop_
 _atom_site_type_symbol
 _atom_site_label
 _atom_site_symmetry_multiplicity
 _atom_site_fract_x
 _atom_site_fract_y
 _atom_site_fract_z
 _atom_site_occupancy
  Tb  Tb0  1  0.49912000  0.75000000  1.00000000  1.0
  Tb  Tb1  1  0.50088000  0.25000000  0.00000000  1.0
  Cu  Cu2  1  0.13864000  0.11125000  0.57465000  1.0
  Cu  Cu3  1  0.13865000  0.38874000  0.42534000  1.0
  Cu  Cu4  1  0.86137000  0.88875000  0.42535000  1.0
  Cu  Cu5  1  0.86135000  0.61126000  0.57466000  1.0
  H  H6  1  0.77083000  0.94832000  0.92759000  1.0
  H  H7  1  0.77082000  0.55168000  0.07240000  1.0
  H  H8  1  0.22917000  0.05168000  0.07241000  1.0
  H  H9  1  0.22918000  0.44832000  0.92760000  1.0
  H  H10  1  0.68898000  0.96327000  0.04772000  1.0
  H  H11  1  0.68897000  0.53674000  0.95228000  1.0
  H  H12  1  0.31101000  0.03673000  0.95228000  1.0
  H  H13  1  0.31103000  0.46326000  0.04772000  1.0
  H  H14  1  0.69128000  0.72795000  0.77259000  1.0
  H  H15  1  0.69129000  0.77206000  0.22740000  1.0
  H  H16  1  0.30872000  0.27206000  0.22741000  1.0
  H  H17  1  0.30871000  0.22794000  0.77260000  1.0
  H  H18  1  0.72987000  0.86695000  0.78052000  1.0
  H  H19  1  0.72985000  0.63305000  0.21947000  1.0
  H  H20  1  0.27014000  0.13306000  0.21948000  1.0
  H  H21  1  0.27015000  0.36694000  0.78054000  1.0
  C  C22  1  0.28268000  0.95875000  0.77595000  1.0
  C  C23  1  0.28266000  0.54124000  0.22403000  1.0
  C  C24  1  0.71733000  0.04124000  0.22405000  1.0
  C  C25  1  0.71734000  0.45876000  0.77596000  1.0
  C  C26  1  0.20731000  0.64063000  0.80964000  1.0
  C  C27  1  0.20727000  0.85936000  0.19037000  1.0
  C  C28  1  0.79269000  0.35937000  0.19036000  1.0
  C  C29  1  0.79273000  0.14063000  0.80963000  1.0
  C  C30  1  0.18450000  0.87604000  0.71366000  1.0
  C  C31  1  0.18442000  0.62395000  0.28631000  1.0
  C  C32  1  0.81549000  0.12396000  0.28635000  1.0
  C  C33  1  0.81558000  0.37606000  0.71368000  1.0
  C  C34  1  0.13883000  0.75148000  0.72646000  1.0
  C  C35  1  0.13875000  0.74851000  0.27353000  1.0
  C  C36  1  0.86117000  0.24852000  0.27355000  1.0
  C  C37  1  0.86124000  0.25149000  0.72647000  1.0
  N  N38  1  0.09615000  0.93581000  0.61714000  1.0
  N  N39  1  0.09605000  0.56417000  0.38283000  1.0
  N  N40  1  0.90386000  0.06419000  0.38286000  1.0
  N  N41  1  0.90394000  0.43583000  0.61716000  1.0
  N  N42  1  0.02288000  0.74420000  0.63829000  1.0
  N  N43  1  0.02279000  0.75579000  0.36170000  1.0
  N  N44  1  0.97713000  0.25580000  0.36171000  1.0
  N  N45  1  0.97721000  0.24421000  0.63830000  1.0
  N  N46  1  0.30518000  0.24997000  0.49994000  1.0
  N  N47  1  0.69481000  0.75003000  0.50007000  1.0
  N  N48  1  0.99964000  0.14375000  0.42578000  1.0
  N  N49  1  0.99973000  0.35626000  0.57424000  1.0
  N  N50  1  0.00037000  0.85625000  0.57422000  1.0
  N  N51  1  0.00026000  0.64374000  0.42576000  1.0
  N  N52  1  0.47193000  0.25002000  0.50001000  1.0
  N  N53  1  0.52808000  0.74997000  0.49998000  1.0
  N  N54  1  0.63163000  0.25005000  0.50007000  1.0
  N  N55  1  0.36836000  0.74993000  0.49992000  1.0
  O  O56  1  0.34721000  0.92387000  0.87660000  1.0
  O  O57  1  0.34723000  0.57613000  0.12339000  1.0
  O  O58  1  0.65278000  0.07612000  0.12341000  1.0
  O  O59  1  0.65277000  0.42387000  0.87660000  1.0
  O  O60  1  0.72006000  0.90023000  0.00256000  1.0
  O  O61  1  0.72007000  0.59978000  0.99743000  1.0
  O  O62  1  0.27994000  0.09977000  0.99744000  1.0
  O  O63  1  0.27993000  0.40022000  0.00257000  1.0
  O  O64  1  0.64463000  0.79803000  0.80213000  1.0
  O  O65  1  0.64461000  0.70198000  0.19788000  1.0
  O  O66  1  0.35538000  0.20198000  0.19788000  1.0
  O  O67  1  0.35539000  0.29802000  0.80212000  1.0
  O  O68  1  0.31764000  0.66079000  0.88734000  1.0
  O  O69  1  0.31762000  0.83921000  0.11266000  1.0
  O  O70  1  0.68236000  0.33921000  0.11266000  1.0
  O  O71  1  0.68238000  0.16079000  0.88733000  1.0
  O  O72  1  0.28866000  0.07197000  0.72129000  1.0
  O  O73  1  0.28866000  0.42804000  0.27870000  1.0
  O  O74  1  0.71134000  0.92803000  0.27872000  1.0
  O  O75  1  0.71134000  0.57197000  0.72130000  1.0
  O  O76  1  0.15559000  0.53577000  0.79877000  1.0
  O  O77  1  0.15555000  0.96423000  0.20124000  1.0
  O  O78  1  0.84440000  0.46423000  0.20123000  1.0
  O  O79  1  0.84445000  0.03577000  0.79876000  1.0
