# generated using pymatgen
data_CuH4C3NCl
_symmetry_space_group_name_H-M   'P 1'
_cell_length_a   6.30060000
_cell_length_b   8.70298000
_cell_length_c   15.96030000
_cell_angle_alpha   90.00040000
_cell_angle_beta   90.00020000
_cell_angle_gamma   84.22960000
_symmetry_Int_Tables_number   1
_chemical_formula_structural   CuH4C3NCl
_chemical_formula_sum   'Cu8 H32 C24 N8 Cl8'
_cell_volume   870.73236218
_cell_formula_units_Z   8
loop_
 _symmetry_equiv_pos_site_id
 _symmetry_equiv_pos_as_xyz
  1  'x, y, z'
loop_
 _atom_site_type_symbol
 _atom_site_label
 _atom_site_symmetry_multiplicity
 _atom_site_fract_x
 _atom_site_fract_y
 _atom_site_fract_z
 _atom_site_occupancy
  Cu  Cu0  1  0.76420000  0.28871000  0.13327000  1.0
  Cu  Cu1  1  0.23580000  0.21129000  0.63326000  1.0
  Cu  Cu2  1  0.23580000  0.71128000  0.86674000  1.0
  Cu  Cu3  1  0.76420000  0.78871000  0.36673000  1.0
  Cu  Cu4  1  0.76784000  0.48113000  0.00758000  1.0
  Cu  Cu5  1  0.23215000  0.01886000  0.50758000  1.0
  Cu  Cu6  1  0.23215000  0.51886000  0.99242000  1.0
  Cu  Cu7  1  0.76785000  0.98114000  0.49242000  1.0
  H  H8  1  0.42353000  0.07544000  0.34791000  1.0
  H  H9  1  0.57647000  0.42456000  0.84791000  1.0
  H  H10  1  0.57648000  0.92456000  0.65209000  1.0
  H  H11  1  0.42353000  0.57543000  0.15209000  1.0
  H  H12  1  0.41098000  0.97991000  0.08776000  1.0
  H  H13  1  0.58902000  0.52009000  0.58776000  1.0
  H  H14  1  0.58900000  0.02009000  0.91224000  1.0
  H  H15  1  0.41099000  0.47992000  0.41224000  1.0
  H  H16  1  0.71883000  0.77591000  0.16391000  1.0
  H  H17  1  0.28117000  0.72410000  0.66391000  1.0
  H  H18  1  0.28117000  0.22408000  0.83609000  1.0
  H  H19  1  0.71883000  0.27592000  0.33609000  1.0
  H  H20  1  0.16619000  0.24163000  0.26556000  1.0
  H  H21  1  0.83381000  0.25837000  0.76556000  1.0
  H  H22  1  0.83380000  0.75836000  0.73444000  1.0
  H  H23  1  0.16620000  0.74163000  0.23444000  1.0
  H  H24  1  0.25451000  0.27745000  0.16148000  1.0
  H  H25  1  0.74549000  0.22255000  0.66147000  1.0
  H  H26  1  0.74549000  0.72255000  0.83853000  1.0
  H  H27  1  0.25451000  0.77746000  0.33852000  1.0
  H  H28  1  0.92758000  0.04818000  0.20909000  1.0
  H  H29  1  0.07242000  0.45182000  0.70909000  1.0
  H  H30  1  0.07241000  0.95181000  0.79091000  1.0
  H  H31  1  0.92759000  0.54819000  0.29091000  1.0
  H  H32  1  0.06962000  0.17834000  0.03808000  1.0
  H  H33  1  0.93038000  0.32166000  0.53807000  1.0
  H  H34  1  0.93038000  0.82166000  0.96193000  1.0
  H  H35  1  0.06962000  0.67835000  0.46192000  1.0
  H  H36  1  0.86137000  0.04454000  0.05539000  1.0
  H  H37  1  0.13864000  0.45545000  0.55538000  1.0
  H  H38  1  0.13863000  0.95545000  0.94461000  1.0
  H  H39  1  0.86137000  0.54455000  0.44461000  1.0
  C  C40  1  0.46553000  0.02134000  0.28818000  1.0
  C  C41  1  0.53447000  0.47865000  0.78818000  1.0
  C  C42  1  0.53447000  0.97865000  0.71182000  1.0
  C  C43  1  0.46553000  0.52135000  0.21182000  1.0
  C  C44  1  0.46169000  0.96939000  0.15241000  1.0
  C  C45  1  0.53830000  0.53062000  0.65241000  1.0
  C  C46  1  0.53831000  0.03060000  0.84759000  1.0
  C  C47  1  0.46170000  0.46940000  0.34760000  1.0
  C  C48  1  0.61213000  0.86842000  0.19106000  1.0
  C  C49  1  0.38787000  0.63159000  0.69106000  1.0
  C  C50  1  0.38783000  0.13158000  0.80895000  1.0
  C  C51  1  0.61216000  0.36842000  0.30895000  1.0
  C  C52  1  0.19812000  0.19057000  0.20351000  1.0
  C  C53  1  0.80188000  0.30943000  0.70350000  1.0
  C  C54  1  0.80188000  0.80943000  0.79650000  1.0
  C  C55  1  0.19813000  0.69057000  0.29649000  1.0
  C  C56  1  0.00472000  0.12600000  0.16766000  1.0
  C  C57  1  0.99528000  0.37400000  0.66765000  1.0
  C  C58  1  0.99527000  0.87400000  0.83235000  1.0
  C  C59  1  0.00473000  0.62600000  0.33234000  1.0
  C  C60  1  0.96659000  0.12394000  0.08186000  1.0
  C  C61  1  0.03341000  0.37605000  0.58186000  1.0
  C  C62  1  0.03342000  0.87605000  0.91814000  1.0
  C  C63  1  0.96659000  0.62395000  0.41814000  1.0
  N  N64  1  0.61272000  0.90180000  0.27609000  1.0
  N  N65  1  0.38728000  0.59820000  0.77609000  1.0
  N  N66  1  0.38728000  0.09820000  0.72391000  1.0
  N  N67  1  0.61272000  0.40180000  0.22391000  1.0
  N  N68  1  0.37103000  0.06541000  0.21468000  1.0
  N  N69  1  0.62896000  0.43459000  0.71468000  1.0
  N  N70  1  0.62897000  0.93459000  0.78532000  1.0
  N  N71  1  0.37104000  0.56541000  0.28532000  1.0
  Cl  Cl72  1  0.51318000  0.30680000  0.02108000  1.0
  Cl  Cl73  1  0.48682000  0.19319000  0.52107000  1.0
  Cl  Cl74  1  0.48683000  0.69319000  0.97893000  1.0
  Cl  Cl75  1  0.51318000  0.80681000  0.47893000  1.0
  Cl  Cl76  1  0.99312000  0.56739000  0.10502000  1.0
  Cl  Cl77  1  0.00687000  0.93261000  0.60502000  1.0
  Cl  Cl78  1  0.00687000  0.43261000  0.89498000  1.0
  Cl  Cl79  1  0.99314000  0.06739000  0.39498000  1.0
