# generated using pymatgen
data_Cu2H26(C8O5)3
_symmetry_space_group_name_H-M   'P 1'
_cell_length_a   11.94150000
_cell_length_b   18.23390000
_cell_length_c   18.27530000
_cell_angle_alpha   90.03050000
_cell_angle_beta   90.02910000
_cell_angle_gamma   89.97780000
_symmetry_Int_Tables_number   1
_chemical_formula_structural   Cu2H26(C8O5)3
_chemical_formula_sum   'Cu8 H104 C96 O60'
_cell_volume   3979.26458215
_cell_formula_units_Z   4
loop_
 _symmetry_equiv_pos_site_id
 _symmetry_equiv_pos_as_xyz
  1  'x, y, z'
loop_
 _atom_site_type_symbol
 _atom_site_label
 _atom_site_symmetry_multiplicity
 _atom_site_fract_x
 _atom_site_fract_y
 _atom_site_fract_z
 _atom_site_occupancy
  Cu  Cu0  1  0.91892000  0.72274000  0.72699000  1.0
  Cu  Cu1  1  0.91888000  0.27727000  0.27299000  1.0
  Cu  Cu2  1  0.08181000  0.77751000  0.22668000  1.0
  Cu  Cu3  1  0.08112000  0.22271000  0.77300000  1.0
  Cu  Cu4  1  0.06540000  0.79425000  0.80028000  1.0
  Cu  Cu5  1  0.06539000  0.20578000  0.19972000  1.0
  Cu  Cu6  1  0.93375000  0.70544000  0.30067000  1.0
  Cu  Cu7  1  0.93459000  0.29424000  0.69972000  1.0
  H  H8  1  0.03728000  0.50591000  0.75865000  1.0
  H  H9  1  0.03705000  0.49434000  0.24139000  1.0
  H  H10  1  0.96303000  0.99386000  0.25872000  1.0
  H  H11  1  0.96269000  0.00595000  0.74134000  1.0
  H  H12  1  0.33696000  0.62961000  0.80342000  1.0
  H  H13  1  0.33673000  0.37052000  0.19661000  1.0
  H  H14  1  0.66328000  0.87032000  0.30340000  1.0
  H  H15  1  0.66290000  0.12965000  0.69658000  1.0
  H  H16  1  0.35060000  0.39290000  0.78303000  1.0
  H  H17  1  0.35035000  0.60720000  0.21715000  1.0
  H  H18  1  0.64975000  0.10699000  0.28293000  1.0
  H  H19  1  0.64947000  0.89297000  0.71699000  1.0
  H  H20  1  0.52073000  0.43169000  0.73639000  1.0
  H  H21  1  0.52064000  0.56838000  0.26364000  1.0
  H  H22  1  0.47943000  0.06823000  0.23648000  1.0
  H  H23  1  0.47939000  0.93177000  0.76356000  1.0
  H  H24  1  0.52650000  0.41770000  0.83379000  1.0
  H  H25  1  0.52619000  0.58232000  0.16623000  1.0
  H  H26  1  0.47391000  0.08215000  0.33390000  1.0
  H  H27  1  0.47368000  0.91774000  0.66615000  1.0
  H  H28  1  0.68091000  0.51320000  0.84011000  1.0
  H  H29  1  0.68061000  0.48682000  0.15984000  1.0
  H  H30  1  0.31940000  0.98675000  0.34012000  1.0
  H  H31  1  0.31908000  0.01318000  0.65987000  1.0
  H  H32  1  0.71433000  0.43044000  0.79282000  1.0
  H  H33  1  0.71408000  0.56952000  0.20721000  1.0
  H  H34  1  0.28600000  0.06951000  0.29292000  1.0
  H  H35  1  0.28581000  0.93043000  0.70709000  1.0
  H  H36  1  0.84658000  0.47142000  0.71319000  1.0
  H  H37  1  0.84641000  0.52858000  0.28687000  1.0
  H  H38  1  0.15351000  0.02858000  0.21329000  1.0
  H  H39  1  0.15343000  0.97140000  0.78676000  1.0
  H  H40  1  0.84570000  0.55608000  0.76427000  1.0
  H  H41  1  0.84577000  0.44390000  0.23578000  1.0
  H  H42  1  0.15443000  0.94377000  0.26406000  1.0
  H  H43  1  0.15417000  0.05606000  0.73576000  1.0
  H  H44  1  0.92063000  0.57109000  0.63697000  1.0
  H  H45  1  0.92070000  0.42884000  0.36310000  1.0
  H  H46  1  0.07956000  0.92878000  0.13676000  1.0
  H  H47  1  0.07928000  0.07118000  0.86306000  1.0
  H  H48  1  0.78887000  0.53968000  0.60135000  1.0
  H  H49  1  0.78900000  0.46035000  0.39867000  1.0
  H  H50  1  0.21094000  0.96077000  0.10118000  1.0
  H  H51  1  0.21101000  0.03968000  0.89867000  1.0
  H  H52  1  0.95584000  0.75453000  0.01052000  1.0
  H  H53  1  0.95568000  0.24545000  0.98954000  1.0
  H  H54  1  0.04426000  0.74542000  0.51021000  1.0
  H  H55  1  0.04432000  0.25457000  0.48957000  1.0
  H  H56  1  0.68626000  0.65029000  0.89554000  1.0
  H  H57  1  0.68617000  0.34976000  0.10445000  1.0
  H  H58  1  0.31379000  0.84969000  0.39551000  1.0
  H  H59  1  0.31387000  0.15022000  0.60449000  1.0
  H  H60  1  0.69070000  0.65175000  0.13218000  1.0
  H  H61  1  0.69039000  0.34834000  0.86780000  1.0
  H  H62  1  0.30945000  0.84824000  0.63214000  1.0
  H  H63  1  0.30957000  0.15171000  0.36785000  1.0
  H  H64  1  0.53858000  0.53951000  0.93972000  1.0
  H  H65  1  0.53835000  0.46053000  0.06037000  1.0
  H  H66  1  0.46135000  0.96043000  0.43971000  1.0
  H  H67  1  0.46179000  0.03950000  0.56036000  1.0
  H  H68  1  0.51961000  0.63402000  0.91623000  1.0
  H  H69  1  0.51955000  0.36599000  0.08377000  1.0
  H  H70  1  0.48033000  0.86590000  0.41618000  1.0
  H  H71  1  0.48063000  0.13405000  0.58383000  1.0
  H  H72  1  0.33928000  0.55785000  0.94488000  1.0
  H  H73  1  0.33903000  0.44216000  0.05515000  1.0
  H  H74  1  0.66069000  0.94210000  0.44489000  1.0
  H  H75  1  0.66111000  0.05788000  0.55512000  1.0
  H  H76  1  0.38327000  0.56582000  0.03817000  1.0
  H  H77  1  0.38292000  0.43421000  0.96185000  1.0
  H  H78  1  0.61677000  0.93423000  0.53817000  1.0
  H  H79  1  0.61702000  0.06575000  0.46185000  1.0
  H  H80  1  0.29074000  0.68654000  0.09045000  1.0
  H  H81  1  0.29067000  0.31343000  0.90955000  1.0
  H  H82  1  0.70939000  0.81361000  0.59049000  1.0
  H  H83  1  0.70921000  0.18644000  0.40955000  1.0
  H  H84  1  0.20710000  0.62393000  0.03922000  1.0
  H  H85  1  0.20700000  0.37607000  0.96069000  1.0
  H  H86  1  0.79298000  0.87613000  0.53926000  1.0
  H  H87  1  0.79297000  0.12387000  0.46071000  1.0
  H  H88  1  0.15208000  0.72178000  0.95312000  1.0
  H  H89  1  0.15220000  0.27825000  0.04684000  1.0
  H  H90  1  0.84771000  0.77800000  0.45316000  1.0
  H  H91  1  0.84786000  0.22181000  0.54685000  1.0
  H  H92  1  0.10864000  0.73641000  0.04583000  1.0
  H  H93  1  0.10857000  0.26363000  0.95415000  1.0
  H  H94  1  0.89144000  0.76363000  0.54586000  1.0
  H  H95  1  0.89138000  0.23629000  0.45416000  1.0
  H  H96  1  0.71766000  0.64101000  0.67619000  1.0
  H  H97  1  0.71771000  0.35905000  0.32380000  1.0
  H  H98  1  0.28305000  0.85950000  0.17587000  1.0
  H  H99  1  0.28227000  0.14091000  0.82386000  1.0
  H  H100  1  0.23038000  0.82716000  0.05469000  1.0
  H  H101  1  0.23017000  0.17285000  0.94527000  1.0
  H  H102  1  0.76984000  0.67296000  0.55500000  1.0
  H  H103  1  0.76988000  0.32712000  0.44525000  1.0
  H  H104  1  0.20437000  0.84223000  0.92010000  1.0
  H  H105  1  0.20436000  0.15774000  0.07993000  1.0
  H  H106  1  0.79459000  0.65715000  0.42038000  1.0
  H  H107  1  0.79558000  0.34228000  0.57993000  1.0
  H  H108  1  0.26681000  0.84083000  0.84553000  1.0
  H  H109  1  0.26685000  0.15914000  0.15452000  1.0
  H  H110  1  0.73218000  0.65895000  0.34580000  1.0
  H  H111  1  0.73311000  0.34083000  0.65448000  1.0
  C  C112  1  0.18835000  0.44286000  0.77100000  1.0
  C  C113  1  0.18809000  0.55732000  0.22912000  1.0
  C  C114  1  0.81198000  0.05699000  0.27103000  1.0
  C  C115  1  0.81166000  0.94292000  0.72904000  1.0
  C  C116  1  0.12659000  0.50763000  0.76946000  1.0
  C  C117  1  0.12633000  0.49256000  0.23057000  1.0
  C  C118  1  0.87372000  0.99219000  0.26952000  1.0
  C  C119  1  0.87337000  0.00767000  0.73054000  1.0
  C  C120  1  0.18000000  0.57464000  0.78222000  1.0
  C  C121  1  0.17975000  0.42553000  0.21776000  1.0
  C  C122  1  0.82026000  0.92520000  0.28225000  1.0
  C  C123  1  0.81993000  0.07468000  0.71775000  1.0
  C  C124  1  0.29527000  0.57729000  0.79405000  1.0
  C  C125  1  0.29502000  0.42284000  0.20599000  1.0
  C  C126  1  0.70498000  0.92261000  0.29402000  1.0
  C  C127  1  0.70465000  0.07734000  0.70595000  1.0
  C  C128  1  0.35820000  0.51224000  0.79202000  1.0
  C  C129  1  0.35795000  0.48788000  0.20809000  1.0
  C  C130  1  0.64207000  0.98768000  0.29194000  1.0
  C  C131  1  0.64177000  0.01230000  0.70799000  1.0
  C  C132  1  0.30460000  0.44442000  0.78258000  1.0
  C  C133  1  0.30433000  0.55572000  0.21758000  1.0
  C  C134  1  0.69572000  0.05547000  0.28253000  1.0
  C  C135  1  0.69543000  0.94447000  0.71744000  1.0
  C  C136  1  0.12688000  0.37224000  0.75886000  1.0
  C  C137  1  0.12676000  0.62816000  0.24124000  1.0
  C  C138  1  0.87337000  0.12762000  0.25880000  1.0
  C  C139  1  0.87315000  0.87230000  0.74122000  1.0
  C  C140  1  0.11192000  0.64343000  0.77946000  1.0
  C  C141  1  0.11174000  0.35671000  0.22055000  1.0
  C  C142  1  0.88804000  0.85610000  0.27945000  1.0
  C  C143  1  0.88801000  0.14346000  0.72047000  1.0
  C  C144  1  0.54103000  0.45754000  0.78934000  1.0
  C  C145  1  0.54082000  0.54249000  0.21069000  1.0
  C  C146  1  0.45926000  0.04236000  0.28939000  1.0
  C  C147  1  0.45905000  0.95759000  0.71062000  1.0
  C  C148  1  0.66239000  0.48060000  0.79042000  1.0
  C  C149  1  0.66218000  0.51938000  0.20956000  1.0
  C  C150  1  0.33790000  0.01935000  0.29048000  1.0
  C  C151  1  0.33764000  0.98060000  0.70953000  1.0
  C  C152  1  0.80880000  0.52655000  0.71730000  1.0
  C  C153  1  0.80878000  0.47342000  0.28272000  1.0
  C  C154  1  0.19132000  0.97344000  0.21723000  1.0
  C  C155  1  0.19113000  0.02654000  0.78269000  1.0
  C  C156  1  0.83042000  0.56772000  0.64734000  1.0
  C  C157  1  0.83048000  0.43226000  0.35271000  1.0
  C  C158  1  0.16978000  0.93242000  0.14709000  1.0
  C  C159  1  0.16949000  0.06775000  0.85269000  1.0
  C  C160  1  0.83168000  0.70235000  0.07900000  1.0
  C  C161  1  0.83136000  0.29765000  0.92104000  1.0
  C  C162  1  0.16854000  0.79756000  0.57884000  1.0
  C  C163  1  0.16862000  0.20239000  0.42108000  1.0
  C  C164  1  0.87819000  0.72388000  0.01227000  1.0
  C  C165  1  0.87798000  0.27611000  0.98776000  1.0
  C  C166  1  0.12191000  0.77606000  0.51206000  1.0
  C  C167  1  0.12202000  0.22390000  0.48780000  1.0
  C  C168  1  0.82488000  0.70469000  0.94721000  1.0
  C  C169  1  0.82474000  0.29532000  0.05279000  1.0
  C  C170  1  0.17512000  0.79532000  0.44703000  1.0
  C  C171  1  0.17527000  0.20466000  0.55283000  1.0
  C  C172  1  0.72374000  0.66554000  0.94759000  1.0
  C  C173  1  0.72360000  0.33450000  0.05239000  1.0
  C  C174  1  0.27630000  0.83441000  0.44752000  1.0
  C  C175  1  0.27642000  0.16548000  0.55244000  1.0
  C  C176  1  0.67436000  0.64809000  0.01482000  1.0
  C  C177  1  0.67415000  0.35199000  0.98516000  1.0
  C  C178  1  0.32574000  0.85187000  0.51479000  1.0
  C  C179  1  0.32585000  0.14801000  0.48521000  1.0
  C  C180  1  0.72902000  0.66615000  0.08024000  1.0
  C  C181  1  0.72874000  0.33390000  0.91976000  1.0
  C  C182  1  0.27114000  0.83379000  0.58016000  1.0
  C  C183  1  0.27124000  0.16612000  0.41981000  1.0
  C  C184  1  0.89417000  0.71570000  0.14874000  1.0
  C  C185  1  0.89387000  0.28426000  0.85152000  1.0
  C  C186  1  0.10608000  0.78418000  0.64839000  1.0
  C  C187  1  0.10612000  0.21581000  0.35154000  1.0
  C  C188  1  0.88001000  0.72498000  0.87668000  1.0
  C  C189  1  0.87992000  0.27503000  0.12332000  1.0
  C  C190  1  0.11987000  0.77533000  0.37627000  1.0
  C  C191  1  0.12005000  0.22491000  0.62336000  1.0
  C  C192  1  0.51003000  0.59320000  0.96001000  1.0
  C  C193  1  0.50985000  0.40685000  0.04002000  1.0
  C  C194  1  0.48996000  0.90676000  0.45998000  1.0
  C  C195  1  0.49024000  0.09317000  0.54005000  1.0
  C  C196  1  0.38905000  0.59138000  0.98349000  1.0
  C  C197  1  0.38880000  0.40864000  0.01653000  1.0
  C  C198  1  0.61099000  0.90860000  0.48349000  1.0
  C  C199  1  0.61125000  0.09136000  0.51654000  1.0
  C  C200  1  0.25794000  0.67452000  0.03514000  1.0
  C  C201  1  0.25786000  0.32548000  0.96482000  1.0
  C  C202  1  0.74214000  0.82553000  0.53518000  1.0
  C  C203  1  0.74210000  0.17447000  0.46483000  1.0
  C  C204  1  0.18101000  0.73467000  0.00871000  1.0
  C  C205  1  0.18102000  0.26536000  0.99125000  1.0
  C  C206  1  0.81896000  0.76529000  0.50880000  1.0
  C  C207  1  0.81898000  0.23462000  0.49124000  1.0
  O  O208  1  0.15118000  0.70038000  0.81049000  1.0
  O  O209  1  0.15114000  0.29977000  0.18956000  1.0
  O  O210  1  0.84800000  0.79957000  0.31054000  1.0
  O  O211  1  0.84872000  0.20039000  0.68946000  1.0
  O  O212  1  0.01911000  0.63851000  0.74485000  1.0
  O  O213  1  0.01895000  0.36164000  0.25512000  1.0
  O  O214  1  0.98057000  0.86110000  0.24470000  1.0
  O  O215  1  0.98086000  0.13853000  0.75502000  1.0
  O  O216  1  0.03393000  0.37759000  0.72481000  1.0
  O  O217  1  0.03367000  0.62260000  0.27492000  1.0
  O  O218  1  0.96623000  0.12225000  0.22472000  1.0
  O  O219  1  0.96610000  0.87766000  0.77526000  1.0
  O  O220  1  0.17104000  0.31350000  0.78384000  1.0
  O  O221  1  0.17175000  0.68659000  0.21649000  1.0
  O  O222  1  0.82911000  0.18636000  0.28376000  1.0
  O  O223  1  0.82899000  0.81354000  0.71626000  1.0
  O  O224  1  0.47138000  0.52093000  0.79993000  1.0
  O  O225  1  0.47114000  0.47914000  0.20013000  1.0
  O  O226  1  0.52889000  0.97897000  0.29985000  1.0
  O  O227  1  0.52858000  0.02100000  0.70009000  1.0
  O  O228  1  0.68960000  0.52085000  0.72612000  1.0
  O  O229  1  0.68954000  0.47905000  0.27382000  1.0
  O  O230  1  0.31053000  0.97912000  0.22613000  1.0
  O  O231  1  0.31035000  0.02087000  0.77387000  1.0
  O  O232  1  0.79033000  0.64318000  0.65162000  1.0
  O  O233  1  0.79036000  0.35682000  0.34845000  1.0
  O  O234  1  0.21052000  0.85712000  0.15108000  1.0
  O  O235  1  0.20964000  0.14317000  0.84848000  1.0
  O  O236  1  0.85085000  0.69039000  0.20726000  1.0
  O  O237  1  0.85139000  0.30985000  0.79273000  1.0
  O  O238  1  0.14865000  0.80978000  0.70718000  1.0
  O  O239  1  0.14860000  0.19023000  0.29274000  1.0
  O  O240  1  0.98693000  0.75006000  0.14275000  1.0
  O  O241  1  0.98648000  0.24953000  0.85724000  1.0
  O  O242  1  0.01347000  0.74947000  0.64265000  1.0
  O  O243  1  0.01352000  0.25056000  0.35725000  1.0
  O  O244  1  0.96667000  0.76557000  0.88175000  1.0
  O  O245  1  0.96666000  0.23446000  0.11830000  1.0
  O  O246  1  0.03308000  0.73495000  0.38146000  1.0
  O  O247  1  0.03333000  0.26548000  0.61832000  1.0
  O  O248  1  0.83724000  0.69945000  0.81779000  1.0
  O  O249  1  0.83715000  0.30048000  0.18222000  1.0
  O  O250  1  0.16306000  0.80104000  0.31777000  1.0
  O  O251  1  0.16280000  0.19941000  0.68225000  1.0
  O  O252  1  0.57426000  0.61329000  0.02351000  1.0
  O  O253  1  0.57402000  0.38683000  0.97649000  1.0
  O  O254  1  0.42584000  0.88671000  0.52349000  1.0
  O  O255  1  0.42597000  0.11317000  0.47654000  1.0
  O  O256  1  0.34847000  0.66453000  0.98507000  1.0
  O  O257  1  0.34838000  0.33547000  0.01494000  1.0
  O  O258  1  0.65155000  0.83545000  0.48509000  1.0
  O  O259  1  0.65166000  0.16453000  0.51495000  1.0
  O  O260  1  0.23275000  0.80590000  0.00502000  1.0
  O  O261  1  0.23279000  0.19410000  0.99492000  1.0
  O  O262  1  0.76712000  0.69408000  0.50532000  1.0
  O  O263  1  0.76722000  0.30590000  0.49488000  1.0
  O  O264  1  0.19575000  0.85521000  0.86717000  1.0
  O  O265  1  0.19577000  0.14480000  0.13285000  1.0
  O  O266  1  0.80303000  0.64408000  0.36746000  1.0
  O  O267  1  0.80417000  0.35522000  0.63287000  1.0
