# generated using pymatgen
data_ZnH26C38N2(ClO4)2
_symmetry_space_group_name_H-M   'P 1'
_cell_length_a   14.63930000
_cell_length_b   15.94450000
_cell_length_c   23.31647513
_cell_angle_alpha   84.52302537
_cell_angle_beta   73.07255724
_cell_angle_gamma   80.07280000
_symmetry_Int_Tables_number   1
_chemical_formula_structural   ZnH26C38N2(ClO4)2
_chemical_formula_sum   'Zn2 H52 C76 N4 Cl4 O16'
_cell_volume   5122.77533169
_cell_formula_units_Z   2
loop_
 _symmetry_equiv_pos_site_id
 _symmetry_equiv_pos_as_xyz
  1  'x, y, z'
loop_
 _atom_site_type_symbol
 _atom_site_label
 _atom_site_symmetry_multiplicity
 _atom_site_fract_x
 _atom_site_fract_y
 _atom_site_fract_z
 _atom_site_occupancy
  Zn  Zn0  1  0.92075000  0.48573000  0.47608000  1.0
  Zn  Zn1  1  0.07375000  0.51359000  0.52413000  1.0
  H  H2  1  0.32133000  0.66219000  0.03021000  1.0
  H  H3  1  0.70713000  0.30746000  0.97870000  1.0
  H  H4  1  0.72292000  0.90928000  0.48611000  1.0
  H  H5  1  0.24444000  0.09254000  0.55717000  1.0
  H  H6  1  0.87836000  0.14438000  0.48128000  1.0
  H  H7  1  0.13279000  0.85415000  0.51060000  1.0
  H  H8  1  0.42047000  0.63322000  0.63227000  1.0
  H  H9  1  0.56397000  0.36281000  0.37846000  1.0
  H  H10  1  0.71334000  0.50890000  0.53257000  1.0
  H  H11  1  0.27334000  0.45753000  0.49256000  1.0
  H  H12  1  0.24032000  0.65951000  0.64673000  1.0
  H  H13  1  0.74271000  0.36305000  0.34983000  1.0
  H  H14  1  0.58130000  0.56636000  0.57763000  1.0
  H  H15  1  0.40281000  0.41369000  0.44202000  1.0
  H  H16  1  0.42807000  0.66996000  0.92318000  1.0
  H  H17  1  0.60802000  0.30589000  0.08763000  1.0
  H  H18  1  0.70230000  0.45022000  0.65492000  1.0
  H  H19  1  0.26275000  0.60086000  0.33925000  1.0
  H  H20  1  0.93195000  0.53856000  0.70189000  1.0
  H  H21  1  0.13412000  0.38808000  0.31525000  1.0
  H  H22  1  0.76331000  0.04876000  0.48458000  1.0
  H  H23  1  0.21972000  0.94958000  0.54234000  1.0
  H  H24  1  0.19384000  0.25120000  0.55123000  1.0
  H  H25  1  0.76875000  0.75000000  0.48959000  1.0
  H  H26  1  0.97995000  0.45586000  0.28958000  1.0
  H  H27  1  0.85735000  0.45176000  0.29307000  1.0
  H  H28  1  0.01841000  0.29777000  0.28655000  1.0
  H  H29  1  0.89746000  0.29044000  0.29102000  1.0
  H  H30  1  0.91239000  0.37844000  0.19297000  1.0
  H  H31  1  0.00108000  0.28571000  0.18337000  1.0
  H  H32  1  0.03395000  0.38591000  0.18893000  1.0
  H  H33  1  0.07049000  0.74259000  0.57504000  1.0
  H  H34  1  0.09390000  0.74849000  0.64594000  1.0
  H  H35  1  0.90759000  0.70587000  0.62884000  1.0
  H  H36  1  0.92853000  0.71555000  0.69889000  1.0
  H  H37  1  0.94796000  0.87204000  0.66919000  1.0
  H  H38  1  0.83209000  0.85031000  0.67130000  1.0
  H  H39  1  0.92021000  0.86049000  0.60142000  1.0
  H  H40  1  0.51372000  0.35137000  0.81670000  1.0
  H  H41  1  0.64053000  0.33097000  0.80927000  1.0
  H  H42  1  0.54776000  0.32393000  0.70789000  1.0
  H  H43  1  0.67307000  0.30107000  0.70122000  1.0
  H  H44  1  0.64528000  0.17735000  0.77724000  1.0
  H  H45  1  0.60105000  0.16535000  0.71577000  1.0
  H  H46  1  0.51931000  0.19991000  0.78480000  1.0
  H  H47  1  0.52566000  0.61531000  0.20066000  1.0
  H  H48  1  0.50530000  0.50760000  0.22033000  1.0
  H  H49  1  0.46420000  0.64899000  0.30909000  1.0
  H  H50  1  0.44426000  0.54235000  0.32887000  1.0
  H  H51  1  0.62225000  0.49022000  0.28671000  1.0
  H  H52  1  0.60209000  0.56375000  0.34319000  1.0
  H  H53  1  0.64364000  0.59688000  0.26637000  1.0
  C  C54  1  0.93986000  0.65974000  0.48517000  1.0
  C  C55  1  0.06115000  0.33943000  0.50348000  1.0
  C  C56  1  0.67809000  0.46691000  0.74909000  1.0
  C  C57  1  0.32079000  0.54456000  0.25319000  1.0
  C  C58  1  0.73143000  0.46917000  0.68887000  1.0
  C  C59  1  0.25939000  0.55114000  0.31132000  1.0
  C  C60  1  0.82291000  0.49411000  0.67249000  1.0
  C  C61  1  0.19175000  0.49538000  0.33303000  1.0
  C  C62  1  0.86048000  0.51951000  0.71565000  1.0
  C  C63  1  0.18656000  0.43154000  0.29742000  1.0
  C  C64  1  0.80540000  0.52054000  0.77536000  1.0
  C  C65  1  0.24849000  0.42475000  0.23952000  1.0
  C  C66  1  0.71496000  0.49319000  0.79268000  1.0
  C  C67  1  0.31521000  0.48136000  0.21669000  1.0
  C  C68  1  0.91841000  0.75523000  0.47898000  1.0
  C  C69  1  0.09081000  0.24433000  0.50329000  1.0
  C  C70  1  0.79683000  0.87965000  0.48379000  1.0
  C  C71  1  0.18685000  0.12073000  0.53708000  1.0
  C  C72  1  0.82168000  0.79239000  0.48510000  1.0
  C  C73  1  0.16057000  0.20779000  0.53308000  1.0
  C  C74  1  0.98896000  0.80752000  0.47125000  1.0
  C  C75  1  0.04873000  0.19053000  0.47792000  1.0
  C  C76  1  0.88403000  0.49350000  0.60833000  1.0
  C  C77  1  0.12305000  0.50384000  0.39498000  1.0
  C  C78  1  0.96434000  0.89736000  0.47790000  1.0
  C  C79  1  0.06110000  0.10070000  0.49059000  1.0
  C  C80  1  0.86611000  0.93283000  0.48084000  1.0
  C  C81  1  0.13720000  0.06608000  0.51701000  1.0
  C  C82  1  0.02800000  0.95398000  0.48510000  1.0
  C  C83  1  0.99936000  0.04383000  0.48169000  1.0
  C  C84  1  0.90293000  0.07621000  0.47980000  1.0
  C  C85  1  0.11152000  0.92240000  0.50528000  1.0
  C  C86  1  0.83846000  0.02284000  0.48172000  1.0
  C  C87  1  0.16078000  0.97587000  0.52294000  1.0
  C  C88  1  0.25108000  0.61527000  0.61167000  1.0
  C  C89  1  0.73272000  0.39751000  0.38990000  1.0
  C  C90  1  0.17223000  0.59577000  0.59691000  1.0
  C  C91  1  0.81134000  0.42004000  0.40327000  1.0
  C  C92  1  0.27171000  0.50167000  0.52582000  1.0
  C  C93  1  0.71378000  0.47951000  0.49215000  1.0
  C  C94  1  0.35646000  0.51836000  0.53626000  1.0
  C  C95  1  0.62846000  0.46639000  0.48037000  1.0
  C  C96  1  0.34492000  0.57608000  0.58201000  1.0
  C  C97  1  0.63947000  0.42023000  0.42855000  1.0
  C  C98  1  0.45577000  0.41800000  0.13985000  1.0
  C  C99  1  0.58301000  0.56050000  0.87169000  1.0
  C  C100  1  0.45157000  0.48113000  0.50225000  1.0
  C  C101  1  0.53322000  0.49926000  0.51689000  1.0
  C  C102  1  0.51894000  0.55313000  0.56546000  1.0
  C  C103  1  0.46537000  0.42909000  0.45282000  1.0
  C  C104  1  0.42893000  0.59097000  0.59633000  1.0
  C  C105  1  0.55543000  0.40019000  0.41703000  1.0
  C  C106  1  0.34197000  0.54484000  0.11629000  1.0
  C  C107  1  0.68338000  0.42211000  0.89157000  1.0
  C  C108  1  0.40591000  0.54873000  0.05415000  1.0
  C  C109  1  0.62442000  0.42234000  0.95509000  1.0
  C  C110  1  0.48726000  0.48514000  0.03533000  1.0
  C  C111  1  0.54523000  0.48775000  0.97454000  1.0
  C  C112  1  0.51204000  0.41898000  0.07568000  1.0
  C  C113  1  0.52242000  0.55562000  0.93477000  1.0
  C  C114  1  0.38454000  0.61430000  0.01419000  1.0
  C  C115  1  0.64610000  0.35714000  0.99522000  1.0
  C  C116  1  0.44337000  0.61827000  0.95477000  1.0
  C  C117  1  0.59069000  0.35599000  0.05556000  1.0
  C  C118  1  0.92206000  0.41616000  0.30412000  1.0
  C  C119  1  0.95402000  0.33135000  0.27423000  1.0
  C  C120  1  0.97654000  0.34613000  0.20606000  1.0
  C  C121  1  0.05244000  0.71961000  0.62246000  1.0
  C  C122  1  0.94478000  0.74007000  0.65182000  1.0
  C  C123  1  0.90954000  0.83600000  0.64821000  1.0
  C  C124  1  0.58574000  0.35323000  0.78502000  1.0
  C  C125  1  0.60097000  0.29768000  0.73246000  1.0
  C  C126  1  0.59111000  0.20504000  0.75375000  1.0
  C  C127  1  0.48138000  0.57410000  0.23386000  1.0
  C  C128  1  0.49091000  0.58263000  0.29626000  1.0
  C  C129  1  0.59546000  0.55708000  0.29822000  1.0
  N  N130  1  0.37326000  0.48039000  0.15555000  1.0
  N  N131  1  0.65886000  0.49194000  0.85426000  1.0
  N  N132  1  0.18366000  0.53860000  0.55478000  1.0
  N  N133  1  0.80152000  0.45739000  0.45521000  1.0
  Cl  Cl134  1  0.84914000  0.55600000  0.82865000  1.0
  Cl  Cl135  1  0.24095000  0.34713000  0.19468000  1.0
  Cl  Cl136  1  0.99272000  0.23361000  0.42327000  1.0
  Cl  Cl137  1  0.10891000  0.76006000  0.44533000  1.0
  O  O138  1  0.89846000  0.61630000  0.46012000  1.0
  O  O139  1  0.12258000  0.38466000  0.50759000  1.0
  O  O140  1  0.99390000  0.63085000  0.51864000  1.0
  O  O141  1  0.97466000  0.36685000  0.50288000  1.0
  O  O142  1  0.84118000  0.50317000  0.56732000  1.0
  O  O143  1  0.15144000  0.53440000  0.43408000  1.0
  O  O144  1  0.97461000  0.48361000  0.60100000  1.0
  O  O145  1  0.04234000  0.47891000  0.40258000  1.0
  O  O146  1  0.47907000  0.36699000  0.17802000  1.0
  O  O147  1  0.56972000  0.61968000  0.83592000  1.0
  O  O148  1  0.26606000  0.59351000  0.13380000  1.0
  O  O149  1  0.74937000  0.36449000  0.87137000  1.0
  O  O150  1  0.90302000  0.40763000  0.36872000  1.0
  O  O151  1  0.07925000  0.62734000  0.62390000  1.0
  O  O152  1  0.58777000  0.44281000  0.76657000  1.0
  O  O153  1  0.38376000  0.60212000  0.22964000  1.0
