# generated using pymatgen
data_ZnH15C37Br2N2O6F
_symmetry_space_group_name_H-M   'P 1'
_cell_length_a   14.74400000
_cell_length_b   15.67680000
_cell_length_c   27.79103878
_cell_angle_alpha   85.54002596
_cell_angle_beta   75.95415189
_cell_angle_gamma   80.77780000
_symmetry_Int_Tables_number   1
_chemical_formula_structural   ZnH15C37Br2N2O6F
_chemical_formula_sum   'Zn2 H30 C74 Br4 N4 O12 F2'
_cell_volume   6145.91596189
_cell_formula_units_Z   2
loop_
 _symmetry_equiv_pos_site_id
 _symmetry_equiv_pos_as_xyz
  1  'x, y, z'
loop_
 _atom_site_type_symbol
 _atom_site_label
 _atom_site_symmetry_multiplicity
 _atom_site_fract_x
 _atom_site_fract_y
 _atom_site_fract_z
 _atom_site_occupancy
  Zn  Zn0  1  0.91778000  0.48349000  0.48823000  1.0
  Zn  Zn1  1  0.08055000  0.51577000  0.51400000  1.0
  H  H2  1  0.98005000  0.52749000  0.67196000  1.0
  H  H3  1  0.01896000  0.47214000  0.33008000  1.0
  H  H4  1  0.99120000  0.21873000  0.47203000  1.0
  H  H5  1  0.04470000  0.77751000  0.49493000  1.0
  H  H6  1  0.22071000  0.24559000  0.53564000  1.0
  H  H7  1  0.80346000  0.75185000  0.44084000  1.0
  H  H8  1  0.94099000  0.14607000  0.43270000  1.0
  H  H9  1  0.14428000  0.84590000  0.49511000  1.0
  H  H10  1  0.43203000  0.69880000  0.56635000  1.0
  H  H11  1  0.57012000  0.30724000  0.42695000  1.0
  H  H12  1  0.71743000  0.53287000  0.51895000  1.0
  H  H13  1  0.27939000  0.46807000  0.48080000  1.0
  H  H14  1  0.88560000  0.35678000  0.42054000  1.0
  H  H15  1  0.11612000  0.64410000  0.58065000  1.0
  H  H16  1  0.26004000  0.69766000  0.59463000  1.0
  H  H17  1  0.74355000  0.30520000  0.40269000  1.0
  H  H18  1  0.89811000  0.52794000  0.76233000  1.0
  H  H19  1  0.10018000  0.47212000  0.23956000  1.0
  H  H20  1  0.63769000  0.71236000  0.88290000  1.0
  H  H21  1  0.36049000  0.28782000  0.11879000  1.0
  H  H22  1  0.26919000  0.52943000  0.36577000  1.0
  H  H23  1  0.72977000  0.47163000  0.63563000  1.0
  H  H24  1  0.35102000  0.53037000  0.27537000  1.0
  H  H25  1  0.64763000  0.47015000  0.72594000  1.0
  H  H26  1  0.35379000  0.71658000  0.12100000  1.0
  H  H27  1  0.64495000  0.28344000  0.88078000  1.0
  H  H28  1  0.45074000  0.71831000  0.03553000  1.0
  H  H29  1  0.54804000  0.28175000  0.96623000  1.0
  H  H30  1  0.83967000  0.05404000  0.41050000  1.0
  H  H31  1  0.24507000  0.93817000  0.51737000  1.0
  C  C32  1  0.93927000  0.66328000  0.48538000  1.0
  C  C33  1  0.06816000  0.33522000  0.50568000  1.0
  C  C34  1  0.61362000  0.49855000  0.90130000  1.0
  C  C35  1  0.38502000  0.50152000  0.10045000  1.0
  C  C36  1  0.64120000  0.57601000  0.87658000  1.0
  C  C37  1  0.35723000  0.42410000  0.12513000  1.0
  C  C38  1  0.61575000  0.65254000  0.90128000  1.0
  C  C39  1  0.38263000  0.34759000  0.10042000  1.0
  C  C40  1  0.64361000  0.42026000  0.87606000  1.0
  C  C41  1  0.35507000  0.57981000  0.12568000  1.0
  C  C42  1  0.85965000  0.50000000  0.64858000  1.0
  C  C43  1  0.13948000  0.50031000  0.35306000  1.0
  C  C44  1  0.46825000  0.58045000  0.02683000  1.0
  C  C45  1  0.53054000  0.41959000  0.97495000  1.0
  C  C46  1  0.47073000  0.42039000  0.02535000  1.0
  C  C47  1  0.52800000  0.57965000  0.97641000  1.0
  C  C48  1  0.44194000  0.50043000  0.05059000  1.0
  C  C49  1  0.55680000  0.49961000  0.95119000  1.0
  C  C50  1  0.43406000  0.65677000  0.05297000  1.0
  C  C51  1  0.56473000  0.34328000  0.94881000  1.0
  C  C52  1  0.37876000  0.65658000  0.10142000  1.0
  C  C53  1  0.62002000  0.34346000  0.90034000  1.0
  C  C54  1  0.90985000  0.50013000  0.59468000  1.0
  C  C55  1  0.08998000  0.49994000  0.40703000  1.0
  C  C56  1  0.56151000  0.65272000  0.94977000  1.0
  C  C57  1  0.43705000  0.34734000  0.05196000  1.0
  C  C58  1  0.92588000  0.75731000  0.46986000  1.0
  C  C59  1  0.10283000  0.24001000  0.50305000  1.0
  C  C60  1  0.84235000  0.88010000  0.43349000  1.0
  C  C61  1  0.21097000  0.11531000  0.51953000  1.0
  C  C62  1  0.85167000  0.79326000  0.44726000  1.0
  C  C63  1  0.18341000  0.20361000  0.52047000  1.0
  C  C64  1  0.98910000  0.80861000  0.47727000  1.0
  C  C65  1  0.05372000  0.18763000  0.48415000  1.0
  C  C66  1  0.98062000  0.89735000  0.46372000  1.0
  C  C67  1  0.08049000  0.09734000  0.48303000  1.0
  C  C68  1  0.90455000  0.93535000  0.44150000  1.0
  C  C69  1  0.16036000  0.05898000  0.50216000  1.0
  C  C70  1  0.04431000  0.95148000  0.47376000  1.0
  C  C71  1  0.02560000  0.04222000  0.46604000  1.0
  C  C72  1  0.95168000  0.07698000  0.44202000  1.0
  C  C73  1  0.12572000  0.91586000  0.49180000  1.0
  C  C74  1  0.89470000  0.02577000  0.42941000  1.0
  C  C75  1  0.18266000  0.96719000  0.50434000  1.0
  C  C76  1  0.69622000  0.57810000  0.82432000  1.0
  C  C77  1  0.30205000  0.42206000  0.17736000  1.0
  C  C78  1  0.26682000  0.64363000  0.57096000  1.0
  C  C79  1  0.73552000  0.35894000  0.42676000  1.0
  C  C80  1  0.18799000  0.61606000  0.56297000  1.0
  C  C81  1  0.81319000  0.38520000  0.43694000  1.0
  C  C82  1  0.28056000  0.51371000  0.50797000  1.0
  C  C83  1  0.71828000  0.48792000  0.49098000  1.0
  C  C84  1  0.36607000  0.53081000  0.51707000  1.0
  C  C85  1  0.63435000  0.47228000  0.47940000  1.0
  C  C86  1  0.35774000  0.60298000  0.54695000  1.0
  C  C87  1  0.64400000  0.40046000  0.44918000  1.0
  C  C88  1  0.45886000  0.48420000  0.49601000  1.0
  C  C89  1  0.54146000  0.51959000  0.49900000  1.0
  C  C90  1  0.52679000  0.60222000  0.52161000  1.0
  C  C91  1  0.47441000  0.40270000  0.47200000  1.0
  C  C92  1  0.43979000  0.63832000  0.54788000  1.0
  C  C93  1  0.56210000  0.36679000  0.44634000  1.0
  C  C94  1  0.69951000  0.41827000  0.82400000  1.0
  C  C95  1  0.29909000  0.58185000  0.17768000  1.0
  C  C96  1  0.72027000  0.48331000  0.71379000  1.0
  C  C97  1  0.27842000  0.51719000  0.28767000  1.0
  C  C98  1  0.76591000  0.48394000  0.66368000  1.0
  C  C99  1  0.23303000  0.51682000  0.33779000  1.0
  C  C100  1  0.90708000  0.51551000  0.68431000  1.0
  C  C101  1  0.09181000  0.48443000  0.31753000  1.0
  C  C102  1  0.86170000  0.51531000  0.73446000  1.0
  C  C103  1  0.13680000  0.48482000  0.26732000  1.0
  C  C104  1  0.76845000  0.49907000  0.74890000  1.0
  C  C105  1  0.23000000  0.50117000  0.25273000  1.0
  Br  Br106  1  0.73999000  0.92615000  0.40347000  1.0
  Br  Br107  1  0.31981000  0.06888000  0.54433000  1.0
  Br  Br108  1  0.62210000  0.67517000  0.51300000  1.0
  Br  Br109  1  0.37991000  0.33013000  0.47668000  1.0
  N  N110  1  0.72014000  0.49859000  0.80075000  1.0
  N  N111  1  0.27813000  0.50159000  0.20088000  1.0
  N  N112  1  0.19595000  0.55363000  0.53035000  1.0
  N  N113  1  0.80336000  0.44689000  0.47029000  1.0
  O  O114  1  0.88152000  0.61644000  0.47785000  1.0
  O  O115  1  0.12268000  0.38350000  0.51528000  1.0
  O  O116  1  0.00950000  0.63744000  0.50463000  1.0
  O  O117  1  0.98617000  0.36002000  0.49798000  1.0
  O  O118  1  0.86164000  0.49229000  0.56330000  1.0
  O  O119  1  0.13633000  0.51510000  0.43781000  1.0
  O  O120  1  0.99724000  0.50785000  0.58446000  1.0
  O  O121  1  0.00489000  0.48458000  0.41789000  1.0
  O  O122  1  0.71881000  0.64537000  0.80223000  1.0
  O  O123  1  0.27940000  0.35481000  0.19945000  1.0
  O  O124  1  0.27237000  0.64907000  0.20029000  1.0
  O  O125  1  0.72641000  0.35102000  0.80141000  1.0
  F  F126  1  0.54208000  0.73154000  0.97069000  1.0
  F  F127  1  0.45644000  0.26854000  0.03104000  1.0
