# generated using pymatgen
data_Cu2H10C15N4O5
_symmetry_space_group_name_H-M   'P 1'
_cell_length_a   8.10648000
_cell_length_b   10.02480000
_cell_length_c   10.82000359
_cell_angle_alpha   109.53811327
_cell_angle_beta   109.92856501
_cell_angle_gamma   101.85000000
_symmetry_Int_Tables_number   1
_chemical_formula_structural   Cu2H10C15N4O5
_chemical_formula_sum   'Cu4 H20 C30 N8 O10'
_cell_volume   726.67980857
_cell_formula_units_Z   2
loop_
 _symmetry_equiv_pos_site_id
 _symmetry_equiv_pos_as_xyz
  1  'x, y, z'
loop_
 _atom_site_type_symbol
 _atom_site_label
 _atom_site_symmetry_multiplicity
 _atom_site_fract_x
 _atom_site_fract_y
 _atom_site_fract_z
 _atom_site_occupancy
  Cu  Cu0  1  0.55718000  0.36760000  0.01391000  1.0
  Cu  Cu1  1  0.44282000  0.63240000  0.98609000  1.0
  Cu  Cu2  1  0.87933000  0.65145000  0.01216000  1.0
  Cu  Cu3  1  0.12067000  0.34855000  0.98784000  1.0
  H  H4  1  0.31531000  0.36294000  0.78604000  1.0
  H  H5  1  0.68468000  0.63706000  0.21395000  1.0
  H  H6  1  0.49249000  0.83030000  0.45751000  1.0
  H  H7  1  0.50751000  0.16970000  0.54250000  1.0
  H  H8  1  0.24295000  0.11344000  0.72051000  1.0
  H  H9  1  0.75704000  0.88656000  0.27949000  1.0
  H  H10  1  0.20165000  0.85043000  0.56633000  1.0
  H  H11  1  0.79834000  0.14956000  0.43367000  1.0
  H  H12  1  0.44276000  0.73984000  0.66593000  1.0
  H  H13  1  0.55724000  0.26016000  0.33407000  1.0
  H  H14  1  0.71711000  0.90256000  0.90539000  1.0
  H  H15  1  0.28290000  0.09745000  0.09461000  1.0
  H  H16  1  0.94011000  0.05409000  0.11543000  1.0
  H  H17  1  0.05989000  0.94591000  0.88456000  1.0
  H  H18  1  0.18652000  0.24784000  0.35991000  1.0
  H  H19  1  0.81347000  0.75215000  0.64008000  1.0
  H  H20  1  0.16852000  0.50480000  0.46268000  1.0
  H  H21  1  0.83147000  0.49519000  0.53732000  1.0
  H  H22  1  0.89550000  0.55667000  0.31518000  1.0
  H  H23  1  0.10450000  0.44332000  0.68482000  1.0
  C  C24  1  0.13662000  0.90038000  0.28397000  1.0
  C  C25  1  0.86338000  0.09961000  0.71602000  1.0
  C  C26  1  0.21572000  0.77689000  0.27182000  1.0
  C  C27  1  0.78428000  0.22310000  0.72818000  1.0
  C  C28  1  0.37311000  0.75139000  0.35315000  1.0
  C  C29  1  0.62689000  0.24861000  0.64686000  1.0
  C  C30  1  0.34733000  0.60244000  0.26264000  1.0
  C  C31  1  0.65266000  0.39755000  0.73737000  1.0
  C  C32  1  0.44628000  0.49315000  0.26437000  1.0
  C  C33  1  0.55373000  0.50686000  0.73564000  1.0
  C  C34  1  0.34784000  0.06487000  0.75612000  1.0
  C  C35  1  0.65216000  0.93512000  0.24388000  1.0
  C  C36  1  0.32448000  0.91648000  0.67183000  1.0
  C  C37  1  0.67551000  0.08352000  0.32816000  1.0
  C  C38  1  0.45823000  0.85698000  0.72573000  1.0
  C  C39  1  0.54176000  0.14303000  0.27427000  1.0
  C  C40  1  0.61336000  0.94861000  0.86121000  1.0
  C  C41  1  0.38664000  0.05139000  0.13878000  1.0
  C  C42  1  0.63087000  0.09724000  0.93934000  1.0
  C  C43  1  0.36912000  0.90276000  0.06065000  1.0
  C  C44  1  0.78816000  0.20384000  0.08296000  1.0
  C  C45  1  0.21184000  0.79617000  0.91704000  1.0
  C  C46  1  0.93574000  0.16756000  0.15901000  1.0
  C  C47  1  0.06426000  0.83245000  0.84099000  1.0
  C  C48  1  0.07387000  0.27601000  0.29709000  1.0
  C  C49  1  0.92613000  0.72400000  0.70291000  1.0
  C  C50  1  0.06205000  0.41858000  0.35515000  1.0
  C  C51  1  0.93795000  0.58142000  0.64485000  1.0
  C  C52  1  0.91161000  0.44781000  0.27374000  1.0
  C  C53  1  0.08839000  0.55219000  0.72626000  1.0
  N  N54  1  0.10851000  0.65029000  0.14323000  1.0
  N  N55  1  0.89150000  0.34971000  0.85678000  1.0
  N  N56  1  0.18629000  0.54739000  0.13737000  1.0
  N  N57  1  0.81371000  0.45261000  0.86264000  1.0
  N  N58  1  0.77815000  0.34313000  0.14108000  1.0
  N  N59  1  0.22186000  0.65687000  0.85892000  1.0
  N  N60  1  0.49701000  0.15277000  0.88660000  1.0
  N  N61  1  0.50298000  0.84722000  0.11339000  1.0
  O  O62  1  0.98221000  0.86506000  0.16688000  1.0
  O  O63  1  0.01780000  0.13493000  0.83312000  1.0
  O  O64  1  0.21147000  0.02394000  0.39518000  1.0
  O  O65  1  0.78854000  0.97606000  0.60482000  1.0
  O  O66  1  0.34861000  0.40713000  0.89039000  1.0
  O  O67  1  0.65138000  0.59287000  0.10960000  1.0
  O  O68  1  0.60045000  0.52592000  0.36746000  1.0
  O  O69  1  0.39955000  0.47408000  0.63254000  1.0
  O  O70  1  0.35993000  0.36249000  0.14543000  1.0
  O  O71  1  0.64007000  0.63751000  0.85457000  1.0
