# generated using pymatgen
data_Zn4H30C32O15
_symmetry_space_group_name_H-M   'P 1'
_cell_length_a   17.95710000
_cell_length_b   18.48100000
_cell_length_c   19.48667629
_cell_angle_alpha   63.71240815
_cell_angle_beta   63.68773907
_cell_angle_gamma   89.90110000
_symmetry_Int_Tables_number   1
_chemical_formula_structural   Zn4H30C32O15
_chemical_formula_sum   'Zn8 H60 C64 O30'
_cell_volume   5042.77974933
_cell_formula_units_Z   2
loop_
 _symmetry_equiv_pos_site_id
 _symmetry_equiv_pos_as_xyz
  1  'x, y, z'
loop_
 _atom_site_type_symbol
 _atom_site_label
 _atom_site_symmetry_multiplicity
 _atom_site_fract_x
 _atom_site_fract_y
 _atom_site_fract_z
 _atom_site_occupancy
  Zn  Zn0  1  0.94581000  0.53257000  0.92346000  1.0
  Zn  Zn1  1  0.97077000  0.38251000  0.06947000  1.0
  Zn  Zn2  1  0.96940000  0.55838000  0.06243000  1.0
  Zn  Zn3  1  0.13093000  0.54309000  0.91284000  1.0
  Zn  Zn4  1  0.56079000  0.96847000  0.06232000  1.0
  Zn  Zn5  1  0.53620000  0.95174000  0.91925000  1.0
  Zn  Zn6  1  0.54558000  0.12601000  0.91397000  1.0
  Zn  Zn7  1  0.37837000  0.97098000  0.06839000  1.0
  H  H8  1  0.22574000  0.83041000  0.34515000  1.0
  H  H9  1  0.47359000  0.83801000  0.32444000  1.0
  H  H10  1  0.27635000  0.67919000  0.63850000  1.0
  H  H11  1  0.02831000  0.66933000  0.65966000  1.0
  H  H12  1  0.68208000  0.27349000  0.64193000  1.0
  H  H13  1  0.67910000  0.03640000  0.65373000  1.0
  H  H14  1  0.83636000  0.23603000  0.34113000  1.0
  H  H15  1  0.83769000  0.47306000  0.32922000  1.0
  H  H16  1  0.89852000  0.80037000  0.88405000  1.0
  H  H17  1  0.88172000  0.78511000  0.98660000  1.0
  H  H18  1  0.79487000  0.87996000  0.98069000  1.0
  H  H19  1  0.80946000  0.89182000  0.87999000  1.0
  H  H20  1  0.67541000  0.76635000  0.12471000  1.0
  H  H21  1  0.60236000  0.70080000  0.12644000  1.0
  H  H22  1  0.76104000  0.67018000  0.12835000  1.0
  H  H23  1  0.68912000  0.60720000  0.12616000  1.0
  H  H24  1  0.79647000  0.70831000  0.88068000  1.0
  H  H25  1  0.71254000  0.62789000  0.97938000  1.0
  H  H26  1  0.62183000  0.71880000  0.98150000  1.0
  H  H27  1  0.70489000  0.79822000  0.88105000  1.0
  H  H28  1  0.21488000  0.30677000  0.87683000  1.0
  H  H29  1  0.13220000  0.22857000  0.98050000  1.0
  H  H30  1  0.22205000  0.13685000  0.97972000  1.0
  H  H31  1  0.30471000  0.21601000  0.87674000  1.0
  H  H32  1  0.20734000  0.12143000  0.12009000  1.0
  H  H33  1  0.28006000  0.18754000  0.11794000  1.0
  H  H34  1  0.11891000  0.21471000  0.12009000  1.0
  H  H35  1  0.19302000  0.28121000  0.11602000  1.0
  H  H36  1  0.32096000  0.40403000  0.86949000  1.0
  H  H37  1  0.31215000  0.39501000  0.96651000  1.0
  H  H38  1  0.40049000  0.30186000  0.96903000  1.0
  H  H39  1  0.41026000  0.31201000  0.87123000  1.0
  H  H40  1  0.90558000  0.27163000  0.91784000  1.0
  H  H41  1  0.86910000  0.35621000  0.86377000  1.0
  H  H42  1  0.78236000  0.26633000  0.85907000  1.0
  H  H43  1  0.81876000  0.18202000  0.91372000  1.0
  H  H44  1  0.65307000  0.30437000  0.94563000  1.0
  H  H45  1  0.59635000  0.24688000  0.06176000  1.0
  H  H46  1  0.73911000  0.39386000  0.95193000  1.0
  H  H47  1  0.68292000  0.33469000  0.06796000  1.0
  H  H48  1  0.82583000  0.18785000  0.08518000  1.0
  H  H49  1  0.73519000  0.21406000  0.14624000  1.0
  H  H50  1  0.64764000  0.12474000  0.14178000  1.0
  H  H51  1  0.73814000  0.09827000  0.08109000  1.0
  H  H52  1  0.17947000  0.81251000  0.90567000  1.0
  H  H53  1  0.27276000  0.78503000  0.84910000  1.0
  H  H54  1  0.35429000  0.88036000  0.85272000  1.0
  H  H55  1  0.26009000  0.90394000  0.91365000  1.0
  H  H56  1  0.40648000  0.76106000  0.93118000  1.0
  H  H57  1  0.35311000  0.70385000  0.04723000  1.0
  H  H58  1  0.32036000  0.66551000  0.93166000  1.0
  H  H59  1  0.26520000  0.61086000  0.04778000  1.0
  H  H60  1  0.09843000  0.73444000  0.07329000  1.0
  H  H61  1  0.13073000  0.65004000  0.13198000  1.0
  H  H62  1  0.21965000  0.73924000  0.13522000  1.0
  H  H63  1  0.18328000  0.82287000  0.08118000  1.0
  H  H64  1  0.11056000  0.78594000  0.43100000  1.0
  H  H65  1  0.39074000  0.72281000  0.55327000  1.0
  H  H66  1  0.72023000  0.38561000  0.55931000  1.0
  H  H67  1  0.79097000  0.12401000  0.42342000  1.0
  C  C68  1  0.85766000  0.35841000  0.00403000  1.0
  C  C69  1  0.89126000  0.39790000  0.22971000  1.0
  C  C70  1  0.85518000  0.63634000  0.99797000  1.0
  C  C71  1  0.14920000  0.64577000  0.98659000  1.0
  C  C72  1  0.10985000  0.62017000  0.75479000  1.0
  C  C73  1  0.14978000  0.36891000  0.98812000  1.0
  C  C74  1  0.63969000  0.85945000  0.99495000  1.0
  C  C75  1  0.62850000  0.11149000  0.75341000  1.0
  C  C76  1  0.64554000  0.14119000  0.99476000  1.0
  C  C77  1  0.36666000  0.14585000  0.98962000  1.0
  C  C78  1  0.39308000  0.88759000  0.22903000  1.0
  C  C79  1  0.35908000  0.86896000  0.99216000  1.0
  C  C80  1  0.26309000  0.81251000  0.37900000  1.0
  C  C81  1  0.40432000  0.81760000  0.36596000  1.0
  C  C82  1  0.36837000  0.77198000  0.45623000  1.0
  C  C83  1  0.27731000  0.74387000  0.51234000  1.0
  C  C84  1  0.23888000  0.69674000  0.60477000  1.0
  C  C85  1  0.09758000  0.69049000  0.61808000  1.0
  C  C86  1  0.13341000  0.73671000  0.52780000  1.0
  C  C87  1  0.22447000  0.76520000  0.47151000  1.0
  C  C88  1  0.35155000  0.83802000  0.32716000  1.0
  C  C89  1  0.15046000  0.67046000  0.65678000  1.0
  C  C90  1  0.70066000  0.23925000  0.60585000  1.0
  C  C91  1  0.69840000  0.10393000  0.61405000  1.0
  C  C92  1  0.74305000  0.14148000  0.52338000  1.0
  C  C93  1  0.76952000  0.23023000  0.46979000  1.0
  C  C94  1  0.81678000  0.27024000  0.37721000  1.0
  C  C95  1  0.81859000  0.40556000  0.36894000  1.0
  C  C96  1  0.77252000  0.36806000  0.45953000  1.0
  C  C97  1  0.74675000  0.27927000  0.51321000  1.0
  C  C98  1  0.67732000  0.15312000  0.65530000  1.0
  C  C99  1  0.84102000  0.35635000  0.32778000  1.0
  C  C100  1  0.84878000  0.78387000  0.95109000  1.0
  C  C101  1  0.79029000  0.84561000  0.94839000  1.0
  C  C102  1  0.69605000  0.79789000  0.99548000  1.0
  C  C103  1  0.67010000  0.73339000  0.09143000  1.0
  C  C104  1  0.72780000  0.67084000  0.09254000  1.0
  C  C105  1  0.79493000  0.69430000  0.99741000  1.0
  C  C106  1  0.74869000  0.69196000  0.94815000  1.0
  C  C107  1  0.68884000  0.75227000  0.94841000  1.0
  C  C108  1  0.19961000  0.26222000  0.94450000  1.0
  C  C109  1  0.25921000  0.20130000  0.94448000  1.0
  C  C110  1  0.30989000  0.20744000  0.98933000  1.0
  C  C111  1  0.24499000  0.18565000  0.08440000  1.0
  C  C112  1  0.18659000  0.24740000  0.08377000  1.0
  C  C113  1  0.21033000  0.31090000  0.98829000  1.0
  C  C114  1  0.30438000  0.35867000  0.93718000  1.0
  C  C115  1  0.36326000  0.29737000  0.93836000  1.0
  C  C116  1  0.84777000  0.29328000  0.92034000  1.0
  C  C117  1  0.79009000  0.23375000  0.91739000  1.0
  C  C118  1  0.70066000  0.19810000  0.00088000  1.0
  C  C119  1  0.66087000  0.27152000  0.00383000  1.0
  C  C120  1  0.71833000  0.33053000  0.00758000  1.0
  C  C121  1  0.79809000  0.29813000  0.00597000  1.0
  C  C122  1  0.76921000  0.21053000  0.08541000  1.0
  C  C123  1  0.71121000  0.15128000  0.08252000  1.0
  C  C124  1  0.23572000  0.79073000  0.90821000  1.0
  C  C125  1  0.29048000  0.85265000  0.91151000  1.0
  C  C126  1  0.30092000  0.80735000  0.99407000  1.0
  C  C127  1  0.34297000  0.73510000  0.99023000  1.0
  C  C128  1  0.28551000  0.67287000  0.98990000  1.0
  C  C129  1  0.20549000  0.70377000  0.99063000  1.0
  C  C130  1  0.15504000  0.71210000  0.07342000  1.0
  C  C131  1  0.21223000  0.77166000  0.07663000  1.0
  O  O132  1  0.00624000  0.50335000  0.99119000  1.0
  O  O133  1  0.87603000  0.43482000  0.94653000  1.0
  O  O134  1  0.91261000  0.35117000  0.19505000  1.0
  O  O135  1  0.89175000  0.62924000  0.04310000  1.0
  O  O136  1  0.88597000  0.32854000  0.05792000  1.0
  O  O137  1  0.86596000  0.60047000  0.95264000  1.0
  O  O138  1  0.90872000  0.47717000  0.18858000  1.0
  O  O139  1  0.06880000  0.62956000  0.03694000  1.0
  O  O140  1  0.15942000  0.60358000  0.78791000  1.0
  O  O141  1  0.18595000  0.61898000  0.93254000  1.0
  O  O142  1  0.02821000  0.59795000  0.79727000  1.0
  O  O143  1  0.07013000  0.33427000  0.04164000  1.0
  O  O144  1  0.18251000  0.44652000  0.93439000  1.0
  O  O145  1  0.50334000  0.00535000  0.99185000  1.0
  O  O146  1  0.63888000  0.89899000  0.03488000  1.0
  O  O147  1  0.61186000  0.03218000  0.79451000  1.0
  O  O148  1  0.62268000  0.17591000  0.93657000  1.0
  O  O149  1  0.59780000  0.86747000  0.95467000  1.0
  O  O150  1  0.62738000  0.06337000  0.04716000  1.0
  O  O151  1  0.60731000  0.15812000  0.78823000  1.0
  O  O152  1  0.44669000  0.17597000  0.93593000  1.0
  O  O153  1  0.34469000  0.91068000  0.19496000  1.0
  O  O154  1  0.32924000  0.06875000  0.04301000  1.0
  O  O155  1  0.47460000  0.90275000  0.18730000  1.0
  O  O156  1  0.43689000  0.89443000  0.93044000  1.0
  O  O157  1  0.32668000  0.89106000  0.05061000  1.0
  O  O158  1  0.07836000  0.75373000  0.49500000  1.0
  O  O159  1  0.42320000  0.75489000  0.48928000  1.0
  O  O160  1  0.75287000  0.41903000  0.49541000  1.0
  O  O161  1  0.76082000  0.09056000  0.48737000  1.0
