# generated using pymatgen
data_Zn2H18C39O11
_symmetry_space_group_name_H-M   'P 1'
_cell_length_a   16.04170000
_cell_length_b   16.13510000
_cell_length_c   30.15840000
_cell_angle_alpha   90.69720000
_cell_angle_beta   90.64280000
_cell_angle_gamma   90.02560000
_symmetry_Int_Tables_number   1
_chemical_formula_structural   Zn2H18C39O11
_chemical_formula_sum   'Zn4 H36 C78 O22'
_cell_volume   7804.96192719
_cell_formula_units_Z   2
loop_
 _symmetry_equiv_pos_site_id
 _symmetry_equiv_pos_as_xyz
  1  'x, y, z'
loop_
 _atom_site_type_symbol
 _atom_site_label
 _atom_site_symmetry_multiplicity
 _atom_site_fract_x
 _atom_site_fract_y
 _atom_site_fract_z
 _atom_site_occupancy
  Zn  Zn0  1  0.50387000  0.07987000  0.50164000  1.0
  Zn  Zn1  1  0.49608000  0.92014000  0.49834000  1.0
  Zn  Zn2  1  0.08041000  0.49660000  0.00091000  1.0
  Zn  Zn3  1  0.91958000  0.50340000  0.99912000  1.0
  H  H4  1  0.23830000  0.12262000  0.31118000  1.0
  H  H5  1  0.76161000  0.87755000  0.68882000  1.0
  H  H6  1  0.86194000  0.89094000  0.25399000  1.0
  H  H7  1  0.13811000  0.10905000  0.74595000  1.0
  H  H8  1  0.11193000  0.05113000  0.18900000  1.0
  H  H9  1  0.88805000  0.94903000  0.81098000  1.0
  H  H10  1  0.87442000  0.95991000  0.18713000  1.0
  H  H11  1  0.12569000  0.03991000  0.81282000  1.0
  H  H12  1  0.12145000  0.89427000  0.23161000  1.0
  H  H13  1  0.87866000  0.10586000  0.76846000  1.0
  H  H14  1  0.86828000  0.12332000  0.23380000  1.0
  H  H15  1  0.13166000  0.87660000  0.76625000  1.0
  H  H16  1  0.74612000  0.88796000  0.30708000  1.0
  H  H17  1  0.25397000  0.11191000  0.69288000  1.0
  H  H18  1  0.11149000  0.16684000  0.13634000  1.0
  H  H19  1  0.88828000  0.83328000  0.86361000  1.0
  H  H20  1  0.87951000  0.84936000  0.12985000  1.0
  H  H21  1  0.12081000  0.15050000  0.87010000  1.0
  H  H22  1  0.12895000  0.78758000  0.17239000  1.0
  H  H23  1  0.87139000  0.21256000  0.82768000  1.0
  H  H24  1  0.86570000  0.23616000  0.17936000  1.0
  H  H25  1  0.13404000  0.76370000  0.82065000  1.0
  H  H26  1  0.14174000  0.90432000  0.37310000  1.0
  H  H27  1  0.85829000  0.09584000  0.62693000  1.0
  H  H28  1  0.83325000  0.11746000  0.36520000  1.0
  H  H29  1  0.16671000  0.88241000  0.63482000  1.0
  H  H30  1  0.12301000  0.11722000  0.25732000  1.0
  H  H31  1  0.87695000  0.88284000  0.74265000  1.0
  H  H32  1  0.96482000  0.77881000  0.30498000  1.0
  H  H33  1  0.03525000  0.22125000  0.69503000  1.0
  H  H34  1  0.96784000  0.16314000  0.37767000  1.0
  H  H35  1  0.90688000  0.23101000  0.34312000  1.0
  H  H36  1  0.01841000  0.23047000  0.33938000  1.0
  H  H37  1  0.09305000  0.76896000  0.65689000  1.0
  H  H38  1  0.03211000  0.83684000  0.62234000  1.0
  H  H39  1  0.98151000  0.76953000  0.66063000  1.0
  C  C40  1  0.61795000  0.99223000  0.55929000  1.0
  C  C41  1  0.38197000  0.00931000  0.44078000  1.0
  C  C42  1  0.93223000  0.85915000  0.15240000  1.0
  C  C43  1  0.06806000  0.14074000  0.84757000  1.0
  C  C44  1  0.06811000  0.88493000  0.20945000  1.0
  C  C45  1  0.93206000  0.11515000  0.79059000  1.0
  C  C46  1  0.07260000  0.82452000  0.17625000  1.0
  C  C47  1  0.92771000  0.17559000  0.82379000  1.0
  C  C48  1  0.92242000  0.13297000  0.21300000  1.0
  C  C49  1  0.07748000  0.86699000  0.78703000  1.0
  C  C50  1  0.92051000  0.19665000  0.18230000  1.0
  C  C51  1  0.07926000  0.80324000  0.81772000  1.0
  C  C52  1  0.07429000  0.94570000  0.31551000  1.0
  C  C53  1  0.92575000  0.05437000  0.68450000  1.0
  C  C54  1  0.13941000  0.94970000  0.34667000  1.0
  C  C55  1  0.86062000  0.05043000  0.65335000  1.0
  C  C56  1  0.90547000  0.06950000  0.31048000  1.0
  C  C57  1  0.09449000  0.93045000  0.68952000  1.0
  C  C58  1  0.84003000  0.06845000  0.34046000  1.0
  C  C59  1  0.15995000  0.93143000  0.65956000  1.0
  C  C60  1  0.99263000  0.00569000  0.24852000  1.0
  C  C61  1  0.00738000  0.99432000  0.75147000  1.0
  C  C62  1  0.60732000  0.00308000  0.43644000  1.0
  C  C63  1  0.39265000  0.99537000  0.56353000  1.0
  C  C64  1  0.06811000  0.00490000  0.28130000  1.0
  C  C65  1  0.93190000  0.99515000  0.71871000  1.0
  C  C66  1  0.20048000  0.01193000  0.34538000  1.0
  C  C67  1  0.79948000  0.98827000  0.65464000  1.0
  C  C68  1  0.91497000  0.00514000  0.27828000  1.0
  C  C69  1  0.08504000  0.99483000  0.72171000  1.0
  C  C70  1  0.78225000  0.00271000  0.33974000  1.0
  C  C71  1  0.21781000  0.99711000  0.66026000  1.0
  C  C72  1  0.99195000  0.08113000  0.21719000  1.0
  C  C73  1  0.00801000  0.91889000  0.78281000  1.0
  C  C74  1  0.98926000  0.21103000  0.15486000  1.0
  C  C75  1  0.01042000  0.78888000  0.84510000  1.0
  C  C76  1  0.99620000  0.93293000  0.21491000  1.0
  C  C77  1  0.00390000  0.06707000  0.78509000  1.0
  C  C78  1  0.00419000  0.80976000  0.14760000  1.0
  C  C79  1  0.99619000  0.19028000  0.85239000  1.0
  C  C80  1  0.71888000  0.00132000  0.37207000  1.0
  C  C81  1  0.28124000  0.99816000  0.62796000  1.0
  C  C82  1  0.66656000  0.00196000  0.40104000  1.0
  C  C83  1  0.33351000  0.99684000  0.59896000  1.0
  C  C84  1  0.12856000  0.06779000  0.28133000  1.0
  C  C85  1  0.87141000  0.93229000  0.71865000  1.0
  C  C86  1  0.26486000  0.01393000  0.37789000  1.0
  C  C87  1  0.73504000  0.98657000  0.62217000  1.0
  C  C88  1  0.31876000  0.01305000  0.40665000  1.0
  C  C89  1  0.68116000  0.98812000  0.59341000  1.0
  C  C90  1  0.98907000  0.27687000  0.12428000  1.0
  C  C91  1  0.01006000  0.72294000  0.87561000  1.0
  C  C92  1  0.99068000  0.33333333  0.09788000  1.0
  C  C93  1  0.00727000  0.66647000  0.90201000  1.0
  C  C94  1  0.00687000  0.74651000  0.11474000  1.0
  C  C95  1  0.99399000  0.25359000  0.88522000  1.0
  C  C96  1  0.00746000  0.69139000  0.08677000  1.0
  C  C97  1  0.99445000  0.30873000  0.91319000  1.0
  C  C98  1  0.00594000  0.62467000  0.05484000  1.0
  C  C99  1  0.99660000  0.37532000  0.94518000  1.0
  C  C100  1  0.99361000  0.39682000  0.06495000  1.0
  C  C101  1  0.00375000  0.60310000  0.93498000  1.0
  C  C102  1  0.19349000  0.07195000  0.31214000  1.0
  C  C103  1  0.80646000  0.92820000  0.68785000  1.0
  C  C104  1  0.85555000  0.94168000  0.27779000  1.0
  C  C105  1  0.14448000  0.05828000  0.72216000  1.0
  C  C106  1  0.79023000  0.93925000  0.30780000  1.0
  C  C107  1  0.20984000  0.06063000  0.69217000  1.0
  C  C108  1  0.05894000  0.09338000  0.18828000  1.0
  C  C109  1  0.94099000  0.90671000  0.81171000  1.0
  C  C110  1  0.05866000  0.15767000  0.15815000  1.0
  C  C111  1  0.94114000  0.84240000  0.84182000  1.0
  C  C112  1  0.92932000  0.92033000  0.18506000  1.0
  C  C113  1  0.07085000  0.07957000  0.81491000  1.0
  C  C114  1  0.01275000  0.87851000  0.32583000  1.0
  C  C115  1  0.98731000  0.12154000  0.67419000  1.0
  C  C116  1  0.96321000  0.19213000  0.34488000  1.0
  C  C117  1  0.03672000  0.80785000  0.65513000  1.0
  O  O118  1  0.59673000  0.06488000  0.54689000  1.0
  O  O119  1  0.40331000  0.93674000  0.45324000  1.0
  O  O120  1  0.57981000  0.93282000  0.44916000  1.0
  O  O121  1  0.42022000  0.06554000  0.55074000  1.0
  O  O122  1  0.58768000  0.07436000  0.45225000  1.0
  O  O123  1  0.41216000  0.92402000  0.54775000  1.0
  O  O124  1  0.58888000  0.92331000  0.54446000  1.0
  O  O125  1  0.41096000  0.07831000  0.45557000  1.0
  O  O126  1  0.07638000  0.59482000  0.04304000  1.0
  O  O127  1  0.92632000  0.40535000  0.95706000  1.0
  O  O128  1  0.92367000  0.42516000  0.05099000  1.0
  O  O129  1  0.07355000  0.57458000  0.94900000  1.0
  O  O130  1  0.06620000  0.41869000  0.05227000  1.0
  O  O131  1  0.93105000  0.58159000  0.94768000  1.0
  O  O132  1  0.93383000  0.60089000  0.04119000  1.0
  O  O133  1  0.06887000  0.39880000  0.95877000  1.0
  O  O134  1  0.97843000  0.87341000  0.36158000  1.0
  O  O135  1  0.00402000  0.81968000  0.29337000  1.0
  O  O136  1  0.02163000  0.12664000  0.63843000  1.0
  O  O137  1  0.99606000  0.18037000  0.70663000  1.0
  O  O138  1  0.96361000  0.13101000  0.31019000  1.0
  O  O139  1  0.03632000  0.86897000  0.68981000  1.0
