# generated using pymatgen
data_H16RuC19N(O2F)2
_symmetry_space_group_name_H-M   'P 1'
_cell_length_a   8.87809000
_cell_length_b   10.26670000
_cell_length_c   11.01210000
_cell_angle_alpha   72.92210000
_cell_angle_beta   72.53790000
_cell_angle_gamma   71.91860000
_symmetry_Int_Tables_number   1
_chemical_formula_structural   H16RuC19N(O2F)2
_chemical_formula_sum   'H32 Ru2 C38 N2 O8 F4'
_cell_volume   887.66194968
_cell_formula_units_Z   2
loop_
 _symmetry_equiv_pos_site_id
 _symmetry_equiv_pos_as_xyz
  1  'x, y, z'
loop_
 _atom_site_type_symbol
 _atom_site_label
 _atom_site_symmetry_multiplicity
 _atom_site_fract_x
 _atom_site_fract_y
 _atom_site_fract_z
 _atom_site_occupancy
  H  H0  1  0.22291000  0.80447000  0.52587000  1.0
  H  H1  1  0.77709000  0.19553000  0.47413000  1.0
  H  H2  1  0.28673000  0.54275000  0.58966000  1.0
  H  H3  1  0.71326000  0.45725000  0.41034000  1.0
  H  H4  1  0.11494000  0.42242000  0.78861000  1.0
  H  H5  1  0.88505000  0.57758000  0.21139000  1.0
  H  H6  1  0.87467000  0.56675000  0.91985000  1.0
  H  H7  1  0.12532000  0.43325000  0.08016000  1.0
  H  H8  1  0.54764000  0.59178000  0.64256000  1.0
  H  H9  1  0.45236000  0.40822000  0.35744000  1.0
  H  H10  1  0.67719000  0.72648000  0.71902000  1.0
  H  H11  1  0.32281000  0.27352000  0.28098000  1.0
  H  H12  1  0.77216000  0.93457000  0.56376000  1.0
  H  H13  1  0.22785000  0.06543000  0.43624000  1.0
  H  H14  1  0.72627000  0.00859000  0.33890000  1.0
  H  H15  1  0.27373000  0.99141000  0.66109000  1.0
  H  H16  1  0.12700000  0.81322000  0.25369000  1.0
  H  H17  1  0.87300000  0.18677000  0.74631000  1.0
  H  H18  1  0.13367000  0.63356000  0.26425000  1.0
  H  H19  1  0.86633000  0.36643000  0.73575000  1.0
  H  H20  1  0.30398000  0.68072000  0.28038000  1.0
  H  H21  1  0.69602000  0.31928000  0.71961000  1.0
  H  H22  1  0.05852000  0.89399000  0.06090000  1.0
  H  H23  1  0.94149000  0.10601000  0.93910000  1.0
  H  H24  1  0.17880000  0.83706000  0.91645000  1.0
  H  H25  1  0.82121000  0.16294000  0.08355000  1.0
  H  H26  1  0.05663000  0.72885000  0.03869000  1.0
  H  H27  1  0.94337000  0.27116000  0.96130000  1.0
  H  H28  1  0.52710000  0.57868000  0.18264000  1.0
  H  H29  1  0.47290000  0.42132000  0.81736000  1.0
  H  H30  1  0.72556000  0.37559000  0.11249000  1.0
  H  H31  1  0.27444000  0.62440000  0.88752000  1.0
  Ru  Ru32  1  0.43618000  0.91063000  0.02006000  1.0
  Ru  Ru33  1  0.56382000  0.08937000  0.97995000  1.0
  C  C34  1  0.77315000  0.84714000  0.87814000  1.0
  C  C35  1  0.22685000  0.15286000  0.12187000  1.0
  C  C36  1  0.92006000  0.76426000  0.80198000  1.0
  C  C37  1  0.07994000  0.23574000  0.19803000  1.0
  C  C38  1  0.02147000  0.82732000  0.69094000  1.0
  C  C39  1  0.97852000  0.17268000  0.30906000  1.0
  C  C40  1  0.15146000  0.74994000  0.61372000  1.0
  C  C41  1  0.84854000  0.25006000  0.38628000  1.0
  C  C42  1  0.18469000  0.60368000  0.64967000  1.0
  C  C43  1  0.81530000  0.39632000  0.35033000  1.0
  C  C44  1  0.08750000  0.53687000  0.76095000  1.0
  C  C45  1  0.91250000  0.46314000  0.23905000  1.0
  C  C46  1  0.95517000  0.61663000  0.83515000  1.0
  C  C47  1  0.04483000  0.38337000  0.16485000  1.0
  C  C48  1  0.58075000  0.89621000  0.22992000  1.0
  C  C49  1  0.41925000  0.10379000  0.77009000  1.0
  C  C50  1  0.61396000  0.84339000  0.36210000  1.0
  C  C51  1  0.38603000  0.15661000  0.63790000  1.0
  C  C52  1  0.56635000  0.72591000  0.45113000  1.0
  C  C53  1  0.43364000  0.27410000  0.54887000  1.0
  C  C54  1  0.58909000  0.68270000  0.57742000  1.0
  C  C55  1  0.41091000  0.31731000  0.42258000  1.0
  C  C56  1  0.66283000  0.75829000  0.61885000  1.0
  C  C57  1  0.33717000  0.24171000  0.38115000  1.0
  C  C58  1  0.71436000  0.87481000  0.53247000  1.0
  C  C59  1  0.28565000  0.12519000  0.46753000  1.0
  C  C60  1  0.68992000  0.91643000  0.40636000  1.0
  C  C61  1  0.31008000  0.08357000  0.59364000  1.0
  C  C62  1  0.20493000  0.71373000  0.23012000  1.0
  C  C63  1  0.79507000  0.28627000  0.76988000  1.0
  C  C64  1  0.13318000  0.80205000  0.02161000  1.0
  C  C65  1  0.86682000  0.19795000  0.97839000  1.0
  C  C66  1  0.38210000  0.61676000  0.04365000  1.0
  C  C67  1  0.61790000  0.38324000  0.95635000  1.0
  C  C68  1  0.51155000  0.54262000  0.10451000  1.0
  C  C69  1  0.48845000  0.45737000  0.89549000  1.0
  C  C70  1  0.62710000  0.42811000  0.06219000  1.0
  C  C71  1  0.37290000  0.57189000  0.93781000  1.0
  N  N72  1  0.26895000  0.73741000  0.08699000  1.0
  N  N73  1  0.73105000  0.26259000  0.91301000  1.0
  O  O74  1  0.65051000  0.79235000  0.92756000  1.0
  O  O75  1  0.34950000  0.20764000  0.07245000  1.0
  O  O76  1  0.77577000  0.96705000  0.88894000  1.0
  O  O77  1  0.22423000  0.03296000  0.11106000  1.0
  O  O78  1  0.50342000  0.83192000  0.19495000  1.0
  O  O79  1  0.49657000  0.16808000  0.80505000  1.0
  O  O80  1  0.62824000  0.00601000  0.15777000  1.0
  O  O81  1  0.37177000  0.99399000  0.84223000  1.0
  F  F82  1  0.98879000  0.97026000  0.65146000  1.0
  F  F83  1  0.01121000  0.02973000  0.34854000  1.0
  F  F84  1  0.49221000  0.64821000  0.41610000  1.0
  F  F85  1  0.50779000  0.35179000  0.58390000  1.0
