# generated using pymatgen
data_ZnH5C10I2NO4
_symmetry_space_group_name_H-M   'P 1'
_cell_length_a   10.01420000
_cell_length_b   11.29960000
_cell_length_c   13.21870000
_cell_angle_alpha   95.97990000
_cell_angle_beta   93.02630000
_cell_angle_gamma   93.47400000
_symmetry_Int_Tables_number   1
_chemical_formula_structural   ZnH5C10I2NO4
_chemical_formula_sum   'Zn2 H10 C20 I4 N2 O8'
_cell_volume   1482.27389977
_cell_formula_units_Z   2
loop_
 _symmetry_equiv_pos_site_id
 _symmetry_equiv_pos_as_xyz
  1  'x, y, z'
loop_
 _atom_site_type_symbol
 _atom_site_label
 _atom_site_symmetry_multiplicity
 _atom_site_fract_x
 _atom_site_fract_y
 _atom_site_fract_z
 _atom_site_occupancy
  Zn  Zn0  1  0.63626000  0.48431000  0.50343000  1.0
  Zn  Zn1  1  0.36478000  0.51680000  0.48890000  1.0
  H  H2  1  0.73287000  0.42070000  0.19115000  1.0
  H  H3  1  0.26922000  0.57660000  0.80083000  1.0
  H  H4  1  0.38329000  0.90414000  0.50574000  1.0
  H  H5  1  0.61683000  0.09696000  0.48649000  1.0
  H  H6  1  0.68345000  0.88436000  0.46997000  1.0
  H  H7  1  0.31653000  0.11667000  0.52190000  1.0
  H  H8  1  0.89879000  0.48793000  0.39943000  1.0
  H  H9  1  0.10213000  0.51349000  0.59354000  1.0
  H  H10  1  0.86732000  0.49113000  0.61956000  1.0
  H  H11  1  0.13322000  0.51048000  0.37340000  1.0
  C  C12  1  0.45190000  0.27398000  0.51003000  1.0
  C  C13  1  0.54805000  0.72710000  0.48207000  1.0
  C  C14  1  0.07216000  0.50872000  0.51199000  1.0
  C  C15  1  0.92878000  0.49281000  0.48098000  1.0
  C  C16  1  0.47595000  0.53999000  0.69458000  1.0
  C  C17  1  0.52666000  0.46007000  0.29788000  1.0
  C  C18  1  0.52747000  0.45955000  0.18357000  1.0
  C  C19  1  0.47490000  0.53875000  0.80870000  1.0
  C  C20  1  0.33266000  0.54621000  0.95332000  1.0
  C  C21  1  0.66896000  0.45017000  0.03855000  1.0
  C  C22  1  0.34975000  0.55169000  0.85128000  1.0
  C  C23  1  0.65233000  0.44557000  0.14074000  1.0
  C  C24  1  0.58535000  0.52653000  0.87448000  1.0
  C  C25  1  0.41677000  0.47101000  0.11779000  1.0
  C  C26  1  0.56729000  0.49366000  0.97479000  1.0
  C  C27  1  0.43441000  0.50301000  0.01718000  1.0
  C  C28  1  0.42077000  0.14443000  0.51152000  1.0
  C  C29  1  0.57925000  0.85662000  0.48052000  1.0
  C  C30  1  0.51423000  0.06384000  0.49733000  1.0
  C  C31  1  0.48587000  0.93725000  0.49481000  1.0
  I  I32  1  0.22619000  0.39926000  0.15346000  1.0
  I  I33  1  0.77655000  0.59786000  0.83975000  1.0
  I  I34  1  0.16577000  0.63650000  0.00507000  1.0
  I  I35  1  0.83449000  0.35833000  0.98627000  1.0
  N  N36  1  0.16445000  0.51691000  0.44941000  1.0
  N  N37  1  0.83641000  0.48460000  0.54348000  1.0
  O  O38  1  0.57458000  0.31152000  0.50926000  1.0
  O  O39  1  0.42540000  0.68980000  0.48375000  1.0
  O  O40  1  0.35157000  0.33881000  0.50873000  1.0
  O  O41  1  0.64825000  0.66206000  0.48250000  1.0
  O  O42  1  0.58581000  0.52330000  0.65352000  1.0
  O  O43  1  0.41725000  0.47865000  0.33904000  1.0
  O  O44  1  0.36379000  0.55090000  0.64748000  1.0
  O  O45  1  0.63867000  0.44861000  0.34500000  1.0
