# generated using pymatgen
data_AgH16C18S2(NO)3
_symmetry_space_group_name_H-M   'P 1'
_cell_length_a   8.17378000
_cell_length_b   9.94067000
_cell_length_c   11.62030000
_cell_angle_alpha   106.42500000
_cell_angle_beta   97.41950000
_cell_angle_gamma   91.41230000
_symmetry_Int_Tables_number   1
_chemical_formula_structural   AgH16C18S2(NO)3
_chemical_formula_sum   'Ag2 H32 C36 S4 N6 O6'
_cell_volume   896.20977552
_cell_formula_units_Z   2
loop_
 _symmetry_equiv_pos_site_id
 _symmetry_equiv_pos_as_xyz
  1  'x, y, z'
loop_
 _atom_site_type_symbol
 _atom_site_label
 _atom_site_symmetry_multiplicity
 _atom_site_fract_x
 _atom_site_fract_y
 _atom_site_fract_z
 _atom_site_occupancy
  Ag  Ag0  1  0.52938000  0.59225000  0.86294000  1.0
  Ag  Ag1  1  0.47062000  0.40775000  0.13706000  1.0
  H  H2  1  0.55644000  0.38543000  0.56090000  1.0
  H  H3  1  0.44356000  0.61457000  0.43909000  1.0
  H  H4  1  0.55780000  0.00939000  0.67719000  1.0
  H  H5  1  0.44220000  0.99061000  0.32282000  1.0
  H  H6  1  0.81700000  0.95092000  0.59799000  1.0
  H  H7  1  0.18300000  0.04908000  0.40202000  1.0
  H  H8  1  0.95888000  0.11452000  0.50613000  1.0
  H  H9  1  0.04113000  0.88548000  0.49387000  1.0
  H  H10  1  0.85937000  0.47003000  0.54702000  1.0
  H  H11  1  0.14063000  0.52997000  0.45298000  1.0
  H  H12  1  0.97996000  0.33852000  0.46497000  1.0
  H  H13  1  0.02004000  0.66148000  0.53503000  1.0
  H  H14  1  0.96004000  0.15464000  0.31669000  1.0
  H  H15  1  0.03996000  0.84537000  0.68331000  1.0
  H  H16  1  0.95822000  0.94689000  0.13756000  1.0
  H  H17  1  0.04178000  0.05311000  0.86245000  1.0
  H  H18  1  0.75224000  0.92671000  0.94906000  1.0
  H  H19  1  0.24776000  0.07329000  0.05094000  1.0
  H  H20  1  0.56519000  0.12150000  0.95155000  1.0
  H  H21  1  0.43482000  0.87850000  0.04845000  1.0
  H  H22  1  0.31316000  0.30757000  0.62486000  1.0
  H  H23  1  0.68684000  0.69243000  0.37514000  1.0
  H  H24  1  0.30291000  0.14849000  0.66914000  1.0
  H  H25  1  0.69709000  0.85151000  0.33086000  1.0
  H  H26  1  0.08818000  0.32904000  0.70600000  1.0
  H  H27  1  0.91182000  0.67096000  0.29400000  1.0
  H  H28  1  0.81855000  0.31589000  0.78037000  1.0
  H  H29  1  0.18145000  0.68411000  0.21962000  1.0
  H  H30  1  0.81636000  0.32727000  0.99960000  1.0
  H  H31  1  0.18364000  0.67273000  0.00039000  1.0
  H  H32  1  0.08828000  0.35652000  0.13491000  1.0
  H  H33  1  0.91172000  0.64348000  0.86508000  1.0
  C  C34  1  0.76690000  0.26093000  0.52745000  1.0
  C  C35  1  0.23310000  0.73908000  0.47255000  1.0
  C  C36  1  0.61478000  0.29060000  0.56926000  1.0
  C  C37  1  0.38522000  0.70941000  0.43074000  1.0
  C  C38  1  0.53954000  0.20269000  0.62461000  1.0
  C  C39  1  0.46046000  0.79731000  0.37539000  1.0
  C  C40  1  0.61461000  0.08070000  0.63542000  1.0
  C  C41  1  0.38539000  0.91930000  0.36458000  1.0
  C  C42  1  0.76345000  0.04808000  0.59088000  1.0
  C  C43  1  0.23655000  0.95192000  0.40912000  1.0
  C  C44  1  0.83979000  0.13804000  0.53772000  1.0
  C  C45  1  0.16021000  0.86196000  0.46228000  1.0
  C  C46  1  0.85382000  0.36531000  0.48110000  1.0
  C  C47  1  0.14619000  0.63469000  0.51891000  1.0
  C  C48  1  0.75740000  0.24494000  0.23032000  1.0
  C  C49  1  0.24260000  0.75506000  0.76968000  1.0
  C  C50  1  0.87037000  0.14222000  0.23616000  1.0
  C  C51  1  0.12963000  0.85778000  0.76384000  1.0
  C  C52  1  0.86970000  0.02662000  0.13498000  1.0
  C  C53  1  0.13031000  0.97338000  0.86502000  1.0
  C  C54  1  0.75788000  0.01520000  0.03048000  1.0
  C  C55  1  0.24212000  0.98480000  0.96953000  1.0
  C  C56  1  0.65216000  0.12288000  0.03148000  1.0
  C  C57  1  0.34784000  0.87712000  0.96852000  1.0
  C  C58  1  0.38103000  0.24179000  0.67349000  1.0
  C  C59  1  0.61897000  0.75821000  0.32651000  1.0
  C  C60  1  0.22926000  0.34178000  0.88070000  1.0
  C  C61  1  0.77074000  0.65822000  0.11930000  1.0
  C  C62  1  0.08415000  0.33074000  0.79949000  1.0
  C  C63  1  0.91585000  0.66926000  0.20051000  1.0
  C  C64  1  0.93328000  0.32399000  0.84175000  1.0
  C  C65  1  0.06672000  0.67601000  0.15825000  1.0
  C  C66  1  0.93167000  0.33010000  0.96290000  1.0
  C  C67  1  0.06833000  0.66990000  0.03710000  1.0
  C  C68  1  0.08171000  0.34602000  0.03850000  1.0
  C  C69  1  0.91829000  0.65398000  0.96150000  1.0
  S  S70  1  0.74223000  0.39872000  0.34681000  1.0
  S  S71  1  0.25777000  0.60129000  0.65319000  1.0
  S  S72  1  0.42876000  0.33890000  0.83577000  1.0
  S  S73  1  0.57123000  0.66110000  0.16423000  1.0
  N  N74  1  0.65082000  0.23507000  0.12865000  1.0
  N  N75  1  0.34918000  0.76493000  0.87135000  1.0
  N  N76  1  0.22847000  0.35143000  0.99850000  1.0
  N  N77  1  0.77153000  0.64857000  0.00150000  1.0
  N  N78  1  0.28292000  0.29064000  0.32034000  1.0
  N  N79  1  0.71708000  0.70936000  0.67965000  1.0
  O  O80  1  0.22689000  0.28867000  0.41675000  1.0
  O  O81  1  0.77311000  0.71133000  0.58325000  1.0
  O  O82  1  0.29107000  0.40782000  0.29443000  1.0
  O  O83  1  0.70892000  0.59218000  0.70557000  1.0
  O  O84  1  0.32820000  0.18101000  0.25069000  1.0
  O  O85  1  0.67180000  0.81899000  0.74931000  1.0
