# generated using pymatgen
data_Ag4H14C14(N2O3)3
_symmetry_space_group_name_H-M   'P 1'
_cell_length_a   7.81800000
_cell_length_b   8.45735000
_cell_length_c   14.94090000
_cell_angle_alpha   91.30470000
_cell_angle_beta   97.82020000
_cell_angle_gamma   94.72740000
_symmetry_Int_Tables_number   1
_chemical_formula_structural   Ag4H14C14(N2O3)3
_chemical_formula_sum   'Ag8 H28 C28 N12 O18'
_cell_volume   974.79099407
_cell_formula_units_Z   2
loop_
 _symmetry_equiv_pos_site_id
 _symmetry_equiv_pos_as_xyz
  1  'x, y, z'
loop_
 _atom_site_type_symbol
 _atom_site_label
 _atom_site_symmetry_multiplicity
 _atom_site_fract_x
 _atom_site_fract_y
 _atom_site_fract_z
 _atom_site_occupancy
  Ag  Ag0  1  0.79252000  0.69213000  0.60732000  1.0
  Ag  Ag1  1  0.20748000  0.30787000  0.39268000  1.0
  Ag  Ag2  1  0.83418000  0.18918000  0.37617000  1.0
  Ag  Ag3  1  0.16582000  0.81082000  0.62383000  1.0
  Ag  Ag4  1  0.25798000  0.67972000  0.11519000  1.0
  Ag  Ag5  1  0.74203000  0.32028000  0.88481000  1.0
  Ag  Ag6  1  0.34945000  0.19227000  0.87623000  1.0
  Ag  Ag7  1  0.65055000  0.80773000  0.12377000  1.0
  H  H8  1  0.18202000  0.92599000  0.28120000  1.0
  H  H9  1  0.81798000  0.07401000  0.71880000  1.0
  H  H10  1  0.36177000  0.94403000  0.24234000  1.0
  H  H11  1  0.63823000  0.05597000  0.75766000  1.0
  H  H12  1  0.77743000  0.99049000  0.57011000  1.0
  H  H13  1  0.22257000  0.00951000  0.42989000  1.0
  H  H14  1  0.73871000  0.88386000  0.47443000  1.0
  H  H15  1  0.26129000  0.11614000  0.52557000  1.0
  H  H16  1  0.16077000  0.80781000  0.95883000  1.0
  H  H17  1  0.83923000  0.19219000  0.04117000  1.0
  H  H18  1  0.98413000  0.73410000  0.99864000  1.0
  H  H19  1  0.01588000  0.26590000  0.00136000  1.0
  H  H20  1  0.96086000  0.67686000  0.81111000  1.0
  H  H21  1  0.03913000  0.32314000  0.18889000  1.0
  H  H22  1  0.15281000  0.49708000  0.90465000  1.0
  H  H23  1  0.84719000  0.50293000  0.09535000  1.0
  H  H24  1  0.44193000  0.67173000  0.31337000  1.0
  H  H25  1  0.55806000  0.32827000  0.68663000  1.0
  H  H26  1  0.63728000  0.48867000  0.40612000  1.0
  H  H27  1  0.36271000  0.51133000  0.59389000  1.0
  H  H28  1  0.48054000  0.94400000  0.59525000  1.0
  H  H29  1  0.51945000  0.05601000  0.40475000  1.0
  H  H30  1  0.44050000  0.82155000  0.49452000  1.0
  H  H31  1  0.55950000  0.17845000  0.50547000  1.0
  H  H32  1  0.18308000  0.04070000  0.05254000  1.0
  H  H33  1  0.81693000  0.95930000  0.94746000  1.0
  H  H34  1  0.99888000  0.96505000  0.10060000  1.0
  H  H35  1  0.00112000  0.03496000  0.89940000  1.0
  C  C36  1  0.89497000  0.34556000  0.56301000  1.0
  C  C37  1  0.10503000  0.65444000  0.43699000  1.0
  C  C38  1  0.97090000  0.38909000  0.66020000  1.0
  C  C39  1  0.02910000  0.61091000  0.33980000  1.0
  C  C40  1  0.99338000  0.56564000  0.78280000  1.0
  C  C41  1  0.00661000  0.43436000  0.21720000  1.0
  C  C42  1  0.10023000  0.46763000  0.83429000  1.0
  C  C43  1  0.89977000  0.53237000  0.16571000  1.0
  C  C44  1  0.07845000  0.29083000  0.71245000  1.0
  C  C45  1  0.92155000  0.70917000  0.28755000  1.0
  C  C46  1  0.12315000  0.13208000  0.67853000  1.0
  C  C47  1  0.87685000  0.86793000  0.32147000  1.0
  C  C48  1  0.38204000  0.34388000  0.06399000  1.0
  C  C49  1  0.61797000  0.65612000  0.93601000  1.0
  C  C50  1  0.45647000  0.38774000  0.16111000  1.0
  C  C51  1  0.54353000  0.61227000  0.83889000  1.0
  C  C52  1  0.47731000  0.56083000  0.28542000  1.0
  C  C53  1  0.52269000  0.43917000  0.71458000  1.0
  C  C54  1  0.58441000  0.46174000  0.33555000  1.0
  C  C55  1  0.41558000  0.53826000  0.66445000  1.0
  C  C56  1  0.56669000  0.28939000  0.21165000  1.0
  C  C57  1  0.43331000  0.71061000  0.78835000  1.0
  C  C58  1  0.61636000  0.13564000  0.17289000  1.0
  C  C59  1  0.38364000  0.86436000  0.82711000  1.0
  C  C60  1  0.51786000  0.92649000  0.52769000  1.0
  C  C61  1  0.48213000  0.07351000  0.47231000  1.0
  C  C62  1  0.05987000  0.96611000  0.03845000  1.0
  C  C63  1  0.94013000  0.03389000  0.96155000  1.0
  N  N64  1  0.93241000  0.52748000  0.69602000  1.0
  N  N65  1  0.06759000  0.47251000  0.30398000  1.0
  N  N66  1  0.14618000  0.33291000  0.79867000  1.0
  N  N67  1  0.85382000  0.66709000  0.20134000  1.0
  N  N68  1  0.41558000  0.52388000  0.19840000  1.0
  N  N69  1  0.58442000  0.47612000  0.80160000  1.0
  N  N70  1  0.63224000  0.32879000  0.29831000  1.0
  N  N71  1  0.36775000  0.67120000  0.70169000  1.0
  N  N72  1  0.70247000  0.89508000  0.53803000  1.0
  N  N73  1  0.29753000  0.10492000  0.46197000  1.0
  N  N74  1  0.09944000  0.80337000  0.01577000  1.0
  N  N75  1  0.90056000  0.19664000  0.98423000  1.0
  O  O76  1  0.78452000  0.43105000  0.52443000  1.0
  O  O77  1  0.21548000  0.56894000  0.47557000  1.0
  O  O78  1  0.94992000  0.22343000  0.52858000  1.0
  O  O79  1  0.05009000  0.77657000  0.47142000  1.0
  O  O80  1  0.01195000  0.01557000  0.68513000  1.0
  O  O81  1  0.98805000  0.98444000  0.31487000  1.0
  O  O82  1  0.26865000  0.12520000  0.65235000  1.0
  O  O83  1  0.73135000  0.87479000  0.34765000  1.0
  O  O84  1  0.23229000  0.38349000  0.03607000  1.0
  O  O85  1  0.76772000  0.61651000  0.96393000  1.0
  O  O86  1  0.47970000  0.26853000  0.02025000  1.0
  O  O87  1  0.52030000  0.73147000  0.97975000  1.0
  O  O88  1  0.50013000  0.01957000  0.16737000  1.0
  O  O89  1  0.49987000  0.98044000  0.83263000  1.0
  O  O90  1  0.76706000  0.13183000  0.15336000  1.0
  O  O91  1  0.23294000  0.86817000  0.84664000  1.0
  O  O92  1  0.28895000  0.87317000  0.27624000  1.0
  O  O93  1  0.71105000  0.12683000  0.72376000  1.0
