# generated using pymatgen
data_Sm2ZnH20C32(NO5)4
_symmetry_space_group_name_H-M   'P 1'
_cell_length_a   13.32350000
_cell_length_b   13.55600000
_cell_length_c   15.30039620
_cell_angle_alpha   63.70299740
_cell_angle_beta   64.19140646
_cell_angle_gamma   90.00070000
_symmetry_Int_Tables_number   1
_chemical_formula_structural   Sm2ZnH20C32(NO5)4
_chemical_formula_sum   'Sm4 Zn2 H40 C64 N8 O40'
_cell_volume   2165.71241742
_cell_formula_units_Z   2
loop_
 _symmetry_equiv_pos_site_id
 _symmetry_equiv_pos_as_xyz
  1  'x, y, z'
loop_
 _atom_site_type_symbol
 _atom_site_label
 _atom_site_symmetry_multiplicity
 _atom_site_fract_x
 _atom_site_fract_y
 _atom_site_fract_z
 _atom_site_occupancy
  Sm  Sm0  1  0.41581000  0.23832000  0.30647000  1.0
  Sm  Sm1  1  0.58423000  0.54483000  0.69347000  1.0
  Sm  Sm2  1  0.27783000  0.73831000  0.30639000  1.0
  Sm  Sm3  1  0.72215000  0.04478000  0.69353000  1.0
  Zn  Zn4  1  0.50006000  0.88256000  0.99996000  1.0
  Zn  Zn5  1  0.49998000  0.38234000  0.99999000  1.0
  H  H6  1  0.19734000  0.94253000  0.98061000  1.0
  H  H7  1  0.80253000  0.92313000  0.01944000  1.0
  H  H8  1  0.82205000  0.44256000  0.98064000  1.0
  H  H9  1  0.17800000  0.42309000  0.01940000  1.0
  H  H10  1  0.44264000  0.06181000  0.63565000  1.0
  H  H11  1  0.55728000  0.69738000  0.36444000  1.0
  H  H12  1  0.92175000  0.56197000  0.63562000  1.0
  H  H13  1  0.07817000  0.19752000  0.36449000  1.0
  H  H14  1  0.08119000  0.01353000  0.74040000  1.0
  H  H15  1  0.91879000  0.75386000  0.25952000  1.0
  H  H16  1  0.17834000  0.51338000  0.74052000  1.0
  H  H17  1  0.82162000  0.25384000  0.25956000  1.0
  H  H18  1  0.40796000  0.00810000  0.39867000  1.0
  H  H19  1  0.59196000  0.40687000  0.60138000  1.0
  H  H20  1  0.19343000  0.50810000  0.39867000  1.0
  H  H21  1  0.80664000  0.90681000  0.60142000  1.0
  H  H22  1  0.28207000  0.02530000  0.44442000  1.0
  H  H23  1  0.71790000  0.46984000  0.55555000  1.0
  H  H24  1  0.27350000  0.52542000  0.44446000  1.0
  H  H25  1  0.72658000  0.96985000  0.55555000  1.0
  H  H26  1  0.21275000  0.26301000  0.47802000  1.0
  H  H27  1  0.78724000  0.74106000  0.52196000  1.0
  H  H28  1  0.30934000  0.76310000  0.47800000  1.0
  H  H29  1  0.69062000  0.24117000  0.52200000  1.0
  H  H30  1  0.28873000  0.39180000  0.40177000  1.0
  H  H31  1  0.71136000  0.79354000  0.59829000  1.0
  H  H32  1  0.30964000  0.89186000  0.40161000  1.0
  H  H33  1  0.69026000  0.29353000  0.59838000  1.0
  H  H34  1  0.56596000  0.64372000  0.02832000  1.0
  H  H35  1  0.43404000  0.67196000  0.97177000  1.0
  H  H36  1  0.40579000  0.14384000  0.02817000  1.0
  H  H37  1  0.59412000  0.17170000  0.97198000  1.0
  H  H38  1  0.76478000  0.48630000  0.18731000  1.0
  H  H39  1  0.23525000  0.67367000  0.81267000  1.0
  H  H40  1  0.04794000  0.98626000  0.18736000  1.0
  H  H41  1  0.95215000  0.17382000  0.81251000  1.0
  H  H42  1  0.91964000  0.80931000  0.88434000  1.0
  H  H43  1  0.08039000  0.69359000  0.11564000  1.0
  H  H44  1  0.19592000  0.30931000  0.88439000  1.0
  H  H45  1  0.80413000  0.19376000  0.11548000  1.0
  C  C46  1  0.73037000  0.83790000  0.86040000  1.0
  C  C47  1  0.26963000  0.69831000  0.13958000  1.0
  C  C48  1  0.40917000  0.33792000  0.86042000  1.0
  C  C49  1  0.59083000  0.19834000  0.13956000  1.0
  C  C50  1  0.21715000  0.97184000  0.89492000  1.0
  C  C51  1  0.78282000  0.86676000  0.10510000  1.0
  C  C52  1  0.88792000  0.47190000  0.89494000  1.0
  C  C53  1  0.11208000  0.36675000  0.10510000  1.0
  C  C54  1  0.26561000  0.04403000  0.67507000  1.0
  C  C55  1  0.73438000  0.71914000  0.32492000  1.0
  C  C56  1  0.05930000  0.54408000  0.67508000  1.0
  C  C57  1  0.94067000  0.21918000  0.32494000  1.0
  C  C58  1  0.33030000  0.00181000  0.81080000  1.0
  C  C59  1  0.66963000  0.81266000  0.18926000  1.0
  C  C60  1  0.85885000  0.50187000  0.81081000  1.0
  C  C61  1  0.14112000  0.31266000  0.18925000  1.0
  C  C62  1  0.35431000  0.03888000  0.70112000  1.0
  C  C63  1  0.64561000  0.74006000  0.29895000  1.0
  C  C64  1  0.94455000  0.53898000  0.70113000  1.0
  C  C65  1  0.05540000  0.24008000  0.29894000  1.0
  C  C66  1  0.42787000  0.98788000  0.83522000  1.0
  C  C67  1  0.57209000  0.82312000  0.16479000  1.0
  C  C68  1  0.73686000  0.48790000  0.83516000  1.0
  C  C69  1  0.26310000  0.32305000  0.16492000  1.0
  C  C70  1  0.15147000  0.01232000  0.75923000  1.0
  C  C71  1  0.84849000  0.77158000  0.24073000  1.0
  C  C72  1  0.08928000  0.51240000  0.75924000  1.0
  C  C73  1  0.91071000  0.27164000  0.24076000  1.0
  C  C74  1  0.12745000  0.97609000  0.86913000  1.0
  C  C75  1  0.87255000  0.84520000  0.13082000  1.0
  C  C76  1  0.00341000  0.47615000  0.86914000  1.0
  C  C77  1  0.99660000  0.34527000  0.13085000  1.0
  C  C78  1  0.29729000  0.07983000  0.55730000  1.0
  C  C79  1  0.70277000  0.63714000  0.44268000  1.0
  C  C80  1  0.14540000  0.57983000  0.55731000  1.0
  C  C81  1  0.85455000  0.13719000  0.44271000  1.0
  C  C82  1  0.56199000  0.44939000  0.19136000  1.0
  C  C83  1  0.43802000  0.64074000  0.80864000  1.0
  C  C84  1  0.24684000  0.94938000  0.19119000  1.0
  C  C85  1  0.75323000  0.14051000  0.80881000  1.0
  C  C86  1  0.64650000  0.64631000  0.03041000  1.0
  C  C87  1  0.35352000  0.67667000  0.96961000  1.0
  C  C88  1  0.32311000  0.14634000  0.03036000  1.0
  C  C89  1  0.67688000  0.17657000  0.96966000  1.0
  C  C90  1  0.74041000  0.73921000  0.94907000  1.0
  C  C91  1  0.25962000  0.68829000  0.05089000  1.0
  C  C92  1  0.31047000  0.23925000  0.94906000  1.0
  C  C93  1  0.68955000  0.18833000  0.05087000  1.0
  C  C94  1  0.65641000  0.55400000  0.11417000  1.0
  C  C95  1  0.34360000  0.66813000  0.88585000  1.0
  C  C96  1  0.22948000  0.05400000  0.11412000  1.0
  C  C97  1  0.77055000  0.16806000  0.88588000  1.0
  C  C98  1  0.75777000  0.55697000  0.12049000  1.0
  C  C99  1  0.24224000  0.67745000  0.87950000  1.0
  C  C100  1  0.12174000  0.05694000  0.12050000  1.0
  C  C101  1  0.87833000  0.17754000  0.87939000  1.0
  C  C102  1  0.84542000  0.73857000  0.94925000  1.0
  C  C103  1  0.15458000  0.68781000  0.05072000  1.0
  C  C104  1  0.20528000  0.23858000  0.94925000  1.0
  C  C105  1  0.79477000  0.18785000  0.05064000  1.0
  C  C106  1  0.85303000  0.64786000  0.03638000  1.0
  C  C107  1  0.14695000  0.68421000  0.96361000  1.0
  C  C108  1  0.11058000  0.14783000  0.03639000  1.0
  C  C109  1  0.88950000  0.18426000  0.96351000  1.0
  N  N110  1  0.00973000  0.93870000  0.94996000  1.0
  N  N111  1  0.99031000  0.88850000  0.04999000  1.0
  N  N112  1  0.04031000  0.43865000  0.94999000  1.0
  N  N113  1  0.95970000  0.38855000  0.05000000  1.0
  N  N114  1  0.95413000  0.64149000  0.04611000  1.0
  N  N115  1  0.04588000  0.68761000  0.95382000  1.0
  N  N116  1  0.99975000  0.14148000  0.04612000  1.0
  N  N117  1  0.00030000  0.18761000  0.95382000  1.0
  O  O118  1  0.81872000  0.90149000  0.76767000  1.0
  O  O119  1  0.18130000  0.66915000  0.23233000  1.0
  O  O120  1  0.41352000  0.40155000  0.76772000  1.0
  O  O121  1  0.58652000  0.16934000  0.23224000  1.0
  O  O122  1  0.63020000  0.85953000  0.87681000  1.0
  O  O123  1  0.36979000  0.73643000  0.12314000  1.0
  O  O124  1  0.49295000  0.35954000  0.87680000  1.0
  O  O125  1  0.50700000  0.23621000  0.12321000  1.0
  O  O126  1  0.21910000  0.07226000  0.53155000  1.0
  O  O127  1  0.78092000  0.60384000  0.46852000  1.0
  O  O128  1  0.24934000  0.57224000  0.53159000  1.0
  O  O129  1  0.75060000  0.10380000  0.46849000  1.0
  O  O130  1  0.40423000  0.11679000  0.48457000  1.0
  O  O131  1  0.59581000  0.60135000  0.51539000  1.0
  O  O132  1  0.11125000  0.61684000  0.48452000  1.0
  O  O133  1  0.88875000  0.10149000  0.51545000  1.0
  O  O134  1  0.40389000  0.95316000  0.93646000  1.0
  O  O135  1  0.59611000  0.88964000  0.06355000  1.0
  O  O136  1  0.65955000  0.45322000  0.93638000  1.0
  O  O137  1  0.34040000  0.38954000  0.06369000  1.0
  O  O138  1  0.34619000  0.02033000  0.37936000  1.0
  O  O139  1  0.65384000  0.39971000  0.62054000  1.0
  O  O140  1  0.27448000  0.52026000  0.37945000  1.0
  O  O141  1  0.72560000  0.89971000  0.62059000  1.0
  O  O142  1  0.28935000  0.31102000  0.42137000  1.0
  O  O143  1  0.71069000  0.73237000  0.57869000  1.0
  O  O144  1  0.28942000  0.81104000  0.42131000  1.0
  O  O145  1  0.71041000  0.23232000  0.57881000  1.0
  O  O146  1  0.52659000  0.00808000  0.75524000  1.0
  O  O147  1  0.47336000  0.76334000  0.24472000  1.0
  O  O148  1  0.71814000  0.50804000  0.75518000  1.0
  O  O149  1  0.28183000  0.26324000  0.24490000  1.0
  O  O150  1  0.56219000  0.37108000  0.27782000  1.0
  O  O151  1  0.43782000  0.64886000  0.72218000  1.0
  O  O152  1  0.16023000  0.87108000  0.27773000  1.0
  O  O153  1  0.83985000  0.14877000  0.72227000  1.0
  O  O154  1  0.48402000  0.43689000  0.16637000  1.0
  O  O155  1  0.51604000  0.60337000  0.83356000  1.0
  O  O156  1  0.34981000  0.93690000  0.16608000  1.0
  O  O157  1  0.65026000  0.10296000  0.83390000  1.0
