# generated using pymatgen
data_CdH12C18N2(O3F2)2
_symmetry_space_group_name_H-M   'P 1'
_cell_length_a   7.60908000
_cell_length_b   11.69020000
_cell_length_c   12.60360000
_cell_angle_alpha   90.00010000
_cell_angle_beta   90.00000000
_cell_angle_gamma   89.99950000
_symmetry_Int_Tables_number   1
_chemical_formula_structural   CdH12C18N2(O3F2)2
_chemical_formula_sum   'Cd2 H24 C36 N4 O12 F8'
_cell_volume   1121.11123036
_cell_formula_units_Z   2
loop_
 _symmetry_equiv_pos_site_id
 _symmetry_equiv_pos_as_xyz
  1  'x, y, z'
loop_
 _atom_site_type_symbol
 _atom_site_label
 _atom_site_symmetry_multiplicity
 _atom_site_fract_x
 _atom_site_fract_y
 _atom_site_fract_z
 _atom_site_occupancy
  Cd  Cd0  1  0.50000000  0.30350000  0.00000000  1.0
  Cd  Cd1  1  0.00000000  0.69650000  0.50000000  1.0
  H  H2  1  0.60476000  0.35048000  0.21225000  1.0
  H  H3  1  0.39524000  0.35048000  0.78775000  1.0
  H  H4  1  0.10476000  0.64953000  0.28775000  1.0
  H  H5  1  0.89524000  0.64953000  0.71225000  1.0
  H  H6  1  0.78753000  0.32513000  0.15215000  1.0
  H  H7  1  0.21246000  0.32513000  0.84785000  1.0
  H  H8  1  0.28754000  0.67487000  0.34785000  1.0
  H  H9  1  0.71246000  0.67487000  0.65215000  1.0
  H  H10  1  0.37052000  0.51011000  0.14436000  1.0
  H  H11  1  0.62948000  0.51010000  0.85565000  1.0
  H  H12  1  0.87052000  0.48990000  0.35565000  1.0
  H  H13  1  0.12948000  0.48990000  0.64435000  1.0
  H  H14  1  0.37233000  0.72407000  0.15343000  1.0
  H  H15  1  0.62768000  0.72406000  0.84657000  1.0
  H  H16  1  0.87233000  0.27594000  0.34657000  1.0
  H  H17  1  0.12767000  0.27594000  0.65343000  1.0
  H  H18  1  0.40707000  0.88490000  0.83844000  1.0
  H  H19  1  0.59295000  0.88490000  0.16156000  1.0
  H  H20  1  0.90706000  0.11510000  0.66156000  1.0
  H  H21  1  0.09294000  0.11510000  0.33844000  1.0
  H  H22  1  0.40947000  0.09951000  0.84527000  1.0
  H  H23  1  0.59053000  0.09951000  0.15472000  1.0
  H  H24  1  0.90947000  0.90049000  0.65473000  1.0
  H  H25  1  0.09053000  0.90049000  0.34527000  1.0
  C  C26  1  0.04751000  0.98086000  0.04720000  1.0
  C  C27  1  0.95249000  0.98086000  0.95281000  1.0
  C  C28  1  0.54750000  0.01914000  0.45280000  1.0
  C  C29  1  0.45249000  0.01914000  0.54720000  1.0
  C  C30  1  0.09575000  0.08533000  0.09206000  1.0
  C  C31  1  0.90426000  0.08533000  0.90794000  1.0
  C  C32  1  0.59575000  0.91467000  0.40794000  1.0
  C  C33  1  0.40426000  0.91467000  0.59206000  1.0
  C  C34  1  0.04957000  0.19007000  0.04727000  1.0
  C  C35  1  0.95043000  0.19007000  0.95274000  1.0
  C  C36  1  0.54957000  0.80993000  0.45273000  1.0
  C  C37  1  0.45043000  0.80993000  0.54726000  1.0
  C  C38  1  0.10185000  0.30063000  0.10384000  1.0
  C  C39  1  0.89814000  0.30063000  0.89616000  1.0
  C  C40  1  0.60186000  0.69937000  0.39616000  1.0
  C  C41  1  0.39815000  0.69937000  0.60384000  1.0
  C  C42  1  0.43003000  0.56148000  0.08174000  1.0
  C  C43  1  0.56997000  0.56148000  0.91826000  1.0
  C  C44  1  0.93003000  0.43852000  0.41826000  1.0
  C  C45  1  0.06997000  0.43852000  0.58174000  1.0
  C  C46  1  0.43003000  0.68022000  0.08558000  1.0
  C  C47  1  0.56997000  0.68021000  0.91442000  1.0
  C  C48  1  0.93003000  0.31979000  0.41442000  1.0
  C  C49  1  0.06997000  0.31979000  0.58558000  1.0
  C  C50  1  0.50000000  0.74165000  0.00000000  1.0
  C  C51  1  1.00000000  0.25835000  0.50000000  1.0
  C  C52  1  0.50000000  0.86762000  0.00000000  1.0
  C  C53  1  1.00000000  0.13238000  0.50000000  1.0
  C  C54  1  0.44972000  0.92906000  0.90973000  1.0
  C  C55  1  0.55028000  0.92906000  0.09027000  1.0
  C  C56  1  0.94972000  0.07094000  0.59027000  1.0
  C  C57  1  0.05028000  0.07094000  0.40973000  1.0
  C  C58  1  0.45001000  0.04780000  0.91301000  1.0
  C  C59  1  0.54999000  0.04780000  0.08699000  1.0
  C  C60  1  0.95001000  0.95220000  0.58699000  1.0
  C  C61  1  0.04999000  0.95220000  0.41301000  1.0
  N  N62  1  0.50000000  0.50307000  0.00001000  1.0
  N  N63  1  1.00000000  0.49693000  0.50000000  1.0
  N  N64  1  0.50000000  0.10621000  0.00000000  1.0
  N  N65  1  0.00000000  0.89379000  0.50000000  1.0
  O  O66  1  0.26447000  0.32076000  0.11444000  1.0
  O  O67  1  0.73552000  0.32076000  0.88556000  1.0
  O  O68  1  0.76448000  0.67924000  0.38556000  1.0
  O  O69  1  0.23552000  0.67924000  0.61444000  1.0
  O  O70  1  0.97978000  0.36299000  0.13910000  1.0
  O  O71  1  0.02021000  0.36298000  0.86089000  1.0
  O  O72  1  0.47978000  0.63702000  0.36089000  1.0
  O  O73  1  0.52022000  0.63701000  0.63911000  1.0
  O  O74  1  0.66046000  0.29802000  0.16269000  1.0
  O  O75  1  0.33953000  0.29802000  0.83731000  1.0
  O  O76  1  0.16046000  0.70198000  0.33731000  1.0
  O  O77  1  0.83954000  0.70198000  0.66269000  1.0
  F  F78  1  0.19150000  0.08130000  0.18323000  1.0
  F  F79  1  0.80850000  0.08129000  0.81678000  1.0
  F  F80  1  0.69150000  0.91870000  0.31677000  1.0
  F  F81  1  0.30850000  0.91870000  0.68323000  1.0
  F  F82  1  0.09241000  0.88092000  0.09366000  1.0
  F  F83  1  0.90760000  0.88092000  0.90635000  1.0
  F  F84  1  0.59240000  0.11908000  0.40634000  1.0
  F  F85  1  0.40760000  0.11908000  0.59366000  1.0
