# generated using pymatgen
data_CsH3C2(N3O)2
_symmetry_space_group_name_H-M   'P 1'
_cell_length_a   6.40825000
_cell_length_b   8.31471000
_cell_length_c   13.70620000
_cell_angle_alpha   89.99990000
_cell_angle_beta   89.99970000
_cell_angle_gamma   81.16150000
_symmetry_Int_Tables_number   1
_chemical_formula_structural   CsH3C2(N3O)2
_chemical_formula_sum   'Cs4 H12 C8 N24 O8'
_cell_volume   721.63179948
_cell_formula_units_Z   4
loop_
 _symmetry_equiv_pos_site_id
 _symmetry_equiv_pos_as_xyz
  1  'x, y, z'
loop_
 _atom_site_type_symbol
 _atom_site_label
 _atom_site_symmetry_multiplicity
 _atom_site_fract_x
 _atom_site_fract_y
 _atom_site_fract_z
 _atom_site_occupancy
  Cs  Cs0  1  0.14490000  0.59300000  0.81337000  1.0
  Cs  Cs1  1  0.35510000  0.90700000  0.31337000  1.0
  Cs  Cs2  1  0.85510000  0.40700000  0.18663000  1.0
  Cs  Cs3  1  0.64490000  0.09300000  0.68663000  1.0
  H  H4  1  0.27426000  0.03127000  0.84663000  1.0
  H  H5  1  0.22574000  0.46873000  0.34663000  1.0
  H  H6  1  0.72574000  0.96873000  0.15337000  1.0
  H  H7  1  0.77426000  0.53127000  0.65337000  1.0
  H  H8  1  0.09761000  0.21973000  0.85087000  1.0
  H  H9  1  0.40239000  0.28027000  0.35087000  1.0
  H  H10  1  0.90239000  0.78026000  0.14913000  1.0
  H  H11  1  0.59761000  0.71973000  0.64913000  1.0
  H  H12  1  0.03900000  0.04724000  0.91775000  1.0
  H  H13  1  0.46100000  0.45276000  0.41775000  1.0
  H  H14  1  0.96101000  0.95276000  0.08225000  1.0
  H  H15  1  0.53900000  0.54724000  0.58225000  1.0
  C  C16  1  0.44595000  0.24056000  0.98156000  1.0
  C  C17  1  0.05405000  0.25944000  0.48156000  1.0
  C  C18  1  0.55405000  0.75944000  0.01844000  1.0
  C  C19  1  0.94595000  0.74056000  0.51844000  1.0
  C  C20  1  0.16531000  0.11212000  0.89287000  1.0
  C  C21  1  0.33469000  0.38788000  0.39287000  1.0
  C  C22  1  0.83469000  0.88788000  0.10713000  1.0
  C  C23  1  0.66531000  0.61212000  0.60713000  1.0
  N  N24  1  0.51787000  0.28880000  0.89447000  1.0
  N  N25  1  0.98213000  0.21120000  0.39447000  1.0
  N  N26  1  0.48213000  0.71120000  0.10553000  1.0
  N  N27  1  0.01787000  0.78880000  0.60553000  1.0
  N  N28  1  0.49897000  0.25240000  0.07617000  1.0
  N  N29  1  0.00103000  0.24760000  0.57618000  1.0
  N  N30  1  0.50103000  0.74760000  0.92383000  1.0
  N  N31  1  0.99897000  0.75240000  0.42382000  1.0
  N  N32  1  0.22527000  0.12204000  0.06948000  1.0
  N  N33  1  0.27472000  0.37797000  0.56947000  1.0
  N  N34  1  0.77473000  0.87797000  0.93053000  1.0
  N  N35  1  0.72528000  0.62203000  0.43052000  1.0
  N  N36  1  0.68985000  0.36043000  0.89347000  1.0
  N  N37  1  0.81015000  0.13957000  0.39348000  1.0
  N  N38  1  0.31015000  0.63957000  0.10653000  1.0
  N  N39  1  0.18985000  0.86043000  0.60652000  1.0
  N  N40  1  0.27620000  0.15942000  0.97786000  1.0
  N  N41  1  0.22381000  0.34058000  0.47786000  1.0
  N  N42  1  0.72381000  0.84058000  0.02214000  1.0
  N  N43  1  0.77619000  0.65942000  0.52214000  1.0
  N  N44  1  0.35933000  0.17828000  0.12714000  1.0
  N  N45  1  0.14067000  0.32172000  0.62714000  1.0
  N  N46  1  0.64067000  0.82172000  0.87286000  1.0
  N  N47  1  0.85933000  0.67828000  0.37286000  1.0
  O  O48  1  0.75073000  0.39693000  0.80906000  1.0
  O  O49  1  0.74927000  0.10307000  0.30906000  1.0
  O  O50  1  0.24927000  0.60307000  0.19094000  1.0
  O  O51  1  0.25073000  0.89693000  0.69094000  1.0
  O  O52  1  0.79031000  0.39004000  0.96870000  1.0
  O  O53  1  0.70968000  0.10996000  0.46870000  1.0
  O  O54  1  0.20968000  0.60996000  0.03130000  1.0
  O  O55  1  0.29031000  0.89004000  0.53130000  1.0
