# generated using pymatgen
data_AgH8C5S3N
_symmetry_space_group_name_H-M   'P 1'
_cell_length_a   5.09194000
_cell_length_b   6.44766000
_cell_length_c   12.94230000
_cell_angle_alpha   89.99910000
_cell_angle_beta   89.99950000
_cell_angle_gamma   71.43100000
_symmetry_Int_Tables_number   1
_chemical_formula_structural   AgH8C5S3N
_chemical_formula_sum   'Ag2 H16 C10 S6 N2'
_cell_volume   402.78946646
_cell_formula_units_Z   2
loop_
 _symmetry_equiv_pos_site_id
 _symmetry_equiv_pos_as_xyz
  1  'x, y, z'
loop_
 _atom_site_type_symbol
 _atom_site_label
 _atom_site_symmetry_multiplicity
 _atom_site_fract_x
 _atom_site_fract_y
 _atom_site_fract_z
 _atom_site_occupancy
  Ag  Ag0  1  0.11537000  0.00818000  0.25000000  1.0
  Ag  Ag1  1  0.88461000  0.99181000  0.75000000  1.0
  H  H2  1  0.84215000  0.75444000  0.54507000  1.0
  H  H3  1  0.84211000  0.75445000  0.95493000  1.0
  H  H4  1  0.15787000  0.24555000  0.45492000  1.0
  H  H5  1  0.15787000  0.24557000  0.04507000  1.0
  H  H6  1  0.01191000  0.61953000  0.43083000  1.0
  H  H7  1  0.01187000  0.61955000  0.06917000  1.0
  H  H8  1  0.98811000  0.38047000  0.56917000  1.0
  H  H9  1  0.98811000  0.38047000  0.93083000  1.0
  H  H10  1  0.61479000  0.21043000  0.54619000  1.0
  H  H11  1  0.61475000  0.21045000  0.95380000  1.0
  H  H12  1  0.38525000  0.78956000  0.45381000  1.0
  H  H13  1  0.38521000  0.78956000  0.04620000  1.0
  H  H14  1  0.64571000  0.36268000  0.43331000  1.0
  H  H15  1  0.64572000  0.36269000  0.06668000  1.0
  H  H16  1  0.35431000  0.63731000  0.56669000  1.0
  H  H17  1  0.35426000  0.63732000  0.93332000  1.0
  C  C18  1  0.97588000  0.76502000  0.47989000  1.0
  C  C19  1  0.97585000  0.76505000  0.02012000  1.0
  C  C20  1  0.02413000  0.23496000  0.52012000  1.0
  C  C21  1  0.02414000  0.23497000  0.97987000  1.0
  C  C22  1  0.75018000  0.21931000  0.48130000  1.0
  C  C23  1  0.75013000  0.21936000  0.01869000  1.0
  C  C24  1  0.24985000  0.78064000  0.51868000  1.0
  C  C25  1  0.24983000  0.78066000  0.98131000  1.0
  C  C26  1  0.35209000  0.44256000  0.25001000  1.0
  C  C27  1  0.64791000  0.55744000  0.75000000  1.0
  S  S28  1  0.78304000  0.98799000  0.39719000  1.0
  S  S29  1  0.78302000  0.98803000  0.10282000  1.0
  S  S30  1  0.21699000  0.01197000  0.60282000  1.0
  S  S31  1  0.21696000  0.01199000  0.89718000  1.0
  S  S32  1  0.50541000  0.63059000  0.25000000  1.0
  S  S33  1  0.49459000  0.36940000  0.75000000  1.0
  N  N34  1  0.25054000  0.30076000  0.25001000  1.0
  N  N35  1  0.74946000  0.69925000  0.75001000  1.0
