# generated using pymatgen
data_Hg2H16C15(SBr)4
_symmetry_space_group_name_H-M   'P 1'
_cell_length_a   7.83792000
_cell_length_b   10.73030000
_cell_length_c   13.87960000
_cell_angle_alpha   83.45140000
_cell_angle_beta   84.01910000
_cell_angle_gamma   86.88730000
_symmetry_Int_Tables_number   1
_chemical_formula_structural   Hg2H16C15(SBr)4
_chemical_formula_sum   'Hg4 H32 C30 S8 Br8'
_cell_volume   1152.32711298
_cell_formula_units_Z   2
loop_
 _symmetry_equiv_pos_site_id
 _symmetry_equiv_pos_as_xyz
  1  'x, y, z'
loop_
 _atom_site_type_symbol
 _atom_site_label
 _atom_site_symmetry_multiplicity
 _atom_site_fract_x
 _atom_site_fract_y
 _atom_site_fract_z
 _atom_site_occupancy
  Hg  Hg0  1  0.79822000  0.75778000  0.16940000  1.0
  Hg  Hg1  1  0.20178000  0.24222000  0.83060000  1.0
  Hg  Hg2  1  0.45680000  0.88507000  0.67451000  1.0
  Hg  Hg3  1  0.54317000  0.11493000  0.32549000  1.0
  H  H4  1  0.39814000  0.45070000  0.35163000  1.0
  H  H5  1  0.60185000  0.54930000  0.64836000  1.0
  H  H6  1  0.25619000  0.64921000  0.39810000  1.0
  H  H7  1  0.74380000  0.35079000  0.60189000  1.0
  H  H8  1  0.74971000  0.78564000  0.43973000  1.0
  H  H9  1  0.25029000  0.21435000  0.56027000  1.0
  H  H10  1  0.88992000  0.58441000  0.39704000  1.0
  H  H11  1  0.11008000  0.41559000  0.60296000  1.0
  H  H12  1  0.45086000  0.57422000  0.13633000  1.0
  H  H13  1  0.54915000  0.42578000  0.86366000  1.0
  H  H14  1  0.19415000  0.47392000  0.09786000  1.0
  H  H15  1  0.80586000  0.52607000  0.90214000  1.0
  H  H16  1  0.99642000  0.45694000  0.25439000  1.0
  H  H17  1  0.00358000  0.54305000  0.74561000  1.0
  H  H18  1  0.95157000  0.30910000  0.21741000  1.0
  H  H19  1  0.04843000  0.69090000  0.78259000  1.0
  H  H20  1  0.75366000  0.23173000  0.09824000  1.0
  H  H21  1  0.24635000  0.76828000  0.90176000  1.0
  H  H22  1  0.49620000  0.12876000  0.06459000  1.0
  H  H23  1  0.50381000  0.87124000  0.93541000  1.0
  H  H24  1  0.16325000  0.85138000  0.36723000  1.0
  H  H25  1  0.83675000  0.14862000  0.63276000  1.0
  H  H26  1  0.12947000  0.96689000  0.45079000  1.0
  H  H27  1  0.87053000  0.03312000  0.54920000  1.0
  H  H28  1  0.11851000  0.80379000  0.49682000  1.0
  H  H29  1  0.88149000  0.19622000  0.50317000  1.0
  H  H30  1  0.27329000  0.02712000  0.02423000  1.0
  H  H31  1  0.72671000  0.97288000  0.97578000  1.0
  H  H32  1  0.05207000  0.02323000  0.07271000  1.0
  H  H33  1  0.94794000  0.97676000  0.92730000  1.0
  H  H34  1  0.21125000  0.04470000  0.15108000  1.0
  H  H35  1  0.78876000  0.95530000  0.84893000  1.0
  C  C36  1  0.47471000  0.52398000  0.37148000  1.0
  C  C37  1  0.52528000  0.47602000  0.62851000  1.0
  C  C38  1  0.65267000  0.50472000  0.37118000  1.0
  C  C39  1  0.34732000  0.49528000  0.62882000  1.0
  C  C40  1  0.39480000  0.63603000  0.39794000  1.0
  C  C41  1  0.60519000  0.36397000  0.60206000  1.0
  C  C42  1  0.67257000  0.71211000  0.42103000  1.0
  C  C43  1  0.32742000  0.28789000  0.57897000  1.0
  C  C44  1  0.75129000  0.59928000  0.39648000  1.0
  C  C45  1  0.24871000  0.40072000  0.60352000  1.0
  C  C46  1  0.46100000  0.47682000  0.12022000  1.0
  C  C47  1  0.53901000  0.52319000  0.87977000  1.0
  C  C48  1  0.31616000  0.42006000  0.09854000  1.0
  C  C49  1  0.68384000  0.57994000  0.90145000  1.0
  C  C50  1  0.89367000  0.39901000  0.23830000  1.0
  C  C51  1  0.10633000  0.60099000  0.76171000  1.0
  C  C52  1  0.61911000  0.40948000  0.11997000  1.0
  C  C53  1  0.38090000  0.59052000  0.88003000  1.0
  C  C54  1  0.49324000  0.73062000  0.42243000  1.0
  C  C55  1  0.50676000  0.26939000  0.57757000  1.0
  C  C56  1  0.32708000  0.29460000  0.07814000  1.0
  C  C57  1  0.67293000  0.70539000  0.92186000  1.0
  C  C58  1  0.63035000  0.28398000  0.09981000  1.0
  C  C59  1  0.36967000  0.71602000  0.90019000  1.0
  C  C60  1  0.48483000  0.22627000  0.07981000  1.0
  C  C61  1  0.51518000  0.77373000  0.92019000  1.0
  C  C62  1  0.18135000  0.87176000  0.44110000  1.0
  C  C63  1  0.81865000  0.12824000  0.55890000  1.0
  C  C64  1  0.17525000  0.06521000  0.07651000  1.0
  C  C65  1  0.82476000  0.93479000  0.92349000  1.0
  S  S66  1  0.13765000  0.23196000  0.04918000  1.0
  S  S67  1  0.86236000  0.76804000  0.95083000  1.0
  S  S68  1  0.40593000  0.87549000  0.45546000  1.0
  S  S69  1  0.59406000  0.12451000  0.54454000  1.0
  S  S70  1  0.74869000  0.35793000  0.34558000  1.0
  S  S71  1  0.25130000  0.64207000  0.65442000  1.0
  S  S72  1  0.80535000  0.48853000  0.13432000  1.0
  S  S73  1  0.19466000  0.51147000  0.86568000  1.0
  Br  Br74  1  0.75652000  0.79538000  0.66099000  1.0
  Br  Br75  1  0.24346000  0.20463000  0.33901000  1.0
  Br  Br76  1  0.50503000  0.85776000  0.16590000  1.0
  Br  Br77  1  0.49497000  0.14224000  0.83410000  1.0
  Br  Br78  1  0.10583000  0.71537000  0.20037000  1.0
  Br  Br79  1  0.89417000  0.28463000  0.79963000  1.0
  Br  Br80  1  0.15599000  0.96732000  0.71081000  1.0
  Br  Br81  1  0.84399000  0.03267000  0.28919000  1.0
