# generated using pymatgen
data_CeH19(C17O4)2
_symmetry_space_group_name_H-M   'P 1'
_cell_length_a   9.33908000
_cell_length_b   12.07660000
_cell_length_c   15.96980000
_cell_angle_alpha   87.99800000
_cell_angle_beta   73.17000000
_cell_angle_gamma   70.25810000
_symmetry_Int_Tables_number   1
_chemical_formula_structural   CeH19(C17O4)2
_chemical_formula_sum   'Ce2 H38 C68 O16'
_cell_volume   1618.71135502
_cell_formula_units_Z   2
loop_
 _symmetry_equiv_pos_site_id
 _symmetry_equiv_pos_as_xyz
  1  'x, y, z'
loop_
 _atom_site_type_symbol
 _atom_site_label
 _atom_site_symmetry_multiplicity
 _atom_site_fract_x
 _atom_site_fract_y
 _atom_site_fract_z
 _atom_site_occupancy
  Ce  Ce0  1  0.29467000  0.97292000  0.01886000  1.0
  Ce  Ce1  1  0.70536000  0.02687000  0.98141000  1.0
  H  H2  1  0.99186000  0.79941000  0.04499000  1.0
  H  H3  1  0.34835000  0.28019000  0.51353000  1.0
  H  H4  1  0.16376000  0.71264000  0.51614000  1.0
  H  H5  1  0.07726000  0.49643000  0.32884000  1.0
  H  H6  1  0.02515000  0.59704000  0.19761000  1.0
  H  H7  1  0.20089000  0.86341000  0.25427000  1.0
  H  H8  1  0.26450000  0.75831000  0.38234000  1.0
  H  H9  1  0.45616000  0.40840000  0.26804000  1.0
  H  H10  1  0.48732000  0.26857000  0.14895000  1.0
  H  H11  1  0.15892000  0.12806000  0.32610000  1.0
  H  H12  1  0.13453000  0.26416000  0.44806000  1.0
  H  H13  1  0.23626000  0.23774000  0.64239000  1.0
  H  H14  1  0.29182000  0.12647000  0.76932000  1.0
  H  H15  1  0.48695000  0.37586000  0.83317000  1.0
  H  H16  1  0.42772000  0.48998000  0.70753000  1.0
  H  H17  1  0.04683000  0.55834000  0.75402000  1.0
  H  H18  1  0.98364000  0.68892000  0.88575000  1.0
  H  H19  1  0.28230000  0.87408000  0.73601000  1.0
  H  H20  1  0.33633000  0.74890000  0.60175000  1.0
  H  H21  1  0.00992000  0.19929000  0.95432000  1.0
  H  H22  1  0.65116000  0.71995000  0.48649000  1.0
  H  H23  1  0.83703000  0.28746000  0.48393000  1.0
  H  H24  1  0.92316000  0.50355000  0.67129000  1.0
  H  H25  1  0.97613000  0.40224000  0.80210000  1.0
  H  H26  1  0.79751000  0.13728000  0.74599000  1.0
  H  H27  1  0.73341000  0.24298000  0.61820000  1.0
  H  H28  1  0.54284000  0.59200000  0.73175000  1.0
  H  H29  1  0.51119000  0.73177000  0.85098000  1.0
  H  H30  1  0.84072000  0.87190000  0.67434000  1.0
  H  H31  1  0.86537000  0.73591000  0.55221000  1.0
  H  H32  1  0.76493000  0.76161000  0.35717000  1.0
  H  H33  1  0.70941000  0.87264000  0.23004000  1.0
  H  H34  1  0.51157000  0.62422000  0.16753000  1.0
  H  H35  1  0.57116000  0.51025000  0.29319000  1.0
  H  H36  1  0.95427000  0.44155000  0.24608000  1.0
  H  H37  1  0.01723000  0.31131000  0.11423000  1.0
  H  H38  1  0.71729000  0.12679000  0.26358000  1.0
  H  H39  1  0.66377000  0.25152000  0.39799000  1.0
  C  C40  1  0.22278000  0.55260000  0.43862000  1.0
  C  C41  1  0.27201000  0.42775000  0.43991000  1.0
  C  C42  1  0.30402000  0.37622000  0.51523000  1.0
  C  C43  1  0.28766000  0.44006000  0.59114000  1.0
  C  C44  1  0.23548000  0.56492000  0.59053000  1.0
  C  C45  1  0.20848000  0.61658000  0.51421000  1.0
  C  C46  1  0.17959000  0.61728000  0.36419000  1.0
  C  C47  1  0.10873000  0.57480000  0.31160000  1.0
  C  C48  1  0.07782000  0.63145000  0.23853000  1.0
  C  C49  1  0.11212000  0.73533000  0.21691000  1.0
  C  C50  1  0.17501000  0.78252000  0.27113000  1.0
  C  C51  1  0.20854000  0.72377000  0.34334000  1.0
  C  C52  1  0.08139000  0.79539000  0.13905000  1.0
  C  C53  1  0.29304000  0.34617000  0.36645000  1.0
  C  C54  1  0.39172000  0.34654000  0.28144000  1.0
  C  C55  1  0.40848000  0.26880000  0.21425000  1.0
  C  C56  1  0.32410000  0.18998000  0.23009000  1.0
  C  C57  1  0.22600000  0.18828000  0.31494000  1.0
  C  C58  1  0.21267000  0.26425000  0.38243000  1.0
  C  C59  1  0.33284000  0.11069000  0.15845000  1.0
  C  C60  1  0.32609000  0.37357000  0.66593000  1.0
  C  C61  1  0.29279000  0.26817000  0.68328000  1.0
  C  C62  1  0.32272000  0.20576000  0.75464000  1.0
  C  C63  1  0.39080000  0.24502000  0.80991000  1.0
  C  C64  1  0.43015000  0.34717000  0.79153000  1.0
  C  C65  1  0.39687000  0.41071000  0.72109000  1.0
  C  C66  1  0.42213000  0.17641000  0.88596000  1.0
  C  C67  1  0.19738000  0.64371000  0.66886000  1.0
  C  C68  1  0.09695000  0.62839000  0.74955000  1.0
  C  C69  1  0.06217000  0.70078000  0.82344000  1.0
  C  C70  1  0.13146000  0.78822000  0.81923000  1.0
  C  C71  1  0.22877000  0.80610000  0.73890000  1.0
  C  C72  1  0.25859000  0.73597000  0.66407000  1.0
  C  C73  1  0.10495000  0.85606000  0.90148000  1.0
  C  C74  1  0.77718000  0.44765000  0.56148000  1.0
  C  C75  1  0.72776000  0.57246000  0.56016000  1.0
  C  C76  1  0.69576000  0.62392000  0.48483000  1.0
  C  C77  1  0.71242000  0.55994000  0.40894000  1.0
  C  C78  1  0.76500000  0.43510000  0.40950000  1.0
  C  C79  1  0.79198000  0.38351000  0.48584000  1.0
  C  C80  1  0.82017000  0.38305000  0.63598000  1.0
  C  C81  1  0.89165000  0.42515000  0.68840000  1.0
  C  C82  1  0.92293000  0.36818000  0.76129000  1.0
  C  C83  1  0.88816000  0.26449000  0.78292000  1.0
  C  C84  1  0.82416000  0.21787000  0.72901000  1.0
  C  C85  1  0.79037000  0.27689000  0.65695000  1.0
  C  C86  1  0.91931000  0.20405000  0.86059000  1.0
  C  C87  1  0.70659000  0.65400000  0.63365000  1.0
  C  C88  1  0.60756000  0.65366000  0.71854000  1.0
  C  C89  1  0.59058000  0.73134000  0.78581000  1.0
  C  C90  1  0.67524000  0.80997000  0.77013000  1.0
  C  C91  1  0.77364000  0.81168000  0.68537000  1.0
  C  C92  1  0.78709000  0.73582000  0.61779000  1.0
  C  C93  1  0.66652000  0.88907000  0.84186000  1.0
  C  C94  1  0.67397000  0.62629000  0.33413000  1.0
  C  C95  1  0.70795000  0.73138000  0.31644000  1.0
  C  C96  1  0.67814000  0.79354000  0.24497000  1.0
  C  C97  1  0.60939000  0.75440000  0.19001000  1.0
  C  C98  1  0.56919000  0.65266000  0.20881000  1.0
  C  C99  1  0.60250000  0.58927000  0.27931000  1.0
  C  C100  1  0.57799000  0.82305000  0.11399000  1.0
  C  C101  1  0.80317000  0.35643000  0.33107000  1.0
  C  C102  1  0.90370000  0.37177000  0.25044000  1.0
  C  C103  1  0.93834000  0.29958000  0.17646000  1.0
  C  C104  1  0.86872000  0.21239000  0.18051000  1.0
  C  C105  1  0.77109000  0.19459000  0.26076000  1.0
  C  C106  1  0.74153000  0.26445000  0.33568000  1.0
  C  C107  1  0.89547000  0.14442000  0.09828000  1.0
  O  O108  1  0.11273000  0.88683000  0.11672000  1.0
  O  O109  1  0.01629000  0.74678000  0.09382000  1.0
  O  O110  1  0.23812000  0.05295000  0.17187000  1.0
  O  O111  1  0.43384000  0.10317000  0.08179000  1.0
  O  O112  1  0.53573000  0.17977000  0.91347000  1.0
  O  O113  1  0.33293000  0.11532000  0.91788000  1.0
  O  O114  1  0.21640000  0.88691000  0.91134000  1.0
  O  O115  1  0.97029000  0.87495000  0.96113000  1.0
  O  O116  1  0.88703000  0.11300000  0.88304000  1.0
  O  O117  1  0.98570000  0.25193000  0.90545000  1.0
  O  O118  1  0.76128000  0.94678000  0.82849000  1.0
  O  O119  1  0.56566000  0.89645000  0.91852000  1.0
  O  O120  1  0.46430000  0.81986000  0.08653000  1.0
  O  O121  1  0.66728000  0.88411000  0.08210000  1.0
  O  O122  1  0.78386000  0.11388000  0.08829000  1.0
  O  O123  1  0.03044000  0.12498000  0.03883000  1.0
