# generated using pymatgen
data_ZnH12C18S2N3O4
_symmetry_space_group_name_H-M   'P 1'
_cell_length_a   8.10212000
_cell_length_b   10.47220000
_cell_length_c   12.05320000
_cell_angle_alpha   70.17130000
_cell_angle_beta   76.39370000
_cell_angle_gamma   81.55800000
_symmetry_Int_Tables_number   1
_chemical_formula_structural   ZnH12C18S2N3O4
_chemical_formula_sum   'Zn2 H24 C36 S4 N6 O8'
_cell_volume   932.53025436
_cell_formula_units_Z   2
loop_
 _symmetry_equiv_pos_site_id
 _symmetry_equiv_pos_as_xyz
  1  'x, y, z'
loop_
 _atom_site_type_symbol
 _atom_site_label
 _atom_site_symmetry_multiplicity
 _atom_site_fract_x
 _atom_site_fract_y
 _atom_site_fract_z
 _atom_site_occupancy
  Zn  Zn0  1  0.38875000  0.45574000  0.44284000  1.0
  Zn  Zn1  1  0.61125000  0.54425000  0.55716000  1.0
  H  H2  1  0.04913000  0.24807000  0.51415000  1.0
  H  H3  1  0.95089000  0.75194000  0.48584000  1.0
  H  H4  1  0.27848000  0.08856000  0.44561000  1.0
  H  H5  1  0.72153000  0.91144000  0.55438000  1.0
  H  H6  1  0.75971000  0.19573000  0.27702000  1.0
  H  H7  1  0.24030000  0.80430000  0.72296000  1.0
  H  H8  1  0.42380000  0.29677000  0.89393000  1.0
  H  H9  1  0.57619000  0.70323000  0.10607000  1.0
  H  H10  1  0.18762000  0.06870000  0.74401000  1.0
  H  H11  1  0.81235000  0.93130000  0.25600000  1.0
  H  H12  1  0.13532000  0.89346000  0.94600000  1.0
  H  H13  1  0.86466000  0.10654000  0.05401000  1.0
  H  H14  1  0.46842000  0.34105000  0.24133000  1.0
  H  H15  1  0.53159000  0.65895000  0.75866000  1.0
  H  H16  1  0.36243000  0.37943000  0.05272000  1.0
  H  H17  1  0.63758000  0.62056000  0.94727000  1.0
  H  H18  1  0.94407000  0.63369000  0.18154000  1.0
  H  H19  1  0.05594000  0.36630000  0.81846000  1.0
  H  H20  1  0.06329000  0.58055000  0.36595000  1.0
  H  H21  1  0.93672000  0.41944000  0.63405000  1.0
  H  H22  1  0.03090000  0.65173000  0.95664000  1.0
  H  H23  1  0.96909000  0.34827000  0.04337000  1.0
  H  H24  1  0.17525000  0.52322000  0.91523000  1.0
  H  H25  1  0.82475000  0.47678000  0.08476000  1.0
  C  C26  1  0.74294000  0.32867000  0.43799000  1.0
  C  C27  1  0.25706000  0.67133000  0.56200000  1.0
  C  C28  1  0.88549000  0.23474000  0.40019000  1.0
  C  C29  1  0.11453000  0.76528000  0.59980000  1.0
  C  C30  1  0.03451000  0.20400000  0.44743000  1.0
  C  C31  1  0.96550000  0.79602000  0.55256000  1.0
  C  C32  1  0.16225000  0.11570000  0.40927000  1.0
  C  C33  1  0.83776000  0.88431000  0.59072000  1.0
  C  C34  1  0.13740000  0.06172000  0.32280000  1.0
  C  C35  1  0.86261000  0.93829000  0.67719000  1.0
  C  C36  1  0.87444000  0.17468000  0.31505000  1.0
  C  C37  1  0.12557000  0.82533000  0.68493000  1.0
  C  C38  1  0.25082000  0.00678000  0.02676000  1.0
  C  C39  1  0.74916000  0.99321000  0.97325000  1.0
  C  C40  1  0.35776000  0.20841000  0.90455000  1.0
  C  C41  1  0.64222000  0.79159000  0.09546000  1.0
  C  C42  1  0.31314000  0.19607000  0.80343000  1.0
  C  C43  1  0.68683000  0.80394000  0.19659000  1.0
  C  C44  1  0.22912000  0.08151000  0.81902000  1.0
  C  C45  1  0.77085000  0.91850000  0.18100000  1.0
  C  C46  1  0.19927000  0.98395000  0.93186000  1.0
  C  C47  1  0.80071000  0.01605000  0.06815000  1.0
  C  C48  1  0.36024000  0.30187000  0.68404000  1.0
  C  C49  1  0.63974000  0.69812000  0.31598000  1.0
  C  C50  1  0.35222000  0.40469000  0.22367000  1.0
  C  C51  1  0.64779000  0.59531000  0.77633000  1.0
  C  C52  1  0.29315000  0.42785000  0.11881000  1.0
  C  C53  1  0.70686000  0.57214000  0.88119000  1.0
  C  C54  1  0.14519000  0.51319000  0.09981000  1.0
  C  C55  1  0.85481000  0.48681000  0.90018000  1.0
  C  C56  1  0.06007000  0.56713000  0.19109000  1.0
  C  C57  1  0.93993000  0.43286000  0.80890000  1.0
  C  C58  1  0.12561000  0.53865000  0.29407000  1.0
  C  C59  1  0.87441000  0.46134000  0.70593000  1.0
  C  C60  1  0.07552000  0.54345000  0.98799000  1.0
  C  C61  1  0.92447000  0.45655000  0.01201000  1.0
  S  S62  1  0.30480000  0.94902000  0.27766000  1.0
  S  S63  1  0.69520000  0.05097000  0.72234000  1.0
  S  S64  1  0.21227000  0.87891000  0.16964000  1.0
  S  S65  1  0.78772000  0.12108000  0.83037000  1.0
  N  N66  1  0.27085000  0.46008000  0.30947000  1.0
  N  N67  1  0.72916000  0.53992000  0.69053000  1.0
  N  N68  1  0.99786000  0.09120000  0.27535000  1.0
  N  N69  1  0.00215000  0.90881000  0.72463000  1.0
  N  N70  1  0.32487000  0.11774000  0.01468000  1.0
  N  N71  1  0.67512000  0.88225000  0.98533000  1.0
  O  O72  1  0.60070000  0.32786000  0.41032000  1.0
  O  O73  1  0.39931000  0.67213000  0.58969000  1.0
  O  O74  1  0.77555000  0.40267000  0.49388000  1.0
  O  O75  1  0.22445000  0.59733000  0.50612000  1.0
  O  O76  1  0.46420000  0.38474000  0.67845000  1.0
  O  O77  1  0.53582000  0.61525000  0.32158000  1.0
  O  O78  1  0.29475000  0.30263000  0.59718000  1.0
  O  O79  1  0.70525000  0.69738000  0.40284000  1.0
