# generated using pymatgen
data_SrCuH12C14N2O11
_symmetry_space_group_name_H-M   'P 1'
_cell_length_a   6.68243000
_cell_length_b   10.60650000
_cell_length_c   14.01430000
_cell_angle_alpha   96.19460000
_cell_angle_beta   103.01000000
_cell_angle_gamma   92.84100000
_symmetry_Int_Tables_number   1
_chemical_formula_structural   SrCuH12C14N2O11
_chemical_formula_sum   'Sr2 Cu2 H24 C28 N4 O22'
_cell_volume   959.34547409
_cell_formula_units_Z   2
loop_
 _symmetry_equiv_pos_site_id
 _symmetry_equiv_pos_as_xyz
  1  'x, y, z'
loop_
 _atom_site_type_symbol
 _atom_site_label
 _atom_site_symmetry_multiplicity
 _atom_site_fract_x
 _atom_site_fract_y
 _atom_site_fract_z
 _atom_site_occupancy
  Sr  Sr0  1  0.58626000  0.41281000  0.85963000  1.0
  Sr  Sr1  1  0.41376000  0.58710000  0.14039000  1.0
  Cu  Cu2  1  0.00001000  0.00002000  0.00001000  1.0
  Cu  Cu3  1  0.00002000  0.49999000  0.49999000  1.0
  H  H4  1  0.77800000  0.80505000  0.61625000  1.0
  H  H5  1  0.22200000  0.19495000  0.38377000  1.0
  H  H6  1  0.48658000  0.88470000  0.49686000  1.0
  H  H7  1  0.51345000  0.11529000  0.50315000  1.0
  H  H8  1  0.14687000  0.75045000  0.44516000  1.0
  H  H9  1  0.85316000  0.24954000  0.55484000  1.0
  H  H10  1  0.02645000  0.35746000  0.80970000  1.0
  H  H11  1  0.97359000  0.64253000  0.19032000  1.0
  H  H12  1  0.93750000  0.22724000  0.83317000  1.0
  H  H13  1  0.06252000  0.77278000  0.16688000  1.0
  H  H14  1  0.96830000  0.45756000  0.05455000  1.0
  H  H15  1  0.03174000  0.54280000  0.94489000  1.0
  H  H16  1  0.99778000  0.32116000  0.00803000  1.0
  H  H17  1  0.00199000  0.67879000  0.99213000  1.0
  H  H18  1  0.44026000  0.22930000  0.21651000  1.0
  H  H19  1  0.55974000  0.77071000  0.78349000  1.0
  H  H20  1  0.73305000  0.11820000  0.30947000  1.0
  H  H21  1  0.26695000  0.88181000  0.69053000  1.0
  H  H22  1  0.12179000  0.52952000  0.75807000  1.0
  H  H23  1  0.87818000  0.47053000  0.24194000  1.0
  H  H24  1  0.23015000  0.56208000  0.87114000  1.0
  H  H25  1  0.77040000  0.43802000  0.12882000  1.0
  H  H26  1  0.97904000  0.01853000  0.21484000  1.0
  H  H27  1  0.02095000  0.98148000  0.78516000  1.0
  C  C28  1  0.41055000  0.56518000  0.59456000  1.0
  C  C29  1  0.58947000  0.43481000  0.40545000  1.0
  C  C30  1  0.60224000  0.63437000  0.62910000  1.0
  C  C31  1  0.39778000  0.36563000  0.37092000  1.0
  C  C32  1  0.62840000  0.75115000  0.59301000  1.0
  C  C33  1  0.37162000  0.24884000  0.40700000  1.0
  C  C34  1  0.46708000  0.79588000  0.52729000  1.0
  C  C35  1  0.53294000  0.20411000  0.47272000  1.0
  C  C36  1  0.27942000  0.72289000  0.49760000  1.0
  C  C37  1  0.72060000  0.27710000  0.50240000  1.0
  C  C38  1  0.35730000  0.43240000  0.61725000  1.0
  C  C39  1  0.64271000  0.56760000  0.38276000  1.0
  C  C40  1  0.78161000  0.59325000  0.70382000  1.0
  C  C41  1  0.21841000  0.40675000  0.29621000  1.0
  C  C42  1  0.66265000  0.12801000  0.03135000  1.0
  C  C43  1  0.33732000  0.87199000  0.96865000  1.0
  C  C44  1  0.52329000  0.18892000  0.07789000  1.0
  C  C45  1  0.47668000  0.81107000  0.92210000  1.0
  C  C46  1  0.54864000  0.18357000  0.17937000  1.0
  C  C47  1  0.45135000  0.81644000  0.82062000  1.0
  C  C48  1  0.71135000  0.12271000  0.23059000  1.0
  C  C49  1  0.28864000  0.87730000  0.76941000  1.0
  C  C50  1  0.84735000  0.06706000  0.17951000  1.0
  C  C51  1  0.15264000  0.93295000  0.82049000  1.0
  C  C52  1  0.65418000  0.12271000  0.92265000  1.0
  C  C53  1  0.34580000  0.87726000  0.07734000  1.0
  C  C54  1  0.35398000  0.26582000  0.02750000  1.0
  C  C55  1  0.64594000  0.73415000  0.97249000  1.0
  N  N56  1  0.25532000  0.61130000  0.53139000  1.0
  N  N57  1  0.74470000  0.38870000  0.46861000  1.0
  N  N58  1  0.82072000  0.07000000  0.08235000  1.0
  N  N59  1  0.17926000  0.93000000  0.91765000  1.0
  O  O60  1  0.17568000  0.38289000  0.57334000  1.0
  O  O61  1  0.82435000  0.61711000  0.42667000  1.0
  O  O62  1  0.48738000  0.37708000  0.67329000  1.0
  O  O63  1  0.51265000  0.62292000  0.32674000  1.0
  O  O64  1  0.75861000  0.58808000  0.79061000  1.0
  O  O65  1  0.24143000  0.41189000  0.20943000  1.0
  O  O66  1  0.94537000  0.57683000  0.67418000  1.0
  O  O67  1  0.05467000  0.42320000  0.32586000  1.0
  O  O68  1  0.79616000  0.06347000  0.89191000  1.0
  O  O69  1  0.20384000  0.93651000  0.10809000  1.0
  O  O70  1  0.51696000  0.17696000  0.86910000  1.0
  O  O71  1  0.48302000  0.82299000  0.13088000  1.0
  O  O72  1  0.40895000  0.37875000  0.01566000  1.0
  O  O73  1  0.59090000  0.62122000  0.98429000  1.0
  O  O74  1  0.17109000  0.21701000  0.00838000  1.0
  O  O75  1  0.82886000  0.78294000  0.99164000  1.0
  O  O76  1  0.89895000  0.30185000  0.80003000  1.0
  O  O77  1  0.10108000  0.69816000  0.19999000  1.0
  O  O78  1  0.89091000  0.38496000  0.01087000  1.0
  O  O79  1  0.10875000  0.61489000  0.98932000  1.0
  O  O80  1  0.22394000  0.49789000  0.81436000  1.0
  O  O81  1  0.77605000  0.50210000  0.18563000  1.0
