# generated using pymatgen
data_PrH10C11NO7
_symmetry_space_group_name_H-M   'P 1'
_cell_length_a   7.78706000
_cell_length_b   8.14818000
_cell_length_c   10.16550000
_cell_angle_alpha   82.09860000
_cell_angle_beta   83.97970000
_cell_angle_gamma   70.45660000
_symmetry_Int_Tables_number   1
_chemical_formula_structural   PrH10C11NO7
_chemical_formula_sum   'Pr2 H20 C22 N2 O14'
_cell_volume   600.87452972
_cell_formula_units_Z   2
loop_
 _symmetry_equiv_pos_site_id
 _symmetry_equiv_pos_as_xyz
  1  'x, y, z'
loop_
 _atom_site_type_symbol
 _atom_site_label
 _atom_site_symmetry_multiplicity
 _atom_site_fract_x
 _atom_site_fract_y
 _atom_site_fract_z
 _atom_site_occupancy
  Pr  Pr0  1  0.23100000  0.09001000  0.53424000  1.0
  Pr  Pr1  1  0.76899000  0.90999000  0.46576000  1.0
  H  H2  1  0.86577000  0.08238000  0.84417000  1.0
  H  H3  1  0.13423000  0.91761000  0.15583000  1.0
  H  H4  1  0.91176000  0.18348000  0.04819000  1.0
  H  H5  1  0.08824000  0.81652000  0.95181000  1.0
  H  H6  1  0.32773000  0.34031000  0.14705000  1.0
  H  H7  1  0.67227000  0.65969000  0.85295000  1.0
  H  H8  1  0.28773000  0.23780000  0.94011000  1.0
  H  H9  1  0.71227000  0.76220000  0.05989000  1.0
  H  H10  1  0.37471000  0.53557000  0.24135000  1.0
  H  H11  1  0.62529000  0.46443000  0.75865000  1.0
  H  H12  1  0.52975000  0.54291000  0.35260000  1.0
  H  H13  1  0.47025000  0.45709000  0.64740000  1.0
  H  H14  1  0.78816000  0.51572000  0.27218000  1.0
  H  H15  1  0.21183000  0.48428000  0.72782000  1.0
  H  H16  1  0.88387000  0.41444000  0.12815000  1.0
  H  H17  1  0.11613000  0.58556000  0.87185000  1.0
  H  H18  1  0.86048000  0.39320000  0.58469000  1.0
  H  H19  1  0.13952000  0.60680000  0.41531000  1.0
  H  H20  1  0.83889000  0.20840000  0.64163000  1.0
  H  H21  1  0.16111000  0.79159000  0.35837000  1.0
  C  C22  1  0.57156000  0.16331000  0.87260000  1.0
  C  C23  1  0.42844000  0.83669000  0.12740000  1.0
  C  C24  1  0.74730000  0.14349000  0.90870000  1.0
  C  C25  1  0.25270000  0.85651000  0.09130000  1.0
  C  C26  1  0.77309000  0.20235000  0.02418000  1.0
  C  C27  1  0.22691000  0.79765000  0.97582000  1.0
  C  C28  1  0.62179000  0.28696000  0.10875000  1.0
  C  C29  1  0.37821000  0.71304000  0.89125000  1.0
  C  C30  1  0.44661000  0.28981000  0.07969000  1.0
  C  C31  1  0.55339000  0.71018000  0.92032000  1.0
  C  C32  1  0.42359000  0.23057000  0.96359000  1.0
  C  C33  1  0.57641000  0.76943000  0.03641000  1.0
  C  C34  1  0.54176000  0.12619000  0.74033000  1.0
  C  C35  1  0.45824000  0.87381000  0.25966000  1.0
  C  C36  1  0.49119000  0.45345000  0.29931000  1.0
  C  C37  1  0.50881000  0.54655000  0.70069000  1.0
  C  C38  1  0.41979000  0.33623000  0.40379000  1.0
  C  C39  1  0.58020000  0.66377000  0.59621000  1.0
  C  C40  1  0.81567000  0.39404000  0.22642000  1.0
  C  C41  1  0.18432000  0.60596000  0.77358000  1.0
  C  C42  1  0.95234000  0.25259000  0.31236000  1.0
  C  C43  1  0.04766000  0.74741000  0.68764000  1.0
  N  N44  1  0.64475000  0.36693000  0.21327000  1.0
  N  N45  1  0.35525000  0.63307000  0.78673000  1.0
  O  O46  1  0.67866000  0.09455000  0.65268000  1.0
  O  O47  1  0.32134000  0.90545000  0.34732000  1.0
  O  O48  1  0.38118000  0.13577000  0.71502000  1.0
  O  O49  1  0.61882000  0.86423000  0.28498000  1.0
  O  O50  1  0.28248000  0.40706000  0.48002000  1.0
  O  O51  1  0.71752000  0.59294000  0.51998000  1.0
  O  O52  1  0.49384000  0.16980000  0.41047000  1.0
  O  O53  1  0.50616000  0.83020000  0.58953000  1.0
  O  O54  1  0.91497000  0.11728000  0.36904000  1.0
  O  O55  1  0.08503000  0.88272000  0.63096000  1.0
  O  O56  1  0.09778000  0.28141000  0.32846000  1.0
  O  O57  1  0.90222000  0.71859000  0.67154000  1.0
  O  O58  1  0.92958000  0.27231000  0.62374000  1.0
  O  O59  1  0.07042000  0.72769000  0.37626000  1.0
