# generated using pymatgen
data_ZnPH9C4N4O3
_symmetry_space_group_name_H-M   'P 1'
_cell_length_a   8.96107000
_cell_length_b   9.64284000
_cell_length_c   10.72600000
_cell_angle_alpha   106.32600000
_cell_angle_beta   89.99990000
_cell_angle_gamma   90.00000000
_symmetry_Int_Tables_number   1
_chemical_formula_structural   ZnPH9C4N4O3
_chemical_formula_sum   'Zn4 P4 H36 C16 N16 O12'
_cell_volume   889.46340679
_cell_formula_units_Z   4
loop_
 _symmetry_equiv_pos_site_id
 _symmetry_equiv_pos_as_xyz
  1  'x, y, z'
loop_
 _atom_site_type_symbol
 _atom_site_label
 _atom_site_symmetry_multiplicity
 _atom_site_fract_x
 _atom_site_fract_y
 _atom_site_fract_z
 _atom_site_occupancy
  Zn  Zn0  1  0.03885000  0.21464000  0.65203000  1.0
  Zn  Zn1  1  0.53885000  0.28536000  0.34797000  1.0
  Zn  Zn2  1  0.96115000  0.78536000  0.34797000  1.0
  Zn  Zn3  1  0.46115000  0.71464000  0.65203000  1.0
  P  P4  1  0.31077000  0.39429000  0.57119000  1.0
  P  P5  1  0.81077000  0.10571000  0.42881000  1.0
  P  P6  1  0.68923000  0.60571000  0.42881000  1.0
  P  P7  1  0.18923000  0.89429000  0.57119000  1.0
  H  H8  1  0.03414000  0.26430000  0.17858000  1.0
  H  H9  1  0.53414000  0.23570000  0.82142000  1.0
  H  H10  1  0.96586000  0.73570000  0.82142000  1.0
  H  H11  1  0.46586000  0.76430000  0.17858000  1.0
  H  H12  1  0.83920000  0.28667000  0.20779000  1.0
  H  H13  1  0.33920000  0.21333000  0.79221000  1.0
  H  H14  1  0.16080000  0.71333000  0.79221000  1.0
  H  H15  1  0.66080000  0.78667000  0.20779000  1.0
  H  H16  1  0.95457000  0.44077000  0.23611000  1.0
  H  H17  1  0.45457000  0.05923000  0.76389000  1.0
  H  H18  1  0.04543000  0.55923000  0.76389000  1.0
  H  H19  1  0.54543000  0.94077000  0.23611000  1.0
  H  H20  1  0.77690000  0.42213000  0.68258000  1.0
  H  H21  1  0.27690000  0.07787000  0.31742000  1.0
  H  H22  1  0.22311000  0.57787000  0.31742000  1.0
  H  H23  1  0.72310000  0.92213000  0.68258000  1.0
  H  H24  1  0.73523000  0.57095000  0.82251000  1.0
  H  H25  1  0.23523000  0.92905000  0.17749000  1.0
  H  H26  1  0.26477000  0.42905000  0.17749000  1.0
  H  H27  1  0.76477000  0.07095000  0.82251000  1.0
  H  H28  1  0.61615000  0.42079000  0.77924000  1.0
  H  H29  1  0.11615000  0.07921000  0.22076000  1.0
  H  H30  1  0.38385000  0.57921000  0.22076000  1.0
  H  H31  1  0.88385000  0.92079000  0.77924000  1.0
  H  H32  1  0.61345000  0.41779000  0.08120000  1.0
  H  H33  1  0.11345000  0.08221000  0.91880000  1.0
  H  H34  1  0.38655000  0.58221000  0.91880000  1.0
  H  H35  1  0.88655000  0.91779000  0.08120000  1.0
  H  H36  1  0.73378000  0.54748000  0.15524000  1.0
  H  H37  1  0.23378000  0.95252000  0.84476000  1.0
  H  H38  1  0.26622000  0.45252000  0.84476000  1.0
  H  H39  1  0.76622000  0.04748000  0.15524000  1.0
  H  H40  1  0.21342000  0.45062000  0.49349000  1.0
  H  H41  1  0.71342000  0.04938000  0.50651000  1.0
  H  H42  1  0.78658000  0.54938000  0.50651000  1.0
  H  H43  1  0.28658000  0.95062000  0.49349000  1.0
  C  C44  1  0.93766000  0.33116000  0.17200000  1.0
  C  C45  1  0.43765000  0.16884000  0.82800000  1.0
  C  C46  1  0.06235000  0.66884000  0.82800000  1.0
  C  C47  1  0.56235000  0.83116000  0.17200000  1.0
  C  C48  1  0.91803000  0.33280000  0.03584000  1.0
  C  C49  1  0.41803000  0.16720000  0.96416000  1.0
  C  C50  1  0.08197000  0.66720000  0.96416000  1.0
  C  C51  1  0.58197000  0.83280000  0.03584000  1.0
  C  C52  1  0.82558000  0.38609000  0.86399000  1.0
  C  C53  1  0.32558000  0.11391000  0.13601000  1.0
  C  C54  1  0.17442000  0.61390000  0.13601000  1.0
  C  C55  1  0.67442000  0.88609000  0.86399000  1.0
  C  C56  1  0.73378000  0.45299000  0.78215000  1.0
  C  C57  1  0.23378000  0.04701000  0.21785000  1.0
  C  C58  1  0.26622000  0.54701000  0.21785000  1.0
  C  C59  1  0.76622000  0.95299000  0.78215000  1.0
  N  N60  1  0.94279000  0.29946000  0.82795000  1.0
  N  N61  1  0.44279000  0.20054000  0.17205000  1.0
  N  N62  1  0.05721000  0.70054000  0.17205000  1.0
  N  N63  1  0.55721000  0.79946000  0.82795000  1.0
  N  N64  1  0.00222000  0.26710000  0.93554000  1.0
  N  N65  1  0.50222000  0.23290000  0.06446000  1.0
  N  N66  1  0.99778000  0.73290000  0.06446000  1.0
  N  N67  1  0.49778000  0.76710000  0.93554000  1.0
  N  N68  1  0.80684000  0.40817000  0.99437000  1.0
  N  N69  1  0.30684000  0.09183000  0.00563000  1.0
  N  N70  1  0.19316000  0.59183000  0.00563000  1.0
  N  N71  1  0.69316000  0.90817000  0.99437000  1.0
  N  N72  1  0.69147000  0.49071000  0.06616000  1.0
  N  N73  1  0.19147000  0.00929000  0.93384000  1.0
  N  N74  1  0.30853000  0.50929000  0.93383000  1.0
  N  N75  1  0.80853000  0.99070000  0.06616000  1.0
  O  O76  1  0.21232000  0.34154000  0.66666667  1.0
  O  O77  1  0.71232000  0.15846000  0.33333333  1.0
  O  O78  1  0.78768000  0.65846000  0.33333333  1.0
  O  O79  1  0.28768000  0.84154000  0.66666667  1.0
  O  O80  1  0.39751000  0.26810000  0.48065000  1.0
  O  O81  1  0.89750000  0.23190000  0.51935000  1.0
  O  O82  1  0.60249000  0.73190000  0.51935000  1.0
  O  O83  1  0.10249000  0.76810000  0.48065000  1.0
  O  O84  1  0.41165000  0.51724000  0.64754000  1.0
  O  O85  1  0.91165000  0.98276000  0.35246000  1.0
  O  O86  1  0.58835000  0.48276000  0.35246000  1.0
  O  O87  1  0.08835000  0.01724000  0.64754000  1.0
