# generated using pymatgen
data_Li2H3C7NO4
_symmetry_space_group_name_H-M   'P 1'
_cell_length_a   8.39513000
_cell_length_b   8.39515000
_cell_length_c   11.20840000
_cell_angle_alpha   77.71540000
_cell_angle_beta   77.71530000
_cell_angle_gamma   81.68990000
_symmetry_Int_Tables_number   1
_chemical_formula_structural   Li2H3C7NO4
_chemical_formula_sum   'Li8 H12 C28 N4 O16'
_cell_volume   750.10129342
_cell_formula_units_Z   4
loop_
 _symmetry_equiv_pos_site_id
 _symmetry_equiv_pos_as_xyz
  1  'x, y, z'
loop_
 _atom_site_type_symbol
 _atom_site_label
 _atom_site_symmetry_multiplicity
 _atom_site_fract_x
 _atom_site_fract_y
 _atom_site_fract_z
 _atom_site_occupancy
  Li  Li0  1  0.41049000  0.54866000  0.87564000  1.0
  Li  Li1  1  0.45134000  0.58951000  0.62436000  1.0
  Li  Li2  1  0.58951000  0.45134000  0.12436000  1.0
  Li  Li3  1  0.54866000  0.41049000  0.37564000  1.0
  Li  Li4  1  0.65329000  0.04466000  0.47319000  1.0
  Li  Li5  1  0.95533000  0.34671000  0.02681000  1.0
  Li  Li6  1  0.34671000  0.95534000  0.52681000  1.0
  Li  Li7  1  0.04466000  0.65329000  0.97319000  1.0
  H  H8  1  0.52683000  0.15404000  0.79016000  1.0
  H  H9  1  0.84596000  0.47317000  0.70984000  1.0
  H  H10  1  0.47317000  0.84596000  0.20984000  1.0
  H  H11  1  0.15404000  0.52683000  0.29016000  1.0
  H  H12  1  0.78813000  0.66855000  0.83581000  1.0
  H  H13  1  0.33145000  0.21187000  0.66419000  1.0
  H  H14  1  0.21187000  0.33145000  0.16419000  1.0
  H  H15  1  0.66855000  0.78813000  0.33581000  1.0
  H  H16  1  0.87226000  0.00146000  0.03515000  1.0
  H  H17  1  0.99854000  0.12774000  0.46486000  1.0
  H  H18  1  0.12774000  0.99854000  0.96485000  1.0
  H  H19  1  0.00146000  0.87226000  0.53515000  1.0
  C  C20  1  0.55229000  0.85263000  0.71766000  1.0
  C  C21  1  0.14737000  0.44771000  0.78234000  1.0
  C  C22  1  0.44771000  0.14737000  0.28234000  1.0
  C  C23  1  0.85263000  0.55229000  0.21766000  1.0
  C  C24  1  0.65720000  0.25959000  0.95856000  1.0
  C  C25  1  0.74041000  0.34280000  0.54144000  1.0
  C  C26  1  0.34280000  0.74041000  0.04144000  1.0
  C  C27  1  0.25959000  0.65720000  0.45856000  1.0
  C  C28  1  0.61463000  0.06076000  0.83090000  1.0
  C  C29  1  0.93924000  0.38537000  0.66910000  1.0
  C  C30  1  0.38537000  0.93924000  0.16910000  1.0
  C  C31  1  0.06076000  0.61463000  0.33090000  1.0
  C  C32  1  0.64396000  0.90390000  0.80244000  1.0
  C  C33  1  0.09610000  0.35604000  0.69756000  1.0
  C  C34  1  0.35604000  0.09610000  0.19756000  1.0
  C  C35  1  0.90391000  0.64396000  0.30244000  1.0
  C  C36  1  0.76084000  0.79175000  0.85675000  1.0
  C  C37  1  0.20825000  0.23916000  0.64325000  1.0
  C  C38  1  0.23916000  0.20825000  0.14325000  1.0
  C  C39  1  0.79175000  0.76084000  0.35675000  1.0
  C  C40  1  0.80991000  0.97632000  0.96617000  1.0
  C  C41  1  0.02368000  0.19009000  0.53383000  1.0
  C  C42  1  0.19009000  0.02368000  0.03383000  1.0
  C  C43  1  0.97632000  0.80991000  0.46617000  1.0
  C  C44  1  0.69637000  0.09710000  0.91668000  1.0
  C  C45  1  0.90290000  0.30364000  0.58332000  1.0
  C  C46  1  0.30363000  0.90290000  0.08332000  1.0
  C  C47  1  0.09710000  0.69636000  0.41668000  1.0
  N  N48  1  0.84641000  0.82745000  0.93463000  1.0
  N  N49  1  0.17255000  0.15359000  0.56537000  1.0
  N  N50  1  0.15359000  0.17255000  0.06537000  1.0
  N  N51  1  0.82745000  0.84641000  0.43463000  1.0
  O  O52  1  0.50810000  0.96214000  0.62960000  1.0
  O  O53  1  0.03785000  0.49190000  0.87040000  1.0
  O  O54  1  0.49190000  0.03786000  0.37040000  1.0
  O  O55  1  0.96215000  0.50810000  0.12960000  1.0
  O  O56  1  0.53659000  0.35182000  0.92506000  1.0
  O  O57  1  0.64818000  0.46340000  0.57494000  1.0
  O  O58  1  0.46340000  0.64818000  0.07494000  1.0
  O  O59  1  0.35182000  0.53660000  0.42506000  1.0
  O  O60  1  0.52522000  0.70403000  0.73848000  1.0
  O  O61  1  0.29597000  0.47478000  0.76152000  1.0
  O  O62  1  0.47478000  0.29597000  0.26152000  1.0
  O  O63  1  0.70403000  0.52522000  0.23848000  1.0
  O  O64  1  0.74484000  0.29192000  0.02941000  1.0
  O  O65  1  0.70808000  0.25516000  0.47059000  1.0
  O  O66  1  0.25516000  0.70808000  0.97060000  1.0
  O  O67  1  0.29192000  0.74484000  0.52940000  1.0
