# generated using pymatgen
data_MnH22(C7O3)4
_symmetry_space_group_name_H-M   'P 1'
_cell_length_a   4.85067000
_cell_length_b   5.38657000
_cell_length_c   25.60680000
_cell_angle_alpha   86.61700000
_cell_angle_beta   88.81960000
_cell_angle_gamma   84.53450000
_symmetry_Int_Tables_number   1
_chemical_formula_structural   MnH22(C7O3)4
_chemical_formula_sum   'Mn1 H22 C28 O12'
_cell_volume   664.78866305
_cell_formula_units_Z   1
loop_
 _symmetry_equiv_pos_site_id
 _symmetry_equiv_pos_as_xyz
  1  'x, y, z'
loop_
 _atom_site_type_symbol
 _atom_site_label
 _atom_site_symmetry_multiplicity
 _atom_site_fract_x
 _atom_site_fract_y
 _atom_site_fract_z
 _atom_site_occupancy
  Mn  Mn0  1  0.51771000  0.08851000  0.99690000  1.0
  H  H1  1  0.49229000  0.80128000  0.46382000  1.0
  H  H2  1  0.63616000  0.48674000  0.50959000  1.0
  H  H3  1  0.98630000  0.57296000  0.26822000  1.0
  H  H4  1  0.25835000  0.73254000  0.33889000  1.0
  H  H5  1  0.71588000  0.44201000  0.76808000  1.0
  H  H6  1  0.67408000  0.03025000  0.37860000  1.0
  H  H7  1  0.64682000  0.35113000  0.86463000  1.0
  H  H8  1  0.96368000  0.17758000  0.44866000  1.0
  H  H9  1  0.25453000  0.94639000  0.15197000  1.0
  H  H10  1  0.11595000  0.95930000  0.24697000  1.0
  H  H11  1  0.40627000  0.46834000  0.20593000  1.0
  H  H12  1  0.18882000  0.48127000  0.73724000  1.0
  H  H13  1  0.90020000  0.30302000  0.67132000  1.0
  H  H14  1  0.45102000  0.01424000  0.61880000  1.0
  H  H15  1  0.14101000  0.85250000  0.55507000  1.0
  H  H16  1  0.24679000  0.15373000  0.77956000  1.0
  H  H17  1  0.19529000  0.07491000  0.87539000  1.0
  H  H18  1  0.54456000  0.45479000  0.11123000  1.0
  H  H19  1  0.72233000  0.93896000  0.90210000  1.0
  H  H20  1  0.97644000  0.97523000  0.93763000  1.0
  H  H21  1  0.98170000  0.76601000  0.01061000  1.0
  H  H22  1  0.76364000  0.58277000  0.02884000  1.0
  C  C23  1  0.12844000  0.46317000  0.39808000  1.0
  C  C24  1  0.98135000  0.48945000  0.30798000  1.0
  C  C25  1  0.81897000  0.29134000  0.31977000  1.0
  C  C26  1  0.34170000  0.63583000  0.93287000  1.0
  C  C27  1  0.40563000  0.70025000  0.87626000  1.0
  C  C28  1  0.13210000  0.57769000  0.34741000  1.0
  C  C29  1  0.59887000  0.57668000  0.79211000  1.0
  C  C30  1  0.80548000  0.18144000  0.37053000  1.0
  C  C31  1  0.99438000  0.18815000  0.06971000  1.0
  C  C32  1  0.55882000  0.52599000  0.84557000  1.0
  C  C33  1  0.90723000  0.19793000  0.12585000  1.0
  C  C34  1  0.96411000  0.26477000  0.40920000  1.0
  C  C35  1  0.30421000  0.53331000  0.43988000  1.0
  C  C36  1  0.06787000  0.05811000  0.16421000  1.0
  C  C37  1  0.99066000  0.06377000  0.21674000  1.0
  C  C38  1  0.59174000  0.35535000  0.19358000  1.0
  C  C39  1  0.33802000  0.75492000  0.68130000  1.0
  C  C40  1  0.00481000  0.56414000  0.60916000  1.0
  C  C41  1  0.18264000  0.55708000  0.69695000  1.0
  C  C42  1  0.02037000  0.45994000  0.66058000  1.0
  C  C43  1  0.32809000  0.86017000  0.63010000  1.0
  C  C44  1  0.47848000  0.80099000  0.76843000  1.0
  C  C45  1  0.82440000  0.45245000  0.57324000  1.0
  C  C46  1  0.15766000  0.76617000  0.59455000  1.0
  C  C47  1  0.33389000  0.97886000  0.79865000  1.0
  C  C48  1  0.30250000  0.93144000  0.85227000  1.0
  C  C49  1  0.75087000  0.21108000  0.23094000  1.0
  C  C50  1  0.66955000  0.34680000  0.14096000  1.0
  O  O51  1  0.79095000  0.05368000  0.92591000  1.0
  O  O52  1  0.23909000  0.09602000  0.05989000  1.0
  O  O53  1  0.79349000  0.76340000  0.02617000  1.0
  O  O54  1  0.35906000  0.41093000  0.94941000  1.0
  O  O55  1  0.81995000  0.27471000  0.03433000  1.0
  O  O56  1  0.25941000  0.81997000  0.96191000  1.0
  O  O57  1  0.38266000  0.76834000  0.43352000  1.0
  O  O58  1  0.37801000  0.38958000  0.47741000  1.0
  O  O59  1  0.50716000  0.85983000  0.71545000  1.0
  O  O60  1  0.77768000  0.58096000  0.52645000  1.0
  O  O61  1  0.65739000  0.20187000  0.28280000  1.0
  O  O62  1  0.71974000  0.25625000  0.58385000  1.0
