# generated using pymatgen
data_HgH8C22N6(OF4)2
_symmetry_space_group_name_H-M   'P 1'
_cell_length_a   8.35989000
_cell_length_b   10.46260000
_cell_length_c   12.49360000
_cell_angle_alpha   81.88760000
_cell_angle_beta   89.99990000
_cell_angle_gamma   89.99930000
_symmetry_Int_Tables_number   1
_chemical_formula_structural   HgH8C22N6(OF4)2
_chemical_formula_sum   'Hg2 H16 C44 N12 O4 F16'
_cell_volume   1081.83235919
_cell_formula_units_Z   2
loop_
 _symmetry_equiv_pos_site_id
 _symmetry_equiv_pos_as_xyz
  1  'x, y, z'
loop_
 _atom_site_type_symbol
 _atom_site_label
 _atom_site_symmetry_multiplicity
 _atom_site_fract_x
 _atom_site_fract_y
 _atom_site_fract_z
 _atom_site_occupancy
  Hg  Hg0  1  0.00000000  0.00000000  0.00000000  1.0
  Hg  Hg1  1  0.50000000  0.50000000  0.00000000  1.0
  H  H2  1  0.96659000  0.12399000  0.69489000  1.0
  H  H3  1  0.46659000  0.37601000  0.30511000  1.0
  H  H4  1  0.03341000  0.87601000  0.30511000  1.0
  H  H5  1  0.53341000  0.62399000  0.69489000  1.0
  H  H6  1  0.90286000  0.34113000  0.58730000  1.0
  H  H7  1  0.40286000  0.15887000  0.41270000  1.0
  H  H8  1  0.09714000  0.65887000  0.41270000  1.0
  H  H9  1  0.59714000  0.84113000  0.58730000  1.0
  H  H10  1  0.80967000  0.48841000  0.87247000  1.0
  H  H11  1  0.30967000  0.01159000  0.12753000  1.0
  H  H12  1  0.19033000  0.51159000  0.12752000  1.0
  H  H13  1  0.69032000  0.98841000  0.87247000  1.0
  H  H14  1  0.70346000  0.98334000  0.18749000  1.0
  H  H15  1  0.20346000  0.51666000  0.81251000  1.0
  H  H16  1  0.29654000  0.01666000  0.81251000  1.0
  H  H17  1  0.79654000  0.48334000  0.18749000  1.0
  C  C18  1  0.93245000  0.20602000  0.73472000  1.0
  C  C19  1  0.43245000  0.29399000  0.26529000  1.0
  C  C20  1  0.06755000  0.79398000  0.26528000  1.0
  C  C21  1  0.56755000  0.70601000  0.73471000  1.0
  C  C22  1  0.89670000  0.32626000  0.67543000  1.0
  C  C23  1  0.39671000  0.17375000  0.32457000  1.0
  C  C24  1  0.10330000  0.67374000  0.32457000  1.0
  C  C25  1  0.60330000  0.82625000  0.67543000  1.0
  C  C26  1  0.84389000  0.40708000  0.83176000  1.0
  C  C27  1  0.34390000  0.09292000  0.16824000  1.0
  C  C28  1  0.15610000  0.59292000  0.16824000  1.0
  C  C29  1  0.65610000  0.90708000  0.83176000  1.0
  C  C30  1  0.87670000  0.28651000  0.89207000  1.0
  C  C31  1  0.37670000  0.21349000  0.10793000  1.0
  C  C32  1  0.12330000  0.71349000  0.10793000  1.0
  C  C33  1  0.62331000  0.78651000  0.89207000  1.0
  C  C34  1  0.85370000  0.26920000  0.01284000  1.0
  C  C35  1  0.35371000  0.23082000  0.98716000  1.0
  C  C36  1  0.14630000  0.73080000  0.98716000  1.0
  C  C37  1  0.64630000  0.76918000  0.01284000  1.0
  C  C38  1  0.87745000  0.13710000  0.18322000  1.0
  C  C39  1  0.37745000  0.36290000  0.81678000  1.0
  C  C40  1  0.12255000  0.86290000  0.81678000  1.0
  C  C41  1  0.62255000  0.63710000  0.18322000  1.0
  C  C42  1  0.97029000  0.20897000  0.24666000  1.0
  C  C43  1  0.47029000  0.29102000  0.75334000  1.0
  C  C44  1  0.02971000  0.79103000  0.75334000  1.0
  C  C45  1  0.52971000  0.70898000  0.24666000  1.0
  C  C46  1  0.96469000  0.18586000  0.35922000  1.0
  C  C47  1  0.46469000  0.31414000  0.64078000  1.0
  C  C48  1  0.03531000  0.81414000  0.64078000  1.0
  C  C49  1  0.53530000  0.68587000  0.35922000  1.0
  C  C50  1  0.85894000  0.09378000  0.41005000  1.0
  C  C51  1  0.35894000  0.40621000  0.58996000  1.0
  C  C52  1  0.14106000  0.90622000  0.58995000  1.0
  C  C53  1  0.64106000  0.59379000  0.41005000  1.0
  C  C54  1  0.76511000  0.02339000  0.34706000  1.0
  C  C55  1  0.26511000  0.47661000  0.65295000  1.0
  C  C56  1  0.23489000  0.97661000  0.65294000  1.0
  C  C57  1  0.73489000  0.52339000  0.34705000  1.0
  C  C58  1  0.77346000  0.04293000  0.23513000  1.0
  C  C59  1  0.27346000  0.45707000  0.76487000  1.0
  C  C60  1  0.22654000  0.95707000  0.76487000  1.0
  C  C61  1  0.72654000  0.54293000  0.23513000  1.0
  N  N62  1  0.92232000  0.18681000  0.84248000  1.0
  N  N63  1  0.42232000  0.31320000  0.15752000  1.0
  N  N64  1  0.07768000  0.81319000  0.15752000  1.0
  N  N65  1  0.57768000  0.68680000  0.84248000  1.0
  N  N66  1  0.85266000  0.42719000  0.72371000  1.0
  N  N67  1  0.35266000  0.07282000  0.27629000  1.0
  N  N68  1  0.14734000  0.57281000  0.27629000  1.0
  N  N69  1  0.64734000  0.92718000  0.72371000  1.0
  N  N70  1  0.89602000  0.15451000  0.06957000  1.0
  N  N71  1  0.39602000  0.34549000  0.93043000  1.0
  N  N72  1  0.10398000  0.84549000  0.93043000  1.0
  N  N73  1  0.60398000  0.65451000  0.06957000  1.0
  O  O74  1  0.79346000  0.36018000  0.05460000  1.0
  O  O75  1  0.29345000  0.13981000  0.94540000  1.0
  O  O76  1  0.20654000  0.63982000  0.94540000  1.0
  O  O77  1  0.70655000  0.86019000  0.05460000  1.0
  F  F78  1  0.07221000  0.29991000  0.19910000  1.0
  F  F79  1  0.57221000  0.20009000  0.80091000  1.0
  F  F80  1  0.92779000  0.70009000  0.80090000  1.0
  F  F81  1  0.42779000  0.79991000  0.19909000  1.0
  F  F82  1  0.06208000  0.24963000  0.41948000  1.0
  F  F83  1  0.56209000  0.25036000  0.58052000  1.0
  F  F84  1  0.93791000  0.75037000  0.58052000  1.0
  F  F85  1  0.43791000  0.74964000  0.41948000  1.0
  F  F86  1  0.85040000  0.07200000  0.51903000  1.0
  F  F87  1  0.35040000  0.42800000  0.48097000  1.0
  F  F88  1  0.14960000  0.92800000  0.48097000  1.0
  F  F89  1  0.64960000  0.57200000  0.51902000  1.0
  F  F90  1  0.66610000  0.93240000  0.39919000  1.0
  F  F91  1  0.16610000  0.56760000  0.60081000  1.0
  F  F92  1  0.33390000  0.06760000  0.60081000  1.0
  F  F93  1  0.83390000  0.43240000  0.39919000  1.0
