# generated using pymatgen
data_NaH9C7SO8
_symmetry_space_group_name_H-M   'P 1'
_cell_length_a   6.55347000
_cell_length_b   7.03476000
_cell_length_c   11.61750000
_cell_angle_alpha   78.07450000
_cell_angle_beta   83.73550000
_cell_angle_gamma   78.44280000
_symmetry_Int_Tables_number   1
_chemical_formula_structural   NaH9C7SO8
_chemical_formula_sum   'Na2 H18 C14 S2 O16'
_cell_volume   512.12403328
_cell_formula_units_Z   2
loop_
 _symmetry_equiv_pos_site_id
 _symmetry_equiv_pos_as_xyz
  1  'x, y, z'
loop_
 _atom_site_type_symbol
 _atom_site_label
 _atom_site_symmetry_multiplicity
 _atom_site_fract_x
 _atom_site_fract_y
 _atom_site_fract_z
 _atom_site_occupancy
  Na  Na0  1  0.23976000  0.94069000  0.57736000  1.0
  Na  Na1  1  0.76024000  0.05931000  0.42264000  1.0
  H  H2  1  0.74929000  0.36831000  0.19641000  1.0
  H  H3  1  0.25071000  0.63169000  0.80358000  1.0
  H  H4  1  0.74569000  0.82227000  0.18914000  1.0
  H  H5  1  0.25432000  0.17773000  0.81086000  1.0
  H  H6  1  0.73876000  0.35242000  0.90177000  1.0
  H  H7  1  0.26124000  0.64758000  0.09823000  1.0
  H  H8  1  0.78111000  0.63029000  0.92668000  1.0
  H  H9  1  0.21889000  0.36971000  0.07332000  1.0
  H  H10  1  0.78275000  0.85701000  0.73020000  1.0
  H  H11  1  0.21725000  0.14299000  0.26980000  1.0
  H  H12  1  0.09258000  0.53844000  0.67914000  1.0
  H  H13  1  0.90741000  0.46156000  0.32086000  1.0
  H  H14  1  0.33924000  0.50795000  0.65987000  1.0
  H  H15  1  0.66077000  0.49205000  0.34013000  1.0
  H  H16  1  0.43829000  0.26342000  0.52149000  1.0
  H  H17  1  0.56171000  0.73658000  0.47851000  1.0
  H  H18  1  0.30321000  0.32349000  0.41247000  1.0
  H  H19  1  0.69679000  0.67651000  0.58753000  1.0
  C  C20  1  0.76260000  0.11820000  0.80479000  1.0
  C  C21  1  0.23740000  0.88180000  0.19521000  1.0
  C  C22  1  0.74643000  0.19514000  0.90682000  1.0
  C  C23  1  0.25357000  0.80486000  0.09318000  1.0
  C  C24  1  0.74244000  0.06955000  0.01753000  1.0
  C  C25  1  0.25756000  0.93045000  0.98248000  1.0
  C  C26  1  0.75639000  0.86350000  0.02375000  1.0
  C  C27  1  0.24362000  0.13650000  0.97625000  1.0
  C  C28  1  0.77000000  0.78857000  0.91937000  1.0
  C  C29  1  0.23000000  0.21143000  0.08063000  1.0
  C  C30  1  0.77193000  0.91475000  0.81107000  1.0
  C  C31  1  0.22807000  0.08525000  0.18893000  1.0
  C  C32  1  0.73239000  0.14411000  0.12751000  1.0
  C  C33  1  0.26761000  0.85589000  0.87249000  1.0
  S  S34  1  0.76932000  0.27407000  0.66446000  1.0
  S  S35  1  0.23068000  0.72593000  0.33554000  1.0
  O  O36  1  0.89974000  0.15443000  0.58485000  1.0
  O  O37  1  0.10026000  0.84556000  0.41515000  1.0
  O  O38  1  0.85065000  0.44901000  0.67745000  1.0
  O  O39  1  0.14935000  0.55099000  0.32255000  1.0
  O  O40  1  0.55059000  0.33267000  0.62971000  1.0
  O  O41  1  0.44941000  0.66733000  0.37029000  1.0
  O  O42  1  0.72789000  0.33499000  0.11610000  1.0
  O  O43  1  0.27212000  0.66501000  0.88390000  1.0
  O  O44  1  0.73079000  0.02973000  0.22645000  1.0
  O  O45  1  0.26921000  0.97027000  0.77355000  1.0
  O  O46  1  0.75916000  0.73711000  0.12706000  1.0
  O  O47  1  0.24084000  0.26289000  0.87294000  1.0
  O  O48  1  0.21287000  0.60390000  0.67887000  1.0
  O  O49  1  0.78713000  0.39610000  0.32113000  1.0
  O  O50  1  0.38625000  0.20839000  0.46078000  1.0
  O  O51  1  0.61375000  0.79161000  0.53922000  1.0
