# generated using pymatgen
data_Zr6H35C50N5O32
_symmetry_space_group_name_H-M   'P 1'
_cell_length_a   14.79010000
_cell_length_b   14.79150000
_cell_length_c   14.79881935
_cell_angle_alpha   89.95103006
_cell_angle_beta   60.03684479
_cell_angle_gamma   60.03060000
_symmetry_Int_Tables_number   1
_chemical_formula_structural   Zr6H35C50N5O32
_chemical_formula_sum   'Zr6 H35 C50 N5 O32'
_cell_volume   2292.56665608
_cell_formula_units_Z   1
loop_
 _symmetry_equiv_pos_site_id
 _symmetry_equiv_pos_as_xyz
  1  'x, y, z'
loop_
 _atom_site_type_symbol
 _atom_site_label
 _atom_site_symmetry_multiplicity
 _atom_site_fract_x
 _atom_site_fract_y
 _atom_site_fract_z
 _atom_site_occupancy
  Zr  Zr0  1  0.50272000  0.11870000  0.61908000  1.0
  Zr  Zr1  1  0.50014000  0.88233000  0.38192000  1.0
  Zr  Zr2  1  0.26360000  0.11930000  0.61947000  1.0
  Zr  Zr3  1  0.74153000  0.87996000  0.37996000  1.0
  Zr  Zr4  1  0.50338000  0.11833000  0.37979000  1.0
  Zr  Zr5  1  0.50306000  0.87928000  0.61783000  1.0
  H  H6  1  0.31480000  0.28134000  0.59330000  1.0
  H  H7  1  0.68898000  0.90667000  0.21792000  1.0
  H  H8  1  0.31369000  0.90603000  0.59366000  1.0
  H  H9  1  0.69061000  0.90474000  0.59360000  1.0
  H  H10  1  0.50153000  0.41727000  0.64582000  1.0
  H  H11  1  0.50491000  0.40811000  0.35417000  1.0
  H  H12  1  0.50005000  0.58793000  0.64065000  1.0
  H  H13  1  0.49842000  0.14675000  0.91798000  1.0
  H  H14  1  0.49498000  0.85838000  0.91395000  1.0
  H  H15  1  0.49933000  0.14135000  0.08739000  1.0
  H  H16  1  0.77448000  0.14467000  0.08159000  1.0
  H  H17  1  0.05693000  0.85734000  0.09177000  1.0
  H  H18  1  0.94978000  0.13863000  0.91129000  1.0
  H  H19  1  0.77460000  0.57953000  0.64304000  1.0
  H  H20  1  0.05643000  0.58647000  0.35204000  1.0
  H  H21  1  0.95031000  0.41050000  0.63789000  1.0
  H  H22  1  0.77252000  0.58164000  0.08530000  1.0
  H  H23  1  0.94088000  0.41293000  0.91784000  1.0
  H  H24  1  0.29851000  0.37118000  0.95832000  1.0
  H  H25  1  0.29695000  0.45653000  0.87295000  1.0
  H  H26  1  0.12641000  0.62721000  0.04321000  1.0
  H  H27  1  0.12762000  0.54208000  0.12885000  1.0
  H  H28  1  0.06507000  0.85397000  0.35422000  1.0
  H  H29  1  0.76815000  0.14662000  0.64044000  1.0
  H  H30  1  0.22920000  0.85953000  0.36026000  1.0
  H  H31  1  0.51179000  0.64749000  0.32205000  1.0
  H  H32  1  0.51677000  0.53836000  0.26741000  1.0
  H  H33  1  0.48645000  0.83530000  0.16099000  1.0
  H  H34  1  0.48206000  0.78471000  0.05693000  1.0
  H  H35  1  0.32850000  0.83027000  0.85021000  1.0
  H  H36  1  0.27423000  0.77933000  0.95873000  1.0
  H  H37  1  0.32805000  0.33989000  0.31954000  1.0
  H  H38  1  0.27361000  0.44403000  0.26489000  1.0
  H  H39  1  0.98211333  0.17856000  0.66666667  1.0
  H  H40  1  0.82333000  0.23243000  0.71677000  1.0
  C  C41  1  0.50743000  0.30071000  0.49780000  1.0
  C  C42  1  0.49583000  0.00209000  0.19737000  1.0
  C  C43  1  0.50529000  0.69263000  0.49644000  1.0
  C  C44  1  0.49578000  0.00246000  0.80644000  1.0
  C  C45  1  0.19831000  0.29939000  0.80585000  1.0
  C  C46  1  0.80683000  0.00145000  0.49611000  1.0
  C  C47  1  0.80307000  0.69438000  0.19959000  1.0
  C  C48  1  0.19518000  0.00396000  0.49845000  1.0
  C  C49  1  0.19883000  0.30203000  0.49524000  1.0
  C  C50  1  0.19847000  0.99994000  0.80665000  1.0
  C  C51  1  0.80554000  0.69193000  0.49653000  1.0
  C  C52  1  0.80601000  0.00254000  0.19818000  1.0
  C  C53  1  0.50262000  0.59410000  0.49513000  1.0
  C  C54  1  0.50477000  0.40297000  0.49865000  1.0
  C  C55  1  0.50243000  0.54436000  0.41248000  1.0
  C  C56  1  0.50211000  0.45328000  0.58158000  1.0
  C  C57  1  0.50417000  0.44823000  0.41664000  1.0
  C  C58  1  0.50124000  0.54716000  0.57839000  1.0
  C  C59  1  0.49684000  0.99839000  0.09699000  1.0
  C  C60  1  0.49545000  0.00256000  0.90758000  1.0
  C  C61  1  0.49658000  0.91545000  0.04778000  1.0
  C  C62  1  0.49722000  0.08358000  0.95523000  1.0
  C  C63  1  0.49535000  0.92057000  0.95312000  1.0
  C  C64  1  0.49785000  0.08016000  0.04834000  1.0
  C  C65  1  0.10149000  0.99598000  0.90539000  1.0
  C  C66  1  0.90732000  0.00113000  0.09628000  1.0
  C  C67  1  0.13457000  0.91306000  0.95517000  1.0
  C  C68  1  0.87460000  0.08143000  0.04592000  1.0
  C  C69  1  0.03449000  0.91878000  0.05127000  1.0
  C  C70  1  0.97144000  0.07765000  0.95220000  1.0
  C  C71  1  0.10172000  0.40233000  0.49280000  1.0
  C  C72  1  0.90707000  0.59137000  0.49639000  1.0
  C  C73  1  0.13453000  0.45218000  0.40994000  1.0
  C  C74  1  0.87465000  0.54313000  0.57888000  1.0
  C  C75  1  0.03419000  0.54672000  0.41428000  1.0
  C  C76  1  0.97172000  0.45018000  0.57565000  1.0
  C  C77  1  0.09846000  0.39996000  0.90559000  1.0
  C  C78  1  0.90409000  0.59433000  0.09927000  1.0
  C  C79  1  0.12813000  0.45077000  0.95496000  1.0
  C  C80  1  0.87317000  0.54423000  0.04890000  1.0
  C  C81  1  0.03381000  0.54509000  0.04901000  1.0
  C  C82  1  0.96729000  0.45006000  0.95512000  1.0
  C  C83  1  0.23660000  0.44551000  0.94781000  1.0
  C  C84  1  0.12981000  0.55236000  0.05438000  1.0
  C  C85  1  0.09271000  0.00564000  0.50217000  1.0
  C  C86  1  0.90719000  0.00156000  0.49720000  1.0
  C  C87  1  0.96023000  0.08849000  0.58470000  1.0
  C  C88  1  0.03766000  0.91866000  0.41710000  1.0
  C  C89  1  0.86993000  0.08405000  0.57905000  1.0
  C  C90  1  0.12747000  0.92212000  0.42085000  1.0
  N  N91  1  0.49846000  0.58620000  0.33125000  1.0
  N  N92  1  0.50029000  0.83055000  0.08623000  1.0
  N  N93  1  0.25745000  0.82828000  0.91351000  1.0
  N  N94  1  0.25746000  0.41430000  0.32868000  1.0
  N  N95  1  0.91716000  0.16992000  0.66909000  1.0
  O  O96  1  0.50712000  0.26147000  0.57487000  1.0
  O  O97  1  0.49401000  0.92676000  0.24102000  1.0
  O  O98  1  0.50615000  0.73482000  0.41973000  1.0
  O  O99  1  0.49686000  0.07883000  0.76649000  1.0
  O  O100  1  0.16107000  0.25995000  0.76597000  1.0
  O  O101  1  0.84432000  0.92418000  0.41971000  1.0
  O  O102  1  0.84112000  0.73366000  0.23850000  1.0
  O  O103  1  0.16188000  0.08070000  0.57381000  1.0
  O  O104  1  0.31753000  0.25912000  0.41855000  1.0
  O  O105  1  0.31720000  0.92413000  0.76473000  1.0
  O  O106  1  0.68935000  0.73163000  0.57380000  1.0
  O  O107  1  0.68982000  0.07941000  0.23748000  1.0
  O  O108  1  0.16124000  0.07679000  0.76693000  1.0
  O  O109  1  0.84199000  0.73228000  0.42016000  1.0
  O  O110  1  0.84248000  0.92582000  0.23823000  1.0
  O  O111  1  0.16149000  0.26319000  0.57291000  1.0
  O  O112  1  0.31440000  0.26055000  0.76651000  1.0
  O  O113  1  0.31164000  0.92674000  0.42200000  1.0
  O  O114  1  0.68666000  0.73445000  0.23862000  1.0
  O  O115  1  0.69032000  0.07774000  0.57267000  1.0
  O  O116  1  0.49707000  0.92507000  0.76598000  1.0
  O  O117  1  0.50815000  0.26031000  0.42081000  1.0
  O  O118  1  0.49793000  0.07801000  0.23569000  1.0
  O  O119  1  0.50575000  0.73202000  0.57308000  1.0
  O  O120  1  0.63720000  0.93160000  0.56671000  1.0
  O  O121  1  0.36719000  0.93282000  0.56708000  1.0
  O  O122  1  0.63613000  0.93295000  0.29806000  1.0
  O  O123  1  0.36821000  0.20114000  0.56689000  1.0
  O  O124  1  0.40254000  0.05014000  0.45059000  1.0
  O  O125  1  0.60174000  0.04882000  0.45007000  1.0
  O  O126  1  0.60125000  0.85097000  0.44983000  1.0
  O  O127  1  0.40375000  0.04857000  0.64787000  1.0
