# generated using pymatgen
data_CdH22C22(N2O3)2
_symmetry_space_group_name_H-M   'P 1'
_cell_length_a   9.15250000
_cell_length_b   9.15262000
_cell_length_c   14.77350000
_cell_angle_alpha   106.17000000
_cell_angle_beta   106.17100000
_cell_angle_gamma   93.45630000
_symmetry_Int_Tables_number   1
_chemical_formula_structural   CdH22C22(N2O3)2
_chemical_formula_sum   'Cd2 H44 C44 N8 O12'
_cell_volume   1128.76171798
_cell_formula_units_Z   2
loop_
 _symmetry_equiv_pos_site_id
 _symmetry_equiv_pos_as_xyz
  1  'x, y, z'
loop_
 _atom_site_type_symbol
 _atom_site_label
 _atom_site_symmetry_multiplicity
 _atom_site_fract_x
 _atom_site_fract_y
 _atom_site_fract_z
 _atom_site_occupancy
  Cd  Cd0  1  0.33495000  0.66504000  0.25000000  1.0
  Cd  Cd1  1  0.66505000  0.33495000  0.75001000  1.0
  H  H2  1  0.00681000  0.24500000  0.30372000  1.0
  H  H3  1  0.75501000  0.99316000  0.19627000  1.0
  H  H4  1  0.99317000  0.75498000  0.69627000  1.0
  H  H5  1  0.24501000  0.00681000  0.80373000  1.0
  H  H6  1  0.25933000  0.34426000  0.18107000  1.0
  H  H7  1  0.65572000  0.74070000  0.31893000  1.0
  H  H8  1  0.74069000  0.65573000  0.81893000  1.0
  H  H9  1  0.34427000  0.25933000  0.68108000  1.0
  H  H10  1  0.17062000  0.72599000  0.50589000  1.0
  H  H11  1  0.27400000  0.82936000  0.99411000  1.0
  H  H12  1  0.82936000  0.27400000  0.49411000  1.0
  H  H13  1  0.72600000  0.17063000  0.00589000  1.0
  H  H14  1  0.53016000  0.26364000  0.20141000  1.0
  H  H15  1  0.73639000  0.46988000  0.29860000  1.0
  H  H16  1  0.46986000  0.73638000  0.79859000  1.0
  H  H17  1  0.26363000  0.53014000  0.70140000  1.0
  H  H18  1  0.47221000  0.36385000  0.30406000  1.0
  H  H19  1  0.63616000  0.52782000  0.19595000  1.0
  H  H20  1  0.52781000  0.63615000  0.69594000  1.0
  H  H21  1  0.36384000  0.47221000  0.80406000  1.0
  H  H22  1  0.38577000  0.23873000  0.04799000  1.0
  H  H23  1  0.76129000  0.61427000  0.45201000  1.0
  H  H24  1  0.61424000  0.76128000  0.95200000  1.0
  H  H25  1  0.23872000  0.38575000  0.54799000  1.0
  H  H26  1  0.43841000  0.43499000  0.06051000  1.0
  H  H27  1  0.56501000  0.56162000  0.43950000  1.0
  H  H28  1  0.56160000  0.56500000  0.93949000  1.0
  H  H29  1  0.43499000  0.43839000  0.56051000  1.0
  H  H30  1  0.09721000  0.12973000  0.99286000  1.0
  H  H31  1  0.87028000  0.90282000  0.50714000  1.0
  H  H32  1  0.90281000  0.87027000  0.00713000  1.0
  H  H33  1  0.12972000  0.09721000  0.49287000  1.0
  H  H34  1  0.26054000  0.56812000  0.97285000  1.0
  H  H35  1  0.43186000  0.73946000  0.52715000  1.0
  H  H36  1  0.73945000  0.43188000  0.02716000  1.0
  H  H37  1  0.56812000  0.26054000  0.47285000  1.0
  H  H38  1  0.00893000  0.54603000  0.84288000  1.0
  H  H39  1  0.45398000  0.99107000  0.65714000  1.0
  H  H40  1  0.99106000  0.45400000  0.15715000  1.0
  H  H41  1  0.54600000  0.00893000  0.34287000  1.0
  H  H42  1  0.85066000  0.12815000  0.86568000  1.0
  H  H43  1  0.87185000  0.14934000  0.63433000  1.0
  H  H44  1  0.14933000  0.87185000  0.13432000  1.0
  H  H45  1  0.12813000  0.85067000  0.36568000  1.0
  C  C46  1  0.15720000  0.47756000  0.35223000  1.0
  C  C47  1  0.52245000  0.84279000  0.14777000  1.0
  C  C48  1  0.84279000  0.52242000  0.64775000  1.0
  C  C49  1  0.47755000  0.15720000  0.85223000  1.0
  C  C50  1  0.07213000  0.48976000  0.42636000  1.0
  C  C51  1  0.51024000  0.92787000  0.07364000  1.0
  C  C52  1  0.92786000  0.51023000  0.57363000  1.0
  C  C53  1  0.48977000  0.07212000  0.92636000  1.0
  C  C54  1  0.97421000  0.35994000  0.42214000  1.0
  C  C55  1  0.64006000  0.02575000  0.07785000  1.0
  C  C56  1  0.02577000  0.64005000  0.57786000  1.0
  C  C57  1  0.35995000  0.97422000  0.92215000  1.0
  C  C58  1  0.09533000  0.62727000  0.50351000  1.0
  C  C59  1  0.37272000  0.90466000  0.99649000  1.0
  C  C60  1  0.90465000  0.37272000  0.49649000  1.0
  C  C61  1  0.62728000  0.09533000  0.00350000  1.0
  C  C62  1  0.49545000  0.37328000  0.23666000  1.0
  C  C63  1  0.62672000  0.50456000  0.26334000  1.0
  C  C64  1  0.50454000  0.62672000  0.76334000  1.0
  C  C65  1  0.37327000  0.49544000  0.73665000  1.0
  C  C66  1  0.35158000  0.35398000  0.06741000  1.0
  C  C67  1  0.64602000  0.64844000  0.43258000  1.0
  C  C68  1  0.64844000  0.64602000  0.93259000  1.0
  C  C69  1  0.35397000  0.35157000  0.56741000  1.0
  C  C70  1  0.19916000  0.35073000  0.99382000  1.0
  C  C71  1  0.64926000  0.80085000  0.50619000  1.0
  C  C72  1  0.80085000  0.64927000  0.00619000  1.0
  C  C73  1  0.35073000  0.19916000  0.49381000  1.0
  C  C74  1  0.08145000  0.22610000  0.96307000  1.0
  C  C75  1  0.77391000  0.91857000  0.53694000  1.0
  C  C76  1  0.91857000  0.77392000  0.03694000  1.0
  C  C77  1  0.22609000  0.08144000  0.46306000  1.0
  C  C78  1  0.17293000  0.46760000  0.94979000  1.0
  C  C79  1  0.53240000  0.82708000  0.55022000  1.0
  C  C80  1  0.82708000  0.53241000  0.05022000  1.0
  C  C81  1  0.46760000  0.17292000  0.44979000  1.0
  C  C82  1  0.03293000  0.45650000  0.87843000  1.0
  C  C83  1  0.54349000  0.96709000  0.62157000  1.0
  C  C84  1  0.96708000  0.54351000  0.12158000  1.0
  C  C85  1  0.45648000  0.03291000  0.37842000  1.0
  C  C86  1  0.94473000  0.22342000  0.89135000  1.0
  C  C87  1  0.77657000  0.05529000  0.60865000  1.0
  C  C88  1  0.05529000  0.77658000  0.10866000  1.0
  C  C89  1  0.22341000  0.94473000  0.39134000  1.0
  N  N90  1  0.92006000  0.33645000  0.84948000  1.0
  N  N91  1  0.66356000  0.07995000  0.65053000  1.0
  N  N92  1  0.07995000  0.66357000  0.15053000  1.0
  N  N93  1  0.33643000  0.92004000  0.34947000  1.0
  N  N94  1  0.35209000  0.40031000  0.17153000  1.0
  N  N95  1  0.59969000  0.64793000  0.32846000  1.0
  N  N96  1  0.64792000  0.59968000  0.82846000  1.0
  N  N97  1  0.40031000  0.35208000  0.67153000  1.0
  O  O98  1  0.25864000  0.59184000  0.36881000  1.0
  O  O99  1  0.40816000  0.74137000  0.13120000  1.0
  O  O100  1  0.74135000  0.40815000  0.63119000  1.0
  O  O101  1  0.59185000  0.25862000  0.86882000  1.0
  O  O102  1  0.12494000  0.35487000  0.27819000  1.0
  O  O103  1  0.64514000  0.87506000  0.22182000  1.0
  O  O104  1  0.87506000  0.64511000  0.72181000  1.0
  O  O105  1  0.35487000  0.12493000  0.77819000  1.0
  O  O106  1  0.94873000  0.22457000  0.34945000  1.0
  O  O107  1  0.77546000  0.05122000  0.15052000  1.0
  O  O108  1  0.05123000  0.77543000  0.65053000  1.0
  O  O109  1  0.22457000  0.94874000  0.84947000  1.0
