# generated using pymatgen
data_CuH25C33N5O4
_symmetry_space_group_name_H-M   'P 1'
_cell_length_a   10.94120000
_cell_length_b   16.10090000
_cell_length_c   18.23600000
_cell_angle_alpha   89.99990000
_cell_angle_beta   81.85060000
_cell_angle_gamma   89.99990000
_symmetry_Int_Tables_number   1
_chemical_formula_structural   CuH25C33N5O4
_chemical_formula_sum   'Cu4 H100 C132 N20 O16'
_cell_volume   3180.07094954
_cell_formula_units_Z   4
loop_
 _symmetry_equiv_pos_site_id
 _symmetry_equiv_pos_as_xyz
  1  'x, y, z'
loop_
 _atom_site_type_symbol
 _atom_site_label
 _atom_site_symmetry_multiplicity
 _atom_site_fract_x
 _atom_site_fract_y
 _atom_site_fract_z
 _atom_site_occupancy
  Cu  Cu0  1  0.19819000  0.20192000  0.10928000  1.0
  Cu  Cu1  1  0.80181000  0.70192000  0.39071000  1.0
  Cu  Cu2  1  0.80181000  0.79808000  0.89072000  1.0
  Cu  Cu3  1  0.19819000  0.29808000  0.60928000  1.0
  H  H4  1  0.20529000  0.04259000  0.03024000  1.0
  H  H5  1  0.79471000  0.54259000  0.46975000  1.0
  H  H6  1  0.79472000  0.95741000  0.96976000  1.0
  H  H7  1  0.20530000  0.45741000  0.53024000  1.0
  H  H8  1  0.49048000  0.88889000  0.10109000  1.0
  H  H9  1  0.50951000  0.38889000  0.39891000  1.0
  H  H10  1  0.50952000  0.11111000  0.89891000  1.0
  H  H11  1  0.49049000  0.61111000  0.60110000  1.0
  H  H12  1  0.41945000  0.14141000  0.17712000  1.0
  H  H13  1  0.58055000  0.64141000  0.32288000  1.0
  H  H14  1  0.58056000  0.85859000  0.82288000  1.0
  H  H15  1  0.41944000  0.35859000  0.67712000  1.0
  H  H16  1  0.65369000  0.12129000  0.16930000  1.0
  H  H17  1  0.34630000  0.62128000  0.33070000  1.0
  H  H18  1  0.34631000  0.87871000  0.83070000  1.0
  H  H19  1  0.65369000  0.37872000  0.66930000  1.0
  H  H20  1  0.82243000  0.09493000  0.24368000  1.0
  H  H21  1  0.17757000  0.59493000  0.25631000  1.0
  H  H22  1  0.17757000  0.90507000  0.75632000  1.0
  H  H23  1  0.82243000  0.40507000  0.74368000  1.0
  H  H24  1  0.83045000  0.96021000  0.31180000  1.0
  H  H25  1  0.16955000  0.46021000  0.18819000  1.0
  H  H26  1  0.16955000  0.03979000  0.68820000  1.0
  H  H27  1  0.83045000  0.53980000  0.81180000  1.0
  H  H28  1  0.50500000  0.87828000  0.22776000  1.0
  H  H29  1  0.49499000  0.37828000  0.27224000  1.0
  H  H30  1  0.49499000  0.12172000  0.77224000  1.0
  H  H31  1  0.50500000  0.62173000  0.72777000  1.0
  H  H32  1  0.49556000  0.83301000  0.99140000  1.0
  H  H33  1  0.50444000  0.33301000  0.50860000  1.0
  H  H34  1  0.50445000  0.16700000  0.00860000  1.0
  H  H35  1  0.49556000  0.66700000  0.49140000  1.0
  H  H36  1  0.44167000  0.72352000  0.90734000  1.0
  H  H37  1  0.55833000  0.22353000  0.59266000  1.0
  H  H38  1  0.55834000  0.27648000  0.09266000  1.0
  H  H39  1  0.44166000  0.77648000  0.40734000  1.0
  H  H40  1  0.22389000  0.71146000  0.87909000  1.0
  H  H41  1  0.77611000  0.21146000  0.62091000  1.0
  H  H42  1  0.77612000  0.28854000  0.12091000  1.0
  H  H43  1  0.22389000  0.78854000  0.37909000  1.0
  H  H44  1  0.12210000  0.92765000  0.00942000  1.0
  H  H45  1  0.87790000  0.42765000  0.49057000  1.0
  H  H46  1  0.87790000  0.07235000  0.99057000  1.0
  H  H47  1  0.12211000  0.57235000  0.50943000  1.0
  H  H48  1  0.35072000  0.34593000  0.02462000  1.0
  H  H49  1  0.64929000  0.84593000  0.47537000  1.0
  H  H50  1  0.64929000  0.65407000  0.97538000  1.0
  H  H51  1  0.35072000  0.15407000  0.52462000  1.0
  H  H52  1  0.30771000  0.22750000  0.82233000  1.0
  H  H53  1  0.69229000  0.72750000  0.67766000  1.0
  H  H54  1  0.69229000  0.77250000  0.17766000  1.0
  H  H55  1  0.30770000  0.27250000  0.32234000  1.0
  H  H56  1  0.18240000  0.13710000  0.94241000  1.0
  H  H57  1  0.81760000  0.63709000  0.55759000  1.0
  H  H58  1  0.81760000  0.86290000  0.05759000  1.0
  H  H59  1  0.18239000  0.36290000  0.44241000  1.0
  H  H60  1  0.41494000  0.42649000  0.89296000  1.0
  H  H61  1  0.58507000  0.92649000  0.60703000  1.0
  H  H62  1  0.58507000  0.57351000  0.10703000  1.0
  H  H63  1  0.41493000  0.07351000  0.39297000  1.0
  H  H64  1  0.41156000  0.36474000  0.81234000  1.0
  H  H65  1  0.58844000  0.86475000  0.68765000  1.0
  H  H66  1  0.58844000  0.63525000  0.18765000  1.0
  H  H67  1  0.41156000  0.13526000  0.31235000  1.0
  H  H68  1  0.56451000  0.24661000  0.78583000  1.0
  H  H69  1  0.43550000  0.74661000  0.71417000  1.0
  H  H70  1  0.43550000  0.75339000  0.21417000  1.0
  H  H71  1  0.56450000  0.25339000  0.28583000  1.0
  H  H72  1  0.77848000  0.19828000  0.79400000  1.0
  H  H73  1  0.22152000  0.69828000  0.70600000  1.0
  H  H74  1  0.22152000  0.80171000  0.20600000  1.0
  H  H75  1  0.77848000  0.30171000  0.29399000  1.0
  H  H76  1  0.80864000  0.37966000  0.96404000  1.0
  H  H77  1  0.19136000  0.87966000  0.53596000  1.0
  H  H78  1  0.19136000  0.62034000  0.03596000  1.0
  H  H79  1  0.80864000  0.12034000  0.46404000  1.0
  H  H80  1  0.59490000  0.42714000  0.95637000  1.0
  H  H81  1  0.40509000  0.92714000  0.54362000  1.0
  H  H82  1  0.40509000  0.57286000  0.04362000  1.0
  H  H83  1  0.59490000  0.07286000  0.45638000  1.0
  H  H84  1  0.96978000  0.27625000  0.93515000  1.0
  H  H85  1  0.03022000  0.77625000  0.56485000  1.0
  H  H86  1  0.03022000  0.72375000  0.06485000  1.0
  H  H87  1  0.96978000  0.22375000  0.43515000  1.0
  H  H88  1  0.95173000  0.19281000  0.87443000  1.0
  H  H89  1  0.04827000  0.69281000  0.62557000  1.0
  H  H90  1  0.04827000  0.80719000  0.12557000  1.0
  H  H91  1  0.95173000  0.30719000  0.37443000  1.0
  H  H92  1  0.04651000  0.20490000  0.73867000  1.0
  H  H93  1  0.95350000  0.70490000  0.76133000  1.0
  H  H94  1  0.95350000  0.79510000  0.26133000  1.0
  H  H95  1  0.04650000  0.29510000  0.23867000  1.0
  H  H96  1  0.03986000  0.42237000  0.87016000  1.0
  H  H97  1  0.96013000  0.92236000  0.62984000  1.0
  H  H98  1  0.96013000  0.57763000  0.12984000  1.0
  H  H99  1  0.03987000  0.07764000  0.37016000  1.0
  H  H100  1  0.17402000  0.45203000  0.73097000  1.0
  H  H101  1  0.82597000  0.95203000  0.76903000  1.0
  H  H102  1  0.82597000  0.54797000  0.26903000  1.0
  H  H103  1  0.17403000  0.04797000  0.23097000  1.0
  C  C104  1  0.28201000  0.03148000  0.06101000  1.0
  C  C105  1  0.71798000  0.53147000  0.43899000  1.0
  C  C106  1  0.71799000  0.96853000  0.93899000  1.0
  C  C107  1  0.28202000  0.46853000  0.56101000  1.0
  C  C108  1  0.34511000  0.95537000  0.05719000  1.0
  C  C109  1  0.65488000  0.45537000  0.44281000  1.0
  C  C110  1  0.65489000  0.04463000  0.94281000  1.0
  C  C111  1  0.34512000  0.54463000  0.55719000  1.0
  C  C112  1  0.43913000  0.94696000  0.10130000  1.0
  C  C113  1  0.56086000  0.44696000  0.39870000  1.0
  C  C114  1  0.56087000  0.05304000  0.89870000  1.0
  C  C115  1  0.43913000  0.55304000  0.60131000  1.0
  C  C116  1  0.46907000  0.01261000  0.14590000  1.0
  C  C117  1  0.53093000  0.51261000  0.35410000  1.0
  C  C118  1  0.53093000  0.98739000  0.85410000  1.0
  C  C119  1  0.46906000  0.48739000  0.64591000  1.0
  C  C120  1  0.40201000  0.08664000  0.14467000  1.0
  C  C121  1  0.59798000  0.58664000  0.35533000  1.0
  C  C122  1  0.59799000  0.91336000  0.85533000  1.0
  C  C123  1  0.40201000  0.41336000  0.64468000  1.0
  C  C124  1  0.56703000  0.00176000  0.19306000  1.0
  C  C125  1  0.43296000  0.50175000  0.30694000  1.0
  C  C126  1  0.43297000  0.99824000  0.80694000  1.0
  C  C127  1  0.56703000  0.49825000  0.69306000  1.0
  C  C128  1  0.65681000  0.06275000  0.19888000  1.0
  C  C129  1  0.34318000  0.56274000  0.30112000  1.0
  C  C130  1  0.34319000  0.93725000  0.80112000  1.0
  C  C131  1  0.65681000  0.43726000  0.69888000  1.0
  C  C132  1  0.75206000  0.04761000  0.24062000  1.0
  C  C133  1  0.24793000  0.54761000  0.25937000  1.0
  C  C134  1  0.24794000  0.95239000  0.75938000  1.0
  C  C135  1  0.75206000  0.45239000  0.74063000  1.0
  C  C136  1  0.75741000  0.97268000  0.27834000  1.0
  C  C137  1  0.24258000  0.47267000  0.22166000  1.0
  C  C138  1  0.24258000  0.02732000  0.72166000  1.0
  C  C139  1  0.75742000  0.52733000  0.77834000  1.0
  C  C140  1  0.66748000  0.91154000  0.27365000  1.0
  C  C141  1  0.33251000  0.41153000  0.22635000  1.0
  C  C142  1  0.33252000  0.08847000  0.72635000  1.0
  C  C143  1  0.66748000  0.58847000  0.77365000  1.0
  C  C144  1  0.57365000  0.92664000  0.23095000  1.0
  C  C145  1  0.42634000  0.42664000  0.26905000  1.0
  C  C146  1  0.42635000  0.07336000  0.76905000  1.0
  C  C147  1  0.57365000  0.57336000  0.73095000  1.0
  C  C148  1  0.31302000  0.88819000  0.00825000  1.0
  C  C149  1  0.68698000  0.38819000  0.49175000  1.0
  C  C150  1  0.68699000  0.11181000  0.99175000  1.0
  C  C151  1  0.31302000  0.61181000  0.50825000  1.0
  C  C152  1  0.40117000  0.82895000  0.97907000  1.0
  C  C153  1  0.59883000  0.32895000  0.52093000  1.0
  C  C154  1  0.59883000  0.17105000  0.02093000  1.0
  C  C155  1  0.40117000  0.67105000  0.47907000  1.0
  C  C156  1  0.37041000  0.76635000  0.93213000  1.0
  C  C157  1  0.62959000  0.26635000  0.56787000  1.0
  C  C158  1  0.62959000  0.23365000  0.06787000  1.0
  C  C159  1  0.37041000  0.73365000  0.43213000  1.0
  C  C160  1  0.25028000  0.76048000  0.91500000  1.0
  C  C161  1  0.74971000  0.26048000  0.58500000  1.0
  C  C162  1  0.74972000  0.23952000  0.08500000  1.0
  C  C163  1  0.25029000  0.73952000  0.41500000  1.0
  C  C164  1  0.16145000  0.81914000  0.94340000  1.0
  C  C165  1  0.83854000  0.31914000  0.55660000  1.0
  C  C166  1  0.83855000  0.18086000  0.05660000  1.0
  C  C167  1  0.16145000  0.68086000  0.44340000  1.0
  C  C168  1  0.19373000  0.88291000  0.98892000  1.0
  C  C169  1  0.80627000  0.38291000  0.51108000  1.0
  C  C170  1  0.80627000  0.11709000  0.01108000  1.0
  C  C171  1  0.19373000  0.61708000  0.48892000  1.0
  C  C172  1  0.03067000  0.81547000  0.92640000  1.0
  C  C173  1  0.96932000  0.31548000  0.57360000  1.0
  C  C174  1  0.96933000  0.18452000  0.07360000  1.0
  C  C175  1  0.03067000  0.68452000  0.42640000  1.0
  C  C176  1  0.67251000  0.82825000  0.31117000  1.0
  C  C177  1  0.32749000  0.32824000  0.18883000  1.0
  C  C178  1  0.32749000  0.17176000  0.68883000  1.0
  C  C179  1  0.67251000  0.67176000  0.81117000  1.0
  C  C180  1  0.32243000  0.30098000  0.98618000  1.0
  C  C181  1  0.67758000  0.80098000  0.51382000  1.0
  C  C182  1  0.67757000  0.69902000  0.01382000  1.0
  C  C183  1  0.32243000  0.19902000  0.48618000  1.0
  C  C184  1  0.29589000  0.23722000  0.88181000  1.0
  C  C185  1  0.70411000  0.73722000  0.61818000  1.0
  C  C186  1  0.70411000  0.76278000  0.11819000  1.0
  C  C187  1  0.29588000  0.26278000  0.38181000  1.0
  C  C188  1  0.23760000  0.19303000  0.94121000  1.0
  C  C189  1  0.76240000  0.69303000  0.55879000  1.0
  C  C190  1  0.76240000  0.80697000  0.05879000  1.0
  C  C191  1  0.23760000  0.30697000  0.44121000  1.0
  C  C192  1  0.43323000  0.36428000  0.86926000  1.0
  C  C193  1  0.56677000  0.86428000  0.63074000  1.0
  C  C194  1  0.56677000  0.63572000  0.13074000  1.0
  C  C195  1  0.43323000  0.13572000  0.36926000  1.0
  C  C196  1  0.56551000  0.33904000  0.87140000  1.0
  C  C197  1  0.43449000  0.83904000  0.62860000  1.0
  C  C198  1  0.43449000  0.66096000  0.12860000  1.0
  C  C199  1  0.56551000  0.16096000  0.37140000  1.0
  C  C200  1  0.61811000  0.27470000  0.82559000  1.0
  C  C201  1  0.38190000  0.77470000  0.67440000  1.0
  C  C202  1  0.38189000  0.72530000  0.17440000  1.0
  C  C203  1  0.61811000  0.22530000  0.32560000  1.0
  C  C204  1  0.73804000  0.24828000  0.83006000  1.0
  C  C205  1  0.26197000  0.74828000  0.66994000  1.0
  C  C206  1  0.26197000  0.75172000  0.16993000  1.0
  C  C207  1  0.73803000  0.25172000  0.33006000  1.0
  C  C208  1  0.80779000  0.28584000  0.87978000  1.0
  C  C209  1  0.19222000  0.78584000  0.62021000  1.0
  C  C210  1  0.19221000  0.71416000  0.12021000  1.0
  C  C211  1  0.80778000  0.21416000  0.37979000  1.0
  C  C212  1  0.75538000  0.35049000  0.92477000  1.0
  C  C213  1  0.24462000  0.85049000  0.57523000  1.0
  C  C214  1  0.24462000  0.64951000  0.07523000  1.0
  C  C215  1  0.75538000  0.14951000  0.42477000  1.0
  C  C216  1  0.63504000  0.37676000  0.92068000  1.0
  C  C217  1  0.36496000  0.87676000  0.57931000  1.0
  C  C218  1  0.36496000  0.62324000  0.07932000  1.0
  C  C219  1  0.63504000  0.12324000  0.42069000  1.0
  C  C220  1  0.93993000  0.26010000  0.88197000  1.0
  C  C221  1  0.06008000  0.76010000  0.61803000  1.0
  C  C222  1  0.06008000  0.73990000  0.11803000  1.0
  C  C223  1  0.93992000  0.23990000  0.38197000  1.0
  C  C224  1  0.06423000  0.26783000  0.75532000  1.0
  C  C225  1  0.93578000  0.76783000  0.74468000  1.0
  C  C226  1  0.93577000  0.73217000  0.24468000  1.0
  C  C227  1  0.06423000  0.23217000  0.25532000  1.0
  C  C228  1  0.06251000  0.38236000  0.82243000  1.0
  C  C229  1  0.93749000  0.88236000  0.67757000  1.0
  C  C230  1  0.93749000  0.61764000  0.17757000  1.0
  C  C231  1  0.06251000  0.11764000  0.32243000  1.0
  C  C232  1  0.12818000  0.39610000  0.75347000  1.0
  C  C233  1  0.87181000  0.89610000  0.74653000  1.0
  C  C234  1  0.87181000  0.60390000  0.24653000  1.0
  C  C235  1  0.12819000  0.10390000  0.25347000  1.0
  N  N236  1  0.31011000  0.09468000  0.10346000  1.0
  N  N237  1  0.68988000  0.59468000  0.39653000  1.0
  N  N238  1  0.68989000  0.90532000  0.89654000  1.0
  N  N239  1  0.31011000  0.40532000  0.60347000  1.0
  N  N240  1  0.25517000  0.23358000  0.00576000  1.0
  N  N241  1  0.74483000  0.73358000  0.49424000  1.0
  N  N242  1  0.74483000  0.76642000  0.99424000  1.0
  N  N243  1  0.25517000  0.26642000  0.50576000  1.0
  N  N244  1  0.34801000  0.30543000  0.91128000  1.0
  N  N245  1  0.65200000  0.80543000  0.58871000  1.0
  N  N246  1  0.65199000  0.69457000  0.08872000  1.0
  N  N247  1  0.34801000  0.19457000  0.41128000  1.0
  N  N248  1  0.02338000  0.30077000  0.82271000  1.0
  N  N249  1  0.97662000  0.80077000  0.67729000  1.0
  N  N250  1  0.97662000  0.69923000  0.17729000  1.0
  N  N251  1  0.02338000  0.19923000  0.32271000  1.0
  N  N252  1  0.12863000  0.32409000  0.71249000  1.0
  N  N253  1  0.87137000  0.82409000  0.78751000  1.0
  N  N254  1  0.87137000  0.67591000  0.28751000  1.0
  N  N255  1  0.12864000  0.17591000  0.21249000  1.0
  O  O256  1  0.96439000  0.87994000  0.93909000  1.0
  O  O257  1  0.03561000  0.37994000  0.56091000  1.0
  O  O258  1  0.03562000  0.12006000  0.06090000  1.0
  O  O259  1  0.96439000  0.62006000  0.43910000  1.0
  O  O260  1  0.99405000  0.74725000  0.90114000  1.0
  O  O261  1  0.00595000  0.24725000  0.59886000  1.0
  O  O262  1  0.00595000  0.25275000  0.09887000  1.0
  O  O263  1  0.99405000  0.75274000  0.40113000  1.0
  O  O264  1  0.60393000  0.77063000  0.29328000  1.0
  O  O265  1  0.39606000  0.27063000  0.20672000  1.0
  O  O266  1  0.39606000  0.22937000  0.70672000  1.0
  O  O267  1  0.60394000  0.72937000  0.79328000  1.0
  O  O268  1  0.74963000  0.82282000  0.35771000  1.0
  O  O269  1  0.25038000  0.32281000  0.14229000  1.0
  O  O270  1  0.25037000  0.17719000  0.64229000  1.0
  O  O271  1  0.74963000  0.67719000  0.85771000  1.0
