# generated using pymatgen
data_NiH16C10S2(N2O3)2
_symmetry_space_group_name_H-M   'P 1'
_cell_length_a   12.97078018
_cell_length_b   12.96980000
_cell_length_c   20.50690000
_cell_angle_alpha   90.00320000
_cell_angle_beta   89.99990001
_cell_angle_gamma   59.99750000
_symmetry_Int_Tables_number   1
_chemical_formula_structural   NiH16C10S2(N2O3)2
_chemical_formula_sum   'Ni6 H96 C60 S12 N24 O36'
_cell_volume   2987.57682312
_cell_formula_units_Z   6
loop_
 _symmetry_equiv_pos_site_id
 _symmetry_equiv_pos_as_xyz
  1  'x, y, z'
loop_
 _atom_site_type_symbol
 _atom_site_label
 _atom_site_symmetry_multiplicity
 _atom_site_fract_x
 _atom_site_fract_y
 _atom_site_fract_z
 _atom_site_occupancy
  Ni  Ni0  1  0.92784000  0.62543000  0.34233000  1.0
  Ni  Ni1  1  0.62520000  0.44686000  0.00901000  1.0
  Ni  Ni2  1  0.44673000  0.92801000  0.67565000  1.0
  Ni  Ni3  1  0.07206000  0.55314000  0.99099000  1.0
  Ni  Ni4  1  0.37474000  0.07199000  0.32435000  1.0
  Ni  Ni5  1  0.55327000  0.37457000  0.65767000  1.0
  H  H6  1  0.61960000  0.61931000  0.47309000  1.0
  H  H7  1  0.61931000  0.76121000  0.13973000  1.0
  H  H8  1  0.76126000  0.61955000  0.80632000  1.0
  H  H9  1  0.38052000  0.23879000  0.86027000  1.0
  H  H10  1  0.38081000  0.38045000  0.19368000  1.0
  H  H11  1  0.23891000  0.38069000  0.52691000  1.0
  H  H12  1  0.90018000  0.34241000  0.19750000  1.0
  H  H13  1  0.34247000  0.75748000  0.86393000  1.0
  H  H14  1  0.75758000  0.90004000  0.53071000  1.0
  H  H15  1  0.09995000  0.24252000  0.13607000  1.0
  H  H16  1  0.65762000  0.09996000  0.46929000  1.0
  H  H17  1  0.24259000  0.65759000  0.80250000  1.0
  H  H18  1  0.01437000  0.53161000  0.45513000  1.0
  H  H19  1  0.53144000  0.45410000  0.12184000  1.0
  H  H20  1  0.45396000  0.01451000  0.78848000  1.0
  H  H21  1  0.98554000  0.54590000  0.87816000  1.0
  H  H22  1  0.46847000  0.98549000  0.21152000  1.0
  H  H23  1  0.54598000  0.46840000  0.54487000  1.0
  H  H24  1  0.91061000  0.67870000  0.45883000  1.0
  H  H25  1  0.67851000  0.41087000  0.12553000  1.0
  H  H26  1  0.41079000  0.91064000  0.79216000  1.0
  H  H27  1  0.08938000  0.58913000  0.87447000  1.0
  H  H28  1  0.32143000  0.08936000  0.20784000  1.0
  H  H29  1  0.58931000  0.32130000  0.54117000  1.0
  H  H30  1  0.82777000  0.72667000  0.23468000  1.0
  H  H31  1  0.72669000  0.44558000  0.90136000  1.0
  H  H32  1  0.44565000  0.82777000  0.56806000  1.0
  H  H33  1  0.17227000  0.55442000  0.09864000  1.0
  H  H34  1  0.27342000  0.17223000  0.43194000  1.0
  H  H35  1  0.55444000  0.27333000  0.76532000  1.0
  H  H36  1  0.97034000  0.62232000  0.22577000  1.0
  H  H37  1  0.62242000  0.40732000  0.89241000  1.0
  H  H38  1  0.40730000  0.97032000  0.55906000  1.0
  H  H39  1  0.02974000  0.59268000  0.10759000  1.0
  H  H40  1  0.37762000  0.02968000  0.44094000  1.0
  H  H41  1  0.59266000  0.37768000  0.77423000  1.0
  H  H42  1  0.86441000  0.53768000  0.17551000  1.0
  H  H43  1  0.53778000  0.59774000  0.84210000  1.0
  H  H44  1  0.59783000  0.86453000  0.50883000  1.0
  H  H45  1  0.13552000  0.40226000  0.15790000  1.0
  H  H46  1  0.46236000  0.13547000  0.49117000  1.0
  H  H47  1  0.40209000  0.46232000  0.82449000  1.0
  H  H48  1  0.75829000  0.59357000  0.24008000  1.0
  H  H49  1  0.59353000  0.64821000  0.90664000  1.0
  H  H50  1  0.64819000  0.75836000  0.57336000  1.0
  H  H51  1  0.24174000  0.35179000  0.09336000  1.0
  H  H52  1  0.40655000  0.24164000  0.42664000  1.0
  H  H53  1  0.35186000  0.40642000  0.75992000  1.0
  H  H54  1  0.56071000  0.66927000  0.33349000  1.0
  H  H55  1  0.66924000  0.76992000  0.00006000  1.0
  H  H56  1  0.76993000  0.56093000  0.66666667  1.0
  H  H57  1  0.43917000  0.23007000  0.99994000  1.0
  H  H58  1  0.33085000  0.43908000  0.33333333  1.0
  H  H59  1  0.22998000  0.33073000  0.66651000  1.0
  H  H60  1  0.35811000  0.70402000  0.37482000  1.0
  H  H61  1  0.70423000  0.93778000  0.04140000  1.0
  H  H62  1  0.93785000  0.35800000  0.70794000  1.0
  H  H63  1  0.64201000  0.06222000  0.95860000  1.0
  H  H64  1  0.29585000  0.64200000  0.29206000  1.0
  H  H65  1  0.06213000  0.29597000  0.62518000  1.0
  H  H66  1  0.42119000  0.66350000  0.45341000  1.0
  H  H67  1  0.66353000  0.91525000  0.11995000  1.0
  H  H68  1  0.91538000  0.42123000  0.78649000  1.0
  H  H69  1  0.57878000  0.08475000  0.88005000  1.0
  H  H70  1  0.33661000  0.57877000  0.21351000  1.0
  H  H71  1  0.08469000  0.33650000  0.54659000  1.0
  H  H72  1  0.97969000  0.25245000  0.33238000  1.0
  H  H73  1  0.25229000  0.76789000  0.99874000  1.0
  H  H74  1  0.76815000  0.97974000  0.66551000  1.0
  H  H75  1  0.02018000  0.23211000  0.00126000  1.0
  H  H76  1  0.74789000  0.02026000  0.33449000  1.0
  H  H77  1  0.23214000  0.74755000  0.66762000  1.0
  H  H78  1  0.00034000  0.06247000  0.28334000  1.0
  H  H79  1  0.06223000  0.93714000  0.94992000  1.0
  H  H80  1  0.93742000  0.00027000  0.61648000  1.0
  H  H81  1  0.99937000  0.06286000  0.05008000  1.0
  H  H82  1  0.93768000  0.99974000  0.38352000  1.0
  H  H83  1  0.06281000  0.93753000  0.71666000  1.0
  H  H84  1  0.94549000  0.13965000  0.20823000  1.0
  H  H85  1  0.13923000  0.91519000  0.87477000  1.0
  H  H86  1  0.91509000  0.94536000  0.54136000  1.0
  H  H87  1  0.05442000  0.08481000  0.12523000  1.0
  H  H88  1  0.86045000  0.05464000  0.45864000  1.0
  H  H89  1  0.08514000  0.86035000  0.79176000  1.0
  H  H90  1  0.87457000  0.47048000  0.44704000  1.0
  H  H91  1  0.47018000  0.65507000  0.11368000  1.0
  H  H92  1  0.65495000  0.87490000  0.78026000  1.0
  H  H93  1  0.12525000  0.34493000  0.88632000  1.0
  H  H94  1  0.52985000  0.12510000  0.21974000  1.0
  H  H95  1  0.34505000  0.52952000  0.55296000  1.0
  H  H96  1  0.81226000  0.58351000  0.50775000  1.0
  H  H97  1  0.58315000  0.60447000  0.17447000  1.0
  H  H98  1  0.60443000  0.81248000  0.84103000  1.0
  H  H99  1  0.18762000  0.39553000  0.82553000  1.0
  H  H100  1  0.41691000  0.18752000  0.15897000  1.0
  H  H101  1  0.39577000  0.41650000  0.49225000  1.0
  C  C102  1  0.85315000  0.55666000  0.22815000  1.0
  C  C103  1  0.55671000  0.59017000  0.89473000  1.0
  C  C104  1  0.59018000  0.85322000  0.56146000  1.0
  C  C105  1  0.14688000  0.40983000  0.10527000  1.0
  C  C106  1  0.44340000  0.14678000  0.43854000  1.0
  C  C107  1  0.40981000  0.44333000  0.77185000  1.0
  C  C108  1  0.52803000  0.69584000  0.38352000  1.0
  C  C109  1  0.69584000  0.77606000  0.05008000  1.0
  C  C110  1  0.77610000  0.52813000  0.71669000  1.0
  C  C111  1  0.47190000  0.22394000  0.94992000  1.0
  C  C112  1  0.30423000  0.47187000  0.28331000  1.0
  C  C113  1  0.22387000  0.30416000  0.61648000  1.0
  C  C114  1  0.92126000  0.44388000  0.26833000  1.0
  C  C115  1  0.44380000  0.63495000  0.93484000  1.0
  C  C116  1  0.63498000  0.92132000  0.60159000  1.0
  C  C117  1  0.07875000  0.36505000  0.06516000  1.0
  C  C118  1  0.55630000  0.07868000  0.39841000  1.0
  C  C119  1  0.36514000  0.55612000  0.73167000  1.0
  C  C120  1  0.44263000  0.65183000  0.40092000  1.0
  C  C121  1  0.65195000  0.90547000  0.06745000  1.0
  C  C122  1  0.90555000  0.44260000  0.73400000  1.0
  C  C123  1  0.55742000  0.09453000  0.93255000  1.0
  C  C124  1  0.34815000  0.55741000  0.26600000  1.0
  C  C125  1  0.09446000  0.34817000  0.59908000  1.0
  C  C126  1  0.99306000  0.23277000  0.27999000  1.0
  C  C127  1  0.23265000  0.77422000  0.94634000  1.0
  C  C128  1  0.77438000  0.99302000  0.61310000  1.0
  C  C129  1  0.00687000  0.22578000  0.05366000  1.0
  C  C130  1  0.76740000  0.00698000  0.38690000  1.0
  C  C131  1  0.22583000  0.76723000  0.72001000  1.0
  C  C132  1  0.94500000  0.15070000  0.26147000  1.0
  C  C133  1  0.15039000  0.90440000  0.92798000  1.0
  C  C134  1  0.90450000  0.94496000  0.59459000  1.0
  C  C135  1  0.05479000  0.09560000  0.07202000  1.0
  C  C136  1  0.84946000  0.05504000  0.40541000  1.0
  C  C137  1  0.09570000  0.84930000  0.73853000  1.0
  C  C138  1  0.84016000  0.56587000  0.45620000  1.0
  C  C139  1  0.56555000  0.59417000  0.12292000  1.0
  C  C140  1  0.59411000  0.84035000  0.78948000  1.0
  C  C141  1  0.15972000  0.40583000  0.87708000  1.0
  C  C142  1  0.43446000  0.15965000  0.21052000  1.0
  C  C143  1  0.40603000  0.43413000  0.54380000  1.0
  C  C144  1  0.73436000  0.63324000  0.41068000  1.0
  C  C145  1  0.63296000  0.63255000  0.07738000  1.0
  C  C146  1  0.63252000  0.73453000  0.74397000  1.0
  C  C147  1  0.26551000  0.36745000  0.92262000  1.0
  C  C148  1  0.36705000  0.26547000  0.25603000  1.0
  C  C149  1  0.36759000  0.36677000  0.58932000  1.0
  C  C150  1  0.12918000  0.16827000  0.26718000  1.0
  C  C151  1  0.16834000  0.70243000  0.93352000  1.0
  C  C152  1  0.70251000  0.12913000  0.60033000  1.0
  C  C153  1  0.87077000  0.29757000  0.06649000  1.0
  C  C154  1  0.83164000  0.87087000  0.39967000  1.0
  C  C155  1  0.29745000  0.83172000  0.73282000  1.0
  C  C156  1  0.46110000  0.83383000  0.38740000  1.0
  C  C157  1  0.83377000  0.70487000  0.05401000  1.0
  C  C158  1  0.70495000  0.46131000  0.72059000  1.0
  C  C159  1  0.53864000  0.29513000  0.94599000  1.0
  C  C160  1  0.16626000  0.53869000  0.27941000  1.0
  C  C161  1  0.29493000  0.16617000  0.61260000  1.0
  S  S162  1  0.78940000  0.20771000  0.28381000  1.0
  S  S163  1  0.20733000  0.00302000  0.95042000  1.0
  S  S164  1  0.00301000  0.78935000  0.61702000  1.0
  S  S165  1  0.21035000  0.99698000  0.04958000  1.0
  S  S166  1  0.79236000  0.21065000  0.38298000  1.0
  S  S167  1  0.99711000  0.79229000  0.71619000  1.0
  S  S168  1  0.50327000  0.49388000  0.38320000  1.0
  S  S169  1  0.49405000  0.00283000  0.04970000  1.0
  S  S170  1  0.00276000  0.50333000  0.71621000  1.0
  S  S171  1  0.49688000  0.99716000  0.95030000  1.0
  S  S172  1  0.50609000  0.49667000  0.28379000  1.0
  S  S173  1  0.99715000  0.50612000  0.61680000  1.0
  N  N174  1  0.63029000  0.64178000  0.42721000  1.0
  N  N175  1  0.64160000  0.72806000  0.09383000  1.0
  N  N176  1  0.72806000  0.63037000  0.76044000  1.0
  N  N177  1  0.36966000  0.27194000  0.90617000  1.0
  N  N178  1  0.35843000  0.36963000  0.23956000  1.0
  N  N179  1  0.27207000  0.35823000  0.57279000  1.0
  N  N180  1  0.93116000  0.34387000  0.24410000  1.0
  N  N181  1  0.34384000  0.72514000  0.91054000  1.0
  N  N182  1  0.72520000  0.93101000  0.57731000  1.0
  N  N183  1  0.06898000  0.27486000  0.08946000  1.0
  N  N184  1  0.65621000  0.06899000  0.42269000  1.0
  N  N185  1  0.27502000  0.65614000  0.75590000  1.0
  N  N186  1  0.93239000  0.59575000  0.43978000  1.0
  N  N187  1  0.59554000  0.47201000  0.10650000  1.0
  N  N188  1  0.47190000  0.93249000  0.77311000  1.0
  N  N189  1  0.06755000  0.52799000  0.89350000  1.0
  N  N190  1  0.40439000  0.06751000  0.22689000  1.0
  N  N191  1  0.52814000  0.40425000  0.56022000  1.0
  N  N192  1  0.89011000  0.64224000  0.24773000  1.0
  N  N193  1  0.64225000  0.46767000  0.91439000  1.0
  N  N194  1  0.46769000  0.89017000  0.58107000  1.0
  N  N195  1  0.10992000  0.53233000  0.08561000  1.0
  N  N196  1  0.35786000  0.10983000  0.41893000  1.0
  N  N197  1  0.53235000  0.35776000  0.75227000  1.0
  O  O198  1  0.43633000  0.88869000  0.33315000  1.0
  O  O199  1  0.88873000  0.67475000  0.99981000  1.0
  O  O200  1  0.67501000  0.43633000  0.66638000  1.0
  O  O201  1  0.56349000  0.32524000  0.00019000  1.0
  O  O202  1  0.11134000  0.56367000  0.33362000  1.0
  O  O203  1  0.32502000  0.11131000  0.66685000  1.0
  O  O204  1  0.96327000  0.44801000  0.32312000  1.0
  O  O205  1  0.44773000  0.58888000  0.98961000  1.0
  O  O206  1  0.58893000  0.96342000  0.65638000  1.0
  O  O207  1  0.03661000  0.41112000  0.01039000  1.0
  O  O208  1  0.55235000  0.03658000  0.34362000  1.0
  O  O209  1  0.41128000  0.55199000  0.67688000  1.0
  O  O210  1  0.74575000  0.67458000  0.35784000  1.0
  O  O211  1  0.67427000  0.57965000  0.02458000  1.0
  O  O212  1  0.57965000  0.74602000  0.69117000  1.0
  O  O213  1  0.25392000  0.42035000  0.97542000  1.0
  O  O214  1  0.32567000  0.25398000  0.30883000  1.0
  O  O215  1  0.42033000  0.32542000  0.64216000  1.0
  O  O216  1  0.16347000  0.16762000  0.20882000  1.0
  O  O217  1  0.16781000  0.66865000  0.87517000  1.0
  O  O218  1  0.66883000  0.16352000  0.54198000  1.0
  O  O219  1  0.83646000  0.33135000  0.12483000  1.0
  O  O220  1  0.83235000  0.83648000  0.45802000  1.0
  O  O221  1  0.33109000  0.83238000  0.79118000  1.0
  O  O222  1  0.19475000  0.11952000  0.31632000  1.0
  O  O223  1  0.11955000  0.68564000  0.98265000  1.0
  O  O224  1  0.68548000  0.19465000  0.64953000  1.0
  O  O225  1  0.80519000  0.31436000  0.01736000  1.0
  O  O226  1  0.88013000  0.80535000  0.35047000  1.0
  O  O227  1  0.31427000  0.88048000  0.68368000  1.0
  O  O228  1  0.43659000  0.87595000  0.44436000  1.0
  O  O229  1  0.87577000  0.68723000  0.11100000  1.0
  O  O230  1  0.68724000  0.43700000  0.77758000  1.0
  O  O231  1  0.56299000  0.31278000  0.88900000  1.0
  O  O232  1  0.12424000  0.56300000  0.22242000  1.0
  O  O233  1  0.31254000  0.12405000  0.55564000  1.0
