# generated using pymatgen
data_AgH6C5NO2
_symmetry_space_group_name_H-M   'P 1'
_cell_length_a   8.13945000
_cell_length_b   8.13943000
_cell_length_c   9.50580000
_cell_angle_alpha   89.19440000
_cell_angle_beta   89.19440000
_cell_angle_gamma   71.42520000
_symmetry_Int_Tables_number   1
_chemical_formula_structural   AgH6C5NO2
_chemical_formula_sum   'Ag4 H24 C20 N4 O8'
_cell_volume   596.86906319
_cell_formula_units_Z   4
loop_
 _symmetry_equiv_pos_site_id
 _symmetry_equiv_pos_as_xyz
  1  'x, y, z'
loop_
 _atom_site_type_symbol
 _atom_site_label
 _atom_site_symmetry_multiplicity
 _atom_site_fract_x
 _atom_site_fract_y
 _atom_site_fract_z
 _atom_site_occupancy
  Ag  Ag0  1  0.00000000  0.00000000  0.50000000  1.0
  Ag  Ag1  1  0.00000000  0.00000000  0.00000000  1.0
  Ag  Ag2  1  0.16882000  0.83118000  0.25000000  1.0
  Ag  Ag3  1  0.83118000  0.16882000  0.75000000  1.0
  H  H4  1  0.99505000  0.40324000  0.08972000  1.0
  H  H5  1  0.59676000  0.00495000  0.41028000  1.0
  H  H6  1  0.00495000  0.59676000  0.91028000  1.0
  H  H7  1  0.40324000  0.99505000  0.58972000  1.0
  H  H8  1  0.03649000  0.51292000  0.23810000  1.0
  H  H9  1  0.48708000  0.96351000  0.26190000  1.0
  H  H10  1  0.96351000  0.48708000  0.76190000  1.0
  H  H11  1  0.51292000  0.03649000  0.73810000  1.0
  H  H12  1  0.68697000  0.46391000  0.16928000  1.0
  H  H13  1  0.53609000  0.31303000  0.33072000  1.0
  H  H14  1  0.31303000  0.53609000  0.83072000  1.0
  H  H15  1  0.46391000  0.68697000  0.66928000  1.0
  H  H16  1  0.73323000  0.66072000  0.16704000  1.0
  H  H17  1  0.33928000  0.26677000  0.33295000  1.0
  H  H18  1  0.26677000  0.33927000  0.83296000  1.0
  H  H19  1  0.66072000  0.73323000  0.66704000  1.0
  H  H20  1  0.58499000  0.60739000  0.39760000  1.0
  H  H21  1  0.39261000  0.41501000  0.10240000  1.0
  H  H22  1  0.41501000  0.39262000  0.60240000  1.0
  H  H23  1  0.60739000  0.58499000  0.89760000  1.0
  H  H24  1  0.78573000  0.64533000  0.41943000  1.0
  H  H25  1  0.35467000  0.21426000  0.08056000  1.0
  H  H26  1  0.21427000  0.35466000  0.58057000  1.0
  H  H27  1  0.64534000  0.78574000  0.91944000  1.0
  C  C28  1  0.00847000  0.26567000  0.28117000  1.0
  C  C29  1  0.73433000  0.99152000  0.21883000  1.0
  C  C30  1  0.99153000  0.73433000  0.71883000  1.0
  C  C31  1  0.26567000  0.00847000  0.78117000  1.0
  C  C32  1  0.95769000  0.43467000  0.19991000  1.0
  C  C33  1  0.56533000  0.04230000  0.30008000  1.0
  C  C34  1  0.04231000  0.56533000  0.80008000  1.0
  C  C35  1  0.43467000  0.95770000  0.69991000  1.0
  C  C36  1  0.76585000  0.53372000  0.21892000  1.0
  C  C37  1  0.46628000  0.23414000  0.28108000  1.0
  C  C38  1  0.23415000  0.46628000  0.78108000  1.0
  C  C39  1  0.53372000  0.76586000  0.71892000  1.0
  C  C40  1  0.72464000  0.55431000  0.37552000  1.0
  C  C41  1  0.44568000  0.27536000  0.12447000  1.0
  C  C42  1  0.27536000  0.44568000  0.62448000  1.0
  C  C43  1  0.55432000  0.72464000  0.87553000  1.0
  C  C44  1  0.20755000  0.61419000  0.54307000  1.0
  C  C45  1  0.38581000  0.79245000  0.95693000  1.0
  C  C46  1  0.79244000  0.38581000  0.45693000  1.0
  C  C47  1  0.61419000  0.20755000  0.04307000  1.0
  N  N48  1  0.92272000  0.24960000  0.40280000  1.0
  N  N49  1  0.75040000  0.07728000  0.09720000  1.0
  N  N50  1  0.07728000  0.75040000  0.59720000  1.0
  N  N51  1  0.24960000  0.92272000  0.90280000  1.0
  O  O52  1  0.13086000  0.14012000  0.23594000  1.0
  O  O53  1  0.85988000  0.86915000  0.26406000  1.0
  O  O54  1  0.86915000  0.85988000  0.76406000  1.0
  O  O55  1  0.14012000  0.13085000  0.73593000  1.0
  O  O56  1  0.27413000  0.62597000  0.42480000  1.0
  O  O57  1  0.37403000  0.72588000  0.07520000  1.0
  O  O58  1  0.72588000  0.37403000  0.57520000  1.0
  O  O59  1  0.62597000  0.27413000  0.92480000  1.0
