# generated using pymatgen
data_ZnSiH20C24(N2F3)2
_symmetry_space_group_name_H-M   'P 1'
_cell_length_a   7.81692000
_cell_length_b   13.73700000
_cell_length_c   13.73700000
_cell_angle_alpha   89.68560000
_cell_angle_beta   85.96590000
_cell_angle_gamma   85.96670000
_symmetry_Int_Tables_number   1
_chemical_formula_structural   ZnSiH20C24(N2F3)2
_chemical_formula_sum   'Zn1 Si1 H20 C24 N4 F6'
_cell_volume   1467.79398740
_cell_formula_units_Z   1
loop_
 _symmetry_equiv_pos_site_id
 _symmetry_equiv_pos_as_xyz
  1  'x, y, z'
loop_
 _atom_site_type_symbol
 _atom_site_label
 _atom_site_symmetry_multiplicity
 _atom_site_fract_x
 _atom_site_fract_y
 _atom_site_fract_z
 _atom_site_occupancy
  Zn  Zn0  1  0.50001000  0.50000000  0.50000000  1.0
  Si  Si1  1  0.00000000  0.50000000  0.50000000  1.0
  H  H2  1  0.25490000  0.49994000  0.33479000  1.0
  H  H3  1  0.26447000  0.49996000  0.15513000  1.0
  H  H4  1  0.81823000  0.50004000  0.15329000  1.0
  H  H5  1  0.78642000  0.50004000  0.33455000  1.0
  H  H6  1  0.18174000  0.49996000  0.84670000  1.0
  H  H7  1  0.73550000  0.50003000  0.84488000  1.0
  H  H8  1  0.74510000  0.50005000  0.66522000  1.0
  H  H9  1  0.21359000  0.49996000  0.66544000  1.0
  H  H10  1  0.69702000  0.50001000  0.99948000  1.0
  H  H11  1  0.30293000  0.49999000  0.00052000  1.0
  H  H12  1  0.25490000  0.33479000  0.49994000  1.0
  H  H13  1  0.26447000  0.15513000  0.49996000  1.0
  H  H14  1  0.81823000  0.15329000  0.50004000  1.0
  H  H15  1  0.78642000  0.33455000  0.50004000  1.0
  H  H16  1  0.18173000  0.84670000  0.49997000  1.0
  H  H17  1  0.73549000  0.84488000  0.50004000  1.0
  H  H18  1  0.74510000  0.66522000  0.50006000  1.0
  H  H19  1  0.21359000  0.66544000  0.49996000  1.0
  H  H20  1  0.69702000  0.99948000  0.50001000  1.0
  H  H21  1  0.30293000  0.00052000  0.49999000  1.0
  C  C22  1  0.37751000  0.49997000  0.29199000  1.0
  C  C23  1  0.38450000  0.49999000  0.19086000  1.0
  C  C24  1  0.54411000  0.50004000  0.13674000  1.0
  C  C25  1  0.69041000  0.50006000  0.19062000  1.0
  C  C26  1  0.67394000  0.50003000  0.29205000  1.0
  C  C27  1  0.56418000  0.50002000  0.03046000  1.0
  C  C28  1  0.43578000  0.49999000  0.96954000  1.0
  C  C29  1  0.30958000  0.49993000  0.80937000  1.0
  C  C30  1  0.45585000  0.49997000  0.86326000  1.0
  C  C31  1  0.61548000  0.50001000  0.80915000  1.0
  C  C32  1  0.62248000  0.50002000  0.70801000  1.0
  C  C33  1  0.32605000  0.49997000  0.70794000  1.0
  C  C34  1  0.37751000  0.29200000  0.49997000  1.0
  C  C35  1  0.38450000  0.19086000  0.49999000  1.0
  C  C36  1  0.54412000  0.13674000  0.50004000  1.0
  C  C37  1  0.69041000  0.19062000  0.50006000  1.0
  C  C38  1  0.67395000  0.29205000  0.50003000  1.0
  C  C39  1  0.56418000  0.03046000  0.50002000  1.0
  C  C40  1  0.43577000  0.96954000  0.49999000  1.0
  C  C41  1  0.30957000  0.80937000  0.49993000  1.0
  C  C42  1  0.45585000  0.86326000  0.49997000  1.0
  C  C43  1  0.61548000  0.80915000  0.50002000  1.0
  C  C44  1  0.62247000  0.70801000  0.50002000  1.0
  C  C45  1  0.32604000  0.70794000  0.49997000  1.0
  N  N46  1  0.51975000  0.50000000  0.34247000  1.0
  N  N47  1  0.48025000  0.50000000  0.65753000  1.0
  N  N48  1  0.51975000  0.34247000  0.50000000  1.0
  N  N49  1  0.48025000  0.65753000  0.50000000  1.0
  F  F50  1  0.22565000  0.49998000  0.49998000  1.0
  F  F51  1  0.77435000  0.50002000  0.50002000  1.0
  F  F52  1  0.00001000  0.58778000  0.41222000  1.0
  F  F53  1  0.99999000  0.41222000  0.58778000  1.0
  F  F54  1  0.02157000  0.41226000  0.41226000  1.0
  F  F55  1  0.97843000  0.58774000  0.58774000  1.0
