# generated using pymatgen
data_ZnH5C9N5
_symmetry_space_group_name_H-M   'P 1'
_cell_length_a   10.83300000
_cell_length_b   13.93021414
_cell_length_c   13.93490000
_cell_angle_alpha   113.53115199
_cell_angle_beta   105.03200000
_cell_angle_gamma   104.99713142
_symmetry_Int_Tables_number   1
_chemical_formula_structural   ZnH5C9N5
_chemical_formula_sum   'Zn6 H30 C54 N30'
_cell_volume   1699.00396494
_cell_formula_units_Z   6
loop_
 _symmetry_equiv_pos_site_id
 _symmetry_equiv_pos_as_xyz
  1  'x, y, z'
loop_
 _atom_site_type_symbol
 _atom_site_label
 _atom_site_symmetry_multiplicity
 _atom_site_fract_x
 _atom_site_fract_y
 _atom_site_fract_z
 _atom_site_occupancy
  Zn  Zn0  1  0.97209000  0.07987000  0.74800000  1.0
  Zn  Zn1  1  0.22410000  0.25193000  0.33178000  1.0
  Zn  Zn2  1  0.89208000  0.66827000  0.92015000  1.0
  Zn  Zn3  1  0.39232000  0.92015000  0.66822000  1.0
  Zn  Zn4  1  0.47193000  0.74812000  0.07985000  1.0
  Zn  Zn5  1  0.72409000  0.33187000  0.25200000  1.0
  H  H6  1  0.40621000  0.13251000  0.36196000  1.0
  H  H7  1  0.04420000  0.63808000  0.77091000  1.0
  H  H8  1  0.27333000  0.22930000  0.86739000  1.0
  H  H9  1  0.77328000  0.86717000  0.22909000  1.0
  H  H10  1  0.90595000  0.36192000  0.13262000  1.0
  H  H11  1  0.54425000  0.77055000  0.63804000  1.0
  H  H12  1  0.45416000  0.02501000  0.46428000  1.0
  H  H13  1  0.99020000  0.53581000  0.56122000  1.0
  H  H14  1  0.42883000  0.43901000  0.97491000  1.0
  H  H15  1  0.92898000  0.97459000  0.43878000  1.0
  H  H16  1  0.95393000  0.46410000  0.02509000  1.0
  H  H17  1  0.48988000  0.56073000  0.53572000  1.0
  H  H18  1  0.11254000  0.20529000  0.48735000  1.0
  H  H19  1  0.62500000  0.51235000  0.71769000  1.0
  H  H20  1  0.90715000  0.28235000  0.79477000  1.0
  H  H21  1  0.40731000  0.79466000  0.28231000  1.0
  H  H22  1  0.61238000  0.48758000  0.20523000  1.0
  H  H23  1  0.12519000  0.71794000  0.51264000  1.0
  H  H24  1  0.23935000  0.84789000  0.85422000  1.0
  H  H25  1  0.38509000  0.14594000  0.99378000  1.0
  H  H26  1  0.39096000  0.00648000  0.15217000  1.0
  H  H27  1  0.89131000  0.15216000  0.00622000  1.0
  H  H28  1  0.73879000  0.85431000  0.84783000  1.0
  H  H29  1  0.88513000  0.99367000  0.14578000  1.0
  H  H30  1  0.03215000  0.92609000  0.87409000  1.0
  H  H31  1  0.15814000  0.12605000  0.05211000  1.0
  H  H32  1  0.10566000  0.94815000  0.07395000  1.0
  H  H33  1  0.60603000  0.07394000  0.94789000  1.0
  H  H34  1  0.53171000  0.87420000  0.92605000  1.0
  H  H35  1  0.65806000  0.05200000  0.12591000  1.0
  C  C36  1  0.35187000  0.12253000  0.41530000  1.0
  C  C37  1  0.93657000  0.58465000  0.70747000  1.0
  C  C38  1  0.22906000  0.29269000  0.87740000  1.0
  C  C39  1  0.72911000  0.87719000  0.29254000  1.0
  C  C40  1  0.85166000  0.41529000  0.12260000  1.0
  C  C41  1  0.43657000  0.70723000  0.58470000  1.0
  C  C42  1  0.37910000  0.06332000  0.47211000  1.0
  C  C43  1  0.90717000  0.52785000  0.59150000  1.0
  C  C44  1  0.31550000  0.40869000  0.93666000  1.0
  C  C45  1  0.81567000  0.93635000  0.40850000  1.0
  C  C46  1  0.87884000  0.47203000  0.06334000  1.0
  C  C47  1  0.40699000  0.59121000  0.52789000  1.0
  C  C48  1  0.30515000  0.05543000  0.53936000  1.0
  C  C49  1  0.76599000  0.46057000  0.51621000  1.0
  C  C50  1  0.24958000  0.48396000  0.94465000  1.0
  C  C51  1  0.74979000  0.94437000  0.48380000  1.0
  C  C52  1  0.80493000  0.53931000  0.05535000  1.0
  C  C53  1  0.26579000  0.51607000  0.46064000  1.0
  C  C54  1  0.20696000  0.10759000  0.54629000  1.0
  C  C55  1  0.66080000  0.45358000  0.56132000  1.0
  C  C56  1  0.09925000  0.43884000  0.89253000  1.0
  C  C57  1  0.59948000  0.89226000  0.43868000  1.0
  C  C58  1  0.70672000  0.54631000  0.10747000  1.0
  C  C59  1  0.16066000  0.56130000  0.45371000  1.0
  C  C60  1  0.18639000  0.16486000  0.48561000  1.0
  C  C61  1  0.70074000  0.51423000  0.67920000  1.0
  C  C62  1  0.02139000  0.32091000  0.83519000  1.0
  C  C63  1  0.52154000  0.83503000  0.32080000  1.0
  C  C64  1  0.68620000  0.48572000  0.16482000  1.0
  C  C65  1  0.20078000  0.67925000  0.51439000  1.0
  C  C66  1  0.20751000  0.02860000  0.64852000  1.0
  C  C67  1  0.55917000  0.35150000  0.38014000  1.0
  C  C68  1  0.17882000  0.62009000  0.97164000  1.0
  C  C69  1  0.67904000  0.97136000  0.61986000  1.0
  C  C70  1  0.70718000  0.64845000  0.02836000  1.0
  C  C71  1  0.05899000  0.38008000  0.35148000  1.0
  C  C72  1  0.18240000  0.98624000  0.72343000  1.0
  C  C73  1  0.45908000  0.27666000  0.26287000  1.0
  C  C74  1  0.19597000  0.73735000  0.01395000  1.0
  C  C75  1  0.69621000  0.01379000  0.73713000  1.0
  C  C76  1  0.68202000  0.72340000  0.98605000  1.0
  C  C77  1  0.95896000  0.26281000  0.27657000  1.0
  C  C78  1  0.20113000  0.89572000  0.81782000  1.0
  C  C79  1  0.38335000  0.18231000  0.07799000  1.0
  C  C80  1  0.30502000  0.92225000  0.10438000  1.0
  C  C81  1  0.80535000  0.10431000  0.92200000  1.0
  C  C82  1  0.70063000  0.81786000  0.89561000  1.0
  C  C83  1  0.88331000  0.07790000  0.18218000  1.0
  C  C84  1  0.09764000  0.93534000  0.82851000  1.0
  C  C85  1  0.26921000  0.17162000  0.10695000  1.0
  C  C86  1  0.16192000  0.89330000  0.06474000  1.0
  C  C87  1  0.66227000  0.06467000  0.89306000  1.0
  C  C88  1  0.59718000  0.82856000  0.93526000  1.0
  C  C89  1  0.76913000  0.10683000  0.17149000  1.0
  N  N90  1  0.25864000  0.17166000  0.42129000  1.0
  N  N91  1  0.83725000  0.57862000  0.75044000  1.0
  N  N92  1  0.08673000  0.24966000  0.82828000  1.0
  N  N93  1  0.58681000  0.82818000  0.24956000  1.0
  N  N94  1  0.75845000  0.42138000  0.17172000  1.0
  N  N95  1  0.33735000  0.75037000  0.57871000  1.0
  N  N96  1  0.14588000  0.08871000  0.61626000  1.0
  N  N97  1  0.52978000  0.38365000  0.47243000  1.0
  N  N98  1  0.05712000  0.52776000  0.91152000  1.0
  N  N99  1  0.55735000  0.91122000  0.52757000  1.0
  N  N100  1  0.64560000  0.61624000  0.08848000  1.0
  N  N101  1  0.02962000  0.47245000  0.38374000  1.0
  N  N102  1  0.30367000  0.00496000  0.60560000  1.0
  N  N103  1  0.69828000  0.39440000  0.39947000  1.0
  N  N104  1  0.29859000  0.60070000  0.99519000  1.0
  N  N105  1  0.79881000  0.99493000  0.60053000  1.0
  N  N106  1  0.80340000  0.60551000  0.00481000  1.0
  N  N107  1  0.19807000  0.39936000  0.39440000  1.0
  N  N108  1  0.25491000  0.92870000  0.75151000  1.0
  N  N109  1  0.50347000  0.24861000  0.17727000  1.0
  N  N110  1  0.32594000  0.82298000  0.07146000  1.0
  N  N111  1  0.82620000  0.07134000  0.82273000  1.0
  N  N112  1  0.75448000  0.75152000  0.92854000  1.0
  N  N113  1  0.00340000  0.17719000  0.24849000  1.0
  N  N114  1  0.08678000  0.99334000  0.76887000  1.0
  N  N115  1  0.31806000  0.23125000  0.22457000  1.0
  N  N116  1  0.09321000  0.77566000  0.00680000  1.0
  N  N117  1  0.59349000  0.00668000  0.77543000  1.0
  N  N118  1  0.58640000  0.76885000  0.99319000  1.0
  N  N119  1  0.81791000  0.22447000  0.23113000  1.0
