# generated using pymatgen
data_CoH14C22(SN3)2
_symmetry_space_group_name_H-M   'P 1'
_cell_length_a   9.38360000
_cell_length_b   9.38370000
_cell_length_c   12.14910000
_cell_angle_alpha   79.47090000
_cell_angle_beta   79.47090000
_cell_angle_gamma   70.90650000
_symmetry_Int_Tables_number   1
_chemical_formula_structural   CoH14C22(SN3)2
_chemical_formula_sum   'Co2 H28 C44 S4 N12'
_cell_volume   985.14708102
_cell_formula_units_Z   2
loop_
 _symmetry_equiv_pos_site_id
 _symmetry_equiv_pos_as_xyz
  1  'x, y, z'
loop_
 _atom_site_type_symbol
 _atom_site_label
 _atom_site_symmetry_multiplicity
 _atom_site_fract_x
 _atom_site_fract_y
 _atom_site_fract_z
 _atom_site_occupancy
  Co  Co0  1  0.24396000  0.75605000  0.25000000  1.0
  Co  Co1  1  0.75604000  0.24396000  0.75000000  1.0
  H  H2  1  0.50049000  0.74322000  0.00881000  1.0
  H  H3  1  0.25678000  0.49951000  0.49119000  1.0
  H  H4  1  0.49948000  0.25676000  0.99118000  1.0
  H  H5  1  0.74325000  0.50051000  0.50882000  1.0
  H  H6  1  0.51088000  0.91204000  0.82637000  1.0
  H  H7  1  0.08796000  0.48913000  0.67363000  1.0
  H  H8  1  0.48909000  0.08793000  0.17362000  1.0
  H  H9  1  0.91207000  0.51089000  0.32638000  1.0
  H  H10  1  0.28682000  0.14326000  0.79080000  1.0
  H  H11  1  0.85673000  0.71319000  0.70920000  1.0
  H  H12  1  0.71320000  0.85675000  0.20920000  1.0
  H  H13  1  0.14326000  0.28679000  0.29080000  1.0
  H  H14  1  0.06988000  0.20447000  0.94426000  1.0
  H  H15  1  0.79553000  0.93013000  0.55573000  1.0
  H  H16  1  0.93016000  0.79558000  0.05576000  1.0
  H  H17  1  0.20442000  0.06983000  0.44425000  1.0
  H  H18  1  0.91710000  0.25608000  0.08388000  1.0
  H  H19  1  0.74391000  0.08290000  0.41611000  1.0
  H  H20  1  0.08292000  0.74395000  0.91613000  1.0
  H  H21  1  0.25605000  0.91707000  0.58387000  1.0
  H  H22  1  0.79813000  0.48277000  0.16443000  1.0
  H  H23  1  0.51722000  0.20187000  0.33557000  1.0
  H  H24  1  0.20186000  0.51725000  0.83559000  1.0
  H  H25  1  0.48275000  0.79814000  0.66441000  1.0
  H  H26  1  0.56630000  0.70522000  0.17488000  1.0
  H  H27  1  0.29477000  0.43371000  0.32512000  1.0
  H  H28  1  0.43370000  0.29479000  0.82513000  1.0
  H  H29  1  0.70521000  0.56631000  0.67487000  1.0
  C  C30  1  0.40825000  0.84870000  0.99399000  1.0
  C  C31  1  0.15130000  0.59176000  0.50601000  1.0
  C  C32  1  0.59173000  0.15128000  0.00600000  1.0
  C  C33  1  0.84872000  0.40826000  0.49400000  1.0
  C  C34  1  0.41286000  0.94189000  0.89074000  1.0
  C  C35  1  0.05811000  0.58715000  0.60926000  1.0
  C  C36  1  0.58713000  0.05810000  0.10925000  1.0
  C  C37  1  0.94191000  0.41286000  0.39075000  1.0
  C  C38  1  0.28963000  0.07171000  0.87255000  1.0
  C  C39  1  0.92828000  0.71038000  0.62744000  1.0
  C  C40  1  0.71038000  0.92829000  0.12745000  1.0
  C  C41  1  0.07171000  0.28961000  0.37256000  1.0
  C  C42  1  0.16857000  0.10572000  0.95870000  1.0
  C  C43  1  0.89428000  0.83144000  0.54130000  1.0
  C  C44  1  0.83145000  0.89431000  0.04131000  1.0
  C  C45  1  0.10570000  0.16854000  0.45869000  1.0
  C  C46  1  0.17534000  0.01001000  0.06195000  1.0
  C  C47  1  0.98999000  0.82466000  0.43805000  1.0
  C  C48  1  0.82466000  0.99000000  0.93805000  1.0
  C  C49  1  0.01000000  0.17533000  0.56195000  1.0
  C  C50  1  0.05377000  0.03903000  0.15840000  1.0
  C  C51  1  0.96097000  0.94624000  0.34159000  1.0
  C  C52  1  0.94624000  0.96098000  0.84160000  1.0
  C  C53  1  0.03902000  0.05376000  0.65840000  1.0
  C  C54  1  0.92788000  0.16939000  0.15738000  1.0
  C  C55  1  0.83062000  0.07212000  0.34261000  1.0
  C  C56  1  0.07213000  0.83063000  0.84262000  1.0
  C  C57  1  0.16937000  0.92787000  0.65738000  1.0
  C  C58  1  0.81341000  0.18659000  0.25000000  1.0
  C  C59  1  0.18658000  0.81342000  0.75000000  1.0
  C  C60  1  0.67844000  0.32155000  0.24999000  1.0
  C  C61  1  0.32155000  0.67845000  0.75000000  1.0
  C  C62  1  0.68953000  0.46614000  0.20319000  1.0
  C  C63  1  0.53385000  0.31047000  0.29681000  1.0
  C  C64  1  0.31046000  0.53387000  0.79682000  1.0
  C  C65  1  0.46613000  0.68954000  0.70318000  1.0
  C  C66  1  0.56025000  0.59114000  0.20682000  1.0
  C  C67  1  0.40886000  0.43975000  0.29318000  1.0
  C  C68  1  0.43974000  0.40888000  0.79319000  1.0
  C  C69  1  0.59113000  0.56026000  0.70681000  1.0
  C  C70  1  0.16336000  0.54274000  0.13322000  1.0
  C  C71  1  0.45729000  0.83663000  0.36679000  1.0
  C  C72  1  0.83665000  0.45725000  0.86680000  1.0
  C  C73  1  0.54275000  0.16334000  0.63321000  1.0
  S  S74  1  0.17843000  0.39650000  0.07432000  1.0
  S  S75  1  0.60353000  0.82155000  0.42568000  1.0
  S  S76  1  0.82164000  0.60347000  0.92570000  1.0
  S  S77  1  0.39654000  0.17836000  0.57429000  1.0
  N  N78  1  0.29384000  0.88235000  0.07821000  1.0
  N  N79  1  0.11765000  0.70617000  0.42179000  1.0
  N  N80  1  0.70615000  0.11765000  0.92179000  1.0
  N  N81  1  0.88236000  0.29384000  0.57821000  1.0
  N  N82  1  0.06938000  0.93063000  0.25000000  1.0
  N  N83  1  0.93062000  0.06938000  0.75000000  1.0
  N  N84  1  0.42054000  0.57946000  0.25000000  1.0
  N  N85  1  0.57945000  0.42055000  0.75000000  1.0
  N  N86  1  0.15095000  0.64898000  0.17901000  1.0
  N  N87  1  0.35103000  0.84904000  0.32100000  1.0
  N  N88  1  0.84903000  0.35102000  0.82100000  1.0
  N  N89  1  0.64898000  0.15097000  0.67901000  1.0
