# generated using pymatgen
data_CuH10C17O5F6
_symmetry_space_group_name_H-M   'P 1'
_cell_length_a   6.92649000
_cell_length_b   12.68530000
_cell_length_c   20.89740000
_cell_angle_alpha   86.70410000
_cell_angle_beta   89.99960000
_cell_angle_gamma   89.99950000
_symmetry_Int_Tables_number   1
_chemical_formula_structural   CuH10C17O5F6
_chemical_formula_sum   'Cu4 H40 C68 O20 F24'
_cell_volume   1833.10466606
_cell_formula_units_Z   4
loop_
 _symmetry_equiv_pos_site_id
 _symmetry_equiv_pos_as_xyz
  1  'x, y, z'
loop_
 _atom_site_type_symbol
 _atom_site_label
 _atom_site_symmetry_multiplicity
 _atom_site_fract_x
 _atom_site_fract_y
 _atom_site_fract_z
 _atom_site_occupancy
  Cu  Cu0  1  0.84921000  0.45282000  0.98063000  1.0
  Cu  Cu1  1  0.84924000  0.04717000  0.51937000  1.0
  Cu  Cu2  1  0.15079000  0.54717000  0.01937000  1.0
  Cu  Cu3  1  0.15076000  0.95283000  0.48064000  1.0
  H  H4  1  0.01937000  0.36820000  0.79210000  1.0
  H  H5  1  0.01938000  0.13181000  0.70789000  1.0
  H  H6  1  0.98063000  0.63182000  0.20789000  1.0
  H  H7  1  0.98061000  0.86819000  0.29211000  1.0
  H  H8  1  0.16870000  0.34548000  0.68703000  1.0
  H  H9  1  0.16870000  0.15453000  0.81297000  1.0
  H  H10  1  0.83130000  0.65453000  0.31297000  1.0
  H  H11  1  0.83129000  0.84547000  0.18704000  1.0
  H  H12  1  0.51810000  0.53996000  0.85098000  1.0
  H  H13  1  0.51812000  0.96003000  0.64902000  1.0
  H  H14  1  0.48191000  0.46004000  0.14902000  1.0
  H  H15  1  0.48186000  0.03997000  0.35099000  1.0
  H  H16  1  0.66466000  0.52303000  0.74482000  1.0
  H  H17  1  0.66465000  0.97696000  0.75517000  1.0
  H  H18  1  0.33536000  0.47696000  0.25517000  1.0
  H  H19  1  0.33534000  0.02304000  0.24483000  1.0
  H  H20  1  0.89775000  0.46151000  0.58611000  1.0
  H  H21  1  0.89775000  0.03850000  0.91388000  1.0
  H  H22  1  0.10226000  0.53849000  0.41389000  1.0
  H  H23  1  0.10224000  0.96151000  0.08612000  1.0
  H  H24  1  0.03395000  0.63281000  0.54816000  1.0
  H  H25  1  0.03396000  0.86719000  0.95184000  1.0
  H  H26  1  0.96607000  0.36719000  0.45184000  1.0
  H  H27  1  0.96604000  0.13281000  0.04816000  1.0
  H  H28  1  0.38211000  0.61878000  0.64683000  1.0
  H  H29  1  0.38212000  0.88122000  0.85317000  1.0
  H  H30  1  0.61790000  0.38123000  0.35317000  1.0
  H  H31  1  0.61788000  0.11877000  0.14683000  1.0
  H  H32  1  0.51940000  0.79002000  0.60736000  1.0
  H  H33  1  0.51942000  0.70998000  0.89264000  1.0
  H  H34  1  0.48062000  0.20997000  0.39264000  1.0
  H  H35  1  0.48059000  0.29002000  0.10735000  1.0
  H  H36  1  0.46962000  0.42653000  0.95248000  1.0
  H  H37  1  0.46962000  0.07347000  0.54752000  1.0
  H  H38  1  0.53037000  0.57346000  0.04752000  1.0
  H  H39  1  0.53037000  0.92652000  0.45248000  1.0
  H  H40  1  0.53806000  0.32468000  0.99110000  1.0
  H  H41  1  0.53806000  0.17532000  0.50890000  1.0
  H  H42  1  0.46195000  0.67532000  0.00890000  1.0
  H  H43  1  0.46194000  0.82467000  0.49111000  1.0
  C  C44  1  0.16324000  0.46815000  0.89165000  1.0
  C  C45  1  0.16326000  0.03185000  0.60834000  1.0
  C  C46  1  0.83676000  0.53186000  0.10834000  1.0
  C  C47  1  0.83673000  0.96815000  0.39167000  1.0
  C  C48  1  0.25675000  0.45632000  0.82806000  1.0
  C  C49  1  0.25677000  0.04367000  0.67193000  1.0
  C  C50  1  0.74325000  0.54368000  0.17193000  1.0
  C  C51  1  0.74322000  0.95632000  0.32808000  1.0
  C  C52  1  0.16103000  0.40177000  0.78124000  1.0
  C  C53  1  0.16104000  0.09822000  0.71876000  1.0
  C  C54  1  0.83898000  0.59823000  0.21876000  1.0
  C  C55  1  0.83896000  0.90177000  0.28125000  1.0
  C  C56  1  0.24604000  0.38996000  0.72166000  1.0
  C  C57  1  0.24604000  0.11004000  0.77834000  1.0
  C  C58  1  0.75398000  0.61004000  0.27834000  1.0
  C  C59  1  0.75396000  0.88996000  0.22167000  1.0
  C  C60  1  0.43988000  0.49919000  0.81453000  1.0
  C  C61  1  0.43989000  0.00081000  0.68547000  1.0
  C  C62  1  0.56013000  0.50081000  0.18547000  1.0
  C  C63  1  0.56010000  0.99920000  0.31453000  1.0
  C  C64  1  0.52289000  0.48871000  0.75467000  1.0
  C  C65  1  0.52289000  0.01129000  0.74533000  1.0
  C  C66  1  0.47712000  0.51129000  0.24533000  1.0
  C  C67  1  0.47710000  0.98871000  0.25468000  1.0
  C  C68  1  0.42708000  0.43428000  0.70733000  1.0
  C  C69  1  0.42709000  0.06572000  0.79267000  1.0
  C  C70  1  0.57293000  0.56572000  0.29267000  1.0
  C  C71  1  0.57290000  0.93428000  0.20734000  1.0
  C  C72  1  0.53153000  0.42242000  0.64295000  1.0
  C  C73  1  0.53152000  0.07759000  0.85704000  1.0
  C  C74  1  0.46848000  0.57759000  0.35705000  1.0
  C  C75  1  0.46847000  0.92241000  0.14296000  1.0
  C  C76  1  0.67835000  0.32984000  0.65433000  1.0
  C  C77  1  0.67835000  0.17016000  0.84567000  1.0
  C  C78  1  0.32165000  0.67016000  0.34567000  1.0
  C  C79  1  0.32164000  0.82984000  0.15434000  1.0
  C  C80  1  0.39241000  0.39363000  0.58794000  1.0
  C  C81  1  0.39240000  0.10637000  0.91205000  1.0
  C  C82  1  0.60759000  0.60637000  0.41206000  1.0
  C  C83  1  0.60758000  0.89363000  0.08795000  1.0
  C  C84  1  0.62966000  0.52704000  0.61996000  1.0
  C  C85  1  0.62966000  0.97297000  0.88004000  1.0
  C  C86  1  0.37035000  0.47296000  0.38004000  1.0
  C  C87  1  0.37034000  0.02704000  0.11997000  1.0
  C  C88  1  0.81339000  0.53235000  0.59195000  1.0
  C  C89  1  0.81339000  0.96765000  0.90804000  1.0
  C  C90  1  0.18662000  0.46765000  0.40805000  1.0
  C  C91  1  0.18661000  0.03235000  0.09196000  1.0
  C  C92  1  0.89139000  0.62909000  0.57016000  1.0
  C  C93  1  0.89140000  0.87091000  0.92984000  1.0
  C  C94  1  0.10863000  0.37091000  0.42984000  1.0
  C  C95  1  0.10860000  0.12909000  0.07016000  1.0
  C  C96  1  0.52525000  0.62106000  0.62523000  1.0
  C  C97  1  0.52526000  0.87894000  0.87477000  1.0
  C  C98  1  0.47476000  0.37894000  0.37477000  1.0
  C  C99  1  0.47473000  0.12106000  0.12523000  1.0
  C  C100  1  0.60223000  0.71766000  0.60317000  1.0
  C  C101  1  0.60224000  0.78235000  0.89683000  1.0
  C  C102  1  0.39778000  0.28234000  0.39683000  1.0
  C  C103  1  0.39775000  0.21766000  0.10317000  1.0
  C  C104  1  0.78647000  0.72240000  0.57528000  1.0
  C  C105  1  0.78649000  0.77760000  0.92472000  1.0
  C  C106  1  0.21354000  0.27760000  0.42473000  1.0
  C  C107  1  0.21351000  0.22240000  0.07527000  1.0
  C  C108  1  0.86736000  0.82543000  0.54914000  1.0
  C  C109  1  0.86737000  0.67458000  0.95086000  1.0
  C  C110  1  0.13265000  0.17457000  0.45086000  1.0
  C  C111  1  0.13263000  0.32542000  0.04913000  1.0
  O  O112  1  0.99079000  0.43571000  0.89899000  1.0
  O  O113  1  0.99081000  0.06428000  0.60101000  1.0
  O  O114  1  0.00919000  0.56430000  0.10101000  1.0
  O  O115  1  0.00917000  0.93571000  0.39900000  1.0
  O  O116  1  0.57699000  0.37531000  0.95680000  1.0
  O  O117  1  0.57699000  0.12470000  0.54320000  1.0
  O  O118  1  0.42302000  0.62469000  0.04320000  1.0
  O  O119  1  0.42301000  0.87530000  0.45680000  1.0
  O  O120  1  0.26551000  0.51102000  0.93453000  1.0
  O  O121  1  0.26553000  0.98897000  0.56545000  1.0
  O  O122  1  0.73450000  0.48897000  0.06545000  1.0
  O  O123  1  0.73446000  0.01104000  0.43455000  1.0
  O  O124  1  0.03273000  0.82374000  0.52243000  1.0
  O  O125  1  0.03274000  0.67627000  0.97757000  1.0
  O  O126  1  0.96729000  0.17626000  0.47758000  1.0
  O  O127  1  0.96727000  0.32374000  0.02241000  1.0
  O  O128  1  0.76102000  0.90674000  0.55492000  1.0
  O  O129  1  0.76103000  0.59326000  0.94509000  1.0
  O  O130  1  0.23899000  0.09326000  0.44508000  1.0
  O  O131  1  0.23898000  0.40673000  0.05492000  1.0
  F  F132  1  0.59142000  0.24186000  0.68008000  1.0
  F  F133  1  0.59142000  0.25815000  0.81992000  1.0
  F  F134  1  0.40858000  0.75814000  0.31992000  1.0
  F  F135  1  0.40857000  0.74185000  0.18008000  1.0
  F  F136  1  0.81778000  0.35737000  0.69660000  1.0
  F  F137  1  0.81777000  0.14263000  0.80339000  1.0
  F  F138  1  0.18223000  0.64263000  0.30340000  1.0
  F  F139  1  0.18221000  0.85737000  0.19661000  1.0
  F  F140  1  0.77130000  0.30257000  0.60042000  1.0
  F  F141  1  0.77130000  0.19742000  0.89957000  1.0
  F  F142  1  0.22870000  0.69743000  0.39957000  1.0
  F  F143  1  0.22870000  0.80258000  0.10043000  1.0
  F  F144  1  0.48701000  0.39335000  0.53099000  1.0
  F  F145  1  0.48700000  0.10665000  0.96901000  1.0
  F  F146  1  0.51300000  0.60665000  0.46901000  1.0
  F  F147  1  0.51299000  0.89335000  0.03100000  1.0
  F  F148  1  0.30655000  0.29735000  0.59711000  1.0
  F  F149  1  0.30654000  0.20265000  0.90289000  1.0
  F  F150  1  0.69345000  0.70265000  0.40289000  1.0
  F  F151  1  0.69345000  0.79734000  0.09712000  1.0
  F  F152  1  0.24750000  0.46629000  0.58065000  1.0
  F  F153  1  0.24750000  0.03371000  0.91934000  1.0
  F  F154  1  0.75251000  0.53371000  0.41935000  1.0
  F  F155  1  0.75250000  0.96629000  0.08066000  1.0
