# generated using pymatgen
data_CuP2H12C15NO6
_symmetry_space_group_name_H-M   'P 1'
_cell_length_a   7.12649000
_cell_length_b   10.60160000
_cell_length_c   13.10300000
_cell_angle_alpha   67.22980000
_cell_angle_beta   76.22920000
_cell_angle_gamma   72.19190000
_symmetry_Int_Tables_number   1
_chemical_formula_structural   CuP2H12C15NO6
_chemical_formula_sum   'Cu2 P4 H24 C30 N2 O12'
_cell_volume   860.95870377
_cell_formula_units_Z   2
loop_
 _symmetry_equiv_pos_site_id
 _symmetry_equiv_pos_as_xyz
  1  'x, y, z'
loop_
 _atom_site_type_symbol
 _atom_site_label
 _atom_site_symmetry_multiplicity
 _atom_site_fract_x
 _atom_site_fract_y
 _atom_site_fract_z
 _atom_site_occupancy
  Cu  Cu0  1  0.71465000  0.45005000  0.64367000  1.0
  Cu  Cu1  1  0.28535000  0.54995000  0.35632000  1.0
  P  P2  1  0.28514000  0.65900000  0.59727000  1.0
  P  P3  1  0.71486000  0.34100000  0.40273000  1.0
  P  P4  1  0.17095000  0.29637000  0.58037000  1.0
  P  P5  1  0.82906000  0.70363000  0.41963000  1.0
  H  H6  1  0.99599000  0.60955000  0.61257000  1.0
  H  H7  1  0.00401000  0.39045000  0.38743000  1.0
  H  H8  1  0.48009000  0.31757000  0.58068000  1.0
  H  H9  1  0.51992000  0.68243000  0.41932000  1.0
  H  H10  1  0.81179000  0.14786000  0.69805000  1.0
  H  H11  1  0.18821000  0.85213000  0.30195000  1.0
  H  H12  1  0.73149000  0.93862000  0.85213000  1.0
  H  H13  1  0.26851000  0.06138000  0.14787000  1.0
  H  H14  1  0.32406000  0.22410000  0.01497000  1.0
  H  H15  1  0.67594000  0.77591000  0.98503000  1.0
  H  H16  1  0.41893000  0.42080000  0.84948000  1.0
  H  H17  1  0.58108000  0.57921000  0.15052000  1.0
  H  H18  1  0.28911000  0.92386000  0.41909000  1.0
  H  H19  1  0.71090000  0.07614000  0.58091000  1.0
  H  H20  1  0.24732000  0.16746000  0.41235000  1.0
  H  H21  1  0.75268000  0.83254000  0.58765000  1.0
  H  H22  1  0.17311000  0.13134000  0.79730000  1.0
  H  H23  1  0.82688000  0.86866000  0.20270000  1.0
  H  H24  1  0.15128000  0.93851000  0.97762000  1.0
  H  H25  1  0.84873000  0.06150000  0.02238000  1.0
  H  H26  1  0.15752000  0.69898000  0.98451000  1.0
  H  H27  1  0.84248000  0.30102000  0.01549000  1.0
  H  H28  1  0.19762000  0.65195000  0.80904000  1.0
  H  H29  1  0.80239000  0.34805000  0.19096000  1.0
  C  C30  1  0.70450000  0.15857000  0.77027000  1.0
  C  C31  1  0.29550000  0.84143000  0.22973000  1.0
  C  C32  1  0.65747000  0.04235000  0.85775000  1.0
  C  C33  1  0.34253000  0.95765000  0.14225000  1.0
  C  C34  1  0.52233000  0.06072000  0.95100000  1.0
  C  C35  1  0.47767000  0.93929000  0.04900000  1.0
  C  C36  1  0.43321000  0.20016000  0.94719000  1.0
  C  C37  1  0.56679000  0.79985000  0.05281000  1.0
  C  C38  1  0.48583000  0.31141000  0.85609000  1.0
  C  C39  1  0.51417000  0.68859000  0.14391000  1.0
  C  C40  1  0.24543000  0.83642000  0.59768000  1.0
  C  C41  1  0.75457000  0.16358000  0.40233000  1.0
  C  C42  1  0.26035000  0.94517000  0.49702000  1.0
  C  C43  1  0.73965000  0.05482000  0.50298000  1.0
  C  C44  1  0.23860000  0.08373000  0.49316000  1.0
  C  C45  1  0.76140000  0.91627000  0.50684000  1.0
  C  C46  1  0.20780000  0.11499000  0.59000000  1.0
  C  C47  1  0.79220000  0.88501000  0.41000000  1.0
  C  C48  1  0.20012000  0.00389000  0.69641000  1.0
  C  C49  1  0.79987000  0.99611000  0.30359000  1.0
  C  C50  1  0.17993000  0.02650000  0.79908000  1.0
  C  C51  1  0.82007000  0.97350000  0.20092000  1.0
  C  C52  1  0.16649000  0.91878000  0.90013000  1.0
  C  C53  1  0.83351000  0.08122000  0.09987000  1.0
  C  C54  1  0.17069000  0.78304000  0.90408000  1.0
  C  C55  1  0.82931000  0.21696000  0.09592000  1.0
  C  C56  1  0.19333000  0.75670000  0.80616000  1.0
  C  C57  1  0.80667000  0.24330000  0.19384000  1.0
  C  C58  1  0.21238000  0.86409000  0.70014000  1.0
  C  C59  1  0.78762000  0.13591000  0.29986000  1.0
  N  N60  1  0.62249000  0.29067000  0.77015000  1.0
  N  N61  1  0.37751000  0.70933000  0.22985000  1.0
  O  O62  1  0.45308000  0.57026000  0.66750000  1.0
  O  O63  1  0.54692000  0.42974000  0.33250000  1.0
  O  O64  1  0.08808000  0.60894000  0.66100000  1.0
  O  O65  1  0.91192000  0.39106000  0.33900000  1.0
  O  O66  1  0.32344000  0.66241000  0.47688000  1.0
  O  O67  1  0.67656000  0.33760000  0.52312000  1.0
  O  O68  1  0.98211000  0.33148000  0.65763000  1.0
  O  O69  1  0.01789000  0.66852000  0.34237000  1.0
  O  O70  1  0.17181000  0.38575000  0.45544000  1.0
  O  O71  1  0.82819000  0.61425000  0.54456000  1.0
  O  O72  1  0.34450000  0.30360000  0.63007000  1.0
  O  O73  1  0.65551000  0.69639000  0.36993000  1.0
