# generated using pymatgen
data_AgH8C6(NO)3
_symmetry_space_group_name_H-M   'P 1'
_cell_length_a   6.81103000
_cell_length_b   7.91488000
_cell_length_c   8.17085000
_cell_angle_alpha   108.23700000
_cell_angle_beta   90.26620000
_cell_angle_gamma   97.62980000
_symmetry_Int_Tables_number   1
_chemical_formula_structural   AgH8C6(NO)3
_chemical_formula_sum   'Ag2 H16 C12 N6 O6'
_cell_volume   414.14955756
_cell_formula_units_Z   2
loop_
 _symmetry_equiv_pos_site_id
 _symmetry_equiv_pos_as_xyz
  1  'x, y, z'
loop_
 _atom_site_type_symbol
 _atom_site_label
 _atom_site_symmetry_multiplicity
 _atom_site_fract_x
 _atom_site_fract_y
 _atom_site_fract_z
 _atom_site_occupancy
  Ag  Ag0  1  0.70234000  0.01782000  0.91715000  1.0
  Ag  Ag1  1  0.29766000  0.98218000  0.08286000  1.0
  H  H2  1  0.47750000  0.70023000  0.94509000  1.0
  H  H3  1  0.52251000  0.29976000  0.05491000  1.0
  H  H4  1  0.24068000  0.61042000  0.89702000  1.0
  H  H5  1  0.75932000  0.38957000  0.10298000  1.0
  H  H6  1  0.12496000  0.50629000  0.61046000  1.0
  H  H7  1  0.87502000  0.49374000  0.38955000  1.0
  H  H8  1  0.19723000  0.50030000  0.30491000  1.0
  H  H9  1  0.80277000  0.49972000  0.69510000  1.0
  H  H10  1  0.49382000  0.69553000  0.25708000  1.0
  H  H11  1  0.50619000  0.30448000  0.74291000  1.0
  H  H12  1  0.88670000  0.84024000  0.48881000  1.0
  H  H13  1  0.11330000  0.15976000  0.51118000  1.0
  H  H14  1  0.75251000  0.96089000  0.38840000  1.0
  H  H15  1  0.24749000  0.03912000  0.61160000  1.0
  H  H16  1  0.80221000  0.04097000  0.61660000  1.0
  H  H17  1  0.19779000  0.95903000  0.38340000  1.0
  C  C18  1  0.37453000  0.70868000  0.71779000  1.0
  C  C19  1  0.62547000  0.29132000  0.28221000  1.0
  C  C20  1  0.24730000  0.59443000  0.58210000  1.0
  C  C21  1  0.75269000  0.40559000  0.41790000  1.0
  C  C22  1  0.28945000  0.59012000  0.41492000  1.0
  C  C23  1  0.71055000  0.40990000  0.58509000  1.0
  C  C24  1  0.45572000  0.69900000  0.38721000  1.0
  C  C25  1  0.54429000  0.30101000  0.61279000  1.0
  C  C26  1  0.57684000  0.81037000  0.52789000  1.0
  C  C27  1  0.42317000  0.18963000  0.47211000  1.0
  C  C28  1  0.76365000  0.92030000  0.50435000  1.0
  C  C29  1  0.23635000  0.07971000  0.49565000  1.0
  N  N30  1  0.13466000  0.28043000  0.91088000  1.0
  N  N31  1  0.86534000  0.71955000  0.08911000  1.0
  N  N32  1  0.53338000  0.81678000  0.69141000  1.0
  N  N33  1  0.46663000  0.18322000  0.30859000  1.0
  N  N34  1  0.34548000  0.71356000  0.88955000  1.0
  N  N35  1  0.65453000  0.28644000  0.11045000  1.0
  O  O36  1  0.08125000  0.12140000  0.91722000  1.0
  O  O37  1  0.91875000  0.87857000  0.08276000  1.0
  O  O38  1  0.02404000  0.34964000  0.83408000  1.0
  O  O39  1  0.97596000  0.65033000  0.16591000  1.0
  O  O40  1  0.29971000  0.36747000  0.98206000  1.0
  O  O41  1  0.70027000  0.63251000  0.01796000  1.0
