# generated using pymatgen
data_ZnH6C16(N4O3)2
_symmetry_space_group_name_H-M   'P 1'
_cell_length_a   10.29250000
_cell_length_b   10.30380000
_cell_length_c   10.68881410
_cell_angle_alpha   67.73556154
_cell_angle_beta   67.64566446
_cell_angle_gamma   63.38800000
_symmetry_Int_Tables_number   1
_chemical_formula_structural   ZnH6C16(N4O3)2
_chemical_formula_sum   'Zn2 H12 C32 N16 O12'
_cell_volume   907.02388707
_cell_formula_units_Z   2
loop_
 _symmetry_equiv_pos_site_id
 _symmetry_equiv_pos_as_xyz
  1  'x, y, z'
loop_
 _atom_site_type_symbol
 _atom_site_label
 _atom_site_symmetry_multiplicity
 _atom_site_fract_x
 _atom_site_fract_y
 _atom_site_fract_z
 _atom_site_occupancy
  Zn  Zn0  1  1.00000000  0.50000000  0.00000000  1.0
  Zn  Zn1  1  0.50000000  0.00000000  0.50000000  1.0
  H  H2  1  0.08991000  0.11207000  0.20187000  1.0
  H  H3  1  0.88886000  0.90933000  0.29842000  1.0
  H  H4  1  0.91008000  0.88794000  0.79811000  1.0
  H  H5  1  0.11115000  0.09067000  0.70158000  1.0
  H  H6  1  0.08601000  0.73540000  0.96154000  1.0
  H  H7  1  0.26400000  0.91457000  0.53858000  1.0
  H  H8  1  0.91398000  0.26460000  0.03846000  1.0
  H  H9  1  0.73601000  0.08543000  0.46141000  1.0
  H  H10  1  0.17326000  0.65835000  0.83665000  1.0
  H  H11  1  0.34067000  0.82793000  0.66364000  1.0
  H  H12  1  0.82674000  0.34165000  0.16335000  1.0
  H  H13  1  0.65933000  0.17206000  0.33635000  1.0
  C  C14  1  0.25721000  0.90960000  0.28837000  1.0
  C  C15  1  0.09157000  0.74188000  0.21173000  1.0
  C  C16  1  0.74278000  0.09041000  0.71163000  1.0
  C  C17  1  0.90844000  0.25812000  0.78827000  1.0
  C  C18  1  0.39696000  0.80963000  0.21480000  1.0
  C  C19  1  0.19140000  0.60235000  0.28517000  1.0
  C  C20  1  0.60304000  0.19038000  0.78520000  1.0
  C  C21  1  0.80861000  0.39764000  0.71483000  1.0
  C  C22  1  0.41015000  0.86719000  0.07207000  1.0
  C  C23  1  0.13339000  0.58940000  0.42794000  1.0
  C  C24  1  0.58986000  0.13281000  0.92793000  1.0
  C  C25  1  0.86662000  0.41059000  0.57206000  1.0
  C  C26  1  0.27222000  0.00600000  0.05224000  1.0
  C  C27  1  0.99450000  0.72727000  0.44790000  1.0
  C  C28  1  0.72778000  0.99400000  0.94775000  1.0
  C  C29  1  0.00550000  0.27272000  0.55211000  1.0
  C  C30  1  0.52470000  0.82114000  0.95683000  1.0
  C  C31  1  0.17906000  0.47509000  0.54311000  1.0
  C  C32  1  0.47528000  0.17885000  0.04318000  1.0
  C  C33  1  0.82094000  0.52491000  0.45690000  1.0
  C  C34  1  0.51655000  0.89012000  0.81762000  1.0
  C  C35  1  0.10971000  0.48343000  0.68236000  1.0
  C  C36  1  0.48346000  0.10988000  0.18238000  1.0
  C  C37  1  0.89030000  0.51657000  0.31764000  1.0
  C  C38  1  0.66241000  0.70669000  0.97230000  1.0
  C  C39  1  0.29347000  0.33739000  0.52766000  1.0
  C  C40  1  0.33758000  0.29331000  0.02770000  1.0
  C  C41  1  0.70653000  0.66261000  0.47235000  1.0
  C  C42  1  0.49293000  0.67366000  0.28036000  1.0
  C  C43  1  0.32771000  0.50624000  0.21968000  1.0
  C  C44  1  0.50706000  0.32636000  0.71965000  1.0
  C  C45  1  0.67230000  0.49375000  0.78032000  1.0
  N  N46  1  0.18880000  0.02395000  0.18512000  1.0
  N  N47  1  0.97691000  0.81045000  0.31508000  1.0
  N  N48  1  0.81120000  0.97606000  0.81487000  1.0
  N  N49  1  0.02309000  0.18955000  0.68492000  1.0
  N  N50  1  0.78054000  0.61784000  0.98270000  1.0
  N  N51  1  0.38217000  0.21917000  0.51755000  1.0
  N  N52  1  0.21945000  0.38216000  0.01731000  1.0
  N  N53  1  0.61783000  0.78082000  0.48245000  1.0
  N  N54  1  0.52660000  0.93900000  0.69785000  1.0
  N  N55  1  0.06073000  0.47331000  0.80221000  1.0
  N  N56  1  0.47342000  0.06100000  0.30215000  1.0
  N  N57  1  0.93927000  0.52669000  0.19780000  1.0
  N  N58  1  0.57371000  0.55591000  0.32785000  1.0
  N  N59  1  0.44574000  0.42532000  0.17234000  1.0
  N  N60  1  0.42628000  0.44410000  0.67216000  1.0
  N  N61  1  0.55427000  0.57467000  0.82766000  1.0
  O  O62  1  0.20438000  0.89866000  0.41507000  1.0
  O  O63  1  0.10280000  0.79445000  0.08505000  1.0
  O  O64  1  0.79561000  0.10137000  0.58492000  1.0
  O  O65  1  0.89722000  0.20554000  0.91495000  1.0
  O  O66  1  0.24275000  0.08679000  0.94108000  1.0
  O  O67  1  0.91339000  0.75689000  0.55915000  1.0
  O  O68  1  0.75727000  0.91320000  0.05891000  1.0
  O  O69  1  0.08661000  0.24310000  0.44085000  1.0
  O  O70  1  0.07216000  0.70385000  0.89148000  1.0
  O  O71  1  0.29553000  0.92867000  0.60851000  1.0
  O  O72  1  0.92785000  0.29615000  0.10851000  1.0
  O  O73  1  0.70447000  0.07132000  0.39149000  1.0
