# generated using pymatgen
data_CdH16C24(NO2)2
_symmetry_space_group_name_H-M   'P 1'
_cell_length_a   9.85658000
_cell_length_b   9.85656000
_cell_length_c   26.64630000
_cell_angle_alpha   81.96690000
_cell_angle_beta   81.96710000
_cell_angle_gamma   73.16530000
_symmetry_Int_Tables_number   1
_chemical_formula_structural   CdH16C24(NO2)2
_chemical_formula_sum   'Cd4 H64 C96 N8 O16'
_cell_volume   2439.98917035
_cell_formula_units_Z   4
loop_
 _symmetry_equiv_pos_site_id
 _symmetry_equiv_pos_as_xyz
  1  'x, y, z'
loop_
 _atom_site_type_symbol
 _atom_site_label
 _atom_site_symmetry_multiplicity
 _atom_site_fract_x
 _atom_site_fract_y
 _atom_site_fract_z
 _atom_site_occupancy
  Cd  Cd0  1  0.44727000  0.79136000  0.70502000  1.0
  Cd  Cd1  1  0.20863000  0.55273000  0.79498000  1.0
  Cd  Cd2  1  0.55273000  0.20864000  0.29498000  1.0
  Cd  Cd3  1  0.79136000  0.44727000  0.20502000  1.0
  H  H4  1  0.69805000  0.03021000  0.44899000  1.0
  H  H5  1  0.96978000  0.30195000  0.05101000  1.0
  H  H6  1  0.30195000  0.96978000  0.55101000  1.0
  H  H7  1  0.03021000  0.69805000  0.94899000  1.0
  H  H8  1  0.58865000  0.90029000  0.52310000  1.0
  H  H9  1  0.09971000  0.41135000  0.97691000  1.0
  H  H10  1  0.41135000  0.09971000  0.47691000  1.0
  H  H11  1  0.90029000  0.58865000  0.02309000  1.0
  H  H12  1  0.73605000  0.10930000  0.62600000  1.0
  H  H13  1  0.89071000  0.26395000  0.87401000  1.0
  H  H14  1  0.26395000  0.89070000  0.37400000  1.0
  H  H15  1  0.10929000  0.73605000  0.12599000  1.0
  H  H16  1  0.85568000  0.23385000  0.55227000  1.0
  H  H17  1  0.76615000  0.14432000  0.94773000  1.0
  H  H18  1  0.14432000  0.76615000  0.44773000  1.0
  H  H19  1  0.23384000  0.85568000  0.05227000  1.0
  H  H20  1  0.68343000  0.25780000  0.40417000  1.0
  H  H21  1  0.74220000  0.31658000  0.09583000  1.0
  H  H22  1  0.31657000  0.74220000  0.59583000  1.0
  H  H23  1  0.25779000  0.68343000  0.90417000  1.0
  H  H24  1  0.03659000  0.41974000  0.33908000  1.0
  H  H25  1  0.58027000  0.96340000  0.16092000  1.0
  H  H26  1  0.96341000  0.58026000  0.66092000  1.0
  H  H27  1  0.41973000  0.03660000  0.83908000  1.0
  H  H28  1  0.16063000  0.31945000  0.41756000  1.0
  H  H29  1  0.68056000  0.83937000  0.08244000  1.0
  H  H30  1  0.83937000  0.68055000  0.58243000  1.0
  H  H31  1  0.31944000  0.16063000  0.91756000  1.0
  H  H32  1  0.04489000  0.18926000  0.48882000  1.0
  H  H33  1  0.81074000  0.95512000  0.01118000  1.0
  H  H34  1  0.95512000  0.81074000  0.51118000  1.0
  H  H35  1  0.18926000  0.04489000  0.98882000  1.0
  H  H36  1  0.92418000  0.10673000  0.65741000  1.0
  H  H37  1  0.89327000  0.07582000  0.84259000  1.0
  H  H38  1  0.07582000  0.89327000  0.34259000  1.0
  H  H39  1  0.10674000  0.92418000  0.15741000  1.0
  H  H40  1  0.13858000  0.90020000  0.65920000  1.0
  H  H41  1  0.09980000  0.86142000  0.84080000  1.0
  H  H42  1  0.86142000  0.09980000  0.34080000  1.0
  H  H43  1  0.90020000  0.13858000  0.15920000  1.0
  H  H44  1  0.31680000  0.07457000  0.75701000  1.0
  H  H45  1  0.92543000  0.68320000  0.74299000  1.0
  H  H46  1  0.68320000  0.92543000  0.24299000  1.0
  H  H47  1  0.07457000  0.31680000  0.25701000  1.0
  H  H48  1  0.10965000  0.29227000  0.75920000  1.0
  H  H49  1  0.70773000  0.89036000  0.74080000  1.0
  H  H50  1  0.89036000  0.70773000  0.24080000  1.0
  H  H51  1  0.29227000  0.10965000  0.25920000  1.0
  H  H52  1  0.82833000  0.34034000  0.63093000  1.0
  H  H53  1  0.65965000  0.17167000  0.86908000  1.0
  H  H54  1  0.17166000  0.65966000  0.36908000  1.0
  H  H55  1  0.34035000  0.82833000  0.13092000  1.0
  H  H56  1  0.61866000  0.55577000  0.63458000  1.0
  H  H57  1  0.44423000  0.38135000  0.86542000  1.0
  H  H58  1  0.38134000  0.44423000  0.36542000  1.0
  H  H59  1  0.55577000  0.61865000  0.13458000  1.0
  H  H60  1  0.66805000  0.59957000  0.78248000  1.0
  H  H61  1  0.40042000  0.33195000  0.71752000  1.0
  H  H62  1  0.33195000  0.40042000  0.21752000  1.0
  H  H63  1  0.59958000  0.66805000  0.28248000  1.0
  H  H64  1  0.88389000  0.39050000  0.78513000  1.0
  H  H65  1  0.60950000  0.11611000  0.71487000  1.0
  H  H66  1  0.11611000  0.60950000  0.21487000  1.0
  H  H67  1  0.39051000  0.88389000  0.28513000  1.0
  C  C68  1  0.78641000  0.14016000  0.49548000  1.0
  C  C69  1  0.85984000  0.21360000  0.00452000  1.0
  C  C70  1  0.21359000  0.85984000  0.50452000  1.0
  C  C71  1  0.14016000  0.78641000  0.99548000  1.0
  C  C72  1  0.70927000  0.04648000  0.48771000  1.0
  C  C73  1  0.95352000  0.29073000  0.01229000  1.0
  C  C74  1  0.29074000  0.95352000  0.51229000  1.0
  C  C75  1  0.04648000  0.70927000  0.98771000  1.0
  C  C76  1  0.64662000  0.97448000  0.52902000  1.0
  C  C77  1  0.02552000  0.35338000  0.97098000  1.0
  C  C78  1  0.35338000  0.02551000  0.47098000  1.0
  C  C79  1  0.97448000  0.64662000  0.02902000  1.0
  C  C80  1  0.65564000  0.99712000  0.57903000  1.0
  C  C81  1  0.00288000  0.34436000  0.92097000  1.0
  C  C82  1  0.34436000  0.00288000  0.42097000  1.0
  C  C83  1  0.99712000  0.65563000  0.07903000  1.0
  C  C84  1  0.73160000  0.09106000  0.58694000  1.0
  C  C85  1  0.90894000  0.26840000  0.91306000  1.0
  C  C86  1  0.26840000  0.90894000  0.41306000  1.0
  C  C87  1  0.09106000  0.73160000  0.08693000  1.0
  C  C88  1  0.79743000  0.16009000  0.54588000  1.0
  C  C89  1  0.83991000  0.20257000  0.95412000  1.0
  C  C90  1  0.20257000  0.83991000  0.45412000  1.0
  C  C91  1  0.16008000  0.79743000  0.04587000  1.0
  C  C92  1  0.85459000  0.21691000  0.45227000  1.0
  C  C93  1  0.78308000  0.14541000  0.04773000  1.0
  C  C94  1  0.14541000  0.78309000  0.54773000  1.0
  C  C95  1  0.21691000  0.85459000  0.95227000  1.0
  C  C96  1  0.78765000  0.27151000  0.40766000  1.0
  C  C97  1  0.72849000  0.21236000  0.09234000  1.0
  C  C98  1  0.21235000  0.72849000  0.59234000  1.0
  C  C99  1  0.27150000  0.78765000  0.90766000  1.0
  C  C100  1  0.85355000  0.34463000  0.36715000  1.0
  C  C101  1  0.65537000  0.14645000  0.13285000  1.0
  C  C102  1  0.14645000  0.65537000  0.63285000  1.0
  C  C103  1  0.34463000  0.85355000  0.86715000  1.0
  C  C104  1  0.98719000  0.36335000  0.37112000  1.0
  C  C105  1  0.63665000  0.01281000  0.12888000  1.0
  C  C106  1  0.01281000  0.63665000  0.62888000  1.0
  C  C107  1  0.36335000  0.98719000  0.87112000  1.0
  C  C108  1  0.05486000  0.30861000  0.41502000  1.0
  C  C109  1  0.69139000  0.94514000  0.08498000  1.0
  C  C110  1  0.94514000  0.69139000  0.58498000  1.0
  C  C111  1  0.30861000  0.05486000  0.91502000  1.0
  C  C112  1  0.98912000  0.23605000  0.45528000  1.0
  C  C113  1  0.76395000  0.01089000  0.04472000  1.0
  C  C114  1  0.01088000  0.76395000  0.54472000  1.0
  C  C115  1  0.23605000  0.98912000  0.95528000  1.0
  C  C116  1  0.58443000  0.92383000  0.62349000  1.0
  C  C117  1  0.07617000  0.41557000  0.87651000  1.0
  C  C118  1  0.41557000  0.07617000  0.37651000  1.0
  C  C119  1  0.92383000  0.58442000  0.12349000  1.0
  C  C120  1  0.78723000  0.39632000  0.31811000  1.0
  C  C121  1  0.60368000  0.21278000  0.18189000  1.0
  C  C122  1  0.21277000  0.60368000  0.68189000  1.0
  C  C123  1  0.39632000  0.78723000  0.81811000  1.0
  C  C124  1  0.99852000  0.21922000  0.70797000  1.0
  C  C125  1  0.78077000  0.00148000  0.79203000  1.0
  C  C126  1  0.00148000  0.78078000  0.29203000  1.0
  C  C127  1  0.21923000  0.99852000  0.20797000  1.0
  C  C128  1  0.00909000  0.10641000  0.67957000  1.0
  C  C129  1  0.89358000  0.99091000  0.82043000  1.0
  C  C130  1  0.99091000  0.89358000  0.32043000  1.0
  C  C131  1  0.10642000  0.00909000  0.17957000  1.0
  C  C132  1  0.12850000  0.98939000  0.68071000  1.0
  C  C133  1  0.01060000  0.87150000  0.81929000  1.0
  C  C134  1  0.87150000  0.01060000  0.31929000  1.0
  C  C135  1  0.98940000  0.12850000  0.18071000  1.0
  C  C136  1  0.22721000  0.08757000  0.73532000  1.0
  C  C137  1  0.91243000  0.77280000  0.76468000  1.0
  C  C138  1  0.77279000  0.91243000  0.26468000  1.0
  C  C139  1  0.08757000  0.22721000  0.23532000  1.0
  C  C140  1  0.11130000  0.20804000  0.73651000  1.0
  C  C141  1  0.79196000  0.88870000  0.76349000  1.0
  C  C142  1  0.88870000  0.79196000  0.26349000  1.0
  C  C143  1  0.20804000  0.11130000  0.23651000  1.0
  C  C144  1  0.87279000  0.34470000  0.70830000  1.0
  C  C145  1  0.65530000  0.12721000  0.79170000  1.0
  C  C146  1  0.12721000  0.65530000  0.29170000  1.0
  C  C147  1  0.34470000  0.87279000  0.20830000  1.0
  C  C148  1  0.79576000  0.39296000  0.66572000  1.0
  C  C149  1  0.60703000  0.20424000  0.83428000  1.0
  C  C150  1  0.20424000  0.60704000  0.33428000  1.0
  C  C151  1  0.39297000  0.79576000  0.16572000  1.0
  C  C152  1  0.67946000  0.51307000  0.66722000  1.0
  C  C153  1  0.48692000  0.32054000  0.83278000  1.0
  C  C154  1  0.32054000  0.48693000  0.33278000  1.0
  C  C155  1  0.51308000  0.67946000  0.16722000  1.0
  C  C156  1  0.70805000  0.53837000  0.74982000  1.0
  C  C157  1  0.46163000  0.29195000  0.75019000  1.0
  C  C158  1  0.29194000  0.46163000  0.25019000  1.0
  C  C159  1  0.53837000  0.70805000  0.24981000  1.0
  C  C160  1  0.82685000  0.42052000  0.75120000  1.0
  C  C161  1  0.57948000  0.17315000  0.74880000  1.0
  C  C162  1  0.17315000  0.57948000  0.24880000  1.0
  C  C163  1  0.42053000  0.82685000  0.25120000  1.0
  N  N164  1  0.23630000  0.97942000  0.70808000  1.0
  N  N165  1  0.02058000  0.76370000  0.79192000  1.0
  N  N166  1  0.76370000  0.02058000  0.29192000  1.0
  N  N167  1  0.97942000  0.23630000  0.20808000  1.0
  N  N168  1  0.63626000  0.58470000  0.70859000  1.0
  N  N169  1  0.41529000  0.36374000  0.79141000  1.0
  N  N170  1  0.36374000  0.41530000  0.29141000  1.0
  N  N171  1  0.58470000  0.63626000  0.20859000  1.0
  O  O172  1  0.59294000  0.95086000  0.66834000  1.0
  O  O173  1  0.04914000  0.40706000  0.83166000  1.0
  O  O174  1  0.40705000  0.04914000  0.33165000  1.0
  O  O175  1  0.95086000  0.59293000  0.16834000  1.0
  O  O176  1  0.51699000  0.83742000  0.61529000  1.0
  O  O177  1  0.16258000  0.48301000  0.88471000  1.0
  O  O178  1  0.48301000  0.16258000  0.38471000  1.0
  O  O179  1  0.83743000  0.51698000  0.11529000  1.0
  O  O180  1  0.84948000  0.46972000  0.28414000  1.0
  O  O181  1  0.53028000  0.15052000  0.21586000  1.0
  O  O182  1  0.15052000  0.53028000  0.71586000  1.0
  O  O183  1  0.46972000  0.84948000  0.78414000  1.0
  O  O184  1  0.67587000  0.36352000  0.31158000  1.0
  O  O185  1  0.63648000  0.32413000  0.18842000  1.0
  O  O186  1  0.32413000  0.63648000  0.68842000  1.0
  O  O187  1  0.36352000  0.67587000  0.81158000  1.0
