# generated using pymatgen
data_CuH16C14N4(ClO)2
_symmetry_space_group_name_H-M   'P 1'
_cell_length_a   7.30595000
_cell_length_b   7.77304000
_cell_length_c   8.32698000
_cell_angle_alpha   100.30500000
_cell_angle_beta   111.85400000
_cell_angle_gamma   106.55200000
_symmetry_Int_Tables_number   1
_chemical_formula_structural   CuH16C14N4(ClO)2
_chemical_formula_sum   'Cu1 H16 C14 N4 Cl2 O2'
_cell_volume   398.55324564
_cell_formula_units_Z   1
loop_
 _symmetry_equiv_pos_site_id
 _symmetry_equiv_pos_as_xyz
  1  'x, y, z'
loop_
 _atom_site_type_symbol
 _atom_site_label
 _atom_site_symmetry_multiplicity
 _atom_site_fract_x
 _atom_site_fract_y
 _atom_site_fract_z
 _atom_site_occupancy
  Cu  Cu0  1  0.50000000  0.00000000  0.00000000  1.0
  H  H1  1  0.76504000  0.40857000  0.15151000  1.0
  H  H2  1  0.23496000  0.59143000  0.84848000  1.0
  H  H3  1  0.74158000  0.70201000  0.31124000  1.0
  H  H4  1  0.25841000  0.29799000  0.68875000  1.0
  H  H5  1  0.11767000  0.34777000  0.23034000  1.0
  H  H6  1  0.88233000  0.65222000  0.76967000  1.0
  H  H7  1  0.16957000  0.07332000  0.07710000  1.0
  H  H8  1  0.83044000  0.92668000  0.92291000  1.0
  H  H9  1  0.56537000  0.83934000  0.45646000  1.0
  H  H10  1  0.43463000  0.16066000  0.54354000  1.0
  H  H11  1  0.36025000  0.68890000  0.49119000  1.0
  H  H12  1  0.63975000  0.31110000  0.50881000  1.0
  H  H13  1  0.03188000  0.90529000  0.25923000  1.0
  H  H14  1  0.96812000  0.09471000  0.74077000  1.0
  H  H15  1  0.15045000  0.84924000  0.45564000  1.0
  H  H16  1  0.84954000  0.15076000  0.54435000  1.0
  C  C17  1  0.62679000  0.40348000  0.17461000  1.0
  C  C18  1  0.37321000  0.59652000  0.82538000  1.0
  C  C19  1  0.61152000  0.56483000  0.26259000  1.0
  C  C20  1  0.38848000  0.43518000  0.73740000  1.0
  C  C21  1  0.42918000  0.55036000  0.28731000  1.0
  C  C22  1  0.57082000  0.44964000  0.71269000  1.0
  C  C23  1  0.26521000  0.37091000  0.21746000  1.0
  C  C24  1  0.73479000  0.62908000  0.78254000  1.0
  C  C25  1  0.29100000  0.21601000  0.13092000  1.0
  C  C26  1  0.70901000  0.78399000  0.86909000  1.0
  C  C27  1  0.40927000  0.72008000  0.38632000  1.0
  C  C28  1  0.59073000  0.27992000  0.61368000  1.0
  C  C29  1  0.25244000  0.78704000  0.25895000  1.0
  C  C30  1  0.74756000  0.21296000  0.74105000  1.0
  N  N31  1  0.12986000  0.84345000  0.32567000  1.0
  N  N32  1  0.87014000  0.15656000  0.67433000  1.0
  N  N33  1  0.46916000  0.23118000  0.11109000  1.0
  N  N34  1  0.53084000  0.76882000  0.88891000  1.0
  Cl  Cl35  1  0.18408000  0.92291000  0.73571000  1.0
  Cl  Cl36  1  0.81593000  0.07710000  0.26429000  1.0
  O  O37  1  0.24373000  0.79187000  0.10770000  1.0
  O  O38  1  0.75627000  0.20814000  0.89230000  1.0
