# generated using pymatgen
data_BaH28(C2O)10
_symmetry_space_group_name_H-M   'P 1'
_cell_length_a   7.14866000
_cell_length_b   12.98370000
_cell_length_c   14.88111943
_cell_angle_alpha   114.47869119
_cell_angle_beta   101.91283307
_cell_angle_gamma   94.17790000
_symmetry_Int_Tables_number   1
_chemical_formula_structural   BaH28(C2O)10
_chemical_formula_sum   'Ba2 H56 C40 O20'
_cell_volume   1210.37321379
_cell_formula_units_Z   2
loop_
 _symmetry_equiv_pos_site_id
 _symmetry_equiv_pos_as_xyz
  1  'x, y, z'
loop_
 _atom_site_type_symbol
 _atom_site_label
 _atom_site_symmetry_multiplicity
 _atom_site_fract_x
 _atom_site_fract_y
 _atom_site_fract_z
 _atom_site_occupancy
  Ba  Ba0  1  0.75160000  0.54365000  0.89784000  1.0
  Ba  Ba1  1  0.35277000  0.64518000  0.10169000  1.0
  H  H2  1  0.29270000  0.24930000  0.55885000  1.0
  H  H3  1  0.23378000  0.69020000  0.44110000  1.0
  H  H4  1  0.27204000  0.09974000  0.47718000  1.0
  H  H5  1  0.29298000  0.62282000  0.52398000  1.0
  H  H6  1  0.50404000  0.18928000  0.54419000  1.0
  H  H7  1  0.45918000  0.64439000  0.45661000  1.0
  H  H8  1  0.19761000  0.97336000  0.55431000  1.0
  H  H9  1  0.14290000  0.41962000  0.44820000  1.0
  H  H10  1  0.27321000  0.02861000  0.69579000  1.0
  H  H11  1  0.07845000  0.33397000  0.30682000  1.0
  H  H12  1  0.53726000  0.28646000  0.88744000  1.0
  H  H13  1  0.15129000  0.39906000  0.11388000  1.0
  H  H14  1  0.54459000  0.75421000  0.68824000  1.0
  H  H15  1  0.35746000  0.06294000  0.31019000  1.0
  H  H16  1  0.77030000  0.84670000  0.74065000  1.0
  H  H17  1  0.52875000  0.10398000  0.25669000  1.0
  H  H18  1  0.56076000  0.89483000  0.69354000  1.0
  H  H19  1  0.36588000  0.19822000  0.30474000  1.0
  H  H20  1  0.44918000  0.03314000  0.83455000  1.0
  H  H21  1  0.11184000  0.19651000  0.16496000  1.0
  H  H22  1  0.46297000  0.01033000  0.95115000  1.0
  H  H23  1  0.00897000  0.05831000  0.04851000  1.0
  H  H24  1  0.64949000  0.82103000  0.02868000  1.0
  H  H25  1  0.12104000  0.79252000  0.97015000  1.0
  H  H26  1  0.95301000  0.32527000  0.74289000  1.0
  H  H27  1  0.70795000  0.58340000  0.25869000  1.0
  H  H28  1  0.80697000  0.52392000  0.54772000  1.0
  H  H29  1  0.75512000  0.97595000  0.44846000  1.0
  H  H30  1  0.57534000  0.44618000  0.52198000  1.0
  H  H31  1  0.55248000  0.92635000  0.47845000  1.0
  H  H32  1  0.69315000  0.41501000  0.42122000  1.0
  H  H33  1  0.77339000  0.99587000  0.57658000  1.0
  H  H34  1  0.74610000  0.15923000  0.07171000  1.0
  H  H35  1  0.17667000  0.08865000  0.93004000  1.0
  H  H36  1  0.75177000  0.21513000  0.97574000  1.0
  H  H37  1  0.27837000  0.23976000  0.02507000  1.0
  H  H38  1  0.48996000  0.35830000  0.21423000  1.0
  H  H39  1  0.77562000  0.14599000  0.78860000  1.0
  H  H40  1  0.73887000  0.41791000  0.27270000  1.0
  H  H41  1  0.96514000  0.14592000  0.72883000  1.0
  H  H42  1  0.65928000  0.26715000  0.22409000  1.0
  H  H43  1  0.93445000  0.04478000  0.77911000  1.0
  H  H44  1  0.30167000  0.45677000  0.68877000  1.0
  H  H45  1  0.10903000  0.76920000  0.31258000  1.0
  H  H46  1  0.47308000  0.57581000  0.71242000  1.0
  H  H47  1  0.25730000  0.86276000  0.28695000  1.0
  H  H48  1  0.25634000  0.53352000  0.61306000  1.0
  H  H49  1  0.13863000  0.92134000  0.38596000  1.0
  H  H50  1  0.09248000  0.69851000  0.67085000  1.0
  H  H51  1  0.91700000  0.02674000  0.32568000  1.0
  H  H52  1  0.03321000  0.74644000  0.79665000  1.0
  H  H53  1  0.73363000  0.94845000  0.19991000  1.0
  H  H54  1  0.82297000  0.23618000  0.38191000  1.0
  H  H55  1  0.94282000  0.85749000  0.61755000  1.0
  H  H56  1  0.91744000  0.19547000  0.48725000  1.0
  H  H57  1  0.93051000  0.71112000  0.51373000  1.0
  C  C58  1  0.45191000  0.24058000  0.74092000  1.0
  C  C59  1  0.21098000  0.49974000  0.26012000  1.0
  C  C60  1  0.35395000  0.14480000  0.63804000  1.0
  C  C61  1  0.21577000  0.50711000  0.36348000  1.0
  C  C62  1  0.35480000  0.17160000  0.54935000  1.0
  C  C63  1  0.30464000  0.62215000  0.45147000  1.0
  C  C64  1  0.27140000  0.04349000  0.62882000  1.0
  C  C65  1  0.14275000  0.41540000  0.37349000  1.0
  C  C66  1  0.63346000  0.82606000  0.89870000  1.0
  C  C67  1  0.23434000  0.92624000  0.09989000  1.0
  C  C68  1  0.57504000  0.89069000  0.83791000  1.0
  C  C69  1  0.23607000  0.05101000  0.16073000  1.0
  C  C70  1  0.61402000  0.84485000  0.73437000  1.0
  C  C71  1  0.37910000  0.10793000  0.26377000  1.0
  C  C72  1  0.49053000  0.98268000  0.87609000  1.0
  C  C73  1  0.11216000  0.10500000  0.12314000  1.0
  C  C74  1  0.84769000  0.37671000  0.64049000  1.0
  C  C75  1  0.70400000  0.73715000  0.35965000  1.0
  C  C76  1  0.80698000  0.35111000  0.53004000  1.0
  C  C77  1  0.77547000  0.82272000  0.46944000  1.0
  C  C78  1  0.24016000  0.61655000  0.86463000  1.0
  C  C79  1  0.87438000  0.75142000  0.13469000  1.0
  C  C80  1  0.21534000  0.62051000  0.76356000  1.0
  C  C81  1  0.94892000  0.85649000  0.23505000  1.0
  C  C82  1  0.71575000  0.43815000  0.50274000  1.0
  C  C83  1  0.71177000  0.93680000  0.49562000  1.0
  C  C84  1  0.64290000  0.41757000  0.07549000  1.0
  C  C85  1  0.06781000  0.34257000  0.92571000  1.0
  C  C86  1  0.66948000  0.32356000  0.10840000  1.0
  C  C87  1  0.06133000  0.21606000  0.89330000  1.0
  C  C88  1  0.72411000  0.22757000  0.04835000  1.0
  C  C89  1  0.17739000  0.18000000  0.95306000  1.0
  C  C90  1  0.63774000  0.34270000  0.21029000  1.0
  C  C91  1  0.92701000  0.13381000  0.79208000  1.0
  C  C92  1  0.31640000  0.54234000  0.69043000  1.0
  C  C93  1  0.12231000  0.85223000  0.30923000  1.0
  C  C94  1  0.10870000  0.69270000  0.74305000  1.0
  C  C95  1  0.86211000  0.94868000  0.25409000  1.0
  C  C96  1  0.85163000  0.25569000  0.46265000  1.0
  C  C97  1  0.88925000  0.79566000  0.53733000  1.0
  O  O98  1  0.51179000  0.33723000  0.75006000  1.0
  O  O99  1  0.25982000  0.58694000  0.24991000  1.0
  O  O100  1  0.47092000  0.21414000  0.81920000  1.0
  O  O101  1  0.15395000  0.39520000  0.18265000  1.0
  O  O102  1  0.70051000  0.73645000  0.86255000  1.0
  O  O103  1  0.33767000  0.87250000  0.13597000  1.0
  O  O104  1  0.60829000  0.87142000  0.99258000  1.0
  O  O105  1  0.11575000  0.87857000  0.00612000  1.0
  O  O106  1  0.93015000  0.30014000  0.66522000  1.0
  O  O107  1  0.76198000  0.63618000  0.33604000  1.0
  O  O108  1  0.80650000  0.46450000  0.70287000  1.0
  O  O109  1  0.59916000  0.76172000  0.29675000  1.0
  O  O110  1  0.12572000  0.66147000  0.92161000  1.0
  O  O111  1  0.70322000  0.73878000  0.07741000  1.0
  O  O112  1  0.37406000  0.56886000  0.89214000  1.0
  O  O113  1  0.98172000  0.67677000  0.10800000  1.0
  O  O114  1  0.63174000  0.39783000  0.98271000  1.0
  O  O115  1  0.14951000  0.41505000  0.01823000  1.0
  O  O116  1  0.63015000  0.51622000  0.14189000  1.0
  O  O117  1  0.98907000  0.37518000  0.85911000  1.0
