# generated using pymatgen
data_Cd2H6C6N16O
_symmetry_space_group_name_H-M   'P 1'
_cell_length_a   9.98547000
_cell_length_b   16.38300000
_cell_length_c   21.47420000
_cell_angle_alpha   111.38000000
_cell_angle_beta   89.99990000
_cell_angle_gamma   90.00000000
_symmetry_Int_Tables_number   1
_chemical_formula_structural   Cd2H6C6N16O
_chemical_formula_sum   'Cd16 H48 C48 N128 O8'
_cell_volume   3271.25224127
_cell_formula_units_Z   8
loop_
 _symmetry_equiv_pos_site_id
 _symmetry_equiv_pos_as_xyz
  1  'x, y, z'
loop_
 _atom_site_type_symbol
 _atom_site_label
 _atom_site_symmetry_multiplicity
 _atom_site_fract_x
 _atom_site_fract_y
 _atom_site_fract_z
 _atom_site_occupancy
  Cd  Cd0  1  0.97159000  0.89906000  0.64595000  1.0
  Cd  Cd1  1  0.47159000  0.10094000  0.85405000  1.0
  Cd  Cd2  1  0.02841000  0.10094000  0.35405000  1.0
  Cd  Cd3  1  0.52841000  0.89906000  0.14595000  1.0
  Cd  Cd4  1  0.47327000  0.62899000  0.50709000  1.0
  Cd  Cd5  1  0.97327000  0.37101000  0.99291000  1.0
  Cd  Cd6  1  0.52672000  0.37101000  0.49291000  1.0
  Cd  Cd7  1  0.02673000  0.62899000  0.00709000  1.0
  Cd  Cd8  1  0.61426000  0.03257000  0.66335000  1.0
  Cd  Cd9  1  0.11426000  0.96743000  0.83665000  1.0
  Cd  Cd10  1  0.38574000  0.96743000  0.33665000  1.0
  Cd  Cd11  1  0.88574000  0.03257000  0.16335000  1.0
  Cd  Cd12  1  0.67368000  0.25588000  0.62763000  1.0
  Cd  Cd13  1  0.17368000  0.74412000  0.87237000  1.0
  Cd  Cd14  1  0.32632000  0.74412000  0.37237000  1.0
  Cd  Cd15  1  0.82631000  0.25588000  0.12763000  1.0
  H  H16  1  0.84701000  0.66944000  0.48681000  1.0
  H  H17  1  0.34701000  0.33056000  0.01319000  1.0
  H  H18  1  0.15299000  0.33056000  0.51319000  1.0
  H  H19  1  0.65299000  0.66944000  0.98681000  1.0
  H  H20  1  0.92451000  0.69718000  0.56608000  1.0
  H  H21  1  0.42451000  0.30282000  0.93392000  1.0
  H  H22  1  0.07548000  0.30282000  0.43392000  1.0
  H  H23  1  0.57549000  0.69718000  0.06608000  1.0
  H  H24  1  0.09518000  0.55891000  0.70239000  1.0
  H  H25  1  0.59517000  0.44109000  0.79761000  1.0
  H  H26  1  0.90483000  0.44109000  0.29761000  1.0
  H  H27  1  0.40483000  0.55891000  0.20239000  1.0
  H  H28  1  0.92399000  0.56174000  0.68458000  1.0
  H  H29  1  0.42399000  0.43826000  0.81542000  1.0
  H  H30  1  0.07601000  0.43826000  0.31542000  1.0
  H  H31  1  0.57601000  0.56174000  0.18458000  1.0
  H  H32  1  0.20146000  0.96306000  0.55385000  1.0
  H  H33  1  0.70146000  0.03694000  0.94615000  1.0
  H  H34  1  0.79854000  0.03694000  0.44615000  1.0
  H  H35  1  0.29854000  0.96306000  0.05385000  1.0
  H  H36  1  0.35890000  0.90783000  0.54802000  1.0
  H  H37  1  0.85890000  0.09217000  0.95198000  1.0
  H  H38  1  0.64110000  0.09217000  0.45198000  1.0
  H  H39  1  0.14110000  0.90784000  0.04802000  1.0
  H  H40  1  0.08397000  0.14851000  0.51084000  1.0
  H  H41  1  0.58397000  0.85149000  0.98916000  1.0
  H  H42  1  0.91603000  0.85148000  0.48916000  1.0
  H  H43  1  0.41603000  0.14851000  0.01084000  1.0
  H  H44  1  0.04758000  0.24070000  0.58298000  1.0
  H  H45  1  0.54758000  0.75930000  0.91702000  1.0
  H  H46  1  0.95242000  0.75930000  0.41702000  1.0
  H  H47  1  0.45242000  0.24070000  0.08298000  1.0
  H  H48  1  0.35952000  0.57635000  0.62166000  1.0
  H  H49  1  0.85952000  0.42365000  0.87835000  1.0
  H  H50  1  0.64048000  0.42365000  0.37835000  1.0
  H  H51  1  0.14048000  0.57635000  0.12165000  1.0
  H  H52  1  0.28560000  0.66032000  0.61712000  1.0
  H  H53  1  0.78560000  0.33968000  0.88288000  1.0
  H  H54  1  0.71440000  0.33968000  0.38288000  1.0
  H  H55  1  0.21440000  0.66032000  0.11712000  1.0
  H  H56  1  0.86010000  0.32026000  0.74169000  1.0
  H  H57  1  0.36010000  0.67974000  0.75831000  1.0
  H  H58  1  0.13990000  0.67974000  0.25831000  1.0
  H  H59  1  0.63990000  0.32026000  0.24169000  1.0
  H  H60  1  0.85236000  0.40935000  0.73138000  1.0
  H  H61  1  0.35236000  0.59065000  0.76862000  1.0
  H  H62  1  0.14764000  0.59065000  0.26862000  1.0
  H  H63  1  0.64764000  0.40935000  0.23138000  1.0
  C  C64  1  0.96863000  0.58199000  0.78654000  1.0
  C  C65  1  0.46862000  0.41802000  0.71346000  1.0
  C  C66  1  0.03138000  0.41801000  0.21346000  1.0
  C  C67  1  0.53138000  0.58198000  0.28654000  1.0
  C  C68  1  0.73223000  0.75294000  0.56812000  1.0
  C  C69  1  0.23223000  0.24705000  0.93188000  1.0
  C  C70  1  0.26777000  0.24705000  0.43188000  1.0
  C  C71  1  0.76777000  0.75294000  0.06812000  1.0
  C  C72  1  0.82904000  0.67920000  0.53977000  1.0
  C  C73  1  0.32904000  0.32080000  0.96023000  1.0
  C  C74  1  0.17096000  0.32079000  0.46023000  1.0
  C  C75  1  0.67096000  0.67920000  0.03977000  1.0
  C  C76  1  0.78654000  0.59440000  0.54412000  1.0
  C  C77  1  0.28654000  0.40560000  0.95588000  1.0
  C  C78  1  0.21345000  0.40560000  0.45588000  1.0
  C  C79  1  0.71346000  0.59440000  0.04412000  1.0
  C  C80  1  0.01464000  0.68676000  0.72650000  1.0
  C  C81  1  0.51463000  0.31325000  0.77351000  1.0
  C  C82  1  0.98537000  0.31324000  0.27350000  1.0
  C  C83  1  0.48537000  0.68675000  0.22649000  1.0
  C  C84  1  0.00067000  0.59382000  0.72210000  1.0
  C  C85  1  0.50066000  0.40618000  0.77790000  1.0
  C  C86  1  0.99934000  0.40618000  0.27790000  1.0
  C  C87  1  0.49934000  0.59382000  0.22210000  1.0
  C  C88  1  0.29331000  0.97926000  0.64681000  1.0
  C  C89  1  0.79332000  0.02074000  0.85319000  1.0
  C  C90  1  0.70668000  0.02074000  0.35319000  1.0
  C  C91  1  0.20668000  0.97927000  0.14681000  1.0
  C  C92  1  0.30251000  0.96834000  0.57469000  1.0
  C  C93  1  0.80251000  0.03166000  0.92531000  1.0
  C  C94  1  0.69749000  0.03166000  0.42531000  1.0
  C  C95  1  0.19748000  0.96834000  0.07469000  1.0
  C  C96  1  0.36876000  0.04536000  0.56569000  1.0
  C  C97  1  0.86876000  0.95464000  0.93431000  1.0
  C  C98  1  0.63124000  0.95465000  0.43431000  1.0
  C  C99  1  0.13124000  0.04536000  0.06569000  1.0
  C  C100  1  0.94856000  0.12363000  0.57750000  1.0
  C  C101  1  0.44856000  0.87637000  0.92250000  1.0
  C  C102  1  0.05143000  0.87637000  0.42250000  1.0
  C  C103  1  0.55144000  0.12363000  0.07750000  1.0
  C  C104  1  0.00234000  0.18278000  0.54447000  1.0
  C  C105  1  0.50234000  0.81722000  0.95554000  1.0
  C  C106  1  0.99766000  0.81722000  0.45553000  1.0
  C  C107  1  0.49767000  0.18278000  0.04447000  1.0
  C  C108  1  0.89768000  0.21331000  0.50798000  1.0
  C  C109  1  0.39768000  0.78669000  0.99202000  1.0
  C  C110  1  0.10232000  0.78668000  0.49202000  1.0
  C  C111  1  0.60232000  0.21331000  0.00798000  1.0
  N  N112  1  0.96511000  0.59491000  0.88967000  1.0
  N  N113  1  0.46511000  0.40509000  0.61033000  1.0
  N  N114  1  0.03489000  0.40509000  0.11033000  1.0
  N  N115  1  0.53489000  0.59491000  0.38967000  1.0
  N  N116  1  0.88966000  0.52733000  0.85595000  1.0
  N  N117  1  0.38965000  0.47267000  0.64405000  1.0
  N  N118  1  0.11035000  0.47267000  0.14405000  1.0
  N  N119  1  0.61035000  0.52733000  0.35595000  1.0
  N  N120  1  0.88962000  0.51778000  0.79096000  1.0
  N  N121  1  0.38961000  0.48222000  0.70904000  1.0
  N  N122  1  0.11039000  0.48222000  0.20904000  1.0
  N  N123  1  0.61039000  0.51778000  0.29096000  1.0
  N  N124  1  0.01707000  0.63016000  0.84741000  1.0
  N  N125  1  0.51707000  0.36985000  0.65259000  1.0
  N  N126  1  0.98293000  0.36984000  0.15259000  1.0
  N  N127  1  0.48293000  0.63016000  0.34741000  1.0
  N  N128  1  0.76670000  0.83680000  0.60076000  1.0
  N  N129  1  0.26670000  0.16320000  0.89924000  1.0
  N  N130  1  0.23330000  0.16320000  0.39924000  1.0
  N  N131  1  0.73330000  0.83680000  0.10076000  1.0
  N  N132  1  0.65015000  0.88153000  0.61503000  1.0
  N  N133  1  0.15015000  0.11847000  0.88497000  1.0
  N  N134  1  0.34985000  0.11847000  0.38497000  1.0
  N  N135  1  0.84985000  0.88153000  0.11503000  1.0
  N  N136  1  0.54889000  0.82842000  0.59281000  1.0
  N  N137  1  0.04889000  0.17158000  0.90719000  1.0
  N  N138  1  0.45111000  0.17158000  0.40719000  1.0
  N  N139  1  0.95111000  0.82842000  0.09281000  1.0
  N  N140  1  0.59807000  0.74744000  0.56314000  1.0
  N  N141  1  0.09807000  0.25256000  0.93686000  1.0
  N  N142  1  0.40193000  0.25256000  0.43686000  1.0
  N  N143  1  0.90193000  0.74744000  0.06314000  1.0
  N  N144  1  0.66695000  0.55638000  0.52412000  1.0
  N  N145  1  0.16695000  0.44362000  0.97588000  1.0
  N  N146  1  0.33304000  0.44361000  0.47588000  1.0
  N  N147  1  0.83304000  0.55638000  0.02412000  1.0
  N  N148  1  0.67462000  0.48017000  0.53408000  1.0
  N  N149  1  0.17463000  0.51983000  0.96592000  1.0
  N  N150  1  0.32537000  0.51983000  0.46592000  1.0
  N  N151  1  0.82537000  0.48017000  0.03408000  1.0
  N  N152  1  0.79321000  0.47203000  0.55853000  1.0
  N  N153  1  0.29321000  0.52797000  0.94147000  1.0
  N  N154  1  0.20679000  0.52797000  0.44147000  1.0
  N  N155  1  0.70679000  0.47203000  0.05853000  1.0
  N  N156  1  0.86572000  0.54353000  0.56556000  1.0
  N  N157  1  0.36573000  0.45647000  0.93444000  1.0
  N  N158  1  0.13427000  0.45647000  0.43444000  1.0
  N  N159  1  0.63427000  0.54353000  0.06556000  1.0
  N  N160  1  0.00159000  0.80307000  0.70481000  1.0
  N  N161  1  0.50159000  0.19693000  0.79519000  1.0
  N  N162  1  0.99841000  0.19693000  0.29519000  1.0
  N  N163  1  0.49841000  0.80307000  0.20481000  1.0
  N  N164  1  0.07882000  0.82062000  0.75798000  1.0
  N  N165  1  0.57882000  0.17939000  0.74202000  1.0
  N  N166  1  0.92118000  0.17939000  0.24202000  1.0
  N  N167  1  0.42118000  0.82061000  0.25798000  1.0
  N  N168  1  0.08874000  0.74848000  0.77262000  1.0
  N  N169  1  0.58874000  0.25152000  0.72738000  1.0
  N  N170  1  0.91126000  0.25152000  0.22738000  1.0
  N  N171  1  0.41127000  0.74848000  0.27262000  1.0
  N  N172  1  0.95949000  0.71997000  0.68372000  1.0
  N  N173  1  0.45949000  0.28003000  0.81628000  1.0
  N  N174  1  0.04052000  0.28003000  0.31628000  1.0
  N  N175  1  0.54052000  0.71997000  0.18372000  1.0
  N  N176  1  0.92533000  0.01868000  0.61210000  1.0
  N  N177  1  0.42534000  0.98132000  0.88790000  1.0
  N  N178  1  0.07466000  0.98132000  0.38790000  1.0
  N  N179  1  0.57466000  0.01868000  0.11210000  1.0
  N  N180  1  0.81900000  0.06973000  0.63150000  1.0
  N  N181  1  0.31900000  0.93027000  0.86851000  1.0
  N  N182  1  0.18100000  0.93027000  0.36851000  1.0
  N  N183  1  0.68100000  0.06973000  0.13150000  1.0
  N  N184  1  0.83120000  0.13662000  0.61053000  1.0
  N  N185  1  0.33120000  0.86338000  0.88947000  1.0
  N  N186  1  0.16881000  0.86338000  0.38947000  1.0
  N  N187  1  0.66880000  0.13662000  0.11053000  1.0
  N  N188  1  0.00877000  0.05065000  0.57826000  1.0
  N  N189  1  0.50877000  0.94935000  0.92174000  1.0
  N  N190  1  0.99123000  0.94935000  0.42174000  1.0
  N  N191  1  0.49123000  0.05065000  0.07826000  1.0
  N  N192  1  0.90400000  0.20323000  0.44311000  1.0
  N  N193  1  0.40400000  0.79677000  0.05689000  1.0
  N  N194  1  0.09600000  0.79677000  0.55689000  1.0
  N  N195  1  0.59600000  0.20323000  0.94311000  1.0
  N  N196  1  0.79405000  0.24229000  0.43003000  1.0
  N  N197  1  0.29405000  0.75771000  0.06997000  1.0
  N  N198  1  0.20595000  0.75771000  0.56997000  1.0
  N  N199  1  0.70595000  0.24229000  0.93003000  1.0
  N  N200  1  0.72328000  0.27378000  0.48501000  1.0
  N  N201  1  0.22328000  0.72622000  0.01499000  1.0
  N  N202  1  0.27672000  0.72622000  0.51499000  1.0
  N  N203  1  0.77672000  0.27378000  0.98501000  1.0
  N  N204  1  0.78522000  0.25714000  0.53480000  1.0
  N  N205  1  0.28522000  0.74286000  0.96520000  1.0
  N  N206  1  0.21478000  0.74286000  0.46520000  1.0
  N  N207  1  0.71478000  0.25714000  0.03480000  1.0
  N  N208  1  0.35020000  0.01035000  0.74946000  1.0
  N  N209  1  0.85020000  0.98965000  0.75053000  1.0
  N  N210  1  0.64980000  0.98965000  0.25053000  1.0
  N  N211  1  0.14980000  0.01035000  0.24947000  1.0
  N  N212  1  0.39541000  0.00680000  0.69006000  1.0
  N  N213  1  0.89541000  0.99320000  0.80994000  1.0
  N  N214  1  0.60459000  0.99320000  0.30994000  1.0
  N  N215  1  0.10459000  0.00680000  0.19006000  1.0
  N  N216  1  0.22444000  0.98530000  0.74298000  1.0
  N  N217  1  0.72444000  0.01470000  0.75702000  1.0
  N  N218  1  0.77556000  0.01470000  0.25702000  1.0
  N  N219  1  0.27556000  0.98530000  0.24298000  1.0
  N  N220  1  0.18565000  0.96531000  0.67936000  1.0
  N  N221  1  0.68565000  0.03469000  0.82064000  1.0
  N  N222  1  0.81435000  0.03469000  0.32064000  1.0
  N  N223  1  0.31435000  0.96531000  0.17936000  1.0
  N  N224  1  0.31135000  0.09733000  0.53712000  1.0
  N  N225  1  0.81135000  0.90268000  0.96288000  1.0
  N  N226  1  0.68865000  0.90268000  0.46289000  1.0
  N  N227  1  0.18865000  0.09732000  0.03712000  1.0
  N  N228  1  0.40127000  0.16056000  0.54279000  1.0
  N  N229  1  0.90127000  0.83945000  0.95721000  1.0
  N  N230  1  0.59873000  0.83945000  0.45721000  1.0
  N  N231  1  0.09872000  0.16055000  0.04279000  1.0
  N  N232  1  0.50946000  0.14697000  0.57303000  1.0
  N  N233  1  0.00946000  0.85303000  0.92697000  1.0
  N  N234  1  0.49054000  0.85303000  0.42697000  1.0
  N  N235  1  0.99054000  0.14697000  0.07303000  1.0
  N  N236  1  0.49222000  0.07439000  0.58784000  1.0
  N  N237  1  0.99222000  0.92561000  0.91215000  1.0
  N  N238  1  0.50778000  0.92561000  0.41216000  1.0
  N  N239  1  0.00778000  0.07439000  0.08784000  1.0
  O  O240  1  0.37341000  0.63564000  0.62025000  1.0
  O  O241  1  0.87341000  0.36436000  0.87975000  1.0
  O  O242  1  0.62659000  0.36436000  0.37975000  1.0
  O  O243  1  0.12659000  0.63564000  0.12025000  1.0
  O  O244  1  0.84553000  0.34434000  0.70685000  1.0
  O  O245  1  0.34553000  0.65567000  0.79315000  1.0
  O  O246  1  0.15448000  0.65566000  0.29315000  1.0
  O  O247  1  0.65447000  0.34434000  0.20685000  1.0
