# generated using pymatgen
data_AlH17C18N2O9
_symmetry_space_group_name_H-M   'P 1'
_cell_length_a   6.63965000
_cell_length_b   20.31000000
_cell_length_c   27.12100000
_cell_angle_alpha   89.72080000
_cell_angle_beta   89.38310000
_cell_angle_gamma   89.46410000
_symmetry_Int_Tables_number   1
_chemical_formula_structural   AlH17C18N2O9
_chemical_formula_sum   'Al4 H68 C72 N8 O36'
_cell_volume   3656.88827342
_cell_formula_units_Z   4
loop_
 _symmetry_equiv_pos_site_id
 _symmetry_equiv_pos_as_xyz
  1  'x, y, z'
loop_
 _atom_site_type_symbol
 _atom_site_label
 _atom_site_symmetry_multiplicity
 _atom_site_fract_x
 _atom_site_fract_y
 _atom_site_fract_z
 _atom_site_occupancy
  Al  Al0  1  0.76680000  0.25315000  0.24865000  1.0
  Al  Al1  1  0.22442000  0.74816000  0.75177000  1.0
  Al  Al2  1  0.26941000  0.24952000  0.24971000  1.0
  Al  Al3  1  0.72391000  0.74993000  0.74957000  1.0
  H  H4  1  0.78675000  0.36532000  0.47930000  1.0
  H  H5  1  0.34385000  0.57928000  0.55504000  1.0
  H  H6  1  0.17847000  0.60237000  0.97410000  1.0
  H  H7  1  0.81188000  0.40182000  0.02872000  1.0
  H  H8  1  0.18236000  0.08778000  0.04691000  1.0
  H  H9  1  0.83046000  0.90400000  0.95091000  1.0
  H  H10  1  0.81364000  0.91329000  0.54663000  1.0
  H  H11  1  0.16430000  0.09581000  0.45107000  1.0
  H  H12  1  0.77618000  0.30363000  0.39926000  1.0
  H  H13  1  0.30383000  0.64290000  0.63186000  1.0
  H  H14  1  0.20333000  0.67436000  0.89876000  1.0
  H  H15  1  0.79307000  0.33011000  0.10390000  1.0
  H  H16  1  0.20631000  0.15215000  0.12383000  1.0
  H  H17  1  0.79352000  0.84415000  0.87203000  1.0
  H  H18  1  0.78774000  0.84998000  0.62469000  1.0
  H  H19  1  0.20133000  0.15411000  0.37089000  1.0
  H  H20  1  0.45220000  0.56312000  0.70134000  1.0
  H  H21  1  0.70397000  0.58245000  0.71972000  1.0
  H  H22  1  0.65289000  0.50509000  0.69105000  1.0
  H  H23  1  0.54645000  0.43521000  0.30267000  1.0
  H  H24  1  0.49025000  0.36156000  0.33585000  1.0
  H  H25  1  0.54175000  0.43669000  0.36864000  1.0
  H  H26  1  0.34103000  0.49034000  0.24149000  1.0
  H  H27  1  0.09273000  0.46024000  0.23250000  1.0
  H  H28  1  0.17688000  0.53217000  0.19905000  1.0
  H  H29  1  0.42117000  0.56150000  0.79475000  1.0
  H  H30  1  0.47801000  0.63311000  0.82959000  1.0
  H  H31  1  0.42532000  0.55599000  0.86052000  1.0
  H  H32  1  0.01213000  0.88491000  0.79657000  1.0
  H  H33  1  0.22766000  0.93725000  0.79996000  1.0
  H  H34  1  0.98641000  0.96696000  0.82110000  1.0
  H  H35  1  0.80378000  0.08259000  0.21163000  1.0
  H  H36  1  0.06212000  0.07093000  0.19322000  1.0
  H  H37  1  0.87817000  0.01089000  0.17697000  1.0
  H  H38  1  0.98524000  0.11741000  0.29377000  1.0
  H  H39  1  0.76695000  0.06606000  0.29764000  1.0
  H  H40  1  0.00667000  0.03432000  0.31707000  1.0
  H  H41  1  0.19088000  0.91668000  0.71336000  1.0
  H  H42  1  0.93243000  0.92919000  0.69669000  1.0
  H  H43  1  0.11718000  0.98943000  0.67973000  1.0
  H  H44  1  0.58263000  0.46533000  0.61744000  1.0
  H  H45  1  0.72674000  0.42332000  0.56988000  1.0
  H  H46  1  0.47160000  0.45014000  0.55895000  1.0
  H  H47  1  0.45744000  0.45512000  0.46963000  1.0
  H  H48  1  0.40892000  0.54097000  0.47931000  1.0
  H  H49  1  0.57734000  0.51468000  0.43064000  1.0
  H  H50  1  0.56001000  0.49141000  0.05727000  1.0
  H  H51  1  0.56382000  0.47750000  0.12287000  1.0
  H  H52  1  0.59393000  0.55916000  0.09827000  1.0
  H  H53  1  0.51076000  0.51069000  0.96935000  1.0
  H  H54  1  0.61875000  0.42967000  0.96680000  1.0
  H  H55  1  0.40103000  0.44993000  0.93039000  1.0
  H  H56  1  0.04103000  0.01551000  0.89538000  1.0
  H  H57  1  0.20316000  0.05868000  0.93733000  1.0
  H  H58  1  0.95594000  0.03376000  0.95692000  1.0
  H  H59  1  0.80181000  0.93622000  0.06645000  1.0
  H  H60  1  0.98004000  0.97649000  0.10617000  1.0
  H  H61  1  0.04610000  0.95832000  0.04326000  1.0
  H  H62  1  0.96227000  0.98671000  0.39471000  1.0
  H  H63  1  0.79583000  0.94327000  0.43674000  1.0
  H  H64  1  0.04065000  0.96833000  0.45648000  1.0
  H  H65  1  0.18957000  0.06439000  0.56711000  1.0
  H  H66  1  0.01098000  0.02304000  0.60742000  1.0
  H  H67  1  0.94691000  0.04160000  0.54469000  1.0
  H  H68  1  0.50643000  0.33180000  0.22733000  1.0
  H  H69  1  0.47638000  0.67068000  0.72733000  1.0
  H  H70  1  0.01726000  0.18057000  0.21706000  1.0
  H  H71  1  0.97935000  0.82000000  0.71860000  1.0
  C  C72  1  0.52558000  0.17341000  0.31663000  1.0
  C  C73  1  0.47082000  0.82750000  0.68119000  1.0
  C  C74  1  0.47252000  0.82557000  0.81874000  1.0
  C  C75  1  0.51941000  0.17441000  0.17953000  1.0
  C  C76  1  0.02005000  0.33381000  0.18391000  1.0
  C  C77  1  0.97125000  0.67205000  0.81869000  1.0
  C  C78  1  0.97763000  0.66661000  0.68481000  1.0
  C  C79  1  0.01824000  0.32229000  0.31961000  1.0
  C  C80  1  0.01217000  0.36186000  0.36596000  1.0
  C  C81  1  0.98969000  0.62082000  0.64206000  1.0
  C  C82  1  0.96259000  0.62540000  0.86134000  1.0
  C  C83  1  0.03306000  0.37958000  0.14086000  1.0
  C  C84  1  0.52046000  0.13088000  0.13528000  1.0
  C  C85  1  0.47878000  0.86683000  0.86404000  1.0
  C  C86  1  0.47270000  0.87092000  0.63654000  1.0
  C  C87  1  0.51744000  0.13253000  0.36238000  1.0
  C  C88  1  0.14523000  0.41442000  0.37175000  1.0
  C  C89  1  0.82397000  0.58621000  0.62289000  1.0
  C  C90  1  0.81974000  0.57506000  0.86333000  1.0
  C  C91  1  0.17482000  0.43062000  0.13833000  1.0
  C  C92  1  0.69237000  0.09723000  0.11637000  1.0
  C  C93  1  0.30962000  0.89921000  0.88548000  1.0
  C  C94  1  0.30098000  0.90399000  0.61765000  1.0
  C  C95  1  0.68701000  0.10134000  0.38391000  1.0
  C  C96  1  0.14989000  0.45036000  0.41632000  1.0
  C  C97  1  0.84558000  0.55013000  0.57860000  1.0
  C  C98  1  0.80246000  0.53480000  0.90617000  1.0
  C  C99  1  0.18256000  0.47230000  0.09652000  1.0
  C  C100  1  0.67993000  0.06064000  0.07226000  1.0
  C  C101  1  0.33005000  0.93359000  0.93042000  1.0
  C  C102  1  0.31465000  0.94024000  0.57313000  1.0
  C  C103  1  0.66647000  0.06764000  0.42944000  1.0
  C  C104  1  0.01568000  0.43196000  0.45542000  1.0
  C  C105  1  0.03489000  0.54739000  0.55404000  1.0
  C  C106  1  0.93725000  0.54449000  0.94576000  1.0
  C  C107  1  0.04946000  0.46173000  0.05696000  1.0
  C  C108  1  0.49321000  0.05649000  0.04777000  1.0
  C  C109  1  0.52000000  0.93627000  0.95331000  1.0
  C  C110  1  0.50247000  0.94445000  0.54814000  1.0
  C  C111  1  0.47576000  0.06463000  0.45292000  1.0
  C  C112  1  0.88593000  0.37811000  0.44849000  1.0
  C  C113  1  0.19814000  0.58164000  0.57382000  1.0
  C  C114  1  0.08084000  0.59538000  0.94258000  1.0
  C  C115  1  0.91044000  0.40982000  0.05988000  1.0
  C  C116  1  0.32470000  0.09083000  0.06635000  1.0
  C  C117  1  0.68530000  0.90227000  0.93262000  1.0
  C  C118  1  0.67069000  0.91044000  0.56658000  1.0
  C  C119  1  0.30997000  0.09768000  0.43223000  1.0
  C  C120  1  0.87977000  0.34431000  0.40435000  1.0
  C  C121  1  0.17608000  0.61658000  0.61713000  1.0
  C  C122  1  0.09411000  0.63474000  0.90115000  1.0
  C  C123  1  0.90122000  0.37002000  0.10128000  1.0
  C  C124  1  0.33826000  0.12626000  0.10954000  1.0
  C  C125  1  0.66472000  0.86956000  0.88843000  1.0
  C  C126  1  0.65604000  0.87552000  0.61035000  1.0
  C  C127  1  0.33063000  0.12956000  0.38732000  1.0
  C  C128  1  0.61273000  0.55783000  0.69192000  1.0
  C  C129  1  0.47304000  0.41530000  0.33583000  1.0
  C  C130  1  0.22221000  0.48402000  0.21433000  1.0
  C  C131  1  0.49418000  0.57944000  0.82805000  1.0
  C  C132  1  0.08531000  0.92331000  0.81796000  1.0
  C  C133  1  0.90478000  0.06376000  0.18256000  1.0
  C  C134  1  0.91011000  0.07863000  0.31502000  1.0
  C  C135  1  0.08960000  0.93644000  0.68507000  1.0
  C  C136  1  0.61259000  0.46163000  0.57761000  1.0
  C  C137  1  0.43927000  0.50323000  0.45151000  1.0
  C  C138  1  0.51891000  0.51185000  0.09353000  1.0
  C  C139  1  0.54238000  0.46827000  0.94547000  1.0
  C  C140  1  0.08698000  0.02081000  0.93396000  1.0
  C  C141  1  0.92306000  0.97252000  0.06839000  1.0
  C  C142  1  0.91202000  0.98122000  0.43324000  1.0
  C  C143  1  0.06951000  0.02761000  0.56949000  1.0
  N  N144  1  0.98360000  0.46248000  0.50146000  1.0
  N  N145  1  0.07550000  0.51596000  0.50881000  1.0
  N  N146  1  0.92099000  0.50224000  0.98659000  1.0
  N  N147  1  0.06874000  0.50423000  0.01611000  1.0
  N  N148  1  0.46215000  0.02314000  0.00306000  1.0
  N  N149  1  0.55571000  0.96909000  0.99808000  1.0
  N  N150  1  0.53433000  0.97796000  0.50312000  1.0
  N  N151  1  0.43983000  0.03184000  0.49817000  1.0
  O  O152  1  0.34667000  0.19458000  0.19459000  1.0
  O  O153  1  0.64247000  0.80909000  0.79996000  1.0
  O  O154  1  0.64247000  0.81216000  0.69907000  1.0
  O  O155  1  0.35932000  0.18334000  0.29441000  1.0
  O  O156  1  0.85230000  0.31410000  0.29761000  1.0
  O  O157  1  0.14483000  0.68192000  0.70457000  1.0
  O  O158  1  0.14462000  0.69176000  0.80497000  1.0
  O  O159  1  0.84519000  0.31293000  0.19584000  1.0
  O  O160  1  0.69375000  0.19724000  0.30278000  1.0
  O  O161  1  0.30214000  0.80787000  0.69834000  1.0
  O  O162  1  0.30304000  0.80838000  0.80171000  1.0
  O  O163  1  0.68607000  0.18934000  0.19939000  1.0
  O  O164  1  0.18405000  0.31797000  0.20482000  1.0
  O  O165  1  0.80562000  0.69013000  0.79979000  1.0
  O  O166  1  0.80546000  0.68892000  0.69816000  1.0
  O  O167  1  0.18772000  0.29869000  0.30628000  1.0
  O  O168  1  0.51518000  0.29284000  0.24821000  1.0
  O  O169  1  0.47594000  0.70851000  0.74903000  1.0
  O  O170  1  0.01723000  0.21011000  0.24515000  1.0
  O  O171  1  0.97483000  0.79033000  0.74683000  1.0
  O  O172  1  0.63477000  0.58667000  0.64368000  1.0
  O  O173  1  0.26266000  0.43340000  0.33240000  1.0
  O  O174  1  0.30599000  0.44265000  0.17609000  1.0
  O  O175  1  0.70468000  0.56144000  0.82317000  1.0
  O  O176  1  0.11965000  0.89879000  0.86706000  1.0
  O  O177  1  0.87969000  0.09972000  0.13730000  1.0
  O  O178  1  0.87701000  0.10155000  0.36458000  1.0
  O  O179  1  0.11310000  0.90186000  0.63933000  1.0
  O  O180  1  0.67807000  0.52351000  0.55755000  1.0
  O  O181  1  0.27788000  0.50210000  0.41642000  1.0
  O  O182  1  0.30540000  0.52592000  0.09552000  1.0
  O  O183  1  0.66171000  0.48710000  0.90315000  1.0
  O  O184  1  0.16189000  0.95917000  0.95328000  1.0
  O  O185  1  0.85159000  0.03554000  0.05082000  1.0
  O  O186  1  0.83441000  0.04280000  0.45212000  1.0
  O  O187  1  0.14379000  0.96507000  0.55183000  1.0
