# generated using pymatgen
data_YbH11C12NO9
_symmetry_space_group_name_H-M   'P 1'
_cell_length_a   7.24705000
_cell_length_b   10.59100000
_cell_length_c   12.62140000
_cell_angle_alpha   82.44630000
_cell_angle_beta   81.57170000
_cell_angle_gamma   86.71570000
_symmetry_Int_Tables_number   1
_chemical_formula_structural   YbH11C12NO9
_chemical_formula_sum   'Yb2 H22 C24 N2 O18'
_cell_volume   949.24420952
_cell_formula_units_Z   2
loop_
 _symmetry_equiv_pos_site_id
 _symmetry_equiv_pos_as_xyz
  1  'x, y, z'
loop_
 _atom_site_type_symbol
 _atom_site_label
 _atom_site_symmetry_multiplicity
 _atom_site_fract_x
 _atom_site_fract_y
 _atom_site_fract_z
 _atom_site_occupancy
  Yb  Yb0  1  0.76066000  0.77297000  0.45337000  1.0
  Yb  Yb1  1  0.23936000  0.22703000  0.54665000  1.0
  H  H2  1  0.61070000  0.52874000  0.42598000  1.0
  H  H3  1  0.38961000  0.47132000  0.57373000  1.0
  H  H4  1  0.44355000  0.62844000  0.39534000  1.0
  H  H5  1  0.55647000  0.37153000  0.60464000  1.0
  H  H6  1  0.10554000  0.90246000  0.48604000  1.0
  H  H7  1  0.89446000  0.09754000  0.51395000  1.0
  H  H8  1  0.14566000  0.77147000  0.43198000  1.0
  H  H9  1  0.85436000  0.22852000  0.56803000  1.0
  H  H10  1  0.62601000  0.87521000  0.24765000  1.0
  H  H11  1  0.37403000  0.12480000  0.75234000  1.0
  H  H12  1  0.81483000  0.79378000  0.22763000  1.0
  H  H13  1  0.18520000  0.20623000  0.77237000  1.0
  H  H14  1  0.62780000  0.73986000  0.83830000  1.0
  H  H15  1  0.37220000  0.26014000  0.16169000  1.0
  H  H16  1  0.57206000  0.73404000  0.04254000  1.0
  H  H17  1  0.42788000  0.26596000  0.95746000  1.0
  H  H18  1  0.61391000  0.61891000  0.22319000  1.0
  H  H19  1  0.38601000  0.38112000  0.77681000  1.0
  H  H20  1  0.76674000  0.40283000  0.23875000  1.0
  H  H21  1  0.23323000  0.59721000  0.76126000  1.0
  H  H22  1  0.87271000  0.29664000  0.07394000  1.0
  H  H23  1  0.12728000  0.70339000  0.92608000  1.0
  C  C24  1  0.88046000  0.37261000  0.68889000  1.0
  C  C25  1  0.11955000  0.62736000  0.31114000  1.0
  C  C26  1  0.82428000  0.45313000  0.77995000  1.0
  C  C27  1  0.17570000  0.54686000  0.22005000  1.0
  C  C28  1  0.74980000  0.58045000  0.76202000  1.0
  C  C29  1  0.25021000  0.41954000  0.23798000  1.0
  C  C30  1  0.74427000  0.64646000  0.65123000  1.0
  C  C31  1  0.25576000  0.35353000  0.34877000  1.0
  C  C32  1  0.68755000  0.64297000  0.85073000  1.0
  C  C33  1  0.31245000  0.35704000  0.14926000  1.0
  C  C34  1  0.70299000  0.58182000  0.95542000  1.0
  C  C35  1  0.29697000  0.41819000  0.04458000  1.0
  C  C36  1  0.64086000  0.63946000  0.05033000  1.0
  C  C37  1  0.35908000  0.36054000  0.94966000  1.0
  C  C38  1  0.66317000  0.57544000  0.15017000  1.0
  C  C39  1  0.33676000  0.42459000  0.84983000  1.0
  C  C40  1  0.74828000  0.45152000  0.15912000  1.0
  C  C41  1  0.25168000  0.54851000  0.84089000  1.0
  C  C42  1  0.80712000  0.39202000  0.06852000  1.0
  C  C43  1  0.19285000  0.60800000  0.93149000  1.0
  C  C44  1  0.78537000  0.45505000  0.96460000  1.0
  C  C45  1  0.21460000  0.54496000  0.03541000  1.0
  C  C46  1  0.58094000  0.03656000  0.51273000  1.0
  C  C47  1  0.41906000  0.96341000  0.48727000  1.0
  N  N48  1  0.84309000  0.39280000  0.87667000  1.0
  N  N49  1  0.15688000  0.60720000  0.12335000  1.0
  O  O50  1  0.75158000  0.33028000  0.64681000  1.0
  O  O51  1  0.24844000  0.66971000  0.35320000  1.0
  O  O52  1  0.05316000  0.34288000  0.66724000  1.0
  O  O53  1  0.94684000  0.65707000  0.33279000  1.0
  O  O54  1  0.83661000  0.59770000  0.57114000  1.0
  O  O55  1  0.16341000  0.40229000  0.42885000  1.0
  O  O56  1  0.65083000  0.75239000  0.63633000  1.0
  O  O57  1  0.34919000  0.24760000  0.36368000  1.0
  O  O58  1  0.53990000  0.13860000  0.55366000  1.0
  O  O59  1  0.46010000  0.86138000  0.44636000  1.0
  O  O60  1  0.74369000  0.98717000  0.48992000  1.0
  O  O61  1  0.25630000  0.01282000  0.51009000  1.0
  O  O62  1  0.56451000  0.61666000  0.42677000  1.0
  O  O63  1  0.43545000  0.38329000  0.57329000  1.0
  O  O64  1  0.04543000  0.82735000  0.46860000  1.0
  O  O65  1  0.95457000  0.17264000  0.53140000  1.0
  O  O66  1  0.75013000  0.85984000  0.26852000  1.0
  O  O67  1  0.24988000  0.14013000  0.73150000  1.0
