# generated using pymatgen
data_CuH8C14N4(ClO)4
_symmetry_space_group_name_H-M   'P 1'
_cell_length_a   11.95090000
_cell_length_b   12.13880000
_cell_length_c   13.04210000
_cell_angle_alpha   113.07900000
_cell_angle_beta   89.99990000
_cell_angle_gamma   89.99990000
_symmetry_Int_Tables_number   1
_chemical_formula_structural   CuH8C14N4(ClO)4
_chemical_formula_sum   'Cu4 H32 C56 N16 Cl16 O16'
_cell_volume   1740.58529424
_cell_formula_units_Z   4
loop_
 _symmetry_equiv_pos_site_id
 _symmetry_equiv_pos_as_xyz
  1  'x, y, z'
loop_
 _atom_site_type_symbol
 _atom_site_label
 _atom_site_symmetry_multiplicity
 _atom_site_fract_x
 _atom_site_fract_y
 _atom_site_fract_z
 _atom_site_occupancy
  Cu  Cu0  1  0.29761000  0.92770000  0.83036000  1.0
  Cu  Cu1  1  0.20239000  0.92770000  0.33036000  1.0
  Cu  Cu2  1  0.70239000  0.07230000  0.16964000  1.0
  Cu  Cu3  1  0.79761000  0.07230000  0.66964000  1.0
  H  H4  1  0.54273000  0.92110000  0.88478000  1.0
  H  H5  1  0.95727000  0.92110000  0.38478000  1.0
  H  H6  1  0.45727000  0.07890000  0.11523000  1.0
  H  H7  1  0.04272000  0.07890000  0.61522000  1.0
  H  H8  1  0.68630000  0.75952000  0.78767000  1.0
  H  H9  1  0.81370000  0.75952000  0.28767000  1.0
  H  H10  1  0.31370000  0.24048000  0.21234000  1.0
  H  H11  1  0.18629000  0.24047000  0.71233000  1.0
  H  H12  1  0.56707000  0.57198000  0.63402000  1.0
  H  H13  1  0.93294000  0.57199000  0.13403000  1.0
  H  H14  1  0.43293000  0.42801000  0.36598000  1.0
  H  H15  1  0.06706000  0.42801000  0.86597000  1.0
  H  H16  1  0.34968000  0.65840000  0.65970000  1.0
  H  H17  1  0.15032000  0.65841000  0.15971000  1.0
  H  H18  1  0.65032000  0.34159000  0.34030000  1.0
  H  H19  1  0.84968000  0.34159000  0.84029000  1.0
  H  H20  1  0.22043000  0.02596000  0.07269000  1.0
  H  H21  1  0.27957000  0.02596000  0.57269000  1.0
  H  H22  1  0.77957000  0.97404000  0.92732000  1.0
  H  H23  1  0.72043000  0.97405000  0.42731000  1.0
  H  H24  1  0.07319000  0.04908000  0.79819000  1.0
  H  H25  1  0.42681000  0.04909000  0.29819000  1.0
  H  H26  1  0.92681000  0.95092000  0.20182000  1.0
  H  H27  1  0.57318000  0.95091000  0.70180000  1.0
  H  H28  1  0.94962000  0.19303000  0.97988000  1.0
  H  H29  1  0.55038000  0.19303000  0.47989000  1.0
  H  H30  1  0.05038000  0.80697000  0.02012000  1.0
  H  H31  1  0.44962000  0.80696000  0.52010000  1.0
  H  H32  1  0.05949000  0.16986000  0.15867000  1.0
  H  H33  1  0.44050000  0.16985000  0.65867000  1.0
  H  H34  1  0.94051000  0.83014000  0.84133000  1.0
  H  H35  1  0.55950000  0.83014000  0.34132000  1.0
  C  C36  1  0.09339000  0.75166000  0.54189000  1.0
  C  C37  1  0.40661000  0.75167000  0.04189000  1.0
  C  C38  1  0.90661000  0.24834000  0.45810000  1.0
  C  C39  1  0.59339000  0.24833000  0.95811000  1.0
  C  C40  1  0.14461000  0.64993000  0.46334000  1.0
  C  C41  1  0.35539000  0.64993000  0.96335000  1.0
  C  C42  1  0.85539000  0.35007000  0.53665000  1.0
  C  C43  1  0.64461000  0.35006000  0.03666000  1.0
  C  C44  1  0.08086000  0.55366000  0.39123000  1.0
  C  C45  1  0.41914000  0.55366000  0.89123000  1.0
  C  C46  1  0.91914000  0.44635000  0.60877000  1.0
  C  C47  1  0.58086000  0.44634000  0.10877000  1.0
  C  C48  1  0.96351000  0.55762000  0.40061000  1.0
  C  C49  1  0.53650000  0.55762000  0.90061000  1.0
  C  C50  1  0.03650000  0.44238000  0.59939000  1.0
  C  C51  1  0.46350000  0.44237000  0.09939000  1.0
  C  C52  1  0.91207000  0.66164000  0.47635000  1.0
  C  C53  1  0.58793000  0.66164000  0.97635000  1.0
  C  C54  1  0.08793000  0.33836000  0.52365000  1.0
  C  C55  1  0.41207000  0.33835000  0.02365000  1.0
  C  C56  1  0.97641000  0.75945000  0.54436000  1.0
  C  C57  1  0.52359000  0.75945000  0.04436000  1.0
  C  C58  1  0.02359000  0.24055000  0.45563000  1.0
  C  C59  1  0.47641000  0.24054000  0.95564000  1.0
  C  C60  1  0.16305000  0.85097000  0.62591000  1.0
  C  C61  1  0.33694000  0.85098000  0.12591000  1.0
  C  C62  1  0.83694000  0.14904000  0.37409000  1.0
  C  C63  1  0.66306000  0.14902000  0.87409000  1.0
  C  C64  1  0.91701000  0.87361000  0.61607000  1.0
  C  C65  1  0.58299000  0.87362000  0.11607000  1.0
  C  C66  1  0.08299000  0.12639000  0.38393000  1.0
  C  C67  1  0.41701000  0.12638000  0.88393000  1.0
  C  C68  1  0.59794000  0.75081000  0.76761000  1.0
  C  C69  1  0.90206000  0.75081000  0.26761000  1.0
  C  C70  1  0.40205000  0.24919000  0.23240000  1.0
  C  C71  1  0.09794000  0.24919000  0.73239000  1.0
  C  C72  1  0.53590000  0.65823000  0.69048000  1.0
  C  C73  1  0.96410000  0.65823000  0.19049000  1.0
  C  C74  1  0.46410000  0.34177000  0.30952000  1.0
  C  C75  1  0.03590000  0.34176000  0.80951000  1.0
  C  C76  1  0.42546000  0.70053000  0.70292000  1.0
  C  C77  1  0.07454000  0.70053000  0.20292000  1.0
  C  C78  1  0.57454000  0.29947000  0.29708000  1.0
  C  C79  1  0.92546000  0.29947000  0.79708000  1.0
  C  C80  1  0.08538000  0.06862000  0.88572000  1.0
  C  C81  1  0.41462000  0.06862000  0.38573000  1.0
  C  C82  1  0.91462000  0.93138000  0.11428000  1.0
  C  C83  1  0.58538000  0.93138000  0.61427000  1.0
  C  C84  1  0.02429000  0.14238000  0.97914000  1.0
  C  C85  1  0.47571000  0.14238000  0.47914000  1.0
  C  C86  1  0.97571000  0.85762000  0.02087000  1.0
  C  C87  1  0.52429000  0.85762000  0.52085000  1.0
  C  C88  1  0.07796000  0.13344000  0.07019000  1.0
  C  C89  1  0.42203000  0.13344000  0.57020000  1.0
  C  C90  1  0.92204000  0.86656000  0.92981000  1.0
  C  C91  1  0.57797000  0.86656000  0.42980000  1.0
  N  N92  1  0.42066000  0.81221000  0.78261000  1.0
  N  N93  1  0.07934000  0.81221000  0.28261000  1.0
  N  N94  1  0.57934000  0.18779000  0.21739000  1.0
  N  N95  1  0.92066000  0.18779000  0.71739000  1.0
  N  N96  1  0.52625000  0.84056000  0.82101000  1.0
  N  N97  1  0.97375000  0.84056000  0.32102000  1.0
  N  N98  1  0.47374000  0.15944000  0.17899000  1.0
  N  N99  1  0.02625000  0.15944000  0.67898000  1.0
  N  N100  1  0.17122000  0.01812000  0.91776000  1.0
  N  N101  1  0.32878000  0.01813000  0.41776000  1.0
  N  N102  1  0.82878000  0.98188000  0.08224000  1.0
  N  N103  1  0.67121000  0.98187000  0.58223000  1.0
  N  N104  1  0.16627000  0.05959000  0.03043000  1.0
  N  N105  1  0.33372000  0.05958000  0.53043000  1.0
  N  N106  1  0.83372000  0.94042000  0.96958000  1.0
  N  N107  1  0.66628000  0.94041000  0.46957000  1.0
  Cl  Cl108  1  0.28822000  0.64472000  0.45173000  1.0
  Cl  Cl109  1  0.21178000  0.64472000  0.95173000  1.0
  Cl  Cl110  1  0.71178000  0.35528000  0.54828000  1.0
  Cl  Cl111  1  0.78823000  0.35527000  0.04827000  1.0
  Cl  Cl112  1  0.14403000  0.43324000  0.29049000  1.0
  Cl  Cl113  1  0.35597000  0.43324000  0.79049000  1.0
  Cl  Cl114  1  0.85597000  0.56676000  0.70951000  1.0
  Cl  Cl115  1  0.64404000  0.56675000  0.20951000  1.0
  Cl  Cl116  1  0.88533000  0.43843000  0.31729000  1.0
  Cl  Cl117  1  0.61467000  0.43843000  0.81729000  1.0
  Cl  Cl118  1  0.11468000  0.56157000  0.68271000  1.0
  Cl  Cl119  1  0.38533000  0.56156000  0.18271000  1.0
  Cl  Cl120  1  0.76834000  0.67147000  0.48416000  1.0
  Cl  Cl121  1  0.73166000  0.67147000  0.98417000  1.0
  Cl  Cl122  1  0.23166000  0.32853000  0.51583000  1.0
  Cl  Cl123  1  0.26835000  0.32852000  0.01584000  1.0
  O  O124  1  0.20331000  0.82193000  0.70319000  1.0
  O  O125  1  0.29669000  0.82193000  0.20320000  1.0
  O  O126  1  0.79669000  0.17808000  0.29680000  1.0
  O  O127  1  0.70330000  0.17807000  0.79680000  1.0
  O  O128  1  0.17274000  0.94900000  0.61589000  1.0
  O  O129  1  0.32725000  0.94899000  0.11590000  1.0
  O  O130  1  0.82725000  0.05102000  0.38410000  1.0
  O  O131  1  0.67275000  0.05100000  0.88410000  1.0
  O  O132  1  0.88507000  0.89229000  0.71211000  1.0
  O  O133  1  0.61493000  0.89229000  0.21211000  1.0
  O  O134  1  0.11493000  0.10771000  0.28788000  1.0
  O  O135  1  0.38507000  0.10771000  0.78789000  1.0
  O  O136  1  0.90187000  0.94646000  0.56622000  1.0
  O  O137  1  0.59813000  0.94647000  0.06623000  1.0
  O  O138  1  0.09813000  0.05354000  0.43377000  1.0
  O  O139  1  0.40187000  0.05353000  0.93377000  1.0
