# generated using pymatgen
data_ZnH8(C3N2)4
_symmetry_space_group_name_H-M   'P 1'
_cell_length_a   7.07918000
_cell_length_b   9.67651000
_cell_length_c   10.44330000
_cell_angle_alpha   110.04800000
_cell_angle_beta   104.13300000
_cell_angle_gamma   103.49700000
_symmetry_Int_Tables_number   1
_chemical_formula_structural   ZnH8(C3N2)4
_chemical_formula_sum   'Zn2 H16 C24 N16'
_cell_volume   610.93875353
_cell_formula_units_Z   2
loop_
 _symmetry_equiv_pos_site_id
 _symmetry_equiv_pos_as_xyz
  1  'x, y, z'
loop_
 _atom_site_type_symbol
 _atom_site_label
 _atom_site_symmetry_multiplicity
 _atom_site_fract_x
 _atom_site_fract_y
 _atom_site_fract_z
 _atom_site_occupancy
  Zn  Zn0  1  0.89666000  0.11223000  0.10274000  1.0
  Zn  Zn1  1  0.10334000  0.88777000  0.89725000  1.0
  H  H2  1  0.86116000  0.07211000  0.38671000  1.0
  H  H3  1  0.13884000  0.92789000  0.61328000  1.0
  H  H4  1  0.08132000  0.28421000  0.91871000  1.0
  H  H5  1  0.91867000  0.71580000  0.08128000  1.0
  H  H6  1  0.32484000  0.55047000  0.97970000  1.0
  H  H7  1  0.67515000  0.44955000  0.02030000  1.0
  H  H8  1  0.01371000  0.23982000  0.65509000  1.0
  H  H9  1  0.98629000  0.76017000  0.34490000  1.0
  H  H10  1  0.44724000  0.72874000  0.68842000  1.0
  H  H11  1  0.55276000  0.27124000  0.31158000  1.0
  H  H12  1  0.52804000  0.81469000  0.50343000  1.0
  H  H13  1  0.47197000  0.18531000  0.49658000  1.0
  H  H14  1  0.25856000  0.51989000  0.74702000  1.0
  H  H15  1  0.74144000  0.48011000  0.25298000  1.0
  H  H16  1  0.49052000  0.74788000  0.24002000  1.0
  H  H17  1  0.50948000  0.25213000  0.75999000  1.0
  C  C18  1  0.97181000  0.19109000  0.43103000  1.0
  C  C19  1  0.02818000  0.80891000  0.56896000  1.0
  C  C20  1  0.15497000  0.37257000  0.03108000  1.0
  C  C21  1  0.84502000  0.62744000  0.96892000  1.0
  C  C22  1  0.14880000  0.38835000  0.38093000  1.0
  C  C23  1  0.85119000  0.61165000  0.61907000  1.0
  C  C24  1  0.19747000  0.43704000  0.27365000  1.0
  C  C25  1  0.80253000  0.56296000  0.72635000  1.0
  C  C26  1  0.29313000  0.52158000  0.06600000  1.0
  C  C27  1  0.70687000  0.47843000  0.93400000  1.0
  C  C28  1  0.05922000  0.28708000  0.58197000  1.0
  C  C29  1  0.94077000  0.71291000  0.41803000  1.0
  C  C30  1  0.33703000  0.59076000  0.31918000  1.0
  C  C31  1  0.66298000  0.40925000  0.68083000  1.0
  C  C32  1  0.24227000  0.49397000  0.53061000  1.0
  C  C33  1  0.75773000  0.50603000  0.46939000  1.0
  C  C34  1  0.38012000  0.64890000  0.57272000  1.0
  C  C35  1  0.61987000  0.35110000  0.42729000  1.0
  C  C36  1  0.42472000  0.69584000  0.47060000  1.0
  C  C37  1  0.57529000  0.30416000  0.52941000  1.0
  C  C38  1  0.19215000  0.43903000  0.63158000  1.0
  C  C39  1  0.80785000  0.56097000  0.36842000  1.0
  C  C40  1  0.38362000  0.63119000  0.20981000  1.0
  C  C41  1  0.61638000  0.36882000  0.79018000  1.0
  N  N42  1  0.84070000  0.98556000  0.87996000  1.0
  N  N43  1  0.15931000  0.01445000  0.12004000  1.0
  N  N44  1  0.10828000  0.33163000  0.13187000  1.0
  N  N45  1  0.89172000  0.66838000  0.86813000  1.0
  N  N46  1  0.63932000  0.20948000  0.06720000  1.0
  N  N47  1  0.36070000  0.79051000  0.93280000  1.0
  N  N48  1  0.01444000  0.24074000  0.33379000  1.0
  N  N49  1  0.98555000  0.75926000  0.66621000  1.0
  N  N50  1  0.47315000  0.14361000  0.97422000  1.0
  N  N51  1  0.52684000  0.85638000  0.02576000  1.0
  N  N52  1  0.30578000  0.08156000  0.88152000  1.0
  N  N53  1  0.69423000  0.91844000  0.11848000  1.0
  N  N54  1  0.79369000  0.02823000  0.78476000  1.0
  N  N55  1  0.20632000  0.97176000  0.21524000  1.0
  N  N56  1  0.74869000  0.06617000  0.69004000  1.0
  N  N57  1  0.25132000  0.93382000  0.30996000  1.0
