# generated using pymatgen
data_HgH49C43Br2N5
_symmetry_space_group_name_H-M   'P 1'
_cell_length_a   8.87327000
_cell_length_b   14.65600000
_cell_length_c   19.71080000
_cell_angle_alpha   105.29900000
_cell_angle_beta   91.42660000
_cell_angle_gamma   107.31800000
_symmetry_Int_Tables_number   1
_chemical_formula_structural   HgH49C43Br2N5
_chemical_formula_sum   'Hg2 H98 C86 Br4 N10'
_cell_volume   2345.46039987
_cell_formula_units_Z   2
loop_
 _symmetry_equiv_pos_site_id
 _symmetry_equiv_pos_as_xyz
  1  'x, y, z'
loop_
 _atom_site_type_symbol
 _atom_site_label
 _atom_site_symmetry_multiplicity
 _atom_site_fract_x
 _atom_site_fract_y
 _atom_site_fract_z
 _atom_site_occupancy
  Hg  Hg0  1  0.43942000  0.34351000  0.19642000  1.0
  Hg  Hg1  1  0.56058000  0.65650000  0.80359000  1.0
  H  H2  1  0.75807000  0.54234000  0.24043000  1.0
  H  H3  1  0.24193000  0.45766000  0.75957000  1.0
  H  H4  1  0.01638000  0.62066000  0.19801000  1.0
  H  H5  1  0.98361000  0.37934000  0.80199000  1.0
  H  H6  1  0.08889000  0.52799000  0.08438000  1.0
  H  H7  1  0.91109000  0.47201000  0.91562000  1.0
  H  H8  1  0.66007000  0.28625000  0.07313000  1.0
  H  H9  1  0.33993000  0.71374000  0.92687000  1.0
  H  H10  1  0.16219000  0.37917000  0.04288000  1.0
  H  H11  1  0.83781000  0.62083000  0.95712000  1.0
  H  H12  1  0.68518000  0.29354000  0.94415000  1.0
  H  H13  1  0.31481000  0.70645000  0.05585000  1.0
  H  H14  1  0.30229000  0.23569000  0.88532000  1.0
  H  H15  1  0.69770000  0.76431000  0.11468000  1.0
  H  H16  1  0.35743000  0.40389000  0.87315000  1.0
  H  H17  1  0.64255000  0.59610000  0.12684000  1.0
  H  H18  1  0.52100000  0.40054000  0.92473000  1.0
  H  H19  1  0.47900000  0.59946000  0.07526000  1.0
  H  H20  1  0.38113000  0.45572000  0.96635000  1.0
  H  H21  1  0.61885000  0.54427000  0.03364000  1.0
  H  H22  1  0.47695000  0.26339000  0.98953000  1.0
  H  H23  1  0.52305000  0.73661000  0.01047000  1.0
  H  H24  1  0.28190000  0.20199000  0.00490000  1.0
  H  H25  1  0.71810000  0.79801000  0.99510000  1.0
  H  H26  1  0.37115000  0.33205000  0.04525000  1.0
  H  H27  1  0.62885000  0.66796000  0.95475000  1.0
  H  H28  1  0.80300000  0.19285000  0.76667000  1.0
  H  H29  1  0.19700000  0.80715000  0.23333000  1.0
  H  H30  1  0.53483000  0.20427000  0.75211000  1.0
  H  H31  1  0.46518000  0.79574000  0.24789000  1.0
  H  H32  1  0.65819000  0.31965000  0.80894000  1.0
  H  H33  1  0.34182000  0.68035000  0.19105000  1.0
  H  H34  1  0.52245000  0.23248000  0.84414000  1.0
  H  H35  1  0.47755000  0.76753000  0.15585000  1.0
  H  H36  1  0.57292000  0.04092000  0.75667000  1.0
  H  H37  1  0.42707000  0.95908000  0.24332000  1.0
  H  H38  1  0.58150000  0.07104000  0.85041000  1.0
  H  H39  1  0.41849000  0.92897000  0.14959000  1.0
  H  H40  1  0.74071000  0.04047000  0.80781000  1.0
  H  H41  1  0.25928000  0.95952000  0.19218000  1.0
  H  H42  1  0.04231000  0.07432000  0.88176000  1.0
  H  H43  1  0.95771000  0.92568000  0.11824000  1.0
  H  H44  1  0.22224000  0.05764000  0.84949000  1.0
  H  H45  1  0.77778000  0.94237000  0.15052000  1.0
  H  H46  1  0.03963000  0.97963000  0.80209000  1.0
  H  H47  1  0.96040000  0.02038000  0.19792000  1.0
  H  H48  1  0.18266000  0.25402000  0.71025000  1.0
  H  H49  1  0.81733000  0.74597000  0.28974000  1.0
  H  H50  1  0.32181000  0.22881000  0.59932000  1.0
  H  H51  1  0.67816000  0.77117000  0.40067000  1.0
  H  H52  1  0.39452000  0.07132000  0.55773000  1.0
  H  H53  1  0.60547000  0.92867000  0.44227000  1.0
  H  H54  1  0.28425000  0.77307000  0.62984000  1.0
  H  H55  1  0.71575000  0.22693000  0.37016000  1.0
  H  H56  1  0.15476000  0.83884000  0.67339000  1.0
  H  H57  1  0.84524000  0.16115000  0.32661000  1.0
  H  H58  1  0.35188000  0.87061000  0.71047000  1.0
  H  H59  1  0.64813000  0.12938000  0.28953000  1.0
  H  H60  1  0.31407000  0.61077000  0.39210000  1.0
  H  H61  1  0.68592000  0.38923000  0.60790000  1.0
  H  H62  1  0.73118000  0.71571000  0.54237000  1.0
  H  H63  1  0.26882000  0.28429000  0.45763000  1.0
  H  H64  1  0.61716000  0.91877000  0.65725000  1.0
  H  H65  1  0.38284000  0.08123000  0.34275000  1.0
  H  H66  1  0.86510000  0.91129000  0.70602000  1.0
  H  H67  1  0.13489000  0.08872000  0.29398000  1.0
  H  H68  1  0.88632000  0.82759000  0.62689000  1.0
  H  H69  1  0.11368000  0.17242000  0.37311000  1.0
  H  H70  1  0.72898000  0.78885000  0.67831000  1.0
  H  H71  1  0.27102000  0.21116000  0.32169000  1.0
  H  H72  1  0.86636000  0.03610000  0.63662000  1.0
  H  H73  1  0.13363000  0.96391000  0.36338000  1.0
  H  H74  1  0.71493000  0.00534000  0.56587000  1.0
  H  H75  1  0.28506000  0.99467000  0.43413000  1.0
  H  H76  1  0.86882000  0.94939000  0.55448000  1.0
  H  H77  1  0.13117000  0.05062000  0.44552000  1.0
  H  H78  1  0.20336000  0.84192000  0.46764000  1.0
  H  H79  1  0.79664000  0.15807000  0.53236000  1.0
  H  H80  1  0.05156000  0.71086000  0.52196000  1.0
  H  H81  1  0.94843000  0.28914000  0.47804000  1.0
  H  H82  1  0.02919000  0.61823000  0.43981000  1.0
  H  H83  1  0.97080000  0.38176000  0.56019000  1.0
  H  H84  1  0.93848000  0.71258000  0.44675000  1.0
  H  H85  1  0.06152000  0.28741000  0.55324000  1.0
  H  H86  1  0.07804000  0.76503000  0.34478000  1.0
  H  H87  1  0.92196000  0.23497000  0.65522000  1.0
  H  H88  1  0.16753000  0.66944000  0.33305000  1.0
  H  H89  1  0.83248000  0.33056000  0.66695000  1.0
  H  H90  1  0.28767000  0.79524000  0.34699000  1.0
  H  H91  1  0.71233000  0.20476000  0.65301000  1.0
  H  H92  1  0.71141000  0.55992000  0.51885000  1.0
  H  H93  1  0.28859000  0.44009000  0.48116000  1.0
  H  H94  1  0.78800000  0.41370000  0.45226000  1.0
  H  H95  1  0.21203000  0.58630000  0.54775000  1.0
  H  H96  1  0.68529000  0.33514000  0.32252000  1.0
  H  H97  1  0.31472000  0.66486000  0.67749000  1.0
  H  H98  1  0.45253000  0.54030000  0.32385000  1.0
  H  H99  1  0.54745000  0.45969000  0.67615000  1.0
  C  C100  1  0.79704000  0.50390000  0.19216000  1.0
  C  C101  1  0.20296000  0.49610000  0.80784000  1.0
  C  C102  1  0.94004000  0.54665000  0.16838000  1.0
  C  C103  1  0.05995000  0.45334000  0.83162000  1.0
  C  C104  1  0.98034000  0.49454000  0.10541000  1.0
  C  C105  1  0.01965000  0.50546000  0.89459000  1.0
  C  C106  1  0.87888000  0.39961000  0.06782000  1.0
  C  C107  1  0.12112000  0.60038000  0.93218000  1.0
  C  C108  1  0.73995000  0.36165000  0.09732000  1.0
  C  C109  1  0.26005000  0.63834000  0.90268000  1.0
  C  C110  1  0.91893000  0.34203000  0.00128000  1.0
  C  C111  1  0.08106000  0.65797000  0.99872000  1.0
  C  C112  1  0.07520000  0.34046000  0.99623000  1.0
  C  C113  1  0.92480000  0.65954000  0.00377000  1.0
  C  C114  1  0.12151000  0.28909000  0.93444000  1.0
  C  C115  1  0.87849000  0.71091000  0.06556000  1.0
  C  C116  1  0.00716000  0.24029000  0.87435000  1.0
  C  C117  1  0.99284000  0.75971000  0.12565000  1.0
  C  C118  1  0.84849000  0.24182000  0.87767000  1.0
  C  C119  1  0.15151000  0.75818000  0.12233000  1.0
  C  C120  1  0.80648000  0.29097000  0.94154000  1.0
  C  C121  1  0.19352000  0.70903000  0.05846000  1.0
  C  C122  1  0.29401000  0.29342000  0.93214000  1.0
  C  C123  1  0.70599000  0.70658000  0.06786000  1.0
  C  C124  1  0.39432000  0.39416000  0.92361000  1.0
  C  C125  1  0.60568000  0.60583000  0.07638000  1.0
  C  C126  1  0.35892000  0.27139000  0.99666000  1.0
  C  C127  1  0.64109000  0.72862000  0.00334000  1.0
  C  C128  1  0.73133000  0.18985000  0.81146000  1.0
  C  C129  1  0.26866000  0.81015000  0.18854000  1.0
  C  C130  1  0.60568000  0.23990000  0.80408000  1.0
  C  C131  1  0.39433000  0.76010000  0.19591000  1.0
  C  C132  1  0.65278000  0.07925000  0.80621000  1.0
  C  C133  1  0.34720000  0.92075000  0.19379000  1.0
  C  C134  1  0.10140000  0.05636000  0.83421000  1.0
  C  C135  1  0.89862000  0.94365000  0.16580000  1.0
  C  C136  1  0.10623000  0.12796000  0.79146000  1.0
  C  C137  1  0.89378000  0.87205000  0.20854000  1.0
  C  C138  1  0.17977000  0.11261000  0.72386000  1.0
  C  C139  1  0.82023000  0.88740000  0.27615000  1.0
  C  C140  1  0.21443000  0.18671000  0.68842000  1.0
  C  C141  1  0.78557000  0.81329000  0.31158000  1.0
  C  C142  1  0.29142000  0.17254000  0.62774000  1.0
  C  C143  1  0.70857000  0.82746000  0.37225000  1.0
  C  C144  1  0.33206000  0.08557000  0.60422000  1.0
  C  C145  1  0.66794000  0.91443000  0.39577000  1.0
  C  C146  1  0.29133000  0.01482000  0.64220000  1.0
  C  C147  1  0.70867000  0.98518000  0.35780000  1.0
  C  C148  1  0.32760000  0.91916000  0.61803000  1.0
  C  C149  1  0.67240000  0.08084000  0.38197000  1.0
  C  C150  1  0.27589000  0.84546000  0.65975000  1.0
  C  C151  1  0.72411000  0.15454000  0.34025000  1.0
  C  C152  1  0.43935000  0.81968000  0.53217000  1.0
  C  C153  1  0.56064000  0.18032000  0.46783000  1.0
  C  C154  1  0.34426000  0.74906000  0.47095000  1.0
  C  C155  1  0.65573000  0.25093000  0.52905000  1.0
  C  C156  1  0.38947000  0.66604000  0.43829000  1.0
  C  C157  1  0.61053000  0.33395000  0.56171000  1.0
  C  C158  1  0.52746000  0.65157000  0.46358000  1.0
  C  C159  1  0.47255000  0.34843000  0.53642000  1.0
  C  C160  1  0.62129000  0.72412000  0.52324000  1.0
  C  C161  1  0.37871000  0.27589000  0.47676000  1.0
  C  C162  1  0.58135000  0.80818000  0.55814000  1.0
  C  C163  1  0.41865000  0.19182000  0.44186000  1.0
  C  C164  1  0.69149000  0.88889000  0.61928000  1.0
  C  C165  1  0.30850000  0.11112000  0.38072000  1.0
  C  C166  1  0.79834000  0.85120000  0.65952000  1.0
  C  C167  1  0.20166000  0.14881000  0.34048000  1.0
  C  C168  1  0.79101000  0.97522000  0.59245000  1.0
  C  C169  1  0.20898000  0.02478000  0.40755000  1.0
  C  C170  1  0.19478000  0.76368000  0.44265000  1.0
  C  C171  1  0.80522000  0.23631000  0.55735000  1.0
  C  C172  1  0.04522000  0.69770000  0.46424000  1.0
  C  C173  1  0.95478000  0.30230000  0.53575000  1.0
  C  C174  1  0.18162000  0.74713000  0.36234000  1.0
  C  C175  1  0.81838000  0.25287000  0.63766000  1.0
  C  C176  1  0.57568000  0.56469000  0.42766000  1.0
  C  C177  1  0.42432000  0.43531000  0.57234000  1.0
  C  C178  1  0.67257000  0.52661000  0.46242000  1.0
  C  C179  1  0.32744000  0.47339000  0.53758000  1.0
  C  C180  1  0.71523000  0.44473000  0.42547000  1.0
  C  C181  1  0.28477000  0.55527000  0.57454000  1.0
  C  C182  1  0.65842000  0.40042000  0.35416000  1.0
  C  C183  1  0.34160000  0.59958000  0.64585000  1.0
  C  C184  1  0.52607000  0.51520000  0.35552000  1.0
  C  C185  1  0.47394000  0.48479000  0.64448000  1.0
  Br  Br186  1  0.28473000  0.46237000  0.19287000  1.0
  Br  Br187  1  0.71539000  0.53770000  0.80714000  1.0
  Br  Br188  1  0.44853000  0.16847000  0.17680000  1.0
  Br  Br189  1  0.55144000  0.83152000  0.82319000  1.0
  N  N190  1  0.69924000  0.41300000  0.15698000  1.0
  N  N191  1  0.30076000  0.58700000  0.84302000  1.0
  N  N192  1  0.05519000  0.20355000  0.80851000  1.0
  N  N193  1  0.94482000  0.79645000  0.19149000  1.0
  N  N194  1  0.21720000  0.02818000  0.70100000  1.0
  N  N195  1  0.78282000  0.97183000  0.29901000  1.0
  N  N196  1  0.39924000  0.90570000  0.56203000  1.0
  N  N197  1  0.60076000  0.09430000  0.43797000  1.0
  N  N198  1  0.56488000  0.43542000  0.32048000  1.0
  N  N199  1  0.43512000  0.56457000  0.67953000  1.0
