# generated using pymatgen
data_FeNi2H40C50N4O9
_symmetry_space_group_name_H-M   'P 1'
_cell_length_a   13.83950000
_cell_length_b   13.83940000
_cell_length_c   17.96337368
_cell_angle_alpha   103.35802819
_cell_angle_beta   103.35848722
_cell_angle_gamma   113.59300000
_symmetry_Int_Tables_number   1
_chemical_formula_structural   FeNi2H40C50N4O9
_chemical_formula_sum   'Fe2 Ni4 H80 C100 N8 O18'
_cell_volume   2858.59025669
_cell_formula_units_Z   2
loop_
 _symmetry_equiv_pos_site_id
 _symmetry_equiv_pos_as_xyz
  1  'x, y, z'
loop_
 _atom_site_type_symbol
 _atom_site_label
 _atom_site_symmetry_multiplicity
 _atom_site_fract_x
 _atom_site_fract_y
 _atom_site_fract_z
 _atom_site_occupancy
  Fe  Fe0  1  0.76412000  0.26377000  0.52790000  1.0
  Fe  Fe1  1  0.51377000  0.51412000  0.02790000  1.0
  Ni  Ni2  1  0.88719000  0.36599000  0.97527000  1.0
  Ni  Ni3  1  0.08805000  0.60940000  0.97532000  1.0
  Ni  Ni4  1  0.61600000  0.63720000  0.47528000  1.0
  Ni  Ni5  1  0.85940000  0.83805000  0.47532000  1.0
  H  H6  1  0.10089000  0.53715000  0.08877000  1.0
  H  H7  1  0.98760000  0.55183000  0.08853000  1.0
  H  H8  1  0.78715000  0.85090000  0.58877000  1.0
  H  H9  1  0.80183000  0.73760000  0.58853000  1.0
  H  H10  1  0.82149000  0.21091000  0.06123000  1.0
  H  H11  1  0.24011000  0.85048000  0.06179000  1.0
  H  H12  1  0.46091000  0.57149000  0.56123000  1.0
  H  H13  1  0.10048000  0.99010000  0.56179000  1.0
  H  H14  1  0.90411000  0.11980000  0.14132000  1.0
  H  H15  1  0.23746000  0.02160000  0.14192000  1.0
  H  H16  1  0.36980000  0.65411000  0.64132000  1.0
  H  H17  1  0.27160000  0.98746000  0.64193000  1.0
  H  H18  1  0.20798000  0.28230000  0.08994000  1.0
  H  H19  1  0.88192000  0.80777000  0.08967000  1.0
  H  H20  1  0.53229000  0.95799000  0.58994000  1.0
  H  H21  1  0.05777000  0.63191000  0.58967000  1.0
  H  H22  1  0.11213000  0.36696000  0.01306000  1.0
  H  H23  1  0.90102000  0.64633000  0.01283000  1.0
  H  H24  1  0.61696000  0.86213000  0.51306000  1.0
  H  H25  1  0.89633000  0.65102000  0.51283000  1.0
  H  H26  1  0.19992000  0.15941000  0.16549000  1.0
  H  H27  1  0.96545000  0.00609000  0.16541000  1.0
  H  H28  1  0.40941000  0.94992000  0.66549000  1.0
  H  H29  1  0.25610000  0.71545000  0.66542000  1.0
  H  H30  1  0.07546000  0.20873000  0.27641000  1.0
  H  H31  1  0.20084000  0.06802000  0.27653000  1.0
  H  H32  1  0.45873000  0.82546000  0.77641000  1.0
  H  H33  1  0.31802000  0.95085000  0.77653000  1.0
  H  H34  1  0.19925000  0.41128000  0.28519000  1.0
  H  H35  1  0.08604000  0.87416000  0.28524000  1.0
  H  H36  1  0.66127000  0.94924000  0.78519000  1.0
  H  H37  1  0.12416000  0.83605000  0.78524000  1.0
  H  H38  1  0.38886000  0.58219000  0.36510000  1.0
  H  H39  1  0.97645000  0.78303000  0.36517000  1.0
  H  H40  1  0.83218000  0.13885000  0.86510000  1.0
  H  H41  1  0.03303000  0.72646000  0.86517000  1.0
  H  H42  1  0.52804000  0.39413000  0.44491000  1.0
  H  H43  1  0.91652000  0.05052000  0.44486000  1.0
  H  H44  1  0.64413000  0.27803000  0.94491000  1.0
  H  H45  1  0.30052000  0.66653000  0.94486000  1.0
  H  H46  1  0.34527000  0.21362000  0.36891000  1.0
  H  H47  1  0.02316000  0.15515000  0.36884000  1.0
  H  H48  1  0.46362000  0.09526000  0.86891000  1.0
  H  H49  1  0.40514000  0.77316000  0.86884000  1.0
  H  H50  1  0.21446000  0.46607000  0.82656000  1.0
  H  H51  1  0.61191000  0.36061000  0.82651000  1.0
  H  H52  1  0.71606000  0.96447000  0.32656000  1.0
  H  H53  1  0.61062000  0.36192000  0.32652000  1.0
  H  H54  1  0.25013000  0.37115000  0.70703000  1.0
  H  H55  1  0.45679000  0.33583000  0.70685000  1.0
  H  H56  1  0.62113000  0.00012000  0.20702000  1.0
  H  H57  1  0.58582000  0.20678000  0.20685000  1.0
  H  H58  1  0.10726000  0.17236000  0.61380000  1.0
  H  H59  1  0.50647000  0.44135000  0.61362000  1.0
  H  H60  1  0.42236000  0.85726000  0.11380000  1.0
  H  H61  1  0.69135000  0.25647000  0.11363000  1.0
  H  H62  1  0.90184000  0.16389000  0.76071000  1.0
  H  H63  1  0.85878000  0.59676000  0.76062000  1.0
  H  H64  1  0.41389000  0.65184000  0.26071000  1.0
  H  H65  1  0.84676000  0.60878000  0.26062000  1.0
  H  H66  1  0.76663000  0.44572000  0.48154000  1.0
  H  H67  1  0.71505000  0.03539000  0.48156000  1.0
  H  H68  1  0.69573000  0.51663000  0.98155000  1.0
  H  H69  1  0.28539000  0.46505000  0.98156000  1.0
  H  H70  1  0.80655000  0.29379000  0.38666000  1.0
  H  H71  1  0.58028000  0.09255000  0.38674000  1.0
  H  H72  1  0.54380000  0.55654000  0.88666000  1.0
  H  H73  1  0.34255000  0.33028000  0.88674000  1.0
  H  H74  1  0.94056000  0.24102000  0.48823000  1.0
  H  H75  1  0.54810000  0.24703000  0.48835000  1.0
  H  H76  1  0.49103000  0.69056000  0.98823000  1.0
  H  H77  1  0.49704000  0.29810000  0.98835000  1.0
  H  H78  1  0.98255000  0.36057000  0.64493000  1.0
  H  H79  1  0.66288000  0.28421000  0.64503000  1.0
  H  H80  1  0.61058000  0.73256000  0.14493000  1.0
  H  H81  1  0.53421000  0.41288000  0.14503000  1.0
  H  H82  1  0.87554000  0.48746000  0.64081000  1.0
  H  H83  1  0.76561000  0.15305000  0.64088000  1.0
  H  H84  1  0.73746000  0.62554000  0.14082000  1.0
  H  H85  1  0.40305000  0.51560000  0.14088000  1.0
  C  C86  1  0.90625000  0.22264000  0.06870000  1.0
  C  C87  1  0.16272000  0.84623000  0.06906000  1.0
  C  C88  1  0.47265000  0.65626000  0.56870000  1.0
  C  C89  1  0.09622000  0.91271000  0.56906000  1.0
  C  C90  1  0.95356000  0.17299000  0.11334000  1.0
  C  C91  1  0.15998000  0.94047000  0.11370000  1.0
  C  C92  1  0.42300000  0.70356000  0.61334000  1.0
  C  C93  1  0.19048000  0.90998000  0.61371000  1.0
  C  C94  1  0.06396000  0.19297000  0.12229000  1.0
  C  C95  1  0.05839000  0.92945000  0.12237000  1.0
  C  C96  1  0.44297000  0.81396000  0.62229000  1.0
  C  C97  1  0.17945000  0.80838000  0.62237000  1.0
  C  C98  1  0.12155000  0.26275000  0.08476000  1.0
  C  C99  1  0.96323000  0.82216000  0.08463000  1.0
  C  C100  1  0.51275000  0.87156000  0.58476000  1.0
  C  C101  1  0.07216000  0.71323000  0.58463000  1.0
  C  C102  1  0.06853000  0.31015000  0.04132000  1.0
  C  C103  1  0.97289000  0.73138000  0.04122000  1.0
  C  C104  1  0.56015000  0.81854000  0.54132000  1.0
  C  C105  1  0.98138000  0.72288000  0.54122000  1.0
  C  C106  1  0.12051000  0.14748000  0.17434000  1.0
  C  C107  1  0.05376000  0.02697000  0.17436000  1.0
  C  C108  1  0.39747000  0.87051000  0.67434000  1.0
  C  C109  1  0.27697000  0.80375000  0.67436000  1.0
  C  C110  1  0.14564000  0.19373000  0.26907000  1.0
  C  C111  1  0.12322000  0.07550000  0.26909000  1.0
  C  C112  1  0.44372000  0.89564000  0.76907000  1.0
  C  C113  1  0.32549000  0.87321000  0.76908000  1.0
  C  C114  1  0.25606000  0.29707000  0.32014000  1.0
  C  C115  1  0.06390000  0.02316000  0.32016000  1.0
  C  C116  1  0.54707000  0.00606000  0.82014000  1.0
  C  C117  1  0.27316000  0.81391000  0.82016000  1.0
  C  C118  1  0.26952000  0.40294000  0.31988000  1.0
  C  C119  1  0.05038000  0.91709000  0.31993000  1.0
  C  C120  1  0.65294000  0.01951000  0.81988000  1.0
  C  C121  1  0.16709000  0.80039000  0.81993000  1.0
  C  C122  1  0.37422000  0.49836000  0.36394000  1.0
  C  C123  1  0.98982000  0.86565000  0.36400000  1.0
  C  C124  1  0.74836000  0.12421000  0.86394000  1.0
  C  C125  1  0.11565000  0.73983000  0.86400000  1.0
  C  C126  1  0.45251000  0.39261000  0.40811000  1.0
  C  C127  1  0.95537000  0.01537000  0.40809000  1.0
  C  C128  1  0.64261000  0.20251000  0.90811000  1.0
  C  C129  1  0.26537000  0.70537000  0.90809000  1.0
  C  C130  1  0.35033000  0.29311000  0.36560000  1.0
  C  C131  1  0.01496000  0.07243000  0.36558000  1.0
  C  C132  1  0.54311000  0.10032000  0.86560000  1.0
  C  C133  1  0.32242000  0.76497000  0.86558000  1.0
  C  C134  1  0.05597000  0.32155000  0.80063000  1.0
  C  C135  1  0.74450000  0.47914000  0.80059000  1.0
  C  C136  1  0.57155000  0.80598000  0.30064000  1.0
  C  C137  1  0.72915000  0.49450000  0.30059000  1.0
  C  C138  1  0.15441000  0.37924000  0.78549000  1.0
  C  C139  1  0.63091000  0.40631000  0.78541000  1.0
  C  C140  1  0.62922000  0.90440000  0.28548000  1.0
  C  C141  1  0.65632000  0.38092000  0.28542000  1.0
  C  C142  1  0.17366000  0.32591000  0.71883000  1.0
  C  C143  1  0.54505000  0.39292000  0.71871000  1.0
  C  C144  1  0.57590000  0.92366000  0.21883000  1.0
  C  C145  1  0.64292000  0.29505000  0.21871000  1.0
  C  C146  1  0.09476000  0.21502000  0.66693000  1.0
  C  C147  1  0.57208000  0.45187000  0.66679000  1.0
  C  C148  1  0.46500000  0.84475000  0.16692000  1.0
  C  C149  1  0.70187000  0.32208000  0.16679000  1.0
  C  C150  1  0.99662000  0.15558000  0.68189000  1.0
  C  C151  1  0.68522000  0.52624000  0.68178000  1.0
  C  C152  1  0.40558000  0.74661000  0.18189000  1.0
  C  C153  1  0.77623000  0.43522000  0.18178000  1.0
  C  C154  1  0.97803000  0.20945000  0.74898000  1.0
  C  C155  1  0.77085000  0.53950000  0.74890000  1.0
  C  C156  1  0.45945000  0.72803000  0.24898000  1.0
  C  C157  1  0.78950000  0.52085000  0.24890000  1.0
  C  C158  1  0.03529000  0.38122000  0.87172000  1.0
  C  C159  1  0.83624000  0.49064000  0.87179000  1.0
  C  C160  1  0.63122000  0.78529000  0.37172000  1.0
  C  C161  1  0.74064000  0.58624000  0.37179000  1.0
  C  C162  1  0.91403000  0.03471000  0.62581000  1.0
  C  C163  1  0.71178000  0.59090000  0.62562000  1.0
  C  C164  1  0.28471000  0.66402000  0.12581000  1.0
  C  C165  1  0.84090000  0.46178000  0.12562000  1.0
  C  C166  1  0.81901000  0.40948000  0.50355000  1.0
  C  C167  1  0.68478000  0.09371000  0.50361000  1.0
  C  C168  1  0.65949000  0.56901000  0.00356000  1.0
  C  C169  1  0.34371000  0.43477000  0.00361000  1.0
  C  C170  1  0.84019000  0.32885000  0.45340000  1.0
  C  C171  1  0.61346000  0.12425000  0.45348000  1.0
  C  C172  1  0.57885000  0.59019000  0.95340000  1.0
  C  C173  1  0.37425000  0.36346000  0.95348000  1.0
  C  C174  1  0.91105000  0.30129000  0.50690000  1.0
  C  C175  1  0.59624000  0.20541000  0.50701000  1.0
  C  C176  1  0.55129000  0.66105000  0.00690000  1.0
  C  C177  1  0.45541000  0.34624000  0.00701000  1.0
  C  C178  1  0.93377000  0.36485000  0.59014000  1.0
  C  C179  1  0.65682000  0.22509000  0.59023000  1.0
  C  C180  1  0.61485000  0.68377000  0.09014000  1.0
  C  C181  1  0.47509000  0.40681000  0.09023000  1.0
  C  C182  1  0.87699000  0.43173000  0.58797000  1.0
  C  C183  1  0.71133000  0.15595000  0.58803000  1.0
  C  C184  1  0.68173000  0.62698000  0.08797000  1.0
  C  C185  1  0.40595000  0.46133000  0.08803000  1.0
  N  N186  1  0.96272000  0.29063000  0.03343000  1.0
  N  N187  1  0.07092000  0.74303000  0.03355000  1.0
  N  N188  1  0.54063000  0.71272000  0.53343000  1.0
  N  N189  1  0.99303000  0.82092000  0.53355000  1.0
  N  N190  1  0.46426000  0.49350000  0.40742000  1.0
  N  N191  1  0.94315000  0.91387000  0.40746000  1.0
  N  N192  1  0.74350000  0.21426000  0.90742000  1.0
  N  N193  1  0.16387000  0.69315000  0.90746000  1.0
  O  O194  1  0.94089000  0.32870000  0.87913000  1.0
  O  O195  1  0.93808000  0.55064000  0.87926000  1.0
  O  O196  1  0.57870000  0.69089000  0.37913000  1.0
  O  O197  1  0.80064000  0.68808000  0.37926000  1.0
  O  O198  1  0.11468000  0.47970000  0.91955000  1.0
  O  O199  1  0.80466000  0.44003000  0.91964000  1.0
  O  O200  1  0.72970000  0.86468000  0.41955000  1.0
  O  O201  1  0.69003000  0.55466000  0.41964000  1.0
  O  O202  1  0.83284000  0.97607000  0.64473000  1.0
  O  O203  1  0.81204000  0.66801000  0.64428000  1.0
  O  O204  1  0.22607000  0.58284000  0.14473000  1.0
  O  O205  1  0.91801000  0.56204000  0.14428000  1.0
  O  O206  1  0.93483000  0.99984000  0.56194000  1.0
  O  O207  1  0.62702000  0.56226000  0.56195000  1.0
  O  O208  1  0.24983000  0.68481000  0.06193000  1.0
  O  O209  1  0.81225000  0.37701000  0.06194000  1.0
  O  O210  1  0.02529000  0.52542000  0.05064000  1.0
  O  O211  1  0.77542000  0.77529000  0.55064000  1.0
