# generated using pymatgen
data_ZnH13C20NO5
_symmetry_space_group_name_H-M   'P 1'
_cell_length_a   16.16720000
_cell_length_b   16.16720000
_cell_length_c   23.21170000
_cell_angle_alpha   72.67750000
_cell_angle_beta   72.67760000
_cell_angle_gamma   66.41580000
_symmetry_Int_Tables_number   1
_chemical_formula_structural   ZnH13C20NO5
_chemical_formula_sum   'Zn4 H52 C80 N4 O20'
_cell_volume   5196.28328017
_cell_formula_units_Z   4
loop_
 _symmetry_equiv_pos_site_id
 _symmetry_equiv_pos_as_xyz
  1  'x, y, z'
loop_
 _atom_site_type_symbol
 _atom_site_label
 _atom_site_symmetry_multiplicity
 _atom_site_fract_x
 _atom_site_fract_y
 _atom_site_fract_z
 _atom_site_occupancy
  Zn  Zn0  1  0.40769000  0.00802000  0.51174000  1.0
  Zn  Zn1  1  0.99198000  0.59231000  0.98826000  1.0
  Zn  Zn2  1  0.59231000  0.99198000  0.48826000  1.0
  Zn  Zn3  1  0.00802000  0.40769000  0.01174000  1.0
  H  H4  1  0.44291000  0.78285000  0.43517000  1.0
  H  H5  1  0.21715000  0.55709000  0.06483000  1.0
  H  H6  1  0.55709000  0.21715000  0.56483000  1.0
  H  H7  1  0.78285000  0.44291000  0.93517000  1.0
  H  H8  1  0.48589000  0.64786000  0.38589000  1.0
  H  H9  1  0.35214000  0.51412000  0.11411000  1.0
  H  H10  1  0.51411000  0.35214000  0.61411000  1.0
  H  H11  1  0.64786000  0.48588000  0.88589000  1.0
  H  H12  1  0.77237000  0.61349000  0.35581000  1.0
  H  H13  1  0.38651000  0.22763000  0.14419000  1.0
  H  H14  1  0.22764000  0.38651000  0.64419000  1.0
  H  H15  1  0.61349000  0.77237000  0.85581000  1.0
  H  H16  1  0.72865000  0.74832000  0.40468000  1.0
  H  H17  1  0.25168000  0.27135000  0.09532000  1.0
  H  H18  1  0.27135000  0.25168000  0.59532000  1.0
  H  H19  1  0.74832000  0.72865000  0.90467000  1.0
  H  H20  1  0.74258000  0.39635000  0.30663000  1.0
  H  H21  1  0.60365000  0.25742000  0.19337000  1.0
  H  H22  1  0.25742000  0.60365000  0.69337000  1.0
  H  H23  1  0.39635000  0.74258000  0.80663000  1.0
  H  H24  1  0.84744000  0.37697000  0.20335000  1.0
  H  H25  1  0.62303000  0.15256000  0.29665000  1.0
  H  H26  1  0.15256000  0.62303000  0.79665000  1.0
  H  H27  1  0.37697000  0.84744000  0.70335000  1.0
  H  H28  1  0.79090000  0.66880000  0.15081000  1.0
  H  H29  1  0.33120000  0.20910000  0.34919000  1.0
  H  H30  1  0.20910000  0.33120000  0.84919000  1.0
  H  H31  1  0.66879000  0.79090000  0.65081000  1.0
  H  H32  1  0.68635000  0.68936000  0.25277000  1.0
  H  H33  1  0.31064000  0.31365000  0.24723000  1.0
  H  H34  1  0.31365000  0.31064000  0.74723000  1.0
  H  H35  1  0.68936000  0.68635000  0.75277000  1.0
  H  H36  1  0.28662000  0.90781000  0.59814000  1.0
  H  H37  1  0.09219000  0.71338000  0.90186000  1.0
  H  H38  1  0.71338000  0.09219000  0.40186000  1.0
  H  H39  1  0.90781000  0.28662000  0.09814000  1.0
  H  H40  1  0.13582000  0.89114000  0.60420000  1.0
  H  H41  1  0.10886000  0.86418000  0.89580000  1.0
  H  H42  1  0.86418000  0.10886000  0.39580000  1.0
  H  H43  1  0.89114000  0.13582000  0.10420000  1.0
  H  H44  1  0.11019000  0.10066000  0.43662000  1.0
  H  H45  1  0.89935000  0.88981000  0.06338000  1.0
  H  H46  1  0.88981000  0.89934000  0.56338000  1.0
  H  H47  1  0.10066000  0.11019000  0.93662000  1.0
  H  H48  1  0.26164000  0.10649000  0.43822000  1.0
  H  H49  1  0.89351000  0.73836000  0.06178000  1.0
  H  H50  1  0.73836000  0.89350000  0.56178000  1.0
  H  H51  1  0.10650000  0.26164000  0.93822000  1.0
  H  H52  1  0.99861000  0.94008000  0.56559000  1.0
  H  H53  1  0.05992000  0.00139000  0.93441000  1.0
  H  H54  1  0.00139000  0.05992000  0.43441000  1.0
  H  H55  1  0.94008000  0.99861000  0.06559000  1.0
  C  C56  1  0.55717000  0.85557000  0.45035000  1.0
  C  C57  1  0.14443000  0.44283000  0.04965000  1.0
  C  C58  1  0.44283000  0.14443000  0.54965000  1.0
  C  C59  1  0.85557000  0.55717000  0.95035000  1.0
  C  C60  1  0.58318000  0.77407000  0.42226000  1.0
  C  C61  1  0.22593000  0.41682000  0.07774000  1.0
  C  C62  1  0.41682000  0.22593000  0.57774000  1.0
  C  C63  1  0.77407000  0.58318000  0.92226000  1.0
  C  C64  1  0.51480000  0.74528000  0.41758000  1.0
  C  C65  1  0.25471000  0.48521000  0.08242000  1.0
  C  C66  1  0.48521000  0.25471000  0.58242000  1.0
  C  C67  1  0.74529000  0.51479000  0.91758000  1.0
  C  C68  1  0.53817000  0.67078000  0.39035000  1.0
  C  C69  1  0.32922000  0.46183000  0.10965000  1.0
  C  C70  1  0.46183000  0.32922000  0.60965000  1.0
  C  C71  1  0.67078000  0.53817000  0.89035000  1.0
  C  C72  1  0.63087000  0.62463000  0.36785000  1.0
  C  C73  1  0.37537000  0.36913000  0.13215000  1.0
  C  C74  1  0.36913000  0.37537000  0.63215000  1.0
  C  C75  1  0.62462000  0.63087000  0.86785000  1.0
  C  C76  1  0.70034000  0.65111000  0.37315000  1.0
  C  C77  1  0.34889000  0.29965000  0.12685000  1.0
  C  C78  1  0.29966000  0.34889000  0.62685000  1.0
  C  C79  1  0.65111000  0.70035000  0.87315000  1.0
  C  C80  1  0.67603000  0.72597000  0.40014000  1.0
  C  C81  1  0.27403000  0.32397000  0.09986000  1.0
  C  C82  1  0.32397000  0.27403000  0.59986000  1.0
  C  C83  1  0.72597000  0.67603000  0.90014000  1.0
  C  C84  1  0.71008000  0.54326000  0.28589000  1.0
  C  C85  1  0.45674000  0.28992000  0.21411000  1.0
  C  C86  1  0.28992000  0.45674000  0.71411000  1.0
  C  C87  1  0.54326000  0.71008000  0.78589000  1.0
  C  C88  1  0.75445000  0.45528000  0.27204000  1.0
  C  C89  1  0.54471000  0.24555000  0.22796000  1.0
  C  C90  1  0.24555000  0.54472000  0.72796000  1.0
  C  C91  1  0.45528000  0.75445000  0.77204000  1.0
  C  C92  1  0.81211000  0.44504000  0.21474000  1.0
  C  C93  1  0.55496000  0.18789000  0.28526000  1.0
  C  C94  1  0.18789000  0.55496000  0.78526000  1.0
  C  C95  1  0.44504000  0.81211000  0.71474000  1.0
  C  C96  1  0.82674000  0.52165000  0.17083000  1.0
  C  C97  1  0.47835000  0.17326000  0.32917000  1.0
  C  C98  1  0.17326000  0.47835000  0.82917000  1.0
  C  C99  1  0.52165000  0.82674000  0.67083000  1.0
  C  C100  1  0.78078000  0.60921000  0.18537000  1.0
  C  C101  1  0.39079000  0.21922000  0.31463000  1.0
  C  C102  1  0.21922000  0.39079000  0.81463000  1.0
  C  C103  1  0.60921000  0.78078000  0.68537000  1.0
  C  C104  1  0.72232000  0.62085000  0.24223000  1.0
  C  C105  1  0.37915000  0.27768000  0.25777000  1.0
  C  C106  1  0.27768000  0.37915000  0.75777000  1.0
  C  C107  1  0.62085000  0.72232000  0.74223000  1.0
  C  C108  1  0.88978000  0.51083000  0.10956000  1.0
  C  C109  1  0.48917000  0.11021000  0.39044000  1.0
  C  C110  1  0.11021000  0.48917000  0.89044000  1.0
  C  C111  1  0.51083000  0.88979000  0.60956000  1.0
  C  C112  1  0.24414000  0.94867000  0.56382000  1.0
  C  C113  1  0.05133000  0.75586000  0.93618000  1.0
  C  C114  1  0.75586000  0.05133000  0.43618000  1.0
  C  C115  1  0.94867000  0.24414000  0.06382000  1.0
  C  C116  1  0.16087000  0.94010000  0.56653000  1.0
  C  C117  1  0.05990000  0.83913000  0.93347000  1.0
  C  C118  1  0.83913000  0.05990000  0.43347000  1.0
  C  C119  1  0.94010000  0.16087000  0.06653000  1.0
  C  C120  1  0.11003000  0.99348000  0.52028000  1.0
  C  C121  1  0.00652000  0.88997000  0.97972000  1.0
  C  C122  1  0.88997000  0.00652000  0.47972000  1.0
  C  C123  1  0.99348000  0.11003000  0.02028000  1.0
  C  C124  1  0.14648000  0.05560000  0.47334000  1.0
  C  C125  1  0.94440000  0.85352000  0.02666000  1.0
  C  C126  1  0.85352000  0.94440000  0.52666000  1.0
  C  C127  1  0.05560000  0.14648000  0.97334000  1.0
  C  C128  1  0.22989000  0.06043000  0.47391000  1.0
  C  C129  1  0.93957000  0.77011000  0.02609000  1.0
  C  C130  1  0.77011000  0.93957000  0.52609000  1.0
  C  C131  1  0.06043000  0.22989000  0.97391000  1.0
  C  C132  1  0.02408000  0.98205000  0.52277000  1.0
  C  C133  1  0.01795000  0.97592000  0.97723000  1.0
  C  C134  1  0.97592000  0.01794000  0.47723000  1.0
  C  C135  1  0.98206000  0.02408000  0.02277000  1.0
  N  N136  1  0.27810000  0.00777000  0.51823000  1.0
  N  N137  1  0.99223000  0.72190000  0.98177000  1.0
  N  N138  1  0.72190000  0.99223000  0.48177000  1.0
  N  N139  1  0.00777000  0.27810000  0.01823000  1.0
  O  O140  1  0.47166000  0.89404000  0.47107000  1.0
  O  O141  1  0.10596000  0.52834000  0.02893000  1.0
  O  O142  1  0.52834000  0.10596000  0.52893000  1.0
  O  O143  1  0.89404000  0.47166000  0.97107000  1.0
  O  O144  1  0.62219000  0.88053000  0.45124000  1.0
  O  O145  1  0.11947000  0.37781000  0.04876000  1.0
  O  O146  1  0.37781000  0.11947000  0.54876000  1.0
  O  O147  1  0.88053000  0.62219000  0.95124000  1.0
  O  O148  1  0.65162000  0.54887000  0.34275000  1.0
  O  O149  1  0.45113000  0.34838000  0.15725000  1.0
  O  O150  1  0.34838000  0.45113000  0.65725000  1.0
  O  O151  1  0.54887000  0.65162000  0.84275000  1.0
  O  O152  1  0.92168000  0.43140000  0.09601000  1.0
  O  O153  1  0.56860000  0.07832000  0.40399000  1.0
  O  O154  1  0.07832000  0.56860000  0.90399000  1.0
  O  O155  1  0.43140000  0.92168000  0.59601000  1.0
  O  O156  1  0.90727000  0.58220000  0.07515000  1.0
  O  O157  1  0.41780000  0.09273000  0.42485000  1.0
  O  O158  1  0.09273000  0.41780000  0.92485000  1.0
  O  O159  1  0.58220000  0.90727000  0.57515000  1.0
