# generated using pymatgen
data_H8PbC6N2(ClO)2
_symmetry_space_group_name_H-M   'P 1'
_cell_length_a   7.77630000
_cell_length_b   7.96163000
_cell_length_c   18.04540000
_cell_angle_alpha   90.00870000
_cell_angle_beta   90.00090000
_cell_angle_gamma   112.16600000
_symmetry_Int_Tables_number   1
_chemical_formula_structural   H8PbC6N2(ClO)2
_chemical_formula_sum   'H32 Pb4 C24 N8 Cl8 O8'
_cell_volume   1034.65812765
_cell_formula_units_Z   4
loop_
 _symmetry_equiv_pos_site_id
 _symmetry_equiv_pos_as_xyz
  1  'x, y, z'
loop_
 _atom_site_type_symbol
 _atom_site_label
 _atom_site_symmetry_multiplicity
 _atom_site_fract_x
 _atom_site_fract_y
 _atom_site_fract_z
 _atom_site_occupancy
  H  H0  1  0.02684000  0.87018000  0.29458000  1.0
  H  H1  1  0.47325000  0.12980000  0.79458000  1.0
  H  H2  1  0.97315000  0.12972000  0.70541000  1.0
  H  H3  1  0.52677000  0.87019000  0.20542000  1.0
  H  H4  1  0.85787000  0.88634000  0.35719000  1.0
  H  H5  1  0.64215000  0.11364000  0.85722000  1.0
  H  H6  1  0.14208000  0.11356000  0.64277000  1.0
  H  H7  1  0.35779000  0.88627000  0.14281000  1.0
  H  H8  1  0.85760000  0.76444000  0.49410000  1.0
  H  H9  1  0.64241000  0.23564000  0.99410000  1.0
  H  H10  1  0.14239000  0.23567000  0.50589000  1.0
  H  H11  1  0.35765000  0.76461000  0.00588000  1.0
  H  H12  1  0.14501000  0.71947000  0.57396000  1.0
  H  H13  1  0.35507000  0.28071000  0.07396000  1.0
  H  H14  1  0.85503000  0.28074000  0.42605000  1.0
  H  H15  1  0.64506000  0.71961000  0.92603000  1.0
  H  H16  1  0.28490000  0.77413000  0.34524000  1.0
  H  H17  1  0.21510000  0.22584000  0.84524000  1.0
  H  H18  1  0.71498000  0.22567000  0.65476000  1.0
  H  H19  1  0.78483000  0.77402000  0.15478000  1.0
  H  H20  1  0.55492000  0.84672000  0.45997000  1.0
  H  H21  1  0.94505000  0.15346000  0.95999000  1.0
  H  H22  1  0.44501000  0.15337000  0.54003000  1.0
  H  H23  1  0.05495000  0.84669000  0.04003000  1.0
  H  H24  1  0.44442000  0.60423000  0.45934000  1.0
  H  H25  1  0.05573000  0.39595000  0.95937000  1.0
  H  H26  1  0.55562000  0.39586000  0.54067000  1.0
  H  H27  1  0.94432000  0.60419000  0.04065000  1.0
  H  H28  1  0.45436000  0.72831000  0.54369000  1.0
  H  H29  1  0.04578000  0.27189000  0.04371000  1.0
  H  H30  1  0.54564000  0.27178000  0.45631000  1.0
  H  H31  1  0.95428000  0.72821000  0.95630000  1.0
  Pb  Pb32  1  0.49846000  0.29299000  0.24858000  1.0
  Pb  Pb33  1  0.00160000  0.70669000  0.74847000  1.0
  Pb  Pb34  1  0.50159000  0.70686000  0.75154000  1.0
  Pb  Pb35  1  0.99844000  0.29300000  0.25139000  1.0
  C  C36  1  0.79416000  0.62247000  0.30950000  1.0
  C  C37  1  0.70584000  0.37749000  0.80954000  1.0
  C  C38  1  0.20580000  0.37743000  0.69048000  1.0
  C  C39  1  0.29415000  0.62245000  0.19049000  1.0
  C  C40  1  0.93316000  0.80051000  0.34017000  1.0
  C  C41  1  0.56689000  0.19947000  0.84019000  1.0
  C  C42  1  0.06681000  0.19938000  0.65981000  1.0
  C  C43  1  0.43312000  0.80051000  0.15983000  1.0
  C  C44  1  0.98850000  0.76063000  0.47567000  1.0
  C  C45  1  0.51152000  0.23943000  0.97568000  1.0
  C  C46  1  0.01149000  0.23946000  0.52433000  1.0
  C  C47  1  0.48847000  0.76066000  0.02432000  1.0
  C  C48  1  0.12835000  0.73870000  0.51537000  1.0
  C  C49  1  0.37167000  0.26138000  0.01537000  1.0
  C  C50  1  0.87162000  0.26138000  0.48464000  1.0
  C  C51  1  0.62843000  0.73888000  0.98461000  1.0
  C  C52  1  0.20965000  0.76715000  0.39646000  1.0
  C  C53  1  0.29034000  0.23282000  0.89647000  1.0
  C  C54  1  0.79030000  0.23277000  0.60353000  1.0
  C  C55  1  0.70960000  0.76712000  0.10354000  1.0
  C  C56  1  0.44139000  0.72975000  0.48334000  1.0
  C  C57  1  0.05869000  0.27038000  0.98336000  1.0
  C  C58  1  0.55862000  0.27031000  0.51666000  1.0
  C  C59  1  0.94135000  0.72972000  0.01665000  1.0
  N  N60  1  0.04238000  0.77862000  0.40206000  1.0
  N  N61  1  0.45764000  0.22138000  0.90207000  1.0
  N  N62  1  0.95758000  0.22132000  0.59792000  1.0
  N  N63  1  0.54238000  0.77868000  0.09793000  1.0
  N  N64  1  0.26470000  0.74448000  0.46499000  1.0
  N  N65  1  0.23531000  0.25557000  0.96499000  1.0
  N  N66  1  0.73524000  0.25553000  0.53500000  1.0
  N  N67  1  0.76467000  0.74444000  0.03500000  1.0
  Cl  Cl68  1  0.62203000  0.04034000  0.32212000  1.0
  Cl  Cl69  1  0.87779000  0.95941000  0.82210000  1.0
  Cl  Cl70  1  0.37785000  0.95952000  0.67790000  1.0
  Cl  Cl71  1  0.12211000  0.04036000  0.17787000  1.0
  Cl  Cl72  1  0.27219000  0.31450000  0.36804000  1.0
  Cl  Cl73  1  0.22796000  0.68544000  0.86803000  1.0
  Cl  Cl74  1  0.72799000  0.68557000  0.63200000  1.0
  Cl  Cl75  1  0.77222000  0.31451000  0.13193000  1.0
  O  O76  1  0.67963000  0.63705000  0.26247000  1.0
  O  O77  1  0.82042000  0.36289000  0.76252000  1.0
  O  O78  1  0.32031000  0.36286000  0.73753000  1.0
  O  O79  1  0.17958000  0.63702000  0.23752000  1.0
  O  O80  1  0.79891000  0.47190000  0.33110000  1.0
  O  O81  1  0.70112000  0.52806000  0.83114000  1.0
  O  O82  1  0.20110000  0.52801000  0.66888000  1.0
  O  O83  1  0.29890000  0.47185000  0.16890000  1.0
