# generated using pymatgen
data_CdH16C24N2(ClO2)2
_symmetry_space_group_name_H-M   'P 1'
_cell_length_a   9.82272000
_cell_length_b   10.53690000
_cell_length_c   13.67430000
_cell_angle_alpha   105.07000000
_cell_angle_beta   96.07540000
_cell_angle_gamma   110.12500000
_symmetry_Int_Tables_number   1
_chemical_formula_structural   CdH16C24N2(ClO2)2
_chemical_formula_sum   'Cd2 H32 C48 N4 Cl4 O8'
_cell_volume   1253.06716120
_cell_formula_units_Z   2
loop_
 _symmetry_equiv_pos_site_id
 _symmetry_equiv_pos_as_xyz
  1  'x, y, z'
loop_
 _atom_site_type_symbol
 _atom_site_label
 _atom_site_symmetry_multiplicity
 _atom_site_fract_x
 _atom_site_fract_y
 _atom_site_fract_z
 _atom_site_occupancy
  Cd  Cd0  1  0.41322000  0.12856000  0.58383000  1.0
  Cd  Cd1  1  0.58678000  0.87144000  0.41617000  1.0
  H  H2  1  0.86177000  0.73879000  0.47666000  1.0
  H  H3  1  0.13823000  0.26121000  0.52334000  1.0
  H  H4  1  0.08066000  0.94244000  0.47285000  1.0
  H  H5  1  0.91933000  0.05756000  0.52715000  1.0
  H  H6  1  0.98957000  0.44346000  0.62265000  1.0
  H  H7  1  0.01044000  0.55654000  0.37736000  1.0
  H  H8  1  0.43662000  0.89591000  0.21042000  1.0
  H  H9  1  0.56337000  0.10409000  0.78958000  1.0
  H  H10  1  0.48554000  0.43978000  0.58051000  1.0
  H  H11  1  0.51447000  0.56023000  0.41949000  1.0
  H  H12  1  0.16175000  0.14047000  0.25779000  1.0
  H  H13  1  0.83824000  0.85953000  0.74221000  1.0
  H  H14  1  0.69562000  0.65936000  0.58030000  1.0
  H  H15  1  0.30439000  0.34064000  0.41970000  1.0
  H  H16  1  0.14675000  0.68214000  0.71240000  1.0
  H  H17  1  0.85325000  0.31787000  0.28760000  1.0
  H  H18  1  0.35442000  0.88930000  0.69708000  1.0
  H  H19  1  0.64559000  0.11071000  0.30292000  1.0
  H  H20  1  0.76716000  0.23459000  0.62075000  1.0
  H  H21  1  0.23285000  0.76542000  0.37925000  1.0
  H  H22  1  0.04419000  0.26427000  0.76318000  1.0
  H  H23  1  0.95581000  0.73574000  0.23682000  1.0
  H  H24  1  0.38540000  0.86270000  0.02273000  1.0
  H  H25  1  0.61459000  0.13730000  0.97727000  1.0
  H  H26  1  0.10832000  0.10476000  0.06842000  1.0
  H  H27  1  0.89166000  0.89523000  0.93158000  1.0
  H  H28  1  0.45875000  0.33879000  0.95236000  1.0
  H  H29  1  0.54126000  0.66121000  0.04763000  1.0
  H  H30  1  0.94458000  0.32640000  0.92240000  1.0
  H  H31  1  0.05542000  0.67359000  0.07761000  1.0
  H  H32  1  0.36435000  0.41030000  0.11275000  1.0
  H  H33  1  0.63566000  0.58970000  0.88725000  1.0
  C  C34  1  0.98569000  0.69179000  0.59550000  1.0
  C  C35  1  0.01432000  0.30821000  0.40450000  1.0
  C  C36  1  0.85972000  0.56758000  0.59880000  1.0
  C  C37  1  0.14029000  0.43242000  0.40120000  1.0
  C  C38  1  0.30523000  0.02397000  0.24765000  1.0
  C  C39  1  0.69477000  0.97603000  0.75234000  1.0
  C  C40  1  0.96743000  0.76812000  0.52843000  1.0
  C  C41  1  0.03257000  0.23188000  0.47157000  1.0
  C  C42  1  0.34242000  0.05190000  0.36215000  1.0
  C  C43  1  0.65757000  0.94809000  0.63785000  1.0
  C  C44  1  0.08963000  0.88189000  0.52521000  1.0
  C  C45  1  0.91037000  0.11811000  0.47479000  1.0
  C  C46  1  0.31486000  0.25377000  0.75302000  1.0
  C  C47  1  0.68514000  0.74623000  0.24698000  1.0
  C  C48  1  0.87989000  0.44770000  0.61290000  1.0
  C  C49  1  0.12012000  0.55230000  0.38711000  1.0
  C  C50  1  0.36591000  0.94358000  0.18061000  1.0
  C  C51  1  0.63408000  0.05642000  0.81939000  1.0
  C  C52  1  0.59924000  0.44519000  0.58800000  1.0
  C  C53  1  0.40077000  0.55481000  0.41200000  1.0
  C  C54  1  0.21133000  0.08059000  0.20619000  1.0
  C  C55  1  0.78865000  0.91940000  0.79380000  1.0
  C  C56  1  0.71534000  0.56587000  0.58731000  1.0
  C  C57  1  0.28467000  0.43413000  0.41269000  1.0
  C  C58  1  0.12728000  0.73537000  0.65711000  1.0
  C  C59  1  0.87272000  0.26463000  0.34289000  1.0
  C  C60  1  0.24330000  0.85124000  0.64956000  1.0
  C  C61  1  0.75670000  0.14876000  0.35045000  1.0
  C  C62  1  0.75720000  0.33084000  0.61152000  1.0
  C  C63  1  0.24281000  0.66916000  0.38849000  1.0
  C  C64  1  0.25776000  0.29860000  0.84822000  1.0
  C  C65  1  0.74224000  0.70140000  0.15178000  1.0
  C  C66  1  0.11341000  0.29613000  0.84003000  1.0
  C  C67  1  0.88660000  0.70387000  0.15997000  1.0
  C  C68  1  0.33681000  0.92348000  0.07457000  1.0
  C  C69  1  0.66318000  0.07652000  0.92543000  1.0
  C  C70  1  0.18074000  0.06051000  0.10036000  1.0
  C  C71  1  0.81924000  0.93949000  0.89964000  1.0
  C  C72  1  0.24511000  0.98292000  0.03531000  1.0
  C  C73  1  0.75488000  0.01708000  0.96468000  1.0
  C  C74  1  0.34717000  0.33839000  0.94676000  1.0
  C  C75  1  0.65284000  0.66161000  0.05324000  1.0
  C  C76  1  0.05758000  0.33077000  0.92840000  1.0
  C  C77  1  0.94242000  0.66923000  0.07160000  1.0
  C  C78  1  0.14954000  0.37154000  0.02561000  1.0
  C  C79  1  0.85047000  0.62845000  0.97439000  1.0
  C  C80  1  0.29471000  0.37703000  0.03592000  1.0
  C  C81  1  0.70529000  0.62297000  0.96408000  1.0
  N  N82  1  0.22504000  0.92290000  0.58444000  1.0
  N  N83  1  0.77496000  0.07710000  0.41556000  1.0
  N  N84  1  0.61892000  0.32855000  0.59775000  1.0
  N  N85  1  0.38108000  0.67145000  0.40226000  1.0
  Cl  Cl86  1  0.21094000  0.96022000  0.90387000  1.0
  Cl  Cl87  1  0.78905000  0.03979000  0.09613000  1.0
  Cl  Cl88  1  0.08268000  0.41546000  0.13677000  1.0
  Cl  Cl89  1  0.91734000  0.58454000  0.86324000  1.0
  O  O90  1  0.29546000  0.13507000  0.42176000  1.0
  O  O91  1  0.70454000  0.86493000  0.57824000  1.0
  O  O92  1  0.42112000  0.99337000  0.39901000  1.0
  O  O93  1  0.57886000  0.00661000  0.60098000  1.0
  O  O94  1  0.42744000  0.21967000  0.76398000  1.0
  O  O95  1  0.57256000  0.78034000  0.23601000  1.0
  O  O96  1  0.24895000  0.24811000  0.66561000  1.0
  O  O97  1  0.75105000  0.75190000  0.33439000  1.0
