# generated using pymatgen
data_ZnH20C38(NO3)2
_symmetry_space_group_name_H-M   'P 1'
_cell_length_a   14.64840000
_cell_length_b   15.66080000
_cell_length_c   27.88255944
_cell_angle_alpha   85.43568000
_cell_angle_beta   75.61200279
_cell_angle_gamma   81.48240000
_symmetry_Int_Tables_number   1
_chemical_formula_structural   ZnH20C38(NO3)2
_chemical_formula_sum   'Zn2 H40 C76 N4 O12'
_cell_volume   6121.34648820
_cell_formula_units_Z   2
loop_
 _symmetry_equiv_pos_site_id
 _symmetry_equiv_pos_as_xyz
  1  'x, y, z'
loop_
 _atom_site_type_symbol
 _atom_site_label
 _atom_site_symmetry_multiplicity
 _atom_site_fract_x
 _atom_site_fract_y
 _atom_site_fract_z
 _atom_site_occupancy
  Zn  Zn0  1  0.91843000  0.48274000  0.48822000  1.0
  Zn  Zn1  1  0.08016000  0.51697000  0.51343000  1.0
  H  H2  1  0.72349000  0.48052000  0.63507000  1.0
  H  H3  1  0.15806000  0.85222000  0.47296000  1.0
  H  H4  1  0.43634000  0.67136000  0.58760000  1.0
  H  H5  1  0.56288000  0.32958000  0.41269000  1.0
  H  H6  1  0.71825000  0.53325000  0.51865000  1.0
  H  H7  1  0.27998000  0.46457000  0.48385000  1.0
  H  H8  1  0.88312000  0.35242000  0.42314000  1.0
  H  H9  1  0.11617000  0.64911000  0.57727000  1.0
  H  H10  1  0.25926000  0.69330000  0.59868000  1.0
  H  H11  1  0.74023000  0.30829000  0.40135000  1.0
  H  H12  1  0.59257000  0.59566000  0.54924000  1.0
  H  H13  1  0.26945000  0.53389000  0.36598000  1.0
  H  H14  1  0.40650000  0.40445000  0.45148000  1.0
  H  H15  1  0.63902000  0.48001000  0.72514000  1.0
  H  H16  1  0.35666000  0.53115000  0.27621000  1.0
  H  H17  1  0.02536000  0.46014000  0.32944000  1.0
  H  H18  1  0.98043000  0.52134000  0.67214000  1.0
  H  H19  1  0.11203000  0.45661000  0.23956000  1.0
  H  H20  1  0.89644000  0.52167000  0.76231000  1.0
  H  H21  1  0.34156000  0.70908000  0.11815000  1.0
  H  H22  1  0.62611000  0.28663000  0.87673000  1.0
  H  H23  1  0.44027000  0.71386000  0.03187000  1.0
  H  H24  1  0.98210000  0.22184000  0.47725000  1.0
  H  H25  1  0.53805000  0.28028000  0.96494000  1.0
  H  H26  1  0.54815000  0.70988000  0.97218000  1.0
  H  H27  1  0.49730000  0.27627000  0.03825000  1.0
  H  H28  1  0.80646000  0.05535000  0.43067000  1.0
  H  H29  1  0.26673000  0.94702000  0.48721000  1.0
  H  H30  1  0.63035000  0.78645000  0.91201000  1.0
  H  H31  1  0.72953000  0.73284000  0.86858000  1.0
  H  H32  1  0.62240000  0.76365000  0.85139000  1.0
  H  H33  1  0.44789000  0.19555000  0.10479000  1.0
  H  H34  1  0.44039000  0.23827000  0.16354000  1.0
  H  H35  1  0.05337000  0.77919000  0.48426000  1.0
  H  H36  1  0.33613000  0.23530000  0.14467000  1.0
  H  H37  1  0.24109000  0.24897000  0.51514000  1.0
  H  H38  1  0.78675000  0.75129000  0.45522000  1.0
  H  H39  1  0.75727000  0.91028000  0.43586000  1.0
  H  H40  1  0.29621000  0.09103000  0.50477000  1.0
  H  H41  1  0.91503000  0.15032000  0.44493000  1.0
  C  C42  1  0.94026000  0.66351000  0.48528000  1.0
  C  C43  1  0.35784000  0.57150000  0.12527000  1.0
  C  C44  1  0.85676000  0.50139000  0.64834000  1.0
  C  C45  1  0.14269000  0.49664000  0.35281000  1.0
  C  C46  1  0.47006000  0.57499000  0.02678000  1.0
  C  C47  1  0.53418000  0.41628000  0.97535000  1.0
  C  C48  1  0.48464000  0.41470000  0.02789000  1.0
  C  C49  1  0.53155000  0.57519000  0.97661000  1.0
  C  C50  1  0.45061000  0.49425000  0.05200000  1.0
  C  C51  1  0.55899000  0.49647000  0.95120000  1.0
  C  C52  1  0.42940000  0.65141000  0.05093000  1.0
  C  C53  1  0.07122000  0.33682000  0.50372000  1.0
  C  C54  1  0.55840000  0.34180000  0.94787000  1.0
  C  C55  1  0.37361000  0.64960000  0.09934000  1.0
  C  C56  1  0.60776000  0.34454000  0.89822000  1.0
  C  C57  1  0.90747000  0.50092000  0.59448000  1.0
  C  C58  1  0.09085000  0.49834000  0.40645000  1.0
  C  C59  1  0.56471000  0.65000000  0.95252000  1.0
  C  C60  1  0.46915000  0.33778000  0.05550000  1.0
  C  C61  1  0.92241000  0.75775000  0.47130000  1.0
  C  C62  1  0.10772000  0.24309000  0.49632000  1.0
  C  C63  1  0.82267000  0.88149000  0.44619000  1.0
  C  C64  1  0.61226000  0.49901000  0.90067000  1.0
  C  C65  1  0.22761000  0.11988000  0.49814000  1.0
  C  C66  1  0.83834000  0.79378000  0.45694000  1.0
  C  C67  1  0.19766000  0.20706000  0.50393000  1.0
  C  C68  1  0.99014000  0.81004000  0.47282000  1.0
  C  C69  1  0.05116000  0.19121000  0.48193000  1.0
  C  C70  1  0.97637000  0.89972000  0.46199000  1.0
  C  C71  1  0.07959000  0.10204000  0.47578000  1.0
  C  C72  1  0.88952000  0.93638000  0.44936000  1.0
  C  C73  1  0.16946000  0.06545000  0.48492000  1.0
  C  C74  1  0.04404000  0.95561000  0.46633000  1.0
  C  C75  1  0.39617000  0.49210000  0.10230000  1.0
  C  C76  1  0.01860000  0.04646000  0.46367000  1.0
  C  C77  1  0.93239000  0.08056000  0.44976000  1.0
  C  C78  1  0.13563000  0.92169000  0.47404000  1.0
  C  C79  1  0.87146000  0.02776000  0.44178000  1.0
  C  C80  1  0.19668000  0.97446000  0.48194000  1.0
  C  C81  1  0.69493000  0.57864000  0.82423000  1.0
  C  C82  1  0.32650000  0.41190000  0.18139000  1.0
  C  C83  1  0.26709000  0.64217000  0.57304000  1.0
  C  C84  1  0.73216000  0.35864000  0.42750000  1.0
  C  C85  1  0.18827000  0.61856000  0.56174000  1.0
  C  C86  1  0.64193000  0.57766000  0.87683000  1.0
  C  C87  1  0.81078000  0.38200000  0.43912000  1.0
  C  C88  1  0.28104000  0.51433000  0.50880000  1.0
  C  C89  1  0.71758000  0.48466000  0.49291000  1.0
  C  C90  1  0.36626000  0.53333000  0.51776000  1.0
  C  C91  1  0.63255000  0.46632000  0.48342000  1.0
  C  C92  1  0.35853000  0.59964000  0.55136000  1.0
  C  C93  1  0.64056000  0.40062000  0.44941000  1.0
  C  C94  1  0.45843000  0.48849000  0.49475000  1.0
  C  C95  1  0.54036000  0.51116000  0.50638000  1.0
  C  C96  1  0.52985000  0.57783000  0.54028000  1.0
  C  C97  1  0.38096000  0.41193000  0.12901000  1.0
  C  C98  1  0.46913000  0.42214000  0.46061000  1.0
  C  C99  1  0.44261000  0.62059000  0.56192000  1.0
  C  C100  1  0.55650000  0.37986000  0.43870000  1.0
  C  C101  1  0.68814000  0.41993000  0.82215000  1.0
  C  C102  1  0.30052000  0.57398000  0.17690000  1.0
  C  C103  1  0.85901000  0.51257000  0.73423000  1.0
  C  C104  1  0.14608000  0.47349000  0.26745000  1.0
  C  C105  1  0.90557000  0.51276000  0.68421000  1.0
  C  C106  1  0.09807000  0.47516000  0.31726000  1.0
  C  C107  1  0.76056000  0.48990000  0.66322000  1.0
  C  C108  1  0.62021000  0.65364000  0.90350000  1.0
  C  C109  1  0.23596000  0.51670000  0.33797000  1.0
  C  C110  1  0.71365000  0.48970000  0.71317000  1.0
  C  C111  1  0.28425000  0.51511000  0.28826000  1.0
  C  C112  1  0.76326000  0.50089000  0.74842000  1.0
  C  C113  1  0.23893000  0.49353000  0.25332000  1.0
  C  C114  1  0.65212000  0.73889000  0.88306000  1.0
  C  C115  1  0.41078000  0.24577000  0.13071000  1.0
  C  C116  1  0.41940000  0.33375000  0.10563000  1.0
  C  C117  1  0.63533000  0.42149000  0.87465000  1.0
  N  N118  1  0.71434000  0.49950000  0.80019000  1.0
  N  N119  1  0.28956000  0.49320000  0.20181000  1.0
  N  N120  1  0.19601000  0.55492000  0.53003000  1.0
  N  N121  1  0.80272000  0.44450000  0.47157000  1.0
  O  O122  1  0.88307000  0.61456000  0.47817000  1.0
  O  O123  1  0.31254000  0.34568000  0.20760000  1.0
  O  O124  1  0.26449000  0.64168000  0.19762000  1.0
  O  O125  1  0.70845000  0.35386000  0.79845000  1.0
  O  O126  1  0.12683000  0.38529000  0.51297000  1.0
  O  O127  1  0.01247000  0.63915000  0.50318000  1.0
  O  O128  1  0.98628000  0.36140000  0.49984000  1.0
  O  O129  1  0.85875000  0.49308000  0.56343000  1.0
  O  O130  1  0.13616000  0.51618000  0.43707000  1.0
  O  O131  1  0.99585000  0.50817000  0.58388000  1.0
  O  O132  1  0.00534000  0.48175000  0.41726000  1.0
  O  O133  1  0.72139000  0.64424000  0.80071000  1.0
