# generated using pymatgen
data_CdH12(C2N)10
_symmetry_space_group_name_H-M   'P 1'
_cell_length_a   7.81682000
_cell_length_b   10.59050000
_cell_length_c   12.78600000
_cell_angle_alpha   103.58700000
_cell_angle_beta   90.59530000
_cell_angle_gamma   108.78300000
_symmetry_Int_Tables_number   1
_chemical_formula_structural   CdH12(C2N)10
_chemical_formula_sum   'Cd2 H24 C40 N20'
_cell_volume   969.79677946
_cell_formula_units_Z   2
loop_
 _symmetry_equiv_pos_site_id
 _symmetry_equiv_pos_as_xyz
  1  'x, y, z'
loop_
 _atom_site_type_symbol
 _atom_site_label
 _atom_site_symmetry_multiplicity
 _atom_site_fract_x
 _atom_site_fract_y
 _atom_site_fract_z
 _atom_site_occupancy
  Cd  Cd0  1  0.50001000  0.00001000  0.50000000  1.0
  Cd  Cd1  1  0.49999000  0.50000000  0.00001000  1.0
  H  H2  1  0.42536000  0.14897000  0.31956000  1.0
  H  H3  1  0.57465000  0.85105000  0.68044000  1.0
  H  H4  1  0.49526000  0.38141000  0.27925000  1.0
  H  H5  1  0.50475000  0.61861000  0.72075000  1.0
  H  H6  1  0.67194000  0.64475000  0.35039000  1.0
  H  H7  1  0.32808000  0.35528000  0.64962000  1.0
  H  H8  1  0.88396000  0.83229000  0.49399000  1.0
  H  H9  1  0.11606000  0.16773000  0.50603000  1.0
  H  H10  1  0.01319000  0.78108000  0.65085000  1.0
  H  H11  1  0.98681000  0.21893000  0.34917000  1.0
  H  H12  1  0.92174000  0.53815000  0.66960000  1.0
  H  H13  1  0.07825000  0.46185000  0.33041000  1.0
  H  H14  1  0.45579000  0.19766000  0.87546000  1.0
  H  H15  1  0.54419000  0.80233000  0.12453000  1.0
  H  H16  1  0.37298000  0.93732000  0.79048000  1.0
  H  H17  1  0.62701000  0.06266000  0.20951000  1.0
  H  H18  1  0.22082000  0.69702000  0.80694000  1.0
  H  H19  1  0.77919000  0.30297000  0.19306000  1.0
  H  H20  1  0.05622000  0.85144000  0.11869000  1.0
  H  H21  1  0.94377000  0.14854000  0.88130000  1.0
  H  H22  1  0.15469000  0.11440000  0.19535000  1.0
  H  H23  1  0.84530000  0.88557000  0.80464000  1.0
  H  H24  1  0.06229000  0.65586000  0.96904000  1.0
  H  H25  1  0.93771000  0.34411000  0.03096000  1.0
  C  C26  1  0.51814000  0.24258000  0.37299000  1.0
  C  C27  1  0.48187000  0.75745000  0.62701000  1.0
  C  C28  1  0.55726000  0.37025000  0.35204000  1.0
  C  C29  1  0.44275000  0.62977000  0.64796000  1.0
  C  C30  1  0.67623000  0.48439000  0.42846000  1.0
  C  C31  1  0.32377000  0.51562000  0.57155000  1.0
  C  C32  1  0.72755000  0.62250000  0.41985000  1.0
  C  C33  1  0.27246000  0.37751000  0.58015000  1.0
  C  C34  1  0.84576000  0.72592000  0.49963000  1.0
  C  C35  1  0.15423000  0.27409000  0.50038000  1.0
  C  C36  1  0.91782000  0.69689000  0.59005000  1.0
  C  C37  1  0.08220000  0.30312000  0.40996000  1.0
  C  C38  1  0.86880000  0.56428000  0.60144000  1.0
  C  C39  1  0.13121000  0.43574000  0.39857000  1.0
  C  C40  1  0.74632000  0.45551000  0.52097000  1.0
  C  C41  1  0.25369000  0.54451000  0.47904000  1.0
  C  C42  1  0.10494000  0.93500000  0.34254000  1.0
  C  C43  1  0.89510000  0.06501000  0.65745000  1.0
  C  C44  1  0.80815000  0.93096000  0.33097000  1.0
  C  C45  1  0.19190000  0.06904000  0.66902000  1.0
  C  C46  1  0.38676000  0.16945000  0.94476000  1.0
  C  C47  1  0.61321000  0.83052000  0.05523000  1.0
  C  C48  1  0.30488000  0.02994000  0.94710000  1.0
  C  C49  1  0.69510000  0.97004000  0.05290000  1.0
  C  C50  1  0.30623000  0.91730000  0.86225000  1.0
  C  C51  1  0.69376000  0.08268000  0.13774000  1.0
  C  C52  1  0.22072000  0.78477000  0.87161000  1.0
  C  C53  1  0.77926000  0.21522000  0.12838000  1.0
  C  C54  1  0.13131000  0.76120000  0.96437000  1.0
  C  C55  1  0.86868000  0.23878000  0.03563000  1.0
  C  C56  1  0.12828000  0.86951000  0.04821000  1.0
  C  C57  1  0.87171000  0.13048000  0.95178000  1.0
  C  C58  1  0.21627000  0.00603000  0.04078000  1.0
  C  C59  1  0.78372000  0.99395000  0.95922000  1.0
  C  C60  1  0.22213000  0.12524000  0.12191000  1.0
  C  C61  1  0.77784000  0.87474000  0.87808000  1.0
  C  C62  1  0.88600000  0.57565000  0.16363000  1.0
  C  C63  1  0.11397000  0.42434000  0.83637000  1.0
  C  C64  1  0.18454000  0.58187000  0.16036000  1.0
  C  C65  1  0.81542000  0.41812000  0.83965000  1.0
  N  N66  1  0.58843000  0.22308000  0.46347000  1.0
  N  N67  1  0.41157000  0.77693000  0.53652000  1.0
  N  N68  1  0.70008000  0.32586000  0.53628000  1.0
  N  N69  1  0.29992000  0.67415000  0.46371000  1.0
  N  N70  1  0.66329000  0.92957000  0.35706000  1.0
  N  N71  1  0.33675000  0.07045000  0.64295000  1.0
  N  N72  1  0.24592000  0.93876000  0.37906000  1.0
  N  N73  1  0.75413000  0.06125000  0.62094000  1.0
  N  N74  1  0.96006000  0.93289000  0.29115000  1.0
  N  N75  1  0.03998000  0.06712000  0.70885000  1.0
  N  N76  1  0.38572000  0.27375000  0.02489000  1.0
  N  N77  1  0.61426000  0.72624000  0.97511000  1.0
  N  N78  1  0.30372000  0.25302000  0.11570000  1.0
  N  N79  1  0.69627000  0.74696000  0.88430000  1.0
  N  N80  1  0.74067000  0.57358000  0.13521000  1.0
  N  N81  1  0.25930000  0.42641000  0.86480000  1.0
  N  N82  1  0.03657000  0.57593000  0.20607000  1.0
  N  N83  1  0.96341000  0.42407000  0.79394000  1.0
  N  N84  1  0.32559000  0.58588000  0.12678000  1.0
  N  N85  1  0.67438000  0.41411000  0.87322000  1.0
