# generated using pymatgen
data_Zr6H25C50Br5O33
_symmetry_space_group_name_H-M   'P 1'
_cell_length_a   14.77760000
_cell_length_b   14.78363279
_cell_length_c   14.79330000
_cell_angle_alpha   90.00757320
_cell_angle_beta   119.92280000
_cell_angle_gamma   119.86440543
_symmetry_Int_Tables_number   1
_chemical_formula_structural   Zr6H25C50Br5O33
_chemical_formula_sum   'Zr6 H25 C50 Br5 O33'
_cell_volume   2292.43788854
_cell_formula_units_Z   1
loop_
 _symmetry_equiv_pos_site_id
 _symmetry_equiv_pos_as_xyz
  1  'x, y, z'
loop_
 _atom_site_type_symbol
 _atom_site_label
 _atom_site_symmetry_multiplicity
 _atom_site_fract_x
 _atom_site_fract_y
 _atom_site_fract_z
 _atom_site_occupancy
  Zr  Zr0  1  0.49455000  0.61717000  0.11687000  1.0
  Zr  Zr1  1  0.50327000  0.38273000  0.88354000  1.0
  Zr  Zr2  1  0.73671000  0.62131000  0.12101000  1.0
  Zr  Zr3  1  0.25885000  0.37831000  0.87877000  1.0
  Zr  Zr4  1  0.49683000  0.37846000  0.11788000  1.0
  Zr  Zr5  1  0.49634000  0.61713000  0.87800000  1.0
  H  H6  1  0.68288000  0.59350000  0.28093000  1.0
  H  H7  1  0.31352000  0.21709000  0.90579000  1.0
  H  H8  1  0.68891000  0.59586000  0.90823000  1.0
  H  H9  1  0.30672000  0.59092000  0.90214000  1.0
  H  H10  1  0.47561000  0.63150000  0.40796000  1.0
  H  H11  1  0.51100000  0.35994000  0.41395000  1.0
  H  H12  1  0.48160000  0.62627000  0.58056000  1.0
  H  H13  1  0.50845000  0.92328000  0.14809000  1.0
  H  H14  1  0.52801000  0.92281000  0.86805000  1.0
  H  H15  1  0.51405000  0.09583000  0.14345000  1.0
  H  H16  1  0.22170000  0.08343000  0.14876000  1.0
  H  H17  1  0.94360000  0.09493000  0.85861000  1.0
  H  H18  1  0.04405000  0.91579000  0.14219000  1.0
  H  H19  1  0.22180000  0.63201000  0.56782000  1.0
  H  H20  1  0.94302000  0.34796000  0.58428000  1.0
  H  H21  1  0.04466000  0.62629000  0.40028000  1.0
  H  H22  1  0.05184000  0.91869000  0.40469000  1.0
  H  H23  1  0.69974000  0.96561000  0.37396000  1.0
  H  H24  1  0.70207000  0.87947000  0.45855000  1.0
  H  H25  1  0.87669000  0.04819000  0.62865000  1.0
  H  H26  1  0.87427000  0.13433000  0.54419000  1.0
  H  H27  1  0.92979000  0.34674000  0.86213000  1.0
  H  H28  1  0.23572000  0.63838000  0.14854000  1.0
  H  H29  1  0.77253000  0.35869000  0.87455000  1.0
  H  H30  1  0.30088000  0.15448000  0.64213000  1.0
  C  C31  1  0.48730000  0.49420000  0.29718000  1.0
  C  C32  1  0.51342000  0.20265000  0.00276000  1.0
  C  C33  1  0.49735000  0.49378000  0.69486000  1.0
  C  C34  1  0.50465000  0.80569000  0.00237000  1.0
  C  C35  1  0.79646000  0.80627000  0.29758000  1.0
  C  C36  1  0.19066000  0.49166000  0.00007000  1.0
  C  C37  1  0.19456000  0.19853000  0.69144000  1.0
  C  C38  1  0.81025000  0.50381000  0.01286000  1.0
  C  C39  1  0.79751000  0.49266000  0.30002000  1.0
  C  C40  1  0.79684000  0.80828000  0.00046000  1.0
  C  C41  1  0.19454000  0.49272000  0.68855000  1.0
  C  C42  1  0.19503000  0.19749000  0.00274000  1.0
  C  C43  1  0.49833000  0.49059000  0.59412000  1.0
  C  C44  1  0.49072000  0.49436000  0.39993000  1.0
  C  C45  1  0.50852000  0.41591000  0.54697000  1.0
  C  C46  1  0.48386000  0.57103000  0.44697000  1.0
  C  C47  1  0.50363000  0.41773000  0.45044000  1.0
  C  C48  1  0.48727000  0.56806000  0.54229000  1.0
  C  C49  1  0.52079000  0.10518000  0.00247000  1.0
  C  C50  1  0.51524000  0.91182000  0.00654000  1.0
  C  C51  1  0.52707000  0.05641000  0.92544000  1.0
  C  C52  1  0.51356000  0.96110000  0.08613000  1.0
  C  C53  1  0.52411000  0.96073000  0.92791000  1.0
  C  C54  1  0.51646000  0.05626000  0.08332000  1.0
  C  C55  1  0.89444000  0.91030000  0.99759000  1.0
  C  C56  1  0.09262000  0.09872000  0.00345000  1.0
  C  C57  1  0.86673000  0.96208000  0.91710000  1.0
  C  C58  1  0.12218000  0.04900000  0.08439000  1.0
  C  C59  1  0.96518000  0.05521000  0.92068000  1.0
  C  C60  1  0.02386000  0.95647000  0.08068000  1.0
  C  C61  1  0.89478000  0.48565000  0.39815000  1.0
  C  C62  1  0.09236000  0.49006000  0.58599000  1.0
  C  C63  1  0.86667000  0.40597000  0.45064000  1.0
  C  C64  1  0.12223000  0.56894000  0.53431000  1.0
  C  C65  1  0.96482000  0.40868000  0.54331000  1.0
  C  C66  1  0.02419000  0.56581000  0.44192000  1.0
  C  C67  1  0.89632000  0.90776000  0.39609000  1.0
  C  C68  1  0.09461000  0.10133000  0.59071000  1.0
  C  C69  1  0.86805000  0.95852000  0.44802000  1.0
  C  C70  1  0.12361000  0.04997000  0.53728000  1.0
  C  C71  1  0.96461000  0.05188000  0.54202000  1.0
  C  C72  1  0.02554000  0.95557000  0.44235000  1.0
  C  C73  1  0.76207000  0.95337000  0.44628000  1.0
  C  C74  1  0.87184000  0.05953000  0.55331000  1.0
  C  C75  1  0.91388000  0.50442000  0.01683000  1.0
  C  C76  1  0.09244000  0.49261000  0.00488000  1.0
  C  C77  1  0.04616000  0.58359000  0.09508000  1.0
  C  C78  1  0.96167000  0.41265000  0.92709000  1.0
  C  C79  1  0.13380000  0.57714000  0.08867000  1.0
  C  C80  1  0.87482000  0.41938000  0.93394000  1.0
  Br  Br81  1  0.53213000  0.30864000  0.60551000  1.0
  Br  Br82  1  0.53825000  0.10938000  0.81133000  1.0
  Br  Br83  1  0.70000000  0.91583000  0.79726000  1.0
  Br  Br84  1  0.69981000  0.28971000  0.40740000  1.0
  Br  Br85  1  0.12114000  0.70537000  0.21438000  1.0
  O  O86  1  0.48761000  0.57168000  0.25895000  1.0
  O  O87  1  0.50962000  0.24331000  0.92589000  1.0
  O  O88  1  0.49901000  0.41964000  0.73833000  1.0
  O  O89  1  0.49882000  0.76433000  0.07665000  1.0
  O  O90  1  0.83403000  0.76550000  0.25920000  1.0
  O  O91  1  0.15218000  0.41609000  0.92155000  1.0
  O  O92  1  0.15923000  0.23758000  0.73404000  1.0
  O  O93  1  0.84263000  0.58038000  0.08609000  1.0
  O  O94  1  0.68032000  0.41825000  0.25826000  1.0
  O  O95  1  0.67980000  0.76378000  0.92316000  1.0
  O  O96  1  0.31022000  0.57076000  0.72819000  1.0
  O  O97  1  0.31056000  0.23367000  0.07766000  1.0
  O  O98  1  0.83741000  0.77152000  0.07881000  1.0
  O  O99  1  0.15807000  0.41781000  0.73004000  1.0
  O  O100  1  0.15881000  0.23731000  0.92595000  1.0
  O  O101  1  0.83823000  0.57315000  0.26567000  1.0
  O  O102  1  0.68011000  0.76548000  0.25893000  1.0
  O  O103  1  0.69560000  0.42696000  0.93459000  1.0
  O  O104  1  0.31241000  0.23794000  0.73212000  1.0
  O  O105  1  0.30700000  0.56898000  0.07510000  1.0
  O  O106  1  0.49960000  0.76334000  0.92335000  1.0
  O  O107  1  0.48661000  0.41739000  0.25666000  1.0
  O  O108  1  0.50803000  0.23703000  0.07793000  1.0
  O  O109  1  0.49519000  0.57065000  0.73097000  1.0
  O  O110  1  0.36036000  0.56422000  0.92911000  1.0
  O  O111  1  0.63468000  0.56866000  0.93427000  1.0
  O  O112  1  0.36555000  0.29717000  0.93244000  1.0
  O  O113  1  0.62959000  0.56618000  0.20083000  1.0
  O  O114  1  0.59900000  0.45164000  0.05113000  1.0
  O  O115  1  0.39715000  0.44808000  0.04740000  1.0
  O  O116  1  0.39984000  0.44905000  0.85062000  1.0
  O  O117  1  0.59418000  0.64728000  0.04754000  1.0
  O  O118  1  0.24463000  0.08859000  0.57510000  1.0
