# generated using pymatgen
data_GdH9C13N2O7
_symmetry_space_group_name_H-M   'P 1'
_cell_length_a   9.23740000
_cell_length_b   10.54910000
_cell_length_c   14.11070000
_cell_angle_alpha   90.00010000
_cell_angle_beta   90.00040000
_cell_angle_gamma   96.10390000
_symmetry_Int_Tables_number   1
_chemical_formula_structural   GdH9C13N2O7
_chemical_formula_sum   'Gd4 H36 C52 N8 O28'
_cell_volume   1367.23941591
_cell_formula_units_Z   4
loop_
 _symmetry_equiv_pos_site_id
 _symmetry_equiv_pos_as_xyz
  1  'x, y, z'
loop_
 _atom_site_type_symbol
 _atom_site_label
 _atom_site_symmetry_multiplicity
 _atom_site_fract_x
 _atom_site_fract_y
 _atom_site_fract_z
 _atom_site_occupancy
  Gd  Gd0  1  0.87468000  0.02964000  0.86508000  1.0
  Gd  Gd1  1  0.12532000  0.47036000  0.36509000  1.0
  Gd  Gd2  1  0.12531000  0.97036000  0.13491000  1.0
  Gd  Gd3  1  0.87468000  0.52964000  0.63492000  1.0
  H  H4  1  0.22608000  0.79209000  0.74080000  1.0
  H  H5  1  0.77391000  0.70792000  0.24079000  1.0
  H  H6  1  0.77392000  0.20791000  0.25921000  1.0
  H  H7  1  0.22609000  0.29208000  0.75921000  1.0
  H  H8  1  0.45197000  0.72221000  0.66428000  1.0
  H  H9  1  0.54802000  0.77780000  0.16428000  1.0
  H  H10  1  0.54802000  0.27779000  0.33572000  1.0
  H  H11  1  0.45198000  0.22220000  0.83572000  1.0
  H  H12  1  0.51090000  0.03516000  0.92265000  1.0
  H  H13  1  0.48910000  0.46484000  0.42265000  1.0
  H  H14  1  0.48909000  0.96484000  0.07735000  1.0
  H  H15  1  0.51090000  0.53516000  0.57735000  1.0
  H  H16  1  0.98144000  0.60223000  0.12644000  1.0
  H  H17  1  0.01856000  0.89777000  0.62644000  1.0
  H  H18  1  0.01857000  0.39777000  0.87356000  1.0
  H  H19  1  0.98144000  0.10222000  0.37356000  1.0
  H  H20  1  0.70176000  0.27962000  0.06275000  1.0
  H  H21  1  0.29824000  0.22039000  0.56275000  1.0
  H  H22  1  0.29824000  0.72039000  0.93724000  1.0
  H  H23  1  0.70176000  0.77961000  0.43724000  1.0
  H  H24  1  0.57272000  0.39475000  0.94119000  1.0
  H  H25  1  0.42728000  0.10525000  0.44119000  1.0
  H  H26  1  0.42728000  0.60525000  0.05881000  1.0
  H  H27  1  0.57272000  0.89475000  0.55881000  1.0
  H  H28  1  0.66400000  0.62486000  0.90538000  1.0
  H  H29  1  0.33599000  0.87513000  0.40539000  1.0
  H  H30  1  0.33599000  0.37514000  0.09462000  1.0
  H  H31  1  0.66401000  0.12486000  0.59462000  1.0
  H  H32  1  0.96442000  0.23655000  0.72821000  1.0
  H  H33  1  0.03558000  0.26345000  0.22821000  1.0
  H  H34  1  0.03558000  0.76344000  0.27179000  1.0
  H  H35  1  0.96442000  0.73654000  0.77178000  1.0
  H  H36  1  0.05453000  0.12425000  0.68367000  1.0
  H  H37  1  0.94547000  0.37575000  0.18368000  1.0
  H  H38  1  0.94547000  0.87575000  0.31633000  1.0
  H  H39  1  0.05452000  0.62425000  0.81632000  1.0
  C  C40  1  0.22362000  0.94699000  0.89830000  1.0
  C  C41  1  0.77637000  0.55302000  0.39831000  1.0
  C  C42  1  0.77635000  0.05301000  0.10168000  1.0
  C  C43  1  0.22364000  0.44698000  0.60168000  1.0
  C  C44  1  0.35149000  0.91651000  0.83950000  1.0
  C  C45  1  0.64851000  0.58350000  0.33951000  1.0
  C  C46  1  0.64851000  0.08350000  0.16050000  1.0
  C  C47  1  0.35149000  0.41650000  0.66050000  1.0
  C  C48  1  0.33463000  0.83158000  0.76308000  1.0
  C  C49  1  0.66536000  0.66842000  0.26308000  1.0
  C  C50  1  0.66536000  0.16842000  0.23692000  1.0
  C  C51  1  0.33464000  0.33158000  0.73692000  1.0
  C  C52  1  0.45881000  0.79342000  0.72038000  1.0
  C  C53  1  0.54119000  0.70659000  0.22038000  1.0
  C  C54  1  0.54119000  0.20659000  0.27962000  1.0
  C  C55  1  0.45881000  0.29341000  0.77962000  1.0
  C  C56  1  0.59552000  0.84652000  0.75150000  1.0
  C  C57  1  0.40448000  0.65349000  0.25150000  1.0
  C  C58  1  0.40448000  0.15348000  0.24850000  1.0
  C  C59  1  0.59552000  0.34652000  0.74851000  1.0
  C  C60  1  0.49253000  0.96730000  0.86453000  1.0
  C  C61  1  0.50747000  0.53271000  0.36452000  1.0
  C  C62  1  0.50747000  0.03270000  0.13547000  1.0
  C  C63  1  0.49253000  0.46730000  0.63548000  1.0
  C  C64  1  0.73569000  0.80458000  0.71362000  1.0
  C  C65  1  0.26431000  0.69543000  0.21362000  1.0
  C  C66  1  0.26432000  0.19544000  0.28639000  1.0
  C  C67  1  0.73568000  0.30457000  0.78638000  1.0
  C  C68  1  0.88599000  0.76587000  0.99518000  1.0
  C  C69  1  0.11401000  0.73413000  0.49518000  1.0
  C  C70  1  0.11399000  0.23414000  0.00480000  1.0
  C  C71  1  0.88601000  0.26587000  0.50480000  1.0
  C  C72  1  0.82895000  0.62979000  0.01341000  1.0
  C  C73  1  0.17105000  0.87020000  0.51341000  1.0
  C  C74  1  0.17105000  0.37021000  0.98660000  1.0
  C  C75  1  0.82895000  0.12980000  0.48659000  1.0
  C  C76  1  0.89130000  0.55899000  0.08327000  1.0
  C  C77  1  0.10870000  0.94101000  0.58327000  1.0
  C  C78  1  0.10870000  0.44101000  0.91673000  1.0
  C  C79  1  0.89130000  0.05899000  0.41673000  1.0
  C  C80  1  0.73483000  0.37991000  0.04879000  1.0
  C  C81  1  0.26517000  0.12009000  0.54879000  1.0
  C  C82  1  0.26517000  0.62009000  0.95121000  1.0
  C  C83  1  0.73483000  0.87990000  0.45121000  1.0
  C  C84  1  0.66392000  0.44419000  0.97958000  1.0
  C  C85  1  0.33608000  0.05581000  0.47958000  1.0
  C  C86  1  0.33609000  0.55581000  0.02042000  1.0
  C  C87  1  0.66392000  0.94419000  0.52042000  1.0
  C  C88  1  0.71289000  0.57076000  0.96045000  1.0
  C  C89  1  0.28711000  0.92924000  0.46045000  1.0
  C  C90  1  0.28711000  0.42924000  0.03955000  1.0
  C  C91  1  0.71290000  0.07076000  0.53955000  1.0
  N  N92  1  0.61146000  0.93593000  0.82007000  1.0
  N  N93  1  0.38854000  0.56405000  0.32005000  1.0
  N  N94  1  0.38854000  0.06405000  0.17995000  1.0
  N  N95  1  0.61146000  0.43596000  0.67995000  1.0
  N  N96  1  0.84619000  0.43586000  0.10025000  1.0
  N  N97  1  0.15380000  0.06414000  0.60024000  1.0
  N  N98  1  0.15381000  0.56414000  0.89976000  1.0
  N  N99  1  0.84620000  0.93586000  0.39976000  1.0
  O  O100  1  0.98891000  0.14899000  0.73734000  1.0
  O  O101  1  0.01108000  0.35101000  0.23735000  1.0
  O  O102  1  0.01108000  0.85101000  0.26266000  1.0
  O  O103  1  0.98892000  0.64897000  0.76264000  1.0
  O  O104  1  0.10373000  0.95140000  0.85572000  1.0
  O  O105  1  0.89627000  0.54859000  0.35571000  1.0
  O  O106  1  0.89628000  0.04858000  0.14429000  1.0
  O  O107  1  0.10372000  0.45141000  0.64429000  1.0
  O  O108  1  0.24830000  0.96211000  0.98637000  1.0
  O  O109  1  0.75169000  0.53789000  0.48637000  1.0
  O  O110  1  0.75169000  0.03789000  0.01364000  1.0
  O  O111  1  0.24828000  0.46210000  0.51363000  1.0
  O  O112  1  0.72775000  0.70274000  0.66551000  1.0
  O  O113  1  0.27225000  0.79726000  0.16551000  1.0
  O  O114  1  0.27225000  0.29725000  0.33448000  1.0
  O  O115  1  0.72778000  0.20276000  0.83448000  1.0
  O  O116  1  0.85240000  0.87366000  0.73577000  1.0
  O  O117  1  0.14762000  0.62632000  0.23576000  1.0
  O  O118  1  0.14760000  0.12632000  0.26424000  1.0
  O  O119  1  0.85240000  0.37369000  0.76424000  1.0
  O  O120  1  0.98309000  0.81774000  0.05057000  1.0
  O  O121  1  0.01692000  0.68226000  0.55057000  1.0
  O  O122  1  0.01695000  0.18227000  0.94943000  1.0
  O  O123  1  0.98305000  0.31775000  0.44943000  1.0
  O  O124  1  0.83228000  0.81923000  0.92504000  1.0
  O  O125  1  0.16770000  0.68077000  0.42504000  1.0
  O  O126  1  0.16772000  0.18076000  0.07497000  1.0
  O  O127  1  0.83229000  0.31924000  0.57497000  1.0
