# generated using pymatgen
data_ZnH10C10N5O4
_symmetry_space_group_name_H-M   'P 1'
_cell_length_a   8.33014000
_cell_length_b   8.41414000
_cell_length_c   10.36580000
_cell_angle_alpha   102.57200000
_cell_angle_beta   110.64300000
_cell_angle_gamma   101.42400000
_symmetry_Int_Tables_number   1
_chemical_formula_structural   ZnH10C10N5O4
_chemical_formula_sum   'Zn2 H20 C20 N10 O8'
_cell_volume   632.85075913
_cell_formula_units_Z   2
loop_
 _symmetry_equiv_pos_site_id
 _symmetry_equiv_pos_as_xyz
  1  'x, y, z'
loop_
 _atom_site_type_symbol
 _atom_site_label
 _atom_site_symmetry_multiplicity
 _atom_site_fract_x
 _atom_site_fract_y
 _atom_site_fract_z
 _atom_site_occupancy
  Zn  Zn0  1  0.59219000  0.59003000  0.80909000  1.0
  Zn  Zn1  1  0.40782000  0.40998000  0.19092000  1.0
  H  H2  1  0.08712000  0.11806000  0.11950000  1.0
  H  H3  1  0.91285000  0.88193000  0.88048000  1.0
  H  H4  1  0.75803000  0.32333000  0.31211000  1.0
  H  H5  1  0.24196000  0.67667000  0.68790000  1.0
  H  H6  1  0.99872000  0.60195000  0.41730000  1.0
  H  H7  1  0.00129000  0.39804000  0.58273000  1.0
  H  H8  1  0.27367000  0.62755000  0.36500000  1.0
  H  H9  1  0.72636000  0.37243000  0.63506000  1.0
  H  H10  1  0.08419000  0.23670000  0.72396000  1.0
  H  H11  1  0.91583000  0.76330000  0.27597000  1.0
  H  H12  1  0.79224000  0.00584000  0.62271000  1.0
  H  H13  1  0.20779000  0.99419000  0.37721000  1.0
  H  H14  1  0.63774000  0.33825000  0.94239000  1.0
  H  H15  1  0.36223000  0.66176000  0.05762000  1.0
  H  H16  1  0.52988000  0.77931000  0.60592000  1.0
  H  H17  1  0.47014000  0.22069000  0.39409000  1.0
  H  H18  1  0.48229000  0.87613000  0.73630000  1.0
  H  H19  1  0.51770000  0.12386000  0.26368000  1.0
  H  H20  1  0.80209000  0.50324000  0.04307000  1.0
  H  H21  1  0.19785000  0.49677000  0.95696000  1.0
  C  C22  1  0.76590000  0.03056000  0.13436000  1.0
  C  C23  1  0.23408000  0.96945000  0.86564000  1.0
  C  C24  1  0.06168000  0.22161000  0.18516000  1.0
  C  C25  1  0.93830000  0.77839000  0.81483000  1.0
  C  C26  1  0.87867000  0.33609000  0.29134000  1.0
  C  C27  1  0.12134000  0.66391000  0.70869000  1.0
  C  C28  1  0.90184000  0.19729000  0.20555000  1.0
  C  C29  1  0.09816000  0.80271000  0.79446000  1.0
  C  C30  1  0.01289000  0.49206000  0.35008000  1.0
  C  C31  1  0.98711000  0.50793000  0.64994000  1.0
  C  C32  1  0.16523000  0.50816000  0.32207000  1.0
  C  C33  1  0.83479000  0.49182000  0.67798000  1.0
  C  C34  1  0.16350000  0.13239000  0.55590000  1.0
  C  C35  1  0.83652000  0.86763000  0.44409000  1.0
  C  C36  1  0.33681000  0.27408000  0.61245000  1.0
  C  C37  1  0.66322000  0.72586000  0.38752000  1.0
  C  C38  1  0.04580000  0.13341000  0.62488000  1.0
  C  C39  1  0.95421000  0.86661000  0.37508000  1.0
  C  C40  1  0.88385000  0.00369000  0.56940000  1.0
  C  C41  1  0.11617000  0.99636000  0.43058000  1.0
  N  N42  1  0.77806000  0.90760000  0.03455000  1.0
  N  N43  1  0.22190000  0.09241000  0.96544000  1.0
  N  N44  1  0.53097000  0.81902000  0.06247000  1.0
  N  N45  1  0.46899000  0.18099000  0.93752000  1.0
  N  N46  1  0.61350000  0.97756000  0.15351000  1.0
  N  N47  1  0.38647000  0.02244000  0.84649000  1.0
  N  N48  1  0.63040000  0.77789000  0.99180000  1.0
  N  N49  1  0.36956000  0.22211000  0.00819000  1.0
  N  N50  1  0.18914000  0.37348000  0.24111000  1.0
  N  N51  1  0.81086000  0.62652000  0.75892000  1.0
  O  O52  1  0.50239000  0.77017000  0.69022000  1.0
  O  O53  1  0.49760000  0.22982000  0.30977000  1.0
  O  O54  1  0.72753000  0.43777000  0.94163000  1.0
  O  O55  1  0.27245000  0.56224000  0.05839000  1.0
  O  O56  1  0.36178000  0.40424000  0.71889000  1.0
  O  O57  1  0.63826000  0.59574000  0.28105000  1.0
  O  O58  1  0.44656000  0.26141000  0.55598000  1.0
  O  O59  1  0.55354000  0.73852000  0.44406000  1.0
