# generated using pymatgen
data_ZnH11C8N3ClO
_symmetry_space_group_name_H-M   'P 1'
_cell_length_a   9.26444000
_cell_length_b   11.13290000
_cell_length_c   11.43810000
_cell_angle_alpha   109.81700000
_cell_angle_beta   89.99990000
_cell_angle_gamma   89.99990000
_symmetry_Int_Tables_number   1
_chemical_formula_structural   ZnH11C8N3ClO
_chemical_formula_sum   'Zn4 H44 C32 N12 Cl4 O4'
_cell_volume   1109.86344854
_cell_formula_units_Z   4
loop_
 _symmetry_equiv_pos_site_id
 _symmetry_equiv_pos_as_xyz
  1  'x, y, z'
loop_
 _atom_site_type_symbol
 _atom_site_label
 _atom_site_symmetry_multiplicity
 _atom_site_fract_x
 _atom_site_fract_y
 _atom_site_fract_z
 _atom_site_occupancy
  Zn  Zn0  1  0.72018000  0.37007000  0.67020000  1.0
  Zn  Zn1  1  0.22018000  0.12993000  0.82981000  1.0
  Zn  Zn2  1  0.27982000  0.62993000  0.32980000  1.0
  Zn  Zn3  1  0.77982000  0.87007000  0.17019000  1.0
  H  H4  1  0.55530000  0.42563000  0.87592000  1.0
  H  H5  1  0.05530000  0.07437000  0.62408000  1.0
  H  H6  1  0.44470000  0.57437000  0.12408000  1.0
  H  H7  1  0.94470000  0.92563000  0.37592000  1.0
  H  H8  1  0.49547000  0.31987000  0.95407000  1.0
  H  H9  1  0.99547000  0.18013000  0.54593000  1.0
  H  H10  1  0.50453000  0.68013000  0.04593000  1.0
  H  H11  1  0.00453000  0.81987000  0.45407000  1.0
  H  H12  1  0.36840000  0.39841000  0.89040000  1.0
  H  H13  1  0.86840000  0.10159000  0.60960000  1.0
  H  H14  1  0.63160000  0.60159000  0.10960000  1.0
  H  H15  1  0.13160000  0.89841000  0.39040000  1.0
  H  H16  1  0.71068000  0.10440000  0.42621000  1.0
  H  H17  1  0.21068000  0.39560000  0.07379000  1.0
  H  H18  1  0.28932000  0.89560000  0.57379000  1.0
  H  H19  1  0.78932000  0.60440000  0.92621000  1.0
  H  H20  1  0.64427000  0.39590000  0.41595000  1.0
  H  H21  1  0.14427000  0.10410000  0.08405000  1.0
  H  H22  1  0.35573000  0.60410000  0.58405000  1.0
  H  H23  1  0.85573000  0.89590000  0.91595000  1.0
  H  H24  1  0.04972000  0.46802000  0.34860000  1.0
  H  H25  1  0.54972000  0.03198000  0.15140000  1.0
  H  H26  1  0.95028000  0.53198000  0.65140000  1.0
  H  H27  1  0.45028000  0.96802000  0.84860000  1.0
  H  H28  1  0.02566000  0.31630000  0.23032000  1.0
  H  H29  1  0.52566000  0.18370000  0.26968000  1.0
  H  H30  1  0.97434000  0.68370000  0.76968000  1.0
  H  H31  1  0.47434000  0.81630000  0.73032000  1.0
  H  H32  1  0.02625000  0.32771000  0.39033000  1.0
  H  H33  1  0.52625000  0.17229000  0.10967000  1.0
  H  H34  1  0.97375000  0.67228000  0.60967000  1.0
  H  H35  1  0.47375000  0.82772000  0.89033000  1.0
  H  H36  1  0.65674000  0.44856000  0.25168000  1.0
  H  H37  1  0.15674000  0.05145000  0.24832000  1.0
  H  H38  1  0.34326000  0.55144000  0.74832000  1.0
  H  H39  1  0.84326000  0.94855000  0.75168000  1.0
  H  H40  1  0.79734000  0.37159000  0.14397000  1.0
  H  H41  1  0.29733000  0.12841000  0.35603000  1.0
  H  H42  1  0.20267000  0.62841000  0.85603000  1.0
  H  H43  1  0.70267000  0.87159000  0.64397000  1.0
  H  H44  1  0.82010000  0.53254000  0.24402000  1.0
  H  H45  1  0.32010000  0.96746000  0.25598000  1.0
  H  H46  1  0.17990000  0.46746000  0.75598000  1.0
  H  H47  1  0.67990000  0.03254000  0.74402000  1.0
  C  C48  1  0.48023000  0.24421000  0.75574000  1.0
  C  C49  1  0.98023000  0.25579000  0.74426000  1.0
  C  C50  1  0.51977000  0.75579000  0.24426000  1.0
  C  C51  1  0.01977000  0.74421000  0.25574000  1.0
  C  C52  1  0.47531000  0.35295000  0.87525000  1.0
  C  C53  1  0.97531000  0.14705000  0.62475000  1.0
  C  C54  1  0.52469000  0.64705000  0.12475000  1.0
  C  C55  1  0.02469000  0.85295000  0.37525000  1.0
  C  C56  1  0.55046000  0.11888000  0.57129000  1.0
  C  C57  1  0.05046000  0.38112000  0.92871000  1.0
  C  C58  1  0.44954000  0.88112000  0.42871000  1.0
  C  C59  1  0.94954000  0.61888000  0.07129000  1.0
  C  C60  1  0.62128000  0.06004000  0.45833000  1.0
  C  C61  1  0.12128000  0.43996000  0.04167000  1.0
  C  C62  1  0.37872000  0.93996000  0.54167000  1.0
  C  C63  1  0.87872000  0.56004000  0.95833000  1.0
  C  C64  1  0.56790000  0.93978000  0.38814000  1.0
  C  C65  1  0.06790000  0.56022000  0.11186000  1.0
  C  C66  1  0.43211000  0.06022000  0.61186000  1.0
  C  C67  1  0.93210000  0.43978000  0.88814000  1.0
  C  C68  1  0.76010000  0.37424000  0.41860000  1.0
  C  C69  1  0.26010000  0.12575000  0.08139000  1.0
  C  C70  1  0.23990000  0.62576000  0.58139000  1.0
  C  C71  1  0.73990000  0.87425000  0.91860000  1.0
  C  C72  1  0.99504000  0.37542000  0.32494000  1.0
  C  C73  1  0.49504000  0.12458000  0.17506000  1.0
  C  C74  1  0.00496000  0.62458000  0.67506000  1.0
  C  C75  1  0.50496000  0.87542000  0.82494000  1.0
  C  C76  1  0.77396000  0.43951000  0.23729000  1.0
  C  C77  1  0.27396000  0.06049000  0.26271000  1.0
  C  C78  1  0.22604000  0.56049000  0.76271000  1.0
  C  C79  1  0.72604000  0.93951000  0.73729000  1.0
  N  N80  1  0.57728000  0.23506000  0.66477000  1.0
  N  N81  1  0.07728000  0.26494000  0.83524000  1.0
  N  N82  1  0.42272000  0.76494000  0.33524000  1.0
  N  N83  1  0.92272000  0.73506000  0.16476000  1.0
  N  N84  1  0.39058000  0.14246000  0.72847000  1.0
  N  N85  1  0.89058000  0.35754000  0.77153000  1.0
  N  N86  1  0.60942000  0.85754000  0.27153000  1.0
  N  N87  1  0.10942000  0.64246000  0.22847000  1.0
  N  N88  1  0.83937000  0.39468000  0.33069000  1.0
  N  N89  1  0.33937000  0.10533000  0.16931000  1.0
  N  N90  1  0.16064000  0.60533000  0.66931000  1.0
  N  N91  1  0.66063000  0.89467000  0.83069000  1.0
  Cl  Cl92  1  0.62212000  0.56395000  0.70671000  1.0
  Cl  Cl93  1  0.12213000  0.93605000  0.79329000  1.0
  Cl  Cl94  1  0.37788000  0.43605000  0.29329000  1.0
  Cl  Cl95  1  0.87787000  0.06395000  0.20671000  1.0
  O  O96  1  0.81250000  0.33392000  0.50065000  1.0
  O  O97  1  0.31250000  0.16608000  0.99935000  1.0
  O  O98  1  0.18750000  0.66608000  0.49935000  1.0
  O  O99  1  0.68750000  0.83392000  0.00065000  1.0
