# generated using pymatgen
data_ZnH18C22S(NO2)3
_symmetry_space_group_name_H-M   'P 1'
_cell_length_a   8.69927000
_cell_length_b   9.68464000
_cell_length_c   13.34120000
_cell_angle_alpha   87.49980000
_cell_angle_beta   88.62200000
_cell_angle_gamma   77.58910000
_symmetry_Int_Tables_number   1
_chemical_formula_structural   ZnH18C22S(NO2)3
_chemical_formula_sum   'Zn2 H36 C44 S2 N6 O12'
_cell_volume   1096.55178418
_cell_formula_units_Z   2
loop_
 _symmetry_equiv_pos_site_id
 _symmetry_equiv_pos_as_xyz
  1  'x, y, z'
loop_
 _atom_site_type_symbol
 _atom_site_label
 _atom_site_symmetry_multiplicity
 _atom_site_fract_x
 _atom_site_fract_y
 _atom_site_fract_z
 _atom_site_occupancy
  Zn  Zn0  1  0.71338000  0.84750000  0.77468000  1.0
  Zn  Zn1  1  0.28662000  0.15250000  0.22532000  1.0
  H  H2  1  0.22332000  0.25908000  0.69869000  1.0
  H  H3  1  0.77668000  0.74091000  0.30132000  1.0
  H  H4  1  0.07270000  0.20714000  0.85111000  1.0
  H  H5  1  0.92730000  0.79286000  0.14889000  1.0
  H  H6  1  0.81251000  0.58611000  0.92390000  1.0
  H  H7  1  0.18750000  0.41389000  0.07610000  1.0
  H  H8  1  0.49678000  0.10906000  0.66986000  1.0
  H  H9  1  0.50321000  0.89093000  0.33014000  1.0
  H  H10  1  0.45271000  0.63291000  0.15701000  1.0
  H  H11  1  0.54729000  0.36709000  0.84299000  1.0
  H  H12  1  0.70969000  0.49584000  0.08660000  1.0
  H  H13  1  0.29031000  0.50416000  0.91340000  1.0
  H  H14  1  0.19349000  0.01097000  0.97082000  1.0
  H  H15  1  0.80651000  0.98903000  0.02918000  1.0
  H  H16  1  0.31074000  0.84775000  0.06311000  1.0
  H  H17  1  0.68925000  0.15225000  0.93689000  1.0
  H  H18  1  0.38803000  0.49306000  0.66479000  1.0
  H  H19  1  0.61196000  0.50694000  0.33521000  1.0
  H  H20  1  0.47448000  0.65573000  0.77510000  1.0
  H  H21  1  0.52552000  0.34427000  0.22490000  1.0
  H  H22  1  0.75565000  0.78935000  0.55348000  1.0
  H  H23  1  0.24435000  0.21065000  0.44652000  1.0
  H  H24  1  0.68219000  0.63011000  0.43018000  1.0
  H  H25  1  0.31781000  0.36990000  0.56982000  1.0
  H  H26  1  0.20235000  0.89062000  0.69726000  1.0
  H  H27  1  0.79765000  0.10938000  0.30274000  1.0
  H  H28  1  0.24590000  0.99934000  0.52796000  1.0
  H  H29  1  0.75411000  0.00066000  0.47204000  1.0
  H  H30  1  0.06324000  0.67970000  0.38690000  1.0
  H  H31  1  0.93675000  0.32031000  0.61310000  1.0
  H  H32  1  0.02204000  0.56840000  0.55689000  1.0
  H  H33  1  0.97796000  0.43161000  0.44311000  1.0
  H  H34  1  0.97480000  0.86725000  0.86195000  1.0
  H  H35  1  0.02521000  0.13275000  0.13805000  1.0
  H  H36  1  0.88093000  0.01879000  0.81731000  1.0
  H  H37  1  0.11907000  0.98121000  0.18269000  1.0
  C  C38  1  0.48620000  0.82927000  0.94351000  1.0
  C  C39  1  0.51380000  0.17072000  0.05649000  1.0
  C  C40  1  0.40753000  0.95354000  0.88077000  1.0
  C  C41  1  0.59247000  0.04645000  0.11923000  1.0
  C  C42  1  0.27362000  0.17238000  0.75046000  1.0
  C  C43  1  0.72638000  0.82762000  0.24954000  1.0
  C  C44  1  0.18991000  0.14382000  0.83663000  1.0
  C  C45  1  0.81009000  0.85618000  0.16337000  1.0
  C  C46  1  0.70180000  0.63973000  0.95816000  1.0
  C  C47  1  0.29820000  0.36027000  0.04185000  1.0
  C  C48  1  0.42388000  0.09101000  0.73482000  1.0
  C  C49  1  0.57612000  0.90899000  0.26518000  1.0
  C  C50  1  0.50159000  0.66666667  0.08633000  1.0
  C  C51  1  0.49841000  0.33339000  0.91367000  1.0
  C  C52  1  0.64374000  0.59047000  0.04780000  1.0
  C  C53  1  0.35626000  0.40953000  0.95220000  1.0
  C  C54  1  0.25680000  0.03308000  0.90263000  1.0
  C  C55  1  0.74320000  0.96692000  0.09737000  1.0
  C  C56  1  0.42140000  0.78699000  0.03387000  1.0
  C  C57  1  0.57860000  0.21301000  0.96614000  1.0
  C  C58  1  0.52579000  0.54684000  0.53521000  1.0
  C  C59  1  0.47421000  0.45316000  0.46478000  1.0
  C  C60  1  0.47137000  0.55409000  0.63494000  1.0
  C  C61  1  0.52863000  0.44591000  0.36506000  1.0
  C  C62  1  0.51926000  0.64633000  0.69813000  1.0
  C  C63  1  0.48075000  0.35367000  0.30187000  1.0
  C  C64  1  0.67399000  0.72148000  0.57358000  1.0
  C  C65  1  0.32601000  0.27852000  0.42642000  1.0
  C  C66  1  0.63119000  0.63284000  0.50552000  1.0
  C  C67  1  0.36881000  0.36717000  0.49448000  1.0
  C  C68  1  0.10911000  0.72423000  0.63593000  1.0
  C  C69  1  0.89088000  0.27577000  0.36407000  1.0
  C  C70  1  0.15611000  0.84650000  0.44767000  1.0
  C  C71  1  0.84389000  0.15350000  0.55233000  1.0
  C  C72  1  0.17268000  0.84491000  0.62911000  1.0
  C  C73  1  0.82732000  0.15509000  0.37088000  1.0
  C  C74  1  0.19657000  0.90508000  0.53490000  1.0
  C  C75  1  0.80344000  0.09492000  0.46510000  1.0
  C  C76  1  0.09327000  0.72460000  0.45552000  1.0
  C  C77  1  0.90673000  0.27541000  0.54448000  1.0
  C  C78  1  0.07050000  0.66315000  0.54943000  1.0
  C  C79  1  0.92950000  0.33685000  0.45057000  1.0
  C  C80  1  0.17405000  0.91682000  0.34660000  1.0
  C  C81  1  0.82595000  0.08318000  0.65340000  1.0
  S  S82  1  0.07889000  0.64198000  0.75492000  1.0
  S  S83  1  0.92111000  0.35802000  0.24507000  1.0
  N  N84  1  0.62521000  0.75608000  0.90768000  1.0
  N  N85  1  0.37479000  0.24392000  0.09232000  1.0
  N  N86  1  0.48907000  0.98498000  0.79868000  1.0
  N  N87  1  0.51093000  0.01502000  0.20132000  1.0
  N  N88  1  0.61869000  0.72896000  0.66867000  1.0
  N  N89  1  0.38131000  0.27104000  0.33134000  1.0
  O  O90  1  0.90649000  0.65420000  0.76490000  1.0
  O  O91  1  0.09351000  0.34580000  0.23510000  1.0
  O  O92  1  0.13972000  0.72182000  0.83104000  1.0
  O  O93  1  0.86029000  0.27818000  0.16896000  1.0
  O  O94  1  0.16287000  0.49448000  0.74931000  1.0
  O  O95  1  0.83713000  0.50553000  0.25069000  1.0
  O  O96  1  0.22991000  0.02917000  0.34674000  1.0
  O  O97  1  0.77009000  0.97082000  0.65325000  1.0
  O  O98  1  0.13224000  0.86320000  0.26952000  1.0
  O  O99  1  0.86775000  0.13681000  0.73048000  1.0
  O  O100  1  0.87224000  0.93561000  0.86538000  1.0
  O  O101  1  0.12776000  0.06439000  0.13462000  1.0
