# generated using pymatgen
data_Dy2CoH28C40(N3O5)4
_symmetry_space_group_name_H-M   'P 1'
_cell_length_a   9.18761000
_cell_length_b   10.36680000
_cell_length_c   12.42100000
_cell_angle_alpha   90.69700000
_cell_angle_beta   95.98110000
_cell_angle_gamma   114.22900000
_symmetry_Int_Tables_number   1
_chemical_formula_structural   Dy2CoH28C40(N3O5)4
_chemical_formula_sum   'Dy2 Co1 H28 C40 N12 O20'
_cell_volume   1070.99755204
_cell_formula_units_Z   1
loop_
 _symmetry_equiv_pos_site_id
 _symmetry_equiv_pos_as_xyz
  1  'x, y, z'
loop_
 _atom_site_type_symbol
 _atom_site_label
 _atom_site_symmetry_multiplicity
 _atom_site_fract_x
 _atom_site_fract_y
 _atom_site_fract_z
 _atom_site_occupancy
  Dy  Dy0  1  0.27773000  0.04940000  0.02260000  1.0
  Dy  Dy1  1  0.72227000  0.95060000  0.97741000  1.0
  Co  Co2  1  0.50000000  0.50000000  0.50000000  1.0
  H  H3  1  0.19226000  0.92160000  0.36377000  1.0
  H  H4  1  0.80774000  0.07841000  0.63623000  1.0
  H  H5  1  0.03722000  0.72220000  0.83678000  1.0
  H  H6  1  0.96278000  0.27780000  0.16322000  1.0
  H  H7  1  0.73063000  0.41111000  0.37172000  1.0
  H  H8  1  0.26937000  0.58889000  0.62828000  1.0
  H  H9  1  0.45254000  0.17986000  0.65277000  1.0
  H  H10  1  0.54746000  0.82014000  0.34724000  1.0
  H  H11  1  0.38434000  0.41897000  0.73605000  1.0
  H  H12  1  0.61566000  0.58102000  0.26395000  1.0
  H  H13  1  0.00722000  0.81708000  0.67206000  1.0
  H  H14  1  0.99278000  0.18291000  0.32795000  1.0
  H  H15  1  0.81282000  0.26285000  0.83473000  1.0
  H  H16  1  0.18718000  0.73715000  0.16527000  1.0
  H  H17  1  0.05600000  0.60948000  0.38598000  1.0
  H  H18  1  0.94400000  0.39052000  0.61402000  1.0
  H  H19  1  0.31736000  0.48898000  0.94018000  1.0
  H  H20  1  0.68264000  0.51101000  0.05982000  1.0
  H  H21  1  0.60163000  0.39519000  0.89731000  1.0
  H  H22  1  0.39837000  0.60481000  0.10269000  1.0
  H  H23  1  0.32584000  0.18450000  0.24343000  1.0
  H  H24  1  0.67415000  0.81550000  0.75657000  1.0
  H  H25  1  0.29752000  0.27774000  0.15148000  1.0
  H  H26  1  0.70247000  0.72226000  0.84852000  1.0
  H  H27  1  0.46703000  0.93215000  0.17047000  1.0
  H  H28  1  0.53297000  0.06785000  0.82953000  1.0
  H  H29  1  0.40921000  0.02462000  0.24712000  1.0
  H  H30  1  0.59079000  0.97538000  0.75288000  1.0
  C  C31  1  0.44537000  0.17692000  0.43837000  1.0
  C  C32  1  0.55463000  0.82308000  0.56163000  1.0
  C  C33  1  0.20648000  0.94185000  0.45148000  1.0
  C  C34  1  0.79352000  0.05816000  0.54852000  1.0
  C  C35  1  0.34101000  0.75302000  0.92886000  1.0
  C  C36  1  0.65899000  0.24698000  0.07114000  1.0
  C  C37  1  0.04695000  0.62162000  0.84836000  1.0
  C  C38  1  0.95305000  0.37838000  0.15164000  1.0
  C  C39  1  0.79189000  0.51929000  0.40566000  1.0
  C  C40  1  0.20811000  0.48071000  0.59434000  1.0
  C  C41  1  0.35102000  0.08684000  0.61469000  1.0
  C  C42  1  0.64898000  0.91316000  0.38531000  1.0
  C  C43  1  0.09219000  0.85452000  0.51484000  1.0
  C  C44  1  0.90781000  0.14549000  0.48516000  1.0
  C  C45  1  0.33505000  0.06191000  0.50224000  1.0
  C  C46  1  0.66495000  0.93809000  0.49776000  1.0
  C  C47  1  0.51161000  0.44796000  0.73662000  1.0
  C  C48  1  0.48839000  0.55204000  0.26338000  1.0
  C  C49  1  0.10188000  0.88361000  0.62574000  1.0
  C  C50  1  0.89813000  0.11639000  0.37426000  1.0
  C  C51  1  0.24768000  0.02802000  0.79579000  1.0
  C  C52  1  0.75232000  0.97198000  0.20422000  1.0
  C  C53  1  0.06604000  0.36322000  0.89320000  1.0
  C  C54  1  0.93396000  0.63678000  0.10680000  1.0
  C  C55  1  0.07640000  0.22978000  0.93122000  1.0
  C  C56  1  0.92359000  0.77022000  0.06877000  1.0
  C  C57  1  0.91956000  0.36302000  0.84903000  1.0
  C  C58  1  0.08044000  0.63698000  0.15097000  1.0
  C  C59  1  0.91356000  0.49203000  0.82468000  1.0
  C  C60  1  0.08644000  0.50797000  0.17532000  1.0
  C  C61  1  0.94996000  0.61572000  0.41198000  1.0
  C  C62  1  0.05004000  0.38428000  0.58802000  1.0
  C  C63  1  0.20304000  0.49067000  0.90886000  1.0
  C  C64  1  0.79696000  0.50934000  0.09114000  1.0
  C  C65  1  0.23484000  0.99950000  0.67646000  1.0
  C  C66  1  0.76516000  0.00050000  0.32354000  1.0
  C  C67  1  0.19377000  0.62001000  0.89094000  1.0
  C  C68  1  0.80623000  0.37999000  0.10906000  1.0
  C  C69  1  0.61893000  0.43727000  0.81796000  1.0
  C  C70  1  0.38108000  0.56273000  0.18204000  1.0
  N  N71  1  0.76229000  0.48799000  0.77651000  1.0
  N  N72  1  0.23772000  0.51201000  0.22349000  1.0
  N  N73  1  0.59347000  0.50162000  0.64995000  1.0
  N  N74  1  0.40653000  0.49838000  0.35005000  1.0
  N  N75  1  0.95586000  0.73180000  0.46855000  1.0
  N  N76  1  0.04414000  0.26820000  0.53145000  1.0
  N  N77  1  0.81082000  0.71135000  0.49640000  1.0
  N  N78  1  0.18918000  0.28865000  0.50360000  1.0
  N  N79  1  0.74690000  0.52647000  0.67401000  1.0
  N  N80  1  0.25310000  0.47354000  0.32599000  1.0
  N  N81  1  0.71254000  0.58246000  0.45880000  1.0
  N  N82  1  0.28746000  0.41754000  0.54120000  1.0
  O  O83  1  0.47650000  0.74652000  0.93194000  1.0
  O  O84  1  0.52350000  0.25348000  0.06806000  1.0
  O  O85  1  0.32316000  0.86141000  0.96074000  1.0
  O  O86  1  0.67685000  0.13859000  0.03927000  1.0
  O  O87  1  0.53005000  0.29436000  0.48993000  1.0
  O  O88  1  0.46995000  0.70564000  0.51007000  1.0
  O  O89  1  0.21510000  0.23877000  0.96729000  1.0
  O  O90  1  0.78490000  0.76123000  0.03271000  1.0
  O  O91  1  0.12564000  0.96713000  0.84497000  1.0
  O  O92  1  0.87436000  0.03286000  0.15503000  1.0
  O  O93  1  0.44455000  0.15299000  0.33706000  1.0
  O  O94  1  0.55544000  0.84702000  0.66294000  1.0
  O  O95  1  0.38405000  0.11225000  0.84757000  1.0
  O  O96  1  0.61595000  0.88774000  0.15243000  1.0
  O  O97  1  0.25186000  0.18261000  0.17752000  1.0
  O  O98  1  0.74814000  0.81739000  0.82248000  1.0
  O  O99  1  0.37938000  0.96412000  0.17795000  1.0
  O  O100  1  0.62062000  0.03588000  0.82205000  1.0
  O  O101  1  0.94787000  0.11852000  0.92775000  1.0
  O  O102  1  0.05213000  0.88148000  0.07225000  1.0
