# generated using pymatgen
data_NiH18C16(NO2)4
_symmetry_space_group_name_H-M   'P 1'
_cell_length_a   7.56038000
_cell_length_b   7.85123000
_cell_length_c   8.80260000
_cell_angle_alpha   112.31800000
_cell_angle_beta   97.83090000
_cell_angle_gamma   105.65900000
_symmetry_Int_Tables_number   1
_chemical_formula_structural   NiH18C16(NO2)4
_chemical_formula_sum   'Ni1 H18 C16 N4 O8'
_cell_volume   448.39687900
_cell_formula_units_Z   1
loop_
 _symmetry_equiv_pos_site_id
 _symmetry_equiv_pos_as_xyz
  1  'x, y, z'
loop_
 _atom_site_type_symbol
 _atom_site_label
 _atom_site_symmetry_multiplicity
 _atom_site_fract_x
 _atom_site_fract_y
 _atom_site_fract_z
 _atom_site_occupancy
  Ni  Ni0  1  0.50000000  0.00000000  0.00000000  1.0
  H  H1  1  0.71929000  0.73028000  0.12243000  1.0
  H  H2  1  0.28071000  0.26972000  0.87756000  1.0
  H  H3  1  0.82202000  0.78137000  0.99458000  1.0
  H  H4  1  0.17799000  0.21862000  0.00542000  1.0
  H  H5  1  0.98131000  0.00005000  0.35685000  1.0
  H  H6  1  0.01869000  0.99996000  0.64316000  1.0
  H  H7  1  0.02818000  0.16852000  0.26909000  1.0
  H  H8  1  0.97182000  0.83148000  0.73091000  1.0
  H  H9  1  0.20044000  0.53074000  0.09802000  1.0
  H  H10  1  0.79955000  0.46926000  0.90198000  1.0
  H  H11  1  0.37774000  0.57555000  0.82463000  1.0
  H  H12  1  0.62225000  0.42445000  0.17537000  1.0
  H  H13  1  0.16532000  0.43868000  0.29500000  1.0
  H  H14  1  0.83468000  0.56131000  0.70499000  1.0
  H  H15  1  0.42793000  0.03354000  0.68828000  1.0
  H  H16  1  0.57209000  0.96647000  0.31172000  1.0
  H  H17  1  0.28653000  0.79999000  0.37952000  1.0
  H  H18  1  0.71348000  0.20001000  0.62048000  1.0
  C  C19  1  0.09034000  0.56306000  0.03219000  1.0
  C  C20  1  0.90967000  0.43694000  0.96781000  1.0
  C  C21  1  0.15792000  0.74258000  0.00473000  1.0
  C  C22  1  0.84208000  0.25742000  0.99527000  1.0
  C  C23  1  0.25674000  0.47824000  0.55504000  1.0
  C  C24  1  0.74325000  0.52176000  0.44496000  1.0
  C  C25  1  0.34965000  0.61840000  0.72273000  1.0
  C  C26  1  0.65034000  0.38160000  0.27727000  1.0
  C  C27  1  0.23591000  0.54270000  0.42784000  1.0
  C  C28  1  0.76409000  0.45731000  0.57217000  1.0
  C  C29  1  0.17087000  0.26822000  0.52460000  1.0
  C  C30  1  0.82912000  0.73178000  0.47540000  1.0
  C  C31  1  0.38333000  0.87532000  0.64490000  1.0
  C  C32  1  0.61668000  0.12468000  0.35509000  1.0
  C  C33  1  0.30267000  0.74372000  0.47415000  1.0
  C  C34  1  0.69734000  0.25628000  0.52585000  1.0
  N  N35  1  0.40716000  0.81309000  0.76726000  1.0
  N  N36  1  0.59285000  0.18691000  0.23274000  1.0
  N  N37  1  0.06301000  0.13510000  0.36834000  1.0
  N  N38  1  0.93699000  0.86490000  0.63167000  1.0
  O  O39  1  0.34228000  0.82598000  0.06201000  1.0
  O  O40  1  0.65773000  0.17403000  0.93799000  1.0
  O  O41  1  0.04742000  0.79741000  0.92977000  1.0
  O  O42  1  0.95258000  0.20259000  0.07023000  1.0
  O  O43  1  0.69599000  0.74372000  0.01602000  1.0
  O  O44  1  0.30401000  0.25628000  0.98398000  1.0
  O  O45  1  0.19500000  0.22234000  0.64634000  1.0
  O  O46  1  0.80497000  0.77768000  0.35367000  1.0
