# generated using pymatgen
data_TmH27C21NO8
_symmetry_space_group_name_H-M   'P 1'
_cell_length_a   9.89765000
_cell_length_b   12.40040000
_cell_length_c   12.74970000
_cell_angle_alpha   74.13690000
_cell_angle_beta   79.23660000
_cell_angle_gamma   78.36120000
_symmetry_Int_Tables_number   1
_chemical_formula_structural   TmH27C21NO8
_chemical_formula_sum   'Tm2 H54 C42 N2 O16'
_cell_volume   1459.83450199
_cell_formula_units_Z   2
loop_
 _symmetry_equiv_pos_site_id
 _symmetry_equiv_pos_as_xyz
  1  'x, y, z'
loop_
 _atom_site_type_symbol
 _atom_site_label
 _atom_site_symmetry_multiplicity
 _atom_site_fract_x
 _atom_site_fract_y
 _atom_site_fract_z
 _atom_site_occupancy
  Tm  Tm0  1  0.53190000  0.63377000  0.37254000  1.0
  Tm  Tm1  1  0.46810000  0.36623000  0.62746000  1.0
  H  H2  1  0.56814000  0.52399000  0.20537000  1.0
  H  H3  1  0.58719000  0.40397000  0.30025000  1.0
  H  H4  1  0.16659000  0.99137000  0.44948000  1.0
  H  H5  1  0.28296000  0.88785000  0.39061000  1.0
  H  H6  1  0.22257000  0.85584000  0.53420000  1.0
  H  H7  1  0.69497000  0.87553000  0.71207000  1.0
  H  H8  1  0.65817000  0.75945000  0.67303000  1.0
  H  H9  1  0.80042000  0.82866000  0.60001000  1.0
  H  H10  1  0.17104000  0.39397000  0.27399000  1.0
  H  H11  1  0.19619000  0.53738000  0.24077000  1.0
  H  H12  1  0.30256000  0.43304000  0.32731000  1.0
  H  H13  1  0.08517000  0.57007000  0.72324000  1.0
  H  H14  1  0.17778000  0.65226000  0.60759000  1.0
  H  H15  1  0.99919000  0.69958000  0.64777000  1.0
  H  H16  1  0.20793000  0.03458000  0.19782000  1.0
  H  H17  1  0.16058000  0.96402000  0.11029000  1.0
  H  H18  1  0.25951000  0.88595000  0.21713000  1.0
  H  H19  1  0.84824000  0.86887000  0.99201000  1.0
  H  H20  1  0.76297000  0.80224000  0.12216000  1.0
  H  H21  1  0.75088000  0.75955000  0.00417000  1.0
  H  H22  1  0.73448000  0.78854000  0.42475000  1.0
  H  H23  1  0.01381000  0.81286000  0.15211000  1.0
  H  H24  1  0.11465000  0.71703000  0.25217000  1.0
  H  H25  1  0.96998000  0.67412000  0.21514000  1.0
  H  H26  1  0.88122000  0.89594000  0.42132000  1.0
  H  H27  1  0.05997000  0.83257000  0.39203000  1.0
  H  H28  1  0.98014000  0.94500000  0.29079000  1.0
  H  H29  1  0.43183000  0.47598000  0.79464000  1.0
  H  H30  1  0.41282000  0.59603000  0.69977000  1.0
  H  H31  1  0.83340000  0.00863000  0.55054000  1.0
  H  H32  1  0.71704000  0.11217000  0.60938000  1.0
  H  H33  1  0.77746000  0.14415000  0.46579000  1.0
  H  H34  1  0.30501000  0.12447000  0.28796000  1.0
  H  H35  1  0.34182000  0.24055000  0.32697000  1.0
  H  H36  1  0.19958000  0.17133000  0.40001000  1.0
  H  H37  1  0.82897000  0.60601000  0.72601000  1.0
  H  H38  1  0.80383000  0.46260000  0.75921000  1.0
  H  H39  1  0.69745000  0.56695000  0.67270000  1.0
  H  H40  1  0.91483000  0.42993000  0.27673000  1.0
  H  H41  1  0.82221000  0.34773000  0.39240000  1.0
  H  H42  1  0.00081000  0.30041000  0.35222000  1.0
  H  H43  1  0.79208000  0.96543000  0.80216000  1.0
  H  H44  1  0.83941000  0.03599000  0.88969000  1.0
  H  H45  1  0.74050000  0.11406000  0.78285000  1.0
  H  H46  1  0.15176000  0.13114000  0.00798000  1.0
  H  H47  1  0.23702000  0.19778000  0.87783000  1.0
  H  H48  1  0.24912000  0.24045000  0.99583000  1.0
  H  H49  1  0.26553000  0.21150000  0.57526000  1.0
  H  H50  1  0.98617000  0.18714000  0.84790000  1.0
  H  H51  1  0.88534000  0.28296000  0.74784000  1.0
  H  H52  1  0.02999000  0.32588000  0.78487000  1.0
  H  H53  1  0.11883000  0.10406000  0.57870000  1.0
  H  H54  1  0.94006000  0.16742000  0.60796000  1.0
  H  H55  1  0.01988000  0.05500000  0.70922000  1.0
  C  C56  1  0.46055000  0.76573000  0.58425000  1.0
  C  C57  1  0.47758000  0.88922000  0.54614000  1.0
  C  C58  1  0.38036000  0.96446000  0.48246000  1.0
  C  C59  1  0.25611000  0.92311000  0.46353000  1.0
  C  C60  1  0.59583000  0.92333000  0.56563000  1.0
  C  C61  1  0.69228000  0.84233000  0.64095000  1.0
  C  C62  1  0.26434000  0.57721000  0.44690000  1.0
  C  C63  1  0.12559000  0.53863000  0.47480000  1.0
  C  C64  1  0.09323000  0.47866000  0.40620000  1.0
  C  C65  1  0.19560000  0.45915000  0.30723000  1.0
  C  C66  1  0.03560000  0.56078000  0.56820000  1.0
  C  C67  1  0.07672000  0.62404000  0.63971000  1.0
  C  C68  1  0.50534000  0.80963000  0.18999000  1.0
  C  C69  1  0.50068000  0.90760000  0.09035000  1.0
  C  C70  1  0.37678000  0.98532000  0.07582000  1.0
  C  C71  1  0.24501000  0.96616000  0.15459000  1.0
  C  C72  1  0.62375000  0.92050000  0.01564000  1.0
  C  C73  1  0.75353000  0.83418000  0.03430000  1.0
  C  C74  1  0.79629000  0.74973000  0.35918000  1.0
  C  C75  1  0.00979000  0.74478000  0.22827000  1.0
  C  C76  1  0.96217000  0.86974000  0.35784000  1.0
  C  C77  1  0.53945000  0.23426000  0.41576000  1.0
  C  C78  1  0.52242000  0.11079000  0.45387000  1.0
  C  C79  1  0.61965000  0.03554000  0.51755000  1.0
  C  C80  1  0.74390000  0.07689000  0.53648000  1.0
  C  C81  1  0.40417000  0.07667000  0.43439000  1.0
  C  C82  1  0.30773000  0.15766000  0.35907000  1.0
  C  C83  1  0.73565000  0.42279000  0.55310000  1.0
  C  C84  1  0.87440000  0.46137000  0.52519000  1.0
  C  C85  1  0.90676000  0.52133000  0.59379000  1.0
  C  C86  1  0.80439000  0.54084000  0.69277000  1.0
  C  C87  1  0.96439000  0.43922000  0.43178000  1.0
  C  C88  1  0.92327000  0.37596000  0.36028000  1.0
  C  C89  1  0.49465000  0.19038000  0.81000000  1.0
  C  C90  1  0.49932000  0.09239000  0.90963000  1.0
  C  C91  1  0.62322000  0.01468000  0.92415000  1.0
  C  C92  1  0.75498000  0.03385000  0.84539000  1.0
  C  C93  1  0.37624000  0.07950000  0.98433000  1.0
  C  C94  1  0.24647000  0.16583000  0.96567000  1.0
  C  C95  1  0.20370000  0.25029000  0.64085000  1.0
  C  C96  1  0.99019000  0.25522000  0.77174000  1.0
  C  C97  1  0.03787000  0.13026000  0.64216000  1.0
  N  N98  1  0.91674000  0.78671000  0.31636000  1.0
  N  N99  1  0.08326000  0.21328000  0.68365000  1.0
  O  O100  1  0.51485000  0.70590000  0.51458000  1.0
  O  O101  1  0.39727000  0.72611000  0.67805000  1.0
  O  O102  1  0.28730000  0.66258000  0.36797000  1.0
  O  O103  1  0.36375000  0.52150000  0.50151000  1.0
  O  O104  1  0.48981000  0.82888000  0.28537000  1.0
  O  O105  1  0.52868000  0.70725000  0.18007000  1.0
  O  O106  1  0.75240000  0.67658000  0.32807000  1.0
  O  O107  1  0.57263000  0.49160000  0.28350000  1.0
  O  O108  1  0.48514000  0.29410000  0.48542000  1.0
  O  O109  1  0.60274000  0.27388000  0.32195000  1.0
  O  O110  1  0.71270000  0.33742000  0.63202000  1.0
  O  O111  1  0.63623000  0.47851000  0.49849000  1.0
  O  O112  1  0.51016000  0.17114000  0.71462000  1.0
  O  O113  1  0.47134000  0.29276000  0.81994000  1.0
  O  O114  1  0.24759000  0.32342000  0.67196000  1.0
  O  O115  1  0.42739000  0.50839000  0.71651000  1.0
