# generated using pymatgen
data_Ag2H5C5SNCl2
_symmetry_space_group_name_H-M   'P 1'
_cell_length_a   4.21301000
_cell_length_b   10.41410000
_cell_length_c   18.94300000
_cell_angle_alpha   90.00000000
_cell_angle_beta   92.29400000
_cell_angle_gamma   90.00000000
_symmetry_Int_Tables_number   1
_chemical_formula_structural   Ag2H5C5SNCl2
_chemical_formula_sum   'Ag8 H20 C20 S4 N4 Cl8'
_cell_volume   830.45251816
_cell_formula_units_Z   4
loop_
 _symmetry_equiv_pos_site_id
 _symmetry_equiv_pos_as_xyz
  1  'x, y, z'
loop_
 _atom_site_type_symbol
 _atom_site_label
 _atom_site_symmetry_multiplicity
 _atom_site_fract_x
 _atom_site_fract_y
 _atom_site_fract_z
 _atom_site_occupancy
  Ag  Ag0  1  0.22392000  0.14951000  0.47825000  1.0
  Ag  Ag1  1  0.77609000  0.64951000  0.02175000  1.0
  Ag  Ag2  1  0.77608000  0.85049000  0.52175000  1.0
  Ag  Ag3  1  0.22392000  0.35049000  0.97825000  1.0
  Ag  Ag4  1  0.75952000  0.36701000  0.45801000  1.0
  Ag  Ag5  1  0.24049000  0.86701000  0.04199000  1.0
  Ag  Ag6  1  0.24049000  0.63299000  0.54199000  1.0
  Ag  Ag7  1  0.75952000  0.13299000  0.95801000  1.0
  H  H8  1  0.66721000  0.24522000  0.80608000  1.0
  H  H9  1  0.33279000  0.74522000  0.69391000  1.0
  H  H10  1  0.33279000  0.75478000  0.19391000  1.0
  H  H11  1  0.66721000  0.25478000  0.30609000  1.0
  H  H12  1  0.27857000  0.47001000  0.68598000  1.0
  H  H13  1  0.72144000  0.97001000  0.81402000  1.0
  H  H14  1  0.72143000  0.52999000  0.31402000  1.0
  H  H15  1  0.27857000  0.02999000  0.18598000  1.0
  H  H16  1  0.03497000  0.41553000  0.80281000  1.0
  H  H17  1  0.96504000  0.91553000  0.69719000  1.0
  H  H18  1  0.96503000  0.58447000  0.19719000  1.0
  H  H19  1  0.03497000  0.08447000  0.30281000  1.0
  H  H20  1  0.51518000  0.11612000  0.71146000  1.0
  H  H21  1  0.48482000  0.61612000  0.78854000  1.0
  H  H22  1  0.48482000  0.88387000  0.28854000  1.0
  H  H23  1  0.51517000  0.38388000  0.21146000  1.0
  H  H24  1  0.73888000  0.15385000  0.59308000  1.0
  H  H25  1  0.26113000  0.65385000  0.90692000  1.0
  H  H26  1  0.26113000  0.84615000  0.40692000  1.0
  H  H27  1  0.73888000  0.34615000  0.09308000  1.0
  C  C28  1  0.11048000  0.39118000  0.69005000  1.0
  C  C29  1  0.88953000  0.89118000  0.80995000  1.0
  C  C30  1  0.88952000  0.60882000  0.30995000  1.0
  C  C31  1  0.11048000  0.10882000  0.19005000  1.0
  C  C32  1  0.98222000  0.36313000  0.75398000  1.0
  C  C33  1  0.01779000  0.86314000  0.74602000  1.0
  C  C34  1  0.01778000  0.63686000  0.24601000  1.0
  C  C35  1  0.98222000  0.13687000  0.25398000  1.0
  C  C36  1  0.02389000  0.31789000  0.62941000  1.0
  C  C37  1  0.97612000  0.81789000  0.87060000  1.0
  C  C38  1  0.97611000  0.68211000  0.37059000  1.0
  C  C39  1  0.02389000  0.18211000  0.12941000  1.0
  C  C40  1  0.68717000  0.19173000  0.70242000  1.0
  C  C41  1  0.31283000  0.69173000  0.79757000  1.0
  C  C42  1  0.31281000  0.80827000  0.29757000  1.0
  C  C43  1  0.68717000  0.30827000  0.20243000  1.0
  C  C44  1  0.81026000  0.21489000  0.63747000  1.0
  C  C45  1  0.18975000  0.71489000  0.86253000  1.0
  C  C46  1  0.18974000  0.78511000  0.36253000  1.0
  C  C47  1  0.81025000  0.28511000  0.13747000  1.0
  S  S48  1  0.18454000  0.35517000  0.54915000  1.0
  S  S49  1  0.81546000  0.85517000  0.95085000  1.0
  S  S50  1  0.81546000  0.64483000  0.45085000  1.0
  S  S51  1  0.18454000  0.14483000  0.04915000  1.0
  N  N52  1  0.77231000  0.26572000  0.75870000  1.0
  N  N53  1  0.22769000  0.76572000  0.74130000  1.0
  N  N54  1  0.22768000  0.73428000  0.24130000  1.0
  N  N55  1  0.77231000  0.23428000  0.25870000  1.0
  Cl  Cl56  1  0.29418000  0.95809000  0.58232000  1.0
  Cl  Cl57  1  0.70582000  0.45809000  0.91768000  1.0
  Cl  Cl58  1  0.70582000  0.04191000  0.41768000  1.0
  Cl  Cl59  1  0.29418000  0.54191000  0.08232000  1.0
  Cl  Cl60  1  0.33577000  0.36230000  0.36525000  1.0
  Cl  Cl61  1  0.66423000  0.86230000  0.13475000  1.0
  Cl  Cl62  1  0.66423000  0.63770000  0.63475000  1.0
  Cl  Cl63  1  0.33577000  0.13770000  0.86525000  1.0
