# generated using pymatgen
data_ZnH14C17N8
_symmetry_space_group_name_H-M   'P 1'
_cell_length_a   9.23512000
_cell_length_b   9.73870000
_cell_length_c   12.06540000
_cell_angle_alpha   98.39080000
_cell_angle_beta   107.13000000
_cell_angle_gamma   116.29900000
_symmetry_Int_Tables_number   1
_chemical_formula_structural   ZnH14C17N8
_chemical_formula_sum   'Zn2 H28 C34 N16'
_cell_volume   879.94517562
_cell_formula_units_Z   2
loop_
 _symmetry_equiv_pos_site_id
 _symmetry_equiv_pos_as_xyz
  1  'x, y, z'
loop_
 _atom_site_type_symbol
 _atom_site_label
 _atom_site_symmetry_multiplicity
 _atom_site_fract_x
 _atom_site_fract_y
 _atom_site_fract_z
 _atom_site_occupancy
  Zn  Zn0  1  0.50038000  0.00000000  0.00019000  1.0
  Zn  Zn1  1  0.50002000  0.50006000  0.50002000  1.0
  H  H2  1  0.01957000  0.66083000  0.37763000  1.0
  H  H3  1  0.20731000  0.47786000  0.69735000  1.0
  H  H4  1  0.98112000  0.33901000  0.62170000  1.0
  H  H5  1  0.79322000  0.52208000  0.30280000  1.0
  H  H6  1  0.79861000  0.48264000  0.10216000  1.0
  H  H7  1  0.21216000  0.24411000  0.66132000  1.0
  H  H8  1  0.20033000  0.51840000  0.89709000  1.0
  H  H9  1  0.78850000  0.75581000  0.33959000  1.0
  H  H10  1  0.95446000  0.45043000  0.20184000  1.0
  H  H11  1  0.22386000  0.27027000  0.81089000  1.0
  H  H12  1  0.04351000  0.54872000  0.79648000  1.0
  H  H13  1  0.77571000  0.72991000  0.18976000  1.0
  H  H14  1  0.28561000  0.65711000  0.27613000  1.0
  H  H15  1  0.11639000  0.99243000  0.79969000  1.0
  H  H16  1  0.71325000  0.34177000  0.72325000  1.0
  H  H17  1  0.88409000  0.00730000  0.19999000  1.0
  H  H18  1  0.50383000  0.84102000  0.20522000  1.0
  H  H19  1  0.86606000  0.70465000  0.71016000  1.0
  H  H20  1  0.49578000  0.15790000  0.79472000  1.0
  H  H21  1  0.13431000  0.29511000  0.28946000  1.0
  H  H22  1  0.12117000  0.87857000  0.95206000  1.0
  H  H23  1  0.56493000  0.81294000  0.45095000  1.0
  H  H24  1  0.87995000  0.12253000  0.04831000  1.0
  H  H25  1  0.43480000  0.18743000  0.54971000  1.0
  H  H26  1  0.88506000  0.69255000  0.00923000  1.0
  H  H27  1  0.80131000  0.10131000  0.52455000  1.0
  H  H28  1  0.11540000  0.30865000  0.99066000  1.0
  H  H29  1  0.19830000  0.89905000  0.47624000  1.0
  C  C30  1  0.90386000  0.61987000  0.29309000  1.0
  C  C31  1  0.09622000  0.38004000  0.70663000  1.0
  C  C32  1  0.92567000  0.54445000  0.18229000  1.0
  C  C33  1  0.13568000  0.24393000  0.71644000  1.0
  C  C34  1  0.07332000  0.45552000  0.81682000  1.0
  C  C35  1  0.86440000  0.75611000  0.28399000  1.0
  C  C36  1  0.06565000  0.66047000  0.14903000  1.0
  C  C37  1  0.98057000  0.07379000  0.67128000  1.0
  C  C38  1  0.93390000  0.33949000  0.85047000  1.0
  C  C39  1  0.01947000  0.92627000  0.32899000  1.0
  C  C40  1  0.24340000  0.70534000  0.20501000  1.0
  C  C41  1  0.99520000  0.95803000  0.72288000  1.0
  C  C42  1  0.75594000  0.29392000  0.79450000  1.0
  C  C43  1  0.00508000  0.04186000  0.27706000  1.0
  C  C44  1  0.36551000  0.80736000  0.16603000  1.0
  C  C45  1  0.85682000  0.79805000  0.67375000  1.0
  C  C46  1  0.63427000  0.19204000  0.83385000  1.0
  C  C47  1  0.14345000  0.20186000  0.32613000  1.0
  C  C48  1  0.15166000  0.82765000  0.02413000  1.0
  C  C49  1  0.68923000  0.85817000  0.52865000  1.0
  C  C50  1  0.84900000  0.17300000  0.97601000  1.0
  C  C51  1  0.31066000  0.14207000  0.47181000  1.0
  C  C52  1  0.02174000  0.72543000  0.05707000  1.0
  C  C53  1  0.82205000  0.01989000  0.57147000  1.0
  C  C54  1  0.97853000  0.27522000  0.94275000  1.0
  C  C55  1  0.17783000  0.98037000  0.42907000  1.0
  C  C56  1  0.72717000  0.20673000  0.28549000  1.0
  C  C57  1  0.54820000  0.54111000  0.78407000  1.0
  C  C58  1  0.27299000  0.79314000  0.71472000  1.0
  C  C59  1  0.45183000  0.45878000  0.21597000  1.0
  C  C60  1  0.41585000  0.28138000  0.04857000  1.0
  C  C61  1  0.27241000  0.65036000  0.54466000  1.0
  C  C62  1  0.58454000  0.71862000  0.95158000  1.0
  C  C63  1  0.72737000  0.34950000  0.45540000  1.0
  N  N64  1  0.32102000  0.86745000  0.07657000  1.0
  N  N65  1  0.70504000  0.74790000  0.57817000  1.0
  N  N66  1  0.67943000  0.13259000  0.92360000  1.0
  N  N67  1  0.29502000  0.25216000  0.42195000  1.0
  N  N68  1  0.69835000  0.15509000  0.18177000  1.0
  N  N69  1  0.52591000  0.48691000  0.68248000  1.0
  N  N70  1  0.30236000  0.84499000  0.81853000  1.0
  N  N71  1  0.47421000  0.51315000  0.31757000  1.0
  N  N72  1  0.39911000  0.16319000  0.98962000  1.0
  N  N73  1  0.30166000  0.56693000  0.48482000  1.0
  N  N74  1  0.60171000  0.83693000  0.01074000  1.0
  N  N75  1  0.69840000  0.43319000  0.51526000  1.0
  N  N76  1  0.76746000  0.25533000  0.40155000  1.0
  N  N77  1  0.57083000  0.58615000  0.89712000  1.0
  N  N78  1  0.23198000  0.74419000  0.59856000  1.0
  N  N79  1  0.42900000  0.41362000  0.10290000  1.0
