# generated using pymatgen
data_HgH8C11IBr2N3O
_symmetry_space_group_name_H-M   'P 1'
_cell_length_a   7.84631000
_cell_length_b   7.85564000
_cell_length_c   13.65990000
_cell_angle_alpha   100.19700000
_cell_angle_beta   93.38430000
_cell_angle_gamma   114.14800000
_symmetry_Int_Tables_number   1
_chemical_formula_structural   HgH8C11IBr2N3O
_chemical_formula_sum   'Hg2 H16 C22 I2 Br4 N6 O2'
_cell_volume   748.00749060
_cell_formula_units_Z   2
loop_
 _symmetry_equiv_pos_site_id
 _symmetry_equiv_pos_as_xyz
  1  'x, y, z'
loop_
 _atom_site_type_symbol
 _atom_site_label
 _atom_site_symmetry_multiplicity
 _atom_site_fract_x
 _atom_site_fract_y
 _atom_site_fract_z
 _atom_site_occupancy
  Hg  Hg0  1  0.73637000  0.98240000  0.48400000  1.0
  Hg  Hg1  1  0.26363000  0.01761000  0.51600000  1.0
  H  H2  1  0.36495000  0.26468000  0.23487000  1.0
  H  H3  1  0.63506000  0.73533000  0.76514000  1.0
  H  H4  1  0.42883000  0.52691000  0.38767000  1.0
  H  H5  1  0.57119000  0.47311000  0.61234000  1.0
  H  H6  1  0.82491000  0.91643000  0.25191000  1.0
  H  H7  1  0.17511000  0.08357000  0.74809000  1.0
  H  H8  1  0.81681000  0.17637000  0.71130000  1.0
  H  H9  1  0.18319000  0.82363000  0.28870000  1.0
  H  H10  1  0.03509000  0.47024000  0.66001000  1.0
  H  H11  1  0.96490000  0.52975000  0.33999000  1.0
  H  H12  1  0.13110000  0.78923000  0.77491000  1.0
  H  H13  1  0.86890000  0.21076000  0.22510000  1.0
  H  H14  1  0.99844000  0.81685000  0.93358000  1.0
  H  H15  1  0.00155000  0.18315000  0.06642000  1.0
  H  H16  1  0.66943000  0.39370000  0.01900000  1.0
  H  H17  1  0.33057000  0.60629000  0.98100000  1.0
  C  C18  1  0.46763000  0.41077000  0.23805000  1.0
  C  C19  1  0.53237000  0.58924000  0.76196000  1.0
  C  C20  1  0.50323000  0.55521000  0.32322000  1.0
  C  C21  1  0.49678000  0.44479000  0.67678000  1.0
  C  C22  1  0.71969000  0.77177000  0.24838000  1.0
  C  C23  1  0.28032000  0.22823000  0.75163000  1.0
  C  C24  1  0.68208000  0.62619000  0.16349000  1.0
  C  C25  1  0.31792000  0.37381000  0.83651000  1.0
  C  C26  1  0.78632000  0.67759000  0.07637000  1.0
  C  C27  1  0.21367000  0.32240000  0.92363000  1.0
  C  C28  1  0.83417000  0.51245000  0.91419000  1.0
  C  C29  1  0.16582000  0.48755000  0.08581000  1.0
  C  C30  1  0.78488000  0.33223000  0.84977000  1.0
  C  C31  1  0.21512000  0.66777000  0.15023000  1.0
  C  C32  1  0.85645000  0.31732000  0.75917000  1.0
  C  C33  1  0.14354000  0.68267000  0.24082000  1.0
  C  C34  1  0.98014000  0.48178000  0.73118000  1.0
  C  C35  1  0.01986000  0.51821000  0.26881000  1.0
  C  C36  1  0.03198000  0.66018000  0.79502000  1.0
  C  C37  1  0.96801000  0.33981000  0.20498000  1.0
  C  C38  1  0.95971000  0.67706000  0.88515000  1.0
  C  C39  1  0.04029000  0.32293000  0.11485000  1.0
  I  I40  1  0.60345000  0.07855000  0.88965000  1.0
  I  I41  1  0.39655000  0.92145000  0.11034000  1.0
  Br  Br42  1  0.87990000  0.83029000  0.59388000  1.0
  Br  Br43  1  0.12011000  0.16974000  0.40613000  1.0
  Br  Br44  1  0.64929000  0.24316000  0.44544000  1.0
  Br  Br45  1  0.35070000  0.75684000  0.55456000  1.0
  N  N46  1  0.55861000  0.44518000  0.15881000  1.0
  N  N47  1  0.44138000  0.55482000  0.84119000  1.0
  N  N48  1  0.63171000  0.73436000  0.32814000  1.0
  N  N49  1  0.36830000  0.26564000  0.67186000  1.0
  N  N50  1  0.75773000  0.52129000  0.00357000  1.0
  N  N51  1  0.24226000  0.47871000  0.99642000  1.0
  O  O52  1  0.88565000  0.84668000  0.07603000  1.0
  O  O53  1  0.11433000  0.15332000  0.92396000  1.0
