# generated using pymatgen
data_AgH4C7SN2
_symmetry_space_group_name_H-M   'P 1'
_cell_length_a   4.06588000
_cell_length_b   8.85450000
_cell_length_c   20.54040000
_cell_angle_alpha   89.99990000
_cell_angle_beta   89.99990000
_cell_angle_gamma   97.22770000
_symmetry_Int_Tables_number   1
_chemical_formula_structural   AgH4C7SN2
_chemical_formula_sum   'Ag4 H16 C28 S4 N8'
_cell_volume   733.60588214
_cell_formula_units_Z   4
loop_
 _symmetry_equiv_pos_site_id
 _symmetry_equiv_pos_as_xyz
  1  'x, y, z'
loop_
 _atom_site_type_symbol
 _atom_site_label
 _atom_site_symmetry_multiplicity
 _atom_site_fract_x
 _atom_site_fract_y
 _atom_site_fract_z
 _atom_site_occupancy
  Ag  Ag0  1  0.16922000  0.30692000  0.15636000  1.0
  Ag  Ag1  1  0.33079000  0.19308000  0.65636000  1.0
  Ag  Ag2  1  0.83079000  0.69308000  0.84364000  1.0
  Ag  Ag3  1  0.66922000  0.80692000  0.34364000  1.0
  H  H4  1  0.95932000  0.17916000  0.03836000  1.0
  H  H5  1  0.54068000  0.32084000  0.53836000  1.0
  H  H6  1  0.04069000  0.82084000  0.96164000  1.0
  H  H7  1  0.45932000  0.67916000  0.46164000  1.0
  H  H8  1  0.98475000  0.20813000  0.82849000  1.0
  H  H9  1  0.51525000  0.29187000  0.32849000  1.0
  H  H10  1  0.01525000  0.79187000  0.17151000  1.0
  H  H11  1  0.48475000  0.70813000  0.67151000  1.0
  H  H12  1  0.39350000  0.44087000  0.83418000  1.0
  H  H13  1  0.10650000  0.05913000  0.33418000  1.0
  H  H14  1  0.60650000  0.55913000  0.16582000  1.0
  H  H15  1  0.89350000  0.94087000  0.66582000  1.0
  H  H16  1  0.77159000  0.07667000  0.92971000  1.0
  H  H17  1  0.72841000  0.42333000  0.42971000  1.0
  H  H18  1  0.22841000  0.92333000  0.07029000  1.0
  H  H19  1  0.27160000  0.57667000  0.57029000  1.0
  C  C20  1  0.27838000  0.37089000  0.99866000  1.0
  C  C21  1  0.22162000  0.12911000  0.49866000  1.0
  C  C22  1  0.72162000  0.62911000  0.00134000  1.0
  C  C23  1  0.77837000  0.87089000  0.50134000  1.0
  C  C24  1  0.05019000  0.23584000  0.99354000  1.0
  C  C25  1  0.44981000  0.26416000  0.49353000  1.0
  C  C26  1  0.94981000  0.76416000  0.00646000  1.0
  C  C27  1  0.55019000  0.73584000  0.50646000  1.0
  C  C28  1  0.62705000  0.02705000  0.21185000  1.0
  C  C29  1  0.87295000  0.47295000  0.71184000  1.0
  C  C30  1  0.37295000  0.97296000  0.78815000  1.0
  C  C31  1  0.12705000  0.52705000  0.28816000  1.0
  C  C32  1  0.07069000  0.25430000  0.87551000  1.0
  C  C33  1  0.42931000  0.24571000  0.37551000  1.0
  C  C34  1  0.92931000  0.74571000  0.12449000  1.0
  C  C35  1  0.57069000  0.75430000  0.62449000  1.0
  C  C36  1  0.40678000  0.44560000  0.93955000  1.0
  C  C37  1  0.09322000  0.05440000  0.43955000  1.0
  C  C38  1  0.59322000  0.55441000  0.06045000  1.0
  C  C39  1  0.90678000  0.94559000  0.56045000  1.0
  C  C40  1  0.29535000  0.38355000  0.87833000  1.0
  C  C41  1  0.20465000  0.11645000  0.37833000  1.0
  C  C42  1  0.70465000  0.61645000  0.12167000  1.0
  C  C43  1  0.79535000  0.88355000  0.62167000  1.0
  C  C44  1  0.94944000  0.17929000  0.93357000  1.0
  C  C45  1  0.55056000  0.32071000  0.43357000  1.0
  C  C46  1  0.05056000  0.82071000  0.06643000  1.0
  C  C47  1  0.44943000  0.67929000  0.56643000  1.0
  S  S48  1  0.61800000  0.12820000  0.14503000  1.0
  S  S49  1  0.88200000  0.37180000  0.64503000  1.0
  S  S50  1  0.38200000  0.87179000  0.85498000  1.0
  S  S51  1  0.11800000  0.62820000  0.35498000  1.0
  N  N52  1  0.37254000  0.42727000  0.05777000  1.0
  N  N53  1  0.12746000  0.07273000  0.55777000  1.0
  N  N54  1  0.62746000  0.57273000  0.94223000  1.0
  N  N55  1  0.87254000  0.92727000  0.44223000  1.0
  N  N56  1  0.63490000  0.95040000  0.25862000  1.0
  N  N57  1  0.86508000  0.54960000  0.75863000  1.0
  N  N58  1  0.36509000  0.04959000  0.74138000  1.0
  N  N59  1  0.13491000  0.45039000  0.24137000  1.0
