# generated using pymatgen
data_Cu4H24C45N8
_symmetry_space_group_name_H-M   'P 1'
_cell_length_a   31.67600000
_cell_length_b   31.70200000
_cell_length_c   31.88640000
_cell_angle_alpha   90.00120000
_cell_angle_beta   89.99050000
_cell_angle_gamma   89.93900000
_symmetry_Int_Tables_number   1
_chemical_formula_structural   Cu4H24C45N8
_chemical_formula_sum   'Cu12 H72 C135 N24'
_cell_volume   32020.06679572
_cell_formula_units_Z   3
loop_
 _symmetry_equiv_pos_site_id
 _symmetry_equiv_pos_as_xyz
  1  'x, y, z'
loop_
 _atom_site_type_symbol
 _atom_site_label
 _atom_site_symmetry_multiplicity
 _atom_site_fract_x
 _atom_site_fract_y
 _atom_site_fract_z
 _atom_site_occupancy
  Cu  Cu0  1  0.21704000  0.21723000  0.14788000  1.0
  Cu  Cu1  1  0.21785000  0.14669000  0.21830000  1.0
  Cu  Cu2  1  0.14636000  0.21787000  0.21815000  1.0
  Cu  Cu3  1  0.78297000  0.21755000  0.85230000  1.0
  Cu  Cu4  1  0.78219000  0.14705000  0.78173000  1.0
  Cu  Cu5  1  0.85361000  0.21813000  0.78171000  1.0
  Cu  Cu6  1  0.21696000  0.78286000  0.85231000  1.0
  Cu  Cu7  1  0.21768000  0.85339000  0.78183000  1.0
  Cu  Cu8  1  0.14654000  0.78199000  0.78167000  1.0
  Cu  Cu9  1  0.78168000  0.78150000  0.14921000  1.0
  Cu  Cu10  1  0.78227000  0.85342000  0.21839000  1.0
  Cu  Cu11  1  0.85365000  0.78204000  0.21830000  1.0
  H  H12  1  0.29508000  0.18835000  0.09248000  1.0
  H  H13  1  0.29681000  0.09169000  0.18864000  1.0
  H  H14  1  0.09109000  0.29668000  0.18826000  1.0
  H  H15  1  0.18809000  0.29508000  0.09234000  1.0
  H  H16  1  0.18857000  0.09196000  0.29637000  1.0
  H  H17  1  0.09159000  0.18852000  0.29620000  1.0
  H  H18  1  0.70502000  0.18861000  0.90783000  1.0
  H  H19  1  0.70321000  0.09213000  0.81152000  1.0
  H  H20  1  0.90880000  0.29682000  0.81145000  1.0
  H  H21  1  0.81214000  0.29544000  0.90769000  1.0
  H  H22  1  0.81150000  0.09231000  0.70343000  1.0
  H  H23  1  0.90838000  0.18877000  0.70359000  1.0
  H  H24  1  0.29472000  0.81203000  0.90796000  1.0
  H  H25  1  0.29633000  0.90862000  0.81173000  1.0
  H  H26  1  0.09154000  0.70307000  0.81126000  1.0
  H  H27  1  0.18803000  0.70479000  0.90764000  1.0
  H  H28  1  0.18838000  0.90799000  0.70355000  1.0
  H  H29  1  0.09189000  0.81114000  0.70346000  1.0
  H  H30  1  0.70311000  0.81017000  0.09426000  1.0
  H  H31  1  0.70443000  0.90944000  0.18774000  1.0
  H  H32  1  0.90974000  0.70427000  0.18757000  1.0
  H  H33  1  0.81029000  0.70288000  0.09421000  1.0
  H  H34  1  0.81187000  0.90824000  0.29634000  1.0
  H  H35  1  0.90865000  0.81147000  0.29613000  1.0
  H  H36  1  0.40945000  0.02024000  0.11554000  1.0
  H  H37  1  0.46431000  0.98124000  0.07659000  1.0
  H  H38  1  0.46436000  0.07755000  0.98136000  1.0
  H  H39  1  0.40953000  0.11661000  0.02024000  1.0
  H  H40  1  0.58985000  0.11698000  0.97998000  1.0
  H  H41  1  0.53514000  0.07772000  0.01863000  1.0
  H  H42  1  0.53573000  0.98164000  0.92318000  1.0
  H  H43  1  0.59055000  0.02081000  0.88447000  1.0
  H  H44  1  0.40948000  0.88388000  0.98013000  1.0
  H  H45  1  0.46455000  0.92278000  0.01864000  1.0
  H  H46  1  0.46401000  0.01908000  0.92341000  1.0
  H  H47  1  0.40886000  0.98025000  0.88484000  1.0
  H  H48  1  0.59047000  0.88375000  0.02044000  1.0
  H  H49  1  0.53564000  0.92271000  0.98151000  1.0
  H  H50  1  0.53559000  0.01911000  0.07663000  1.0
  H  H51  1  0.59043000  0.98022000  0.11565000  1.0
  H  H52  1  0.02027000  0.40974000  0.11539000  1.0
  H  H53  1  0.98140000  0.46480000  0.07659000  1.0
  H  H54  1  0.07707000  0.46383000  0.98067000  1.0
  H  H55  1  0.11604000  0.40883000  0.01941000  1.0
  H  H56  1  0.98074000  0.59100000  0.11495000  1.0
  H  H57  1  0.01957000  0.53606000  0.07599000  1.0
  H  H58  1  0.92254000  0.53537000  0.98144000  1.0
  H  H59  1  0.88363000  0.59032000  0.02030000  1.0
  H  H60  1  0.98003000  0.40967000  0.88418000  1.0
  H  H61  1  0.01892000  0.46468000  0.92293000  1.0
  H  H62  1  0.92316000  0.46419000  0.01878000  1.0
  H  H63  1  0.88414000  0.40926000  0.98006000  1.0
  H  H64  1  0.11690000  0.58975000  0.97920000  1.0
  H  H65  1  0.07787000  0.53492000  0.01803000  1.0
  H  H66  1  0.98085000  0.53607000  0.92346000  1.0
  H  H67  1  0.01980000  0.59093000  0.88456000  1.0
  H  H68  1  0.02062000  0.11659000  0.41037000  1.0
  H  H69  1  0.98169000  0.07763000  0.46496000  1.0
  H  H70  1  0.07716000  0.98085000  0.46396000  1.0
  H  H71  1  0.11616000  0.01976000  0.40935000  1.0
  H  H72  1  0.11680000  0.97912000  0.58938000  1.0
  H  H73  1  0.07783000  0.01818000  0.53481000  1.0
  H  H74  1  0.98108000  0.92286000  0.53549000  1.0
  H  H75  1  0.01999000  0.88374000  0.59000000  1.0
  H  H76  1  0.97993000  0.88338000  0.41028000  1.0
  H  H77  1  0.01875000  0.92233000  0.46494000  1.0
  H  H78  1  0.92318000  0.01900000  0.46400000  1.0
  H  H79  1  0.88427000  0.98010000  0.40930000  1.0
  H  H80  1  0.88352000  0.02083000  0.58945000  1.0
  H  H81  1  0.92248000  0.98178000  0.53491000  1.0
  H  H82  1  0.01920000  0.07712000  0.53552000  1.0
  H  H83  1  0.98031000  0.11624000  0.59001000  1.0
  C  C84  1  0.28957000  0.16814000  0.11938000  1.0
  C  C85  1  0.31129000  0.13137000  0.13173000  1.0
  C  C86  1  0.29043000  0.11862000  0.16865000  1.0
  C  C87  1  0.11813000  0.29034000  0.16834000  1.0
  C  C88  1  0.13096000  0.31119000  0.13145000  1.0
  C  C89  1  0.16783000  0.28955000  0.11921000  1.0
  C  C90  1  0.16831000  0.11890000  0.29043000  1.0
  C  C91  1  0.13136000  0.13152000  0.31166000  1.0
  C  C92  1  0.11863000  0.16835000  0.29034000  1.0
  C  C93  1  0.71050000  0.16843000  0.88090000  1.0
  C  C94  1  0.68875000  0.13170000  0.86855000  1.0
  C  C95  1  0.70962000  0.11901000  0.83156000  1.0
  C  C96  1  0.88183000  0.29053000  0.83145000  1.0
  C  C97  1  0.86912000  0.31144000  0.86836000  1.0
  C  C98  1  0.83231000  0.28985000  0.88075000  1.0
  C  C99  1  0.83175000  0.11922000  0.70939000  1.0
  C  C100  1  0.86870000  0.13179000  0.68814000  1.0
  C  C101  1  0.88137000  0.16862000  0.70947000  1.0
  C  C102  1  0.28923000  0.83221000  0.88104000  1.0
  C  C103  1  0.31087000  0.86901000  0.86873000  1.0
  C  C104  1  0.29003000  0.88167000  0.83173000  1.0
  C  C105  1  0.11844000  0.70947000  0.83131000  1.0
  C  C106  1  0.13117000  0.68859000  0.86824000  1.0
  C  C107  1  0.16789000  0.71030000  0.88068000  1.0
  C  C108  1  0.16823000  0.88099000  0.70944000  1.0
  C  C109  1  0.13140000  0.86827000  0.68811000  1.0
  C  C110  1  0.11880000  0.83140000  0.70939000  1.0
  C  C111  1  0.70933000  0.83100000  0.12052000  1.0
  C  C112  1  0.68851000  0.86858000  0.13203000  1.0
  C  C113  1  0.71001000  0.88182000  0.16843000  1.0
  C  C114  1  0.88205000  0.70983000  0.16831000  1.0
  C  C115  1  0.86876000  0.68835000  0.13194000  1.0
  C  C116  1  0.83113000  0.70912000  0.12047000  1.0
  C  C117  1  0.83206000  0.88125000  0.29038000  1.0
  C  C118  1  0.86902000  0.86858000  0.31156000  1.0
  C  C119  1  0.88163000  0.83168000  0.29028000  1.0
  C  C120  1  0.00015000  0.99998000  0.49988000  1.0
  C  C121  1  0.49999000  0.00018000  0.99996000  1.0
  C  C122  1  0.00015000  0.50004000  0.99975000  1.0
  C  C123  1  0.40575000  0.07151000  0.07098000  1.0
  C  C124  1  0.42187000  0.03297000  0.08628000  1.0
  C  C125  1  0.45286000  0.01121000  0.06425000  1.0
  C  C126  1  0.34506000  0.11137000  0.11127000  1.0
  C  C127  1  0.45289000  0.06497000  0.01106000  1.0
  C  C128  1  0.42189000  0.08707000  0.03276000  1.0
  C  C129  1  0.37363000  0.09331000  0.09287000  1.0
  C  C130  1  0.46936000  0.02688000  0.02650000  1.0
  C  C131  1  0.59409000  0.07196000  0.92916000  1.0
  C  C132  1  0.57772000  0.08742000  0.96735000  1.0
  C  C133  1  0.54677000  0.06517000  0.98895000  1.0
  C  C134  1  0.65494000  0.11174000  0.88902000  1.0
  C  C135  1  0.54709000  0.01157000  0.93565000  1.0
  C  C136  1  0.57806000  0.03346000  0.91374000  1.0
  C  C137  1  0.62630000  0.09378000  0.90739000  1.0
  C  C138  1  0.53049000  0.02705000  0.97346000  1.0
  C  C139  1  0.40538000  0.92894000  0.92937000  1.0
  C  C140  1  0.42178000  0.91336000  0.96749000  1.0
  C  C141  1  0.45294000  0.93539000  0.98899000  1.0
  C  C142  1  0.34456000  0.88910000  0.88924000  1.0
  C  C143  1  0.45265000  0.98912000  0.93581000  1.0
  C  C144  1  0.42147000  0.96744000  0.91399000  1.0
  C  C145  1  0.37313000  0.90717000  0.90762000  1.0
  C  C146  1  0.46938000  0.97343000  0.97348000  1.0
  C  C147  1  0.59428000  0.92888000  0.07113000  1.0
  C  C148  1  0.57812000  0.91330000  0.03293000  1.0
  C  C149  1  0.54712000  0.93537000  0.01118000  1.0
  C  C150  1  0.65490000  0.88878000  0.11142000  1.0
  C  C151  1  0.54710000  0.98916000  0.06430000  1.0
  C  C152  1  0.57810000  0.96743000  0.08638000  1.0
  C  C153  1  0.62640000  0.90702000  0.09305000  1.0
  C  C154  1  0.53063000  0.97349000  0.02652000  1.0
  C  C155  1  0.07126000  0.40559000  0.07051000  1.0
  C  C156  1  0.03291000  0.42201000  0.08603000  1.0
  C  C157  1  0.01124000  0.45311000  0.06411000  1.0
  C  C158  1  0.11097000  0.34489000  0.11090000  1.0
  C  C159  1  0.06468000  0.45258000  0.01055000  1.0
  C  C160  1  0.08670000  0.42150000  0.03215000  1.0
  C  C161  1  0.09301000  0.37344000  0.09238000  1.0
  C  C162  1  0.02682000  0.46940000  0.02624000  1.0
  C  C163  1  0.92905000  0.59438000  0.07076000  1.0
  C  C164  1  0.96778000  0.57843000  0.08585000  1.0
  C  C165  1  0.98944000  0.54738000  0.06384000  1.0
  C  C166  1  0.88898000  0.65482000  0.11126000  1.0
  C  C167  1  0.93528000  0.54700000  0.01102000  1.0
  C  C168  1  0.91327000  0.57806000  0.03271000  1.0
  C  C169  1  0.90718000  0.62642000  0.09274000  1.0
  C  C170  1  0.97350000  0.53065000  0.02629000  1.0
  C  C171  1  0.92898000  0.40579000  0.92904000  1.0
  C  C172  1  0.96738000  0.42204000  0.91352000  1.0
  C  C173  1  0.98906000  0.45311000  0.93541000  1.0
  C  C174  1  0.88916000  0.34514000  0.88880000  1.0
  C  C175  1  0.93555000  0.45284000  0.98894000  1.0
  C  C176  1  0.91351000  0.42180000  0.96736000  1.0
  C  C177  1  0.90719000  0.37369000  0.90721000  1.0
  C  C178  1  0.97345000  0.46949000  0.97326000  1.0
  C  C179  1  0.07143000  0.59406000  0.92879000  1.0
  C  C180  1  0.08723000  0.57762000  0.96679000  1.0
  C  C181  1  0.06515000  0.54664000  0.98846000  1.0
  C  C182  1  0.11121000  0.65480000  0.88862000  1.0
  C  C183  1  0.01098000  0.54727000  0.93563000  1.0
  C  C184  1  0.03270000  0.57824000  0.91364000  1.0
  C  C185  1  0.09318000  0.62622000  0.90697000  1.0
  C  C186  1  0.02687000  0.53052000  0.97319000  1.0
  C  C187  1  0.07147000  0.07127000  0.40606000  1.0
  C  C188  1  0.03320000  0.08698000  0.42246000  1.0
  C  C189  1  0.01145000  0.06490000  0.45332000  1.0
  C  C190  1  0.11126000  0.11134000  0.34540000  1.0
  C  C191  1  0.06475000  0.01090000  0.45276000  1.0
  C  C192  1  0.08683000  0.03263000  0.42189000  1.0
  C  C193  1  0.09321000  0.09310000  0.37396000  1.0
  C  C194  1  0.02689000  0.02667000  0.46945000  1.0
  C  C195  1  0.07143000  0.92838000  0.59358000  1.0
  C  C196  1  0.08717000  0.96662000  0.57725000  1.0
  C  C197  1  0.06510000  0.98845000  0.54641000  1.0
  C  C198  1  0.11126000  0.88839000  0.65433000  1.0
  C  C199  1  0.01109000  0.93526000  0.54679000  1.0
  C  C200  1  0.03283000  0.91309000  0.57761000  1.0
  C  C201  1  0.09317000  0.90656000  0.62573000  1.0
  C  C202  1  0.02685000  0.97316000  0.53025000  1.0
  C  C203  1  0.92903000  0.92867000  0.40597000  1.0
  C  C204  1  0.96730000  0.91298000  0.42239000  1.0
  C  C205  1  0.98898000  0.93505000  0.45329000  1.0
  C  C206  1  0.88922000  0.88874000  0.34525000  1.0
  C  C207  1  0.93560000  0.98898000  0.45277000  1.0
  C  C208  1  0.91359000  0.96726000  0.42186000  1.0
  C  C209  1  0.90730000  0.90690000  0.37383000  1.0
  C  C210  1  0.97349000  0.97324000  0.46945000  1.0
  C  C211  1  0.92882000  0.07163000  0.59364000  1.0
  C  C212  1  0.91313000  0.03336000  0.57731000  1.0
  C  C213  1  0.93520000  0.01153000  0.54646000  1.0
  C  C214  1  0.88887000  0.11162000  0.65436000  1.0
  C  C215  1  0.98918000  0.06472000  0.54681000  1.0
  C  C216  1  0.96743000  0.08689000  0.57764000  1.0
  C  C217  1  0.90703000  0.09347000  0.62578000  1.0
  C  C218  1  0.97344000  0.02682000  0.53025000  1.0
  N  N219  1  0.25883000  0.14566000  0.17727000  1.0
  N  N220  1  0.25831000  0.17631000  0.14676000  1.0
  N  N221  1  0.17598000  0.25835000  0.14662000  1.0
  N  N222  1  0.14522000  0.25881000  0.17707000  1.0
  N  N223  1  0.14582000  0.17669000  0.25900000  1.0
  N  N224  1  0.17660000  0.14605000  0.25905000  1.0
  N  N225  1  0.74121000  0.14601000  0.82291000  1.0
  N  N226  1  0.74174000  0.17661000  0.85349000  1.0
  N  N227  1  0.82407000  0.25863000  0.85339000  1.0
  N  N228  1  0.85474000  0.25903000  0.82284000  1.0
  N  N229  1  0.85418000  0.17697000  0.74083000  1.0
  N  N230  1  0.82343000  0.14637000  0.74079000  1.0
  N  N231  1  0.25854000  0.85458000  0.82304000  1.0
  N  N232  1  0.25806000  0.82395000  0.85358000  1.0
  N  N233  1  0.17605000  0.74157000  0.85334000  1.0
  N  N234  1  0.14544000  0.74106000  0.82276000  1.0
  N  N235  1  0.14594000  0.82315000  0.74081000  1.0
  N  N236  1  0.17656000  0.85388000  0.74085000  1.0
  N  N237  1  0.74108000  0.85432000  0.17753000  1.0
  N  N238  1  0.74066000  0.82283000  0.14785000  1.0
  N  N239  1  0.82299000  0.74044000  0.14780000  1.0
  N  N240  1  0.85454000  0.74087000  0.17744000  1.0
  N  N241  1  0.85438000  0.82337000  0.25899000  1.0
  N  N242  1  0.82367000  0.85408000  0.25905000  1.0
