# generated using pymatgen
data_LiH21C13SN
_symmetry_space_group_name_H-M   'P 1'
_cell_length_a   7.56919000
_cell_length_b   9.26858000
_cell_length_c   10.54240000
_cell_angle_alpha   85.44780000
_cell_angle_beta   72.99730000
_cell_angle_gamma   69.73260000
_symmetry_Int_Tables_number   1
_chemical_formula_structural   LiH21C13SN
_chemical_formula_sum   'Li2 H42 C26 S2 N2'
_cell_volume   663.29257025
_cell_formula_units_Z   2
loop_
 _symmetry_equiv_pos_site_id
 _symmetry_equiv_pos_as_xyz
  1  'x, y, z'
loop_
 _atom_site_type_symbol
 _atom_site_label
 _atom_site_symmetry_multiplicity
 _atom_site_fract_x
 _atom_site_fract_y
 _atom_site_fract_z
 _atom_site_occupancy
  Li  Li0  1  0.39965000  0.92084000  0.01067000  1.0
  Li  Li1  1  0.60034000  0.07917000  0.98933000  1.0
  H  H2  1  0.07069000  0.09609000  0.47240000  1.0
  H  H3  1  0.92931000  0.90389000  0.52761000  1.0
  H  H4  1  0.98910000  0.37906000  0.47133000  1.0
  H  H5  1  0.01089000  0.62093000  0.52868000  1.0
  H  H6  1  0.10347000  0.50640000  0.26002000  1.0
  H  H7  1  0.89651000  0.49360000  0.73999000  1.0
  H  H8  1  0.30113000  0.35189000  0.05665000  1.0
  H  H9  1  0.69885000  0.64812000  0.94336000  1.0
  H  H10  1  0.71260000  0.75385000  0.14998000  1.0
  H  H11  1  0.28740000  0.24616000  0.85002000  1.0
  H  H12  1  0.63995000  0.92018000  0.25164000  1.0
  H  H13  1  0.36005000  0.07983000  0.74835000  1.0
  H  H14  1  0.79049000  0.74039000  0.29624000  1.0
  H  H15  1  0.20952000  0.25961000  0.70376000  1.0
  H  H16  1  0.40076000  0.93726000  0.48861000  1.0
  H  H17  1  0.59925000  0.06274000  0.51139000  1.0
  H  H18  1  0.30071000  0.78726000  0.53911000  1.0
  H  H19  1  0.69930000  0.21274000  0.46088000  1.0
  H  H20  1  0.55394000  0.75309000  0.52166000  1.0
  H  H21  1  0.44606000  0.24691000  0.47833000  1.0
  H  H22  1  0.54919000  0.55484000  0.22156000  1.0
  H  H23  1  0.45082000  0.44516000  0.77844000  1.0
  H  H24  1  0.63308000  0.52201000  0.36541000  1.0
  H  H25  1  0.36692000  0.47799000  0.63459000  1.0
  H  H26  1  0.37886000  0.56773000  0.38157000  1.0
  H  H27  1  0.62114000  0.43227000  0.61842000  1.0
  H  H28  1  0.99960000  0.89940000  0.12305000  1.0
  H  H29  1  0.00040000  0.10060000  0.87695000  1.0
  H  H30  1  0.91407000  0.87467000  0.98838000  1.0
  H  H31  1  0.08594000  0.12533000  0.01162000  1.0
  H  H32  1  0.22688000  0.92576000  0.76275000  1.0
  H  H33  1  0.77312000  0.07425000  0.23725000  1.0
  H  H34  1  0.41198000  0.74425000  0.75913000  1.0
  H  H35  1  0.58802000  0.25575000  0.24086000  1.0
  H  H36  1  0.16338000  0.75593000  0.77965000  1.0
  H  H37  1  0.83663000  0.24407000  0.22034000  1.0
  H  H38  1  0.40945000  0.59173000  0.95066000  1.0
  H  H39  1  0.59055000  0.40827000  0.04934000  1.0
  H  H40  1  0.23630000  0.66440000  0.10659000  1.0
  H  H41  1  0.76370000  0.33560000  0.89341000  1.0
  H  H42  1  0.15799000  0.61064000  0.97779000  1.0
  H  H43  1  0.84201000  0.38936000  0.02220000  1.0
  C  C44  1  0.24220000  0.06417000  0.26425000  1.0
  C  C45  1  0.75780000  0.93583000  0.73575000  1.0
  C  C46  1  0.12637000  0.15116000  0.38146000  1.0
  C  C47  1  0.87362000  0.84884000  0.61855000  1.0
  C  C48  1  0.07897000  0.31074000  0.38079000  1.0
  C  C49  1  0.92101000  0.68925000  0.61922000  1.0
  C  C50  1  0.14321000  0.38127000  0.26241000  1.0
  C  C51  1  0.85678000  0.61873000  0.73761000  1.0
  C  C52  1  0.25652000  0.29102000  0.14740000  1.0
  C  C53  1  0.74347000  0.70898000  0.85261000  1.0
  C  C54  1  0.31507000  0.12814000  0.14181000  1.0
  C  C55  1  0.68493000  0.87186000  0.85820000  1.0
  C  C56  1  0.48509000  0.76231000  0.33546000  1.0
  C  C57  1  0.51492000  0.23769000  0.66454000  1.0
  C  C58  1  0.66788000  0.79589000  0.25296000  1.0
  C  C59  1  0.33213000  0.20411000  0.74704000  1.0
  C  C60  1  0.43110000  0.81324000  0.47978000  1.0
  C  C61  1  0.56890000  0.18676000  0.52022000  1.0
  C  C62  1  0.51223000  0.59192000  0.32516000  1.0
  C  C63  1  0.48778000  0.40808000  0.67483000  1.0
  C  C64  1  0.01974000  0.91537000  0.01602000  1.0
  C  C65  1  0.98027000  0.08463000  0.98399000  1.0
  C  C66  1  0.25740000  0.81106000  0.80498000  1.0
  C  C67  1  0.74260000  0.18895000  0.19502000  1.0
  C  C68  1  0.25771000  0.66299000  0.99919000  1.0
  C  C69  1  0.74229000  0.33701000  0.00080000  1.0
  S  S70  1  0.27700000  0.86220000  0.26442000  1.0
  S  S71  1  0.72300000  0.13779000  0.73558000  1.0
  N  N72  1  0.22296000  0.81974000  0.94931000  1.0
  N  N73  1  0.77703000  0.18027000  0.05069000  1.0
