# generated using pymatgen
data_CdB2H12C4(N8O)2
_symmetry_space_group_name_H-M   'P 1'
_cell_length_a   8.93445000
_cell_length_b   10.14630000
_cell_length_c   10.27040000
_cell_angle_alpha   90.00110000
_cell_angle_beta   64.40700000
_cell_angle_gamma   89.99510000
_symmetry_Int_Tables_number   1
_chemical_formula_structural   CdB2H12C4(N8O)2
_chemical_formula_sum   'Cd2 B4 H24 C8 N32 O4'
_cell_volume   839.68073737
_cell_formula_units_Z   2
loop_
 _symmetry_equiv_pos_site_id
 _symmetry_equiv_pos_as_xyz
  1  'x, y, z'
loop_
 _atom_site_type_symbol
 _atom_site_label
 _atom_site_symmetry_multiplicity
 _atom_site_fract_x
 _atom_site_fract_y
 _atom_site_fract_z
 _atom_site_occupancy
  Cd  Cd0  1  0.74854000  0.85281000  0.00275000  1.0
  Cd  Cd1  1  0.25147000  0.35276000  0.99705000  1.0
  B  B2  1  0.82400000  0.10453000  0.49986000  1.0
  B  B3  1  0.31134000  0.10246000  0.50107000  1.0
  B  B4  1  0.68871000  0.60268000  0.49883000  1.0
  B  B5  1  0.17615000  0.60430000  0.49985000  1.0
  H  H6  1  0.88470000  0.00731000  0.52504000  1.0
  H  H7  1  0.39513000  0.00419000  0.48120000  1.0
  H  H8  1  0.60487000  0.50446000  0.51858000  1.0
  H  H9  1  0.11561000  0.50703000  0.47458000  1.0
  H  H10  1  0.90851000  0.20245000  0.47479000  1.0
  H  H11  1  0.37581000  0.20041000  0.52112000  1.0
  H  H12  1  0.62435000  0.70071000  0.47881000  1.0
  H  H13  1  0.09155000  0.70217000  0.52488000  1.0
  H  H14  1  0.83542000  0.86557000  0.32684000  1.0
  H  H15  1  0.16006000  0.87299000  0.69056000  1.0
  H  H16  1  0.83943000  0.37331000  0.30904000  1.0
  H  H17  1  0.16481000  0.36540000  0.67294000  1.0
  H  H18  1  0.65908000  0.34255000  0.67311000  1.0
  H  H19  1  0.35326000  0.33187000  0.31037000  1.0
  H  H20  1  0.64721000  0.83200000  0.68954000  1.0
  H  H21  1  0.34072000  0.84232000  0.32653000  1.0
  H  H22  1  0.48686000  0.02184000  0.97125000  1.0
  H  H23  1  0.51315000  0.52179000  0.02860000  1.0
  H  H24  1  0.64058000  0.09685000  0.96970000  1.0
  H  H25  1  0.35831000  0.59658000  0.03209000  1.0
  H  H26  1  0.04079000  0.68345000  0.97195000  1.0
  H  H27  1  0.95950000  0.18315000  0.02786000  1.0
  H  H28  1  0.89372000  0.61023000  0.95849000  1.0
  H  H29  1  0.10604000  0.11037000  0.04287000  1.0
  C  C30  1  0.80161000  0.95983000  0.29690000  1.0
  C  C31  1  0.09027000  0.96461000  0.71183000  1.0
  C  C32  1  0.90949000  0.46478000  0.28791000  1.0
  C  C33  1  0.19843000  0.45971000  0.70293000  1.0
  C  C34  1  0.59751000  0.24754000  0.70330000  1.0
  C  C35  1  0.30309000  0.24084000  0.28946000  1.0
  C  C36  1  0.69717000  0.74086000  0.71046000  1.0
  C  C37  1  0.40255000  0.74740000  0.29648000  1.0
  N  N38  1  0.78877000  0.07363000  0.36735000  1.0
  N  N39  1  0.14327000  0.07595000  0.63538000  1.0
  N  N40  1  0.85680000  0.57607000  0.36452000  1.0
  N  N41  1  0.21120000  0.57348000  0.63246000  1.0
  N  N42  1  0.75185000  0.16922000  0.29429000  1.0
  N  N43  1  0.02323000  0.16825000  0.69670000  1.0
  N  N44  1  0.97714000  0.66815000  0.30340000  1.0
  N  N45  1  0.24780000  0.66915000  0.70562000  1.0
  N  N46  1  0.74255000  0.11509000  0.18321000  1.0
  N  N47  1  0.90153000  0.11348000  0.80553000  1.0
  N  N48  1  0.09872000  0.61328000  0.19457000  1.0
  N  N49  1  0.25698000  0.61511000  0.81679000  1.0
  N  N50  1  0.77334000  0.98328000  0.18199000  1.0
  N  N51  1  0.94033000  0.98582000  0.81811000  1.0
  N  N52  1  0.05956000  0.48577000  0.18175000  1.0
  N  N53  1  0.22643000  0.48326000  0.81796000  1.0
  N  N54  1  0.65675000  0.13418000  0.63256000  1.0
  N  N55  1  0.27737000  0.12964000  0.36655000  1.0
  N  N56  1  0.72265000  0.62968000  0.63337000  1.0
  N  N57  1  0.34347000  0.63404000  0.36726000  1.0
  N  N58  1  0.54949000  0.03742000  0.70586000  1.0
  N  N59  1  0.21620000  0.03848000  0.30573000  1.0
  N  N60  1  0.78351000  0.53835000  0.69428000  1.0
  N  N61  1  0.45107000  0.53738000  0.29417000  1.0
  N  N62  1  0.42918000  0.09037000  0.81731000  1.0
  N  N63  1  0.20406000  0.09392000  0.19656000  1.0
  N  N64  1  0.79568000  0.59364000  0.80350000  1.0
  N  N65  1  0.57141000  0.59039000  0.18280000  1.0
  N  N66  1  0.45599000  0.22262000  0.81859000  1.0
  N  N67  1  0.25836000  0.22073000  0.18324000  1.0
  N  N68  1  0.74170000  0.72055000  0.81678000  1.0
  N  N69  1  0.54428000  0.72257000  0.18137000  1.0
  O  O70  1  0.56275000  0.02483000  0.01758000  1.0
  O  O71  1  0.43659000  0.52509000  0.98300000  1.0
  O  O72  1  0.91925000  0.67881000  0.01355000  1.0
  O  O73  1  0.08098000  0.17838000  0.98688000  1.0
