# generated using pymatgen
data_CdH6C10Br2(NCl2)2
_symmetry_space_group_name_H-M   'P 1'
_cell_length_a   3.89002000
_cell_length_b   14.32150000
_cell_length_c   14.32160000
_cell_angle_alpha   91.07130000
_cell_angle_beta   96.08560000
_cell_angle_gamma   96.08550000
_symmetry_Int_Tables_number   1
_chemical_formula_structural   CdH6C10Br2(NCl2)2
_chemical_formula_sum   'Cd2 H12 C20 Br4 N4 Cl8'
_cell_volume   788.54077708
_cell_formula_units_Z   2
loop_
 _symmetry_equiv_pos_site_id
 _symmetry_equiv_pos_as_xyz
  1  'x, y, z'
loop_
 _atom_site_type_symbol
 _atom_site_label
 _atom_site_symmetry_multiplicity
 _atom_site_fract_x
 _atom_site_fract_y
 _atom_site_fract_z
 _atom_site_occupancy
  Cd  Cd0  1  0.00000000  0.50000000  0.50000000  1.0
  Cd  Cd1  1  0.00000000  0.00000000  0.00000000  1.0
  H  H2  1  0.74617000  0.52249000  0.27971000  1.0
  H  H3  1  0.25383000  0.72029000  0.47751000  1.0
  H  H4  1  0.25383000  0.47751000  0.72029000  1.0
  H  H5  1  0.74617000  0.27971000  0.52249000  1.0
  H  H6  1  0.00000000  0.80737000  0.19263000  1.0
  H  H7  1  0.00000000  0.19263000  0.80737000  1.0
  H  H8  1  0.94110000  0.77328000  0.97680000  1.0
  H  H9  1  0.05891000  0.02320000  0.22672000  1.0
  H  H10  1  0.05891000  0.22672000  0.02320000  1.0
  H  H11  1  0.94109000  0.97680000  0.77328000  1.0
  H  H12  1  0.20107000  0.70003000  0.70003000  1.0
  H  H13  1  0.79893000  0.29997000  0.29997000  1.0
  C  C14  1  0.85845000  0.59503000  0.29415000  1.0
  C  C15  1  0.14155000  0.70585000  0.40497000  1.0
  C  C16  1  0.14155000  0.40497000  0.70585000  1.0
  C  C17  1  0.85845000  0.29415000  0.59503000  1.0
  C  C18  1  0.85273000  0.66211000  0.22465000  1.0
  C  C19  1  0.14727000  0.77535000  0.33789000  1.0
  C  C20  1  0.14728000  0.33789000  0.77535000  1.0
  C  C21  1  0.85273000  0.22465000  0.66211000  1.0
  C  C22  1  0.00000000  0.75414000  0.24586000  1.0
  C  C23  1  0.00000000  0.24586000  0.75414000  1.0
  C  C24  1  0.97689000  0.79053000  0.90437000  1.0
  C  C25  1  0.02311000  0.09563000  0.20947000  1.0
  C  C26  1  0.02310000  0.20947000  0.09563000  1.0
  C  C27  1  0.97688000  0.90437000  0.79053000  1.0
  C  C28  1  0.06773000  0.72438000  0.84110000  1.0
  C  C29  1  0.93227000  0.15890000  0.27562000  1.0
  C  C30  1  0.93227000  0.27562000  0.15890000  1.0
  C  C31  1  0.06772000  0.84110000  0.72438000  1.0
  C  C32  1  0.12001000  0.74967000  0.74967000  1.0
  C  C33  1  0.87999000  0.25033000  0.25033000  1.0
  Br  Br34  1  0.57652000  0.59970000  0.59970000  1.0
  Br  Br35  1  0.42348000  0.40030000  0.40030000  1.0
  Br  Br36  1  0.50000000  0.90362000  0.09638000  1.0
  Br  Br37  1  0.50000000  0.09638000  0.90362000  1.0
  N  N38  1  0.00000000  0.61784000  0.38217000  1.0
  N  N39  1  0.00000000  0.38217000  0.61784000  1.0
  N  N40  1  0.93892000  0.87873000  0.87872000  1.0
  N  N41  1  0.06108000  0.12127000  0.12127000  1.0
  Cl  Cl42  1  0.66153000  0.63035000  0.11269000  1.0
  Cl  Cl43  1  0.33848000  0.88731000  0.36965000  1.0
  Cl  Cl44  1  0.33848000  0.36965000  0.88731000  1.0
  Cl  Cl45  1  0.66153000  0.11269000  0.63035000  1.0
  Cl  Cl46  1  0.12391000  0.61217000  0.87716000  1.0
  Cl  Cl47  1  0.87609000  0.12284000  0.38783000  1.0
  Cl  Cl48  1  0.87608000  0.38783000  0.12284000  1.0
  Cl  Cl49  1  0.12392000  0.87715000  0.61217000  1.0
