# generated using pymatgen
data_ZnH16C26S(NO2)2
_symmetry_space_group_name_H-M   'P 1'
_cell_length_a   8.21141000
_cell_length_b   10.29400000
_cell_length_c   14.25160000
_cell_angle_alpha   70.85640000
_cell_angle_beta   89.24220000
_cell_angle_gamma   74.13000000
_symmetry_Int_Tables_number   1
_chemical_formula_structural   ZnH16C26S(NO2)2
_chemical_formula_sum   'Zn2 H32 C52 S2 N4 O8'
_cell_volume   1090.78652729
_cell_formula_units_Z   2
loop_
 _symmetry_equiv_pos_site_id
 _symmetry_equiv_pos_as_xyz
  1  'x, y, z'
loop_
 _atom_site_type_symbol
 _atom_site_label
 _atom_site_symmetry_multiplicity
 _atom_site_fract_x
 _atom_site_fract_y
 _atom_site_fract_z
 _atom_site_occupancy
  Zn  Zn0  1  0.16325000  0.56343000  0.23073000  1.0
  Zn  Zn1  1  0.83676000  0.43657000  0.76927000  1.0
  H  H2  1  0.31909000  0.23906000  0.29044000  1.0
  H  H3  1  0.68090000  0.76095000  0.70956000  1.0
  H  H4  1  0.32548000  0.02490000  0.43726000  1.0
  H  H5  1  0.67451000  0.97510000  0.56273000  1.0
  H  H6  1  0.95651000  0.30625000  0.55733000  1.0
  H  H7  1  0.04348000  0.69375000  0.44266000  1.0
  H  H8  1  0.96092000  0.50480000  0.40448000  1.0
  H  H9  1  0.03909000  0.49520000  0.59553000  1.0
  H  H10  1  0.37529000  0.87596000  0.58935000  1.0
  H  H11  1  0.62470000  0.12404000  0.41066000  1.0
  H  H12  1  0.35710000  0.67578000  0.73515000  1.0
  H  H13  1  0.64289000  0.32421000  0.26485000  1.0
  H  H14  1  0.89228000  0.13809000  0.63801000  1.0
  H  H15  1  0.10772000  0.86191000  0.36198000  1.0
  H  H16  1  0.77369000  0.64460000  0.00344000  1.0
  H  H17  1  0.22632000  0.35540000  0.99657000  1.0
  H  H18  1  0.50060000  0.82963000  0.98675000  1.0
  H  H19  1  0.49941000  0.17037000  0.01325000  1.0
  H  H20  1  0.66424000  0.12613000  0.73822000  1.0
  H  H21  1  0.33576000  0.87386000  0.26178000  1.0
  H  H22  1  0.25211000  0.94123000  0.90884000  1.0
  H  H23  1  0.74789000  0.05877000  0.09116000  1.0
  H  H24  1  0.97268000  0.12862000  0.87364000  1.0
  H  H25  1  0.02732000  0.87138000  0.12638000  1.0
  H  H26  1  0.19923000  0.45536000  0.75652000  1.0
  H  H27  1  0.80077000  0.54464000  0.24348000  1.0
  H  H28  1  0.48618000  0.28458000  0.78820000  1.0
  H  H29  1  0.51383000  0.71542000  0.21180000  1.0
  H  H30  1  0.37043000  0.64305000  0.49371000  1.0
  H  H31  1  0.62959000  0.35697000  0.50627000  1.0
  H  H32  1  0.45702000  0.65481000  0.92673000  1.0
  H  H33  1  0.54298000  0.34519000  0.07328000  1.0
  C  C34  1  0.24037000  0.24817000  0.35148000  1.0
  C  C35  1  0.75962000  0.75183000  0.64852000  1.0
  C  C36  1  0.24435000  0.12944000  0.43483000  1.0
  C  C37  1  0.75563000  0.87056000  0.56517000  1.0
  C  C38  1  0.14127000  0.14433000  0.51254000  1.0
  C  C39  1  0.85872000  0.85567000  0.48745000  1.0
  C  C40  1  0.03834000  0.28405000  0.50025000  1.0
  C  C41  1  0.96165000  0.71595000  0.49975000  1.0
  C  C42  1  0.04018000  0.39641000  0.41465000  1.0
  C  C43  1  0.95982000  0.60359000  0.58535000  1.0
  C  C44  1  0.13484000  0.02292000  0.60171000  1.0
  C  C45  1  0.86515000  0.97708000  0.39828000  1.0
  C  C46  1  0.26415000  0.89060000  0.63161000  1.0
  C  C47  1  0.73584000  0.10940000  0.36839000  1.0
  C  C48  1  0.25538000  0.77606000  0.71520000  1.0
  C  C49  1  0.74462000  0.22394000  0.28480000  1.0
  C  C50  1  0.11242000  0.79279000  0.76951000  1.0
  C  C51  1  0.88759000  0.20721000  0.23049000  1.0
  C  C52  1  0.98106000  0.92410000  0.74136000  1.0
  C  C53  1  0.01894000  0.07590000  0.25865000  1.0
  C  C54  1  0.99432000  0.03791000  0.65835000  1.0
  C  C55  1  0.00567000  0.96209000  0.34165000  1.0
  C  C56  1  0.84214000  0.91725000  0.80454000  1.0
  C  C57  1  0.15787000  0.08275000  0.19547000  1.0
  C  C58  1  0.87216000  0.78065000  0.87943000  1.0
  C  C59  1  0.12784000  0.21935000  0.12058000  1.0
  C  C60  1  0.75077000  0.74948000  0.94614000  1.0
  C  C61  1  0.24923000  0.25052000  0.05387000  1.0
  C  C62  1  0.59691000  0.85374000  0.93571000  1.0
  C  C63  1  0.40309000  0.14626000  0.06430000  1.0
  C  C64  1  0.56249000  0.98978000  0.86044000  1.0
  C  C65  1  0.43751000  0.01022000  0.13957000  1.0
  C  C66  1  0.68760000  0.02152000  0.79631000  1.0
  C  C67  1  0.31240000  0.97847000  0.20369000  1.0
  C  C68  1  0.39497000  0.09574000  0.84680000  1.0
  C  C69  1  0.60503000  0.90426000  0.15320000  1.0
  C  C70  1  0.24680000  0.05381000  0.87355000  1.0
  C  C71  1  0.75320000  0.94618000  0.12646000  1.0
  C  C72  1  0.09050000  0.15697000  0.85471000  1.0
  C  C73  1  0.90951000  0.84302000  0.14530000  1.0
  C  C74  1  0.21600000  0.34029000  0.78875000  1.0
  C  C75  1  0.78400000  0.65971000  0.21125000  1.0
  C  C76  1  0.37630000  0.24378000  0.80509000  1.0
  C  C77  1  0.62370000  0.75621000  0.19491000  1.0
  C  C78  1  0.38742000  0.55360000  0.36998000  1.0
  C  C79  1  0.61259000  0.44641000  0.63001000  1.0
  C  C80  1  0.43915000  0.55460000  0.46913000  1.0
  C  C81  1  0.56086000  0.44543000  0.53086000  1.0
  C  C82  1  0.33473000  0.60284000  0.06774000  1.0
  C  C83  1  0.66528000  0.39716000  0.93226000  1.0
  C  C84  1  0.44984000  0.56648000  0.99302000  1.0
  C  C85  1  0.55016000  0.43352000  0.00698000  1.0
  S  S86  1  0.06673000  0.66329000  0.87244000  1.0
  S  S87  1  0.93327000  0.33670000  0.12756000  1.0
  N  N88  1  0.13874000  0.38046000  0.34041000  1.0
  N  N89  1  0.86126000  0.61954000  0.65959000  1.0
  N  N90  1  0.07396000  0.29847000  0.81168000  1.0
  N  N91  1  0.92604000  0.70153000  0.18833000  1.0
  O  O92  1  0.47758000  0.46827000  0.33185000  1.0
  O  O93  1  0.52241000  0.53174000  0.66814000  1.0
  O  O94  1  0.23989000  0.64307000  0.32943000  1.0
  O  O95  1  0.76011000  0.35694000  0.67056000  1.0
  O  O96  1  0.29124000  0.72917000  0.06914000  1.0
  O  O97  1  0.70877000  0.27083000  0.93086000  1.0
  O  O98  1  0.28824000  0.49783000  0.12994000  1.0
  O  O99  1  0.71177000  0.50217000  0.87006000  1.0
