# generated using pymatgen
data_AlH18C30N7O6
_symmetry_space_group_name_H-M   'P 1'
_cell_length_a   3.93058000
_cell_length_b   17.51104672
_cell_length_c   18.07238316
_cell_angle_alpha   61.48741589
_cell_angle_beta   84.40579303
_cell_angle_gamma   88.78621304
_symmetry_Int_Tables_number   1
_chemical_formula_structural   AlH18C30N7O6
_chemical_formula_sum   'Al1 H18 C30 N7 O6'
_cell_volume   1087.36402679
_cell_formula_units_Z   1
loop_
 _symmetry_equiv_pos_site_id
 _symmetry_equiv_pos_as_xyz
  1  'x, y, z'
loop_
 _atom_site_type_symbol
 _atom_site_label
 _atom_site_symmetry_multiplicity
 _atom_site_fract_x
 _atom_site_fract_y
 _atom_site_fract_z
 _atom_site_occupancy
  Al  Al0  1  0.49799000  0.99904000  0.49562000  1.0
  H  H1  1  0.03954000  0.31331000  0.10408000  1.0
  H  H2  1  0.81872000  0.08459000  0.81238000  1.0
  H  H3  1  0.34938000  0.60343000  0.58375000  1.0
  H  H4  1  0.66121000  0.31701000  0.58313000  1.0
  H  H5  1  0.98791000  0.00837000  0.72726000  1.0
  H  H6  1  0.25708000  0.76391000  0.50510000  1.0
  H  H7  1  0.97086000  0.60091000  0.81580000  1.0
  H  H8  1  0.36763000  0.07882000  0.10220000  1.0
  H  H9  1  0.95841000  0.23284000  0.26258000  1.0
  H  H10  1  0.05778000  0.93057000  0.27660000  1.0
  H  H11  1  0.35270000  0.94644000  0.33642000  1.0
  H  H12  1  0.49511000  0.95303000  0.23697000  1.0
  H  H13  1  0.54535000  0.77666000  0.75435000  1.0
  H  H14  1  0.93206000  0.83731000  0.72714000  1.0
  H  H15  1  0.88391000  0.73374000  0.81996000  1.0
  H  H16  1  0.55040000  0.24883000  0.45316000  1.0
  H  H17  1  0.99186000  0.23692000  0.43651000  1.0
  H  H18  1  0.84128000  0.32734000  0.44909000  1.0
  C  C19  1  0.05285000  0.06463000  0.36468000  1.0
  C  C20  1  0.95505000  0.06776000  0.56251000  1.0
  C  C21  1  0.99603000  0.86558000  0.56341000  1.0
  C  C22  1  0.08985000  0.24426000  0.13904000  1.0
  C  C23  1  0.20702000  0.20026000  0.09411000  1.0
  C  C24  1  0.82121000  0.11798000  0.74375000  1.0
  C  C25  1  0.72582000  0.20517000  0.70220000  1.0
  C  C26  1  0.15830000  0.59280000  0.70430000  1.0
  C  C27  1  0.24040000  0.63835000  0.61622000  1.0
  C  C28  1  0.72987000  0.24890000  0.61378000  1.0
  C  C29  1  0.81022000  0.20719000  0.56545000  1.0
  C  C30  1  0.90004000  0.11897000  0.60845000  1.0
  C  C31  1  0.91364000  0.07609000  0.69644000  1.0
  C  C32  1  0.18699000  0.72678000  0.57309000  1.0
  C  C33  1  0.04158000  0.77069000  0.61578000  1.0
  C  C34  1  0.95948000  0.72620000  0.70441000  1.0
  C  C35  1  0.02335000  0.63733000  0.74715000  1.0
  C  C36  1  0.27310000  0.11130000  0.13840000  1.0
  C  C37  1  0.21982000  0.06450000  0.22653000  1.0
  C  C38  1  0.10597000  0.11013000  0.27029000  1.0
  C  C39  1  0.04473000  0.19935000  0.22677000  1.0
  C  C40  1  0.22064000  0.37481000  0.87865000  1.0
  C  C41  1  0.45459000  0.24455000  0.87859000  1.0
  C  C42  1  0.26252000  0.24728000  0.00116000  1.0
  C  C43  1  0.22343000  0.49905000  0.75111000  1.0
  C  C44  1  0.42486000  0.37812000  0.74531000  1.0
  C  C45  1  0.61254000  0.25118000  0.75009000  1.0
  C  C46  1  0.28580000  0.96862000  0.27193000  1.0
  C  C47  1  0.82434000  0.77106000  0.75404000  1.0
  C  C48  1  0.80019000  0.25772000  0.47098000  1.0
  N  N49  1  0.36645000  0.33248000  0.83418000  1.0
  N  N50  1  0.40761000  0.20323000  0.96273000  1.0
  N  N51  1  0.16288000  0.33041000  0.96257000  1.0
  N  N52  1  0.14294000  0.45847000  0.83555000  1.0
  N  N53  1  0.35893000  0.46245000  0.70460000  1.0
  N  N54  1  0.58306000  0.20478000  0.83517000  1.0
  N  N55  1  0.54446000  0.33594000  0.70388000  1.0
  O  O56  1  0.73165000  0.90106000  0.57853000  1.0
  O  O57  1  0.80120000  0.01060000  0.40039000  1.0
  O  O58  1  0.74843000  0.08186000  0.50720000  1.0
  O  O59  1  0.23293000  0.90697000  0.50358000  1.0
  O  O60  1  0.19206000  0.01268000  0.58040000  1.0
  O  O61  1  0.26373000  0.08346000  0.40334000  1.0
