# generated using pymatgen
data_NdP4H20Ru2(CO5)4
_symmetry_space_group_name_H-M   'P 1'
_cell_length_a   9.62259000
_cell_length_b   9.62436000
_cell_length_c   15.62500000
_cell_angle_alpha   92.91610000
_cell_angle_beta   92.91670000
_cell_angle_gamma   99.10320000
_symmetry_Int_Tables_number   1
_chemical_formula_structural   NdP4H20Ru2(CO5)4
_chemical_formula_sum   'Nd2 P8 H40 Ru4 C8 O40'
_cell_volume   1424.42476503
_cell_formula_units_Z   2
loop_
 _symmetry_equiv_pos_site_id
 _symmetry_equiv_pos_as_xyz
  1  'x, y, z'
loop_
 _atom_site_type_symbol
 _atom_site_label
 _atom_site_symmetry_multiplicity
 _atom_site_fract_x
 _atom_site_fract_y
 _atom_site_fract_z
 _atom_site_occupancy
  Nd  Nd0  1  0.99197000  0.00803000  0.74998000  1.0
  Nd  Nd1  1  0.00803000  0.99198000  0.25002000  1.0
  P  P2  1  0.05987000  0.34523000  0.63945000  1.0
  P  P3  1  0.65479000  0.94013000  0.86055000  1.0
  P  P4  1  0.94012000  0.65477000  0.36055000  1.0
  P  P5  1  0.34521000  0.05987000  0.13945000  1.0
  P  P6  1  0.99726000  0.64641000  0.65847000  1.0
  P  P7  1  0.35358000  0.00274000  0.84153000  1.0
  P  P8  1  0.00273000  0.35359000  0.34153000  1.0
  P  P9  1  0.64642000  0.99726000  0.15847000  1.0
  H  H10  1  0.16791000  0.43624000  0.81920000  1.0
  H  H11  1  0.56378000  0.83211000  0.68081000  1.0
  H  H12  1  0.83210000  0.56377000  0.18080000  1.0
  H  H13  1  0.43622000  0.16789000  0.31919000  1.0
  H  H14  1  0.13874000  0.61719000  0.82558000  1.0
  H  H15  1  0.38280000  0.86128000  0.67442000  1.0
  H  H16  1  0.86127000  0.38282000  0.17441000  1.0
  H  H17  1  0.61721000  0.13873000  0.32558000  1.0
  H  H18  1  0.25499000  0.56017000  0.75067000  1.0
  H  H19  1  0.43983000  0.74506000  0.74932000  1.0
  H  H20  1  0.74501000  0.43984000  0.24932000  1.0
  H  H21  1  0.56017000  0.25494000  0.25067000  1.0
  H  H22  1  0.82733000  0.44241000  0.71960000  1.0
  H  H23  1  0.55759000  0.17263000  0.78041000  1.0
  H  H24  1  0.17267000  0.55760000  0.28041000  1.0
  H  H25  1  0.44241000  0.82737000  0.21960000  1.0
  H  H26  1  0.38716000  0.51329000  0.53826000  1.0
  H  H27  1  0.48672000  0.61290000  0.96176000  1.0
  H  H28  1  0.61281000  0.48671000  0.46177000  1.0
  H  H29  1  0.51329000  0.38712000  0.03822000  1.0
  H  H30  1  0.40833000  0.67668000  0.54527000  1.0
  H  H31  1  0.32329000  0.59171000  0.95473000  1.0
  H  H32  1  0.59169000  0.32331000  0.45472000  1.0
  H  H33  1  0.67671000  0.40828000  0.04527000  1.0
  H  H34  1  0.82196000  0.15113000  0.62074000  1.0
  H  H35  1  0.84889000  0.17804000  0.87925000  1.0
  H  H36  1  0.17804000  0.84887000  0.37926000  1.0
  H  H37  1  0.15111000  0.82196000  0.12075000  1.0
  H  H38  1  0.70646000  0.08157000  0.68235000  1.0
  H  H39  1  0.91843000  0.29351000  0.81763000  1.0
  H  H40  1  0.29354000  0.91843000  0.31765000  1.0
  H  H41  1  0.08157000  0.70649000  0.18237000  1.0
  H  H42  1  0.12855000  0.90929000  0.92060000  1.0
  H  H43  1  0.09073000  0.87144000  0.57939000  1.0
  H  H44  1  0.87144000  0.09071000  0.07940000  1.0
  H  H45  1  0.90927000  0.12856000  0.42061000  1.0
  H  H46  1  0.96689000  0.89983000  0.93928000  1.0
  H  H47  1  0.10018000  0.03306000  0.56070000  1.0
  H  H48  1  0.03311000  0.10018000  0.06072000  1.0
  H  H49  1  0.89978000  0.96693000  0.43929000  1.0
  Ru  Ru50  1  0.12003000  0.54194000  0.49725000  1.0
  Ru  Ru51  1  0.45805000  0.87998000  0.00274000  1.0
  Ru  Ru52  1  0.87996000  0.45806000  0.50274000  1.0
  Ru  Ru53  1  0.54195000  0.12001000  0.99726000  1.0
  C  C54  1  0.03410000  0.49184000  0.71576000  1.0
  C  C55  1  0.50817000  0.96590000  0.78425000  1.0
  C  C56  1  0.96590000  0.50816000  0.28424000  1.0
  C  C57  1  0.49184000  0.03410000  0.21575000  1.0
  C  C58  1  0.15688000  0.52881000  0.78255000  1.0
  C  C59  1  0.47119000  0.84314000  0.71745000  1.0
  C  C60  1  0.84312000  0.47120000  0.21745000  1.0
  C  C61  1  0.52881000  0.15686000  0.28255000  1.0
  O  O62  1  0.17833000  0.40054000  0.57975000  1.0
  O  O63  1  0.59948000  0.82169000  0.92026000  1.0
  O  O64  1  0.82166000  0.59946000  0.42025000  1.0
  O  O65  1  0.40052000  0.17830000  0.07974000  1.0
  O  O66  1  0.91537000  0.30674000  0.58457000  1.0
  O  O67  1  0.69330000  0.08460000  0.91544000  1.0
  O  O68  1  0.08462000  0.69326000  0.41543000  1.0
  O  O69  1  0.30670000  0.91539000  0.08456000  1.0
  O  O70  1  0.09125000  0.22367000  0.68985000  1.0
  O  O71  1  0.77636000  0.90874000  0.81015000  1.0
  O  O72  1  0.90875000  0.77633000  0.31016000  1.0
  O  O73  1  0.22365000  0.09126000  0.18985000  1.0
  O  O74  1  0.12002000  0.68814000  0.59745000  1.0
  O  O75  1  0.31184000  0.88000000  0.90255000  1.0
  O  O76  1  0.87998000  0.31186000  0.40255000  1.0
  O  O77  1  0.68816000  0.12000000  0.09746000  1.0
  O  O78  1  0.85658000  0.59197000  0.60415000  1.0
  O  O79  1  0.40802000  0.14339000  0.89585000  1.0
  O  O80  1  0.14342000  0.40803000  0.39585000  1.0
  O  O81  1  0.59198000  0.85660000  0.10415000  1.0
  O  O82  1  0.98499000  0.76337000  0.72377000  1.0
  O  O83  1  0.23661000  0.01503000  0.77622000  1.0
  O  O84  1  0.01501000  0.23663000  0.27623000  1.0
  O  O85  1  0.76339000  0.98497000  0.22378000  1.0
  O  O86  1  0.90780000  0.44401000  0.76086000  1.0
  O  O87  1  0.55601000  0.09218000  0.73914000  1.0
  O  O88  1  0.09220000  0.55600000  0.23914000  1.0
  O  O89  1  0.44400000  0.90782000  0.26087000  1.0
  O  O90  1  0.37665000  0.59535000  0.50528000  1.0
  O  O91  1  0.40464000  0.62339000  0.99472000  1.0
  O  O92  1  0.62336000  0.40463000  0.49473000  1.0
  O  O93  1  0.59538000  0.37660000  0.00527000  1.0
  O  O94  1  0.79363000  0.06762000  0.65415000  1.0
  O  O95  1  0.93239000  0.20636000  0.84582000  1.0
  O  O96  1  0.20637000  0.93238000  0.34585000  1.0
  O  O97  1  0.06761000  0.79364000  0.15418000  1.0
  O  O98  1  0.04217000  0.94971000  0.90785000  1.0
  O  O99  1  0.05031000  0.95782000  0.59214000  1.0
  O  O100  1  0.95783000  0.05029000  0.09215000  1.0
  O  O101  1  0.94969000  0.04219000  0.40786000  1.0
