# generated using pymatgen
data_CdH10C22N4(O2F)4
_symmetry_space_group_name_H-M   'P 1'
_cell_length_a   8.62732000
_cell_length_b   10.07150000
_cell_length_c   14.05700000
_cell_angle_alpha   89.99990000
_cell_angle_beta   89.99990000
_cell_angle_gamma   64.86200000
_symmetry_Int_Tables_number   1
_chemical_formula_structural   CdH10C22N4(O2F)4
_chemical_formula_sum   'Cd2 H20 C44 N8 O16 F8'
_cell_volume   1105.73006315
_cell_formula_units_Z   2
loop_
 _symmetry_equiv_pos_site_id
 _symmetry_equiv_pos_as_xyz
  1  'x, y, z'
loop_
 _atom_site_type_symbol
 _atom_site_label
 _atom_site_symmetry_multiplicity
 _atom_site_fract_x
 _atom_site_fract_y
 _atom_site_fract_z
 _atom_site_occupancy
  Cd  Cd0  1  0.49934000  0.77366000  0.58921000  1.0
  Cd  Cd1  1  0.50065000  0.22634000  0.08921000  1.0
  H  H2  1  0.36298000  0.02045000  0.38752000  1.0
  H  H3  1  0.63701000  0.97955000  0.88752000  1.0
  H  H4  1  0.94323000  0.82406000  0.34056000  1.0
  H  H5  1  0.05677000  0.17595000  0.84056000  1.0
  H  H6  1  0.83072000  0.92769000  0.02540000  1.0
  H  H7  1  0.16927000  0.07232000  0.52540000  1.0
  H  H8  1  0.36751000  0.82030000  0.98977000  1.0
  H  H9  1  0.63249000  0.17970000  0.48978000  1.0
  H  H10  1  0.14396000  0.91379000  0.27015000  1.0
  H  H11  1  0.85604000  0.08621000  0.77016000  1.0
  H  H12  1  0.82147000  0.50570000  0.62342000  1.0
  H  H13  1  0.17854000  0.49431000  0.12341000  1.0
  H  H14  1  0.36599000  0.35637000  0.59610000  1.0
  H  H15  1  0.63401000  0.64363000  0.09610000  1.0
  H  H16  1  0.06465000  0.39930000  0.34400000  1.0
  H  H17  1  0.93535000  0.60070000  0.84400000  1.0
  H  H18  1  0.81408000  0.37004000  0.30896000  1.0
  H  H19  1  0.18592000  0.62996000  0.80896000  1.0
  H  H20  1  0.24162000  0.61293000  0.30783000  1.0
  H  H21  1  0.75838000  0.38707000  0.80783000  1.0
  C  C22  1  0.67101000  0.94074000  0.34168000  1.0
  C  C23  1  0.32899000  0.05926000  0.84168000  1.0
  C  C24  1  0.37531000  0.11443000  0.26740000  1.0
  C  C25  1  0.62469000  0.88556000  0.76740000  1.0
  C  C26  1  0.56322000  0.03056000  0.27142000  1.0
  C  C27  1  0.43678000  0.96944000  0.77142000  1.0
  C  C28  1  0.97056000  0.92198000  0.15520000  1.0
  C  C29  1  0.02944000  0.07802000  0.65520000  1.0
  C  C30  1  0.95259000  0.91134000  0.05671000  1.0
  C  C31  1  0.04741000  0.08866000  0.55671000  1.0
  C  C32  1  0.82356000  0.95263000  0.21713000  1.0
  C  C33  1  0.17644000  0.04737000  0.71713000  1.0
  C  C34  1  0.26732000  0.86239000  0.13381000  1.0
  C  C35  1  0.73268000  0.13760000  0.63382000  1.0
  C  C36  1  0.25662000  0.84949000  0.03591000  1.0
  C  C37  1  0.74338000  0.15050000  0.53591000  1.0
  C  C38  1  0.09567000  0.87736000  0.00004000  1.0
  C  C39  1  0.90433000  0.12264000  0.50004000  1.0
  C  C40  1  0.12905000  0.89978000  0.19459000  1.0
  C  C41  1  0.87095000  0.10022000  0.69459000  1.0
  C  C42  1  0.93231000  0.47322000  0.57693000  1.0
  C  C43  1  0.06769000  0.52678000  0.07693000  1.0
  C  C44  1  0.09239000  0.43506000  0.61615000  1.0
  C  C45  1  0.90761000  0.56494000  0.11615000  1.0
  C  C46  1  0.24208000  0.38517000  0.56310000  1.0
  C  C47  1  0.75792000  0.61483000  0.06310000  1.0
  C  C48  1  0.92045000  0.46031000  0.47809000  1.0
  C  C49  1  0.07955000  0.53969000  0.97809000  1.0
  C  C50  1  0.63889000  0.89028000  0.43542000  1.0
  C  C51  1  0.36111000  0.10972000  0.93542000  1.0
  C  C52  1  0.75211000  0.49868000  0.43633000  1.0
  C  C53  1  0.24789000  0.50132000  0.93633000  1.0
  C  C54  1  0.22403000  0.37281000  0.46585000  1.0
  C  C55  1  0.77597000  0.62719000  0.96585000  1.0
  C  C56  1  0.06818000  0.40908000  0.42098000  1.0
  C  C57  1  0.93182000  0.59092000  0.92098000  1.0
  C  C58  1  0.29351000  0.69238000  0.42963000  1.0
  C  C59  1  0.70649000  0.30762000  0.92963000  1.0
  C  C60  1  0.47583000  0.59579000  0.41011000  1.0
  C  C61  1  0.52417000  0.40421000  0.91011000  1.0
  C  C62  1  0.48354000  0.46009000  0.24874000  1.0
  C  C63  1  0.51647000  0.53991000  0.74874000  1.0
  C  C64  1  0.55290000  0.50393000  0.33333333  1.0
  C  C65  1  0.44710000  0.49607000  0.83329000  1.0
  N  N66  1  0.65972000  0.03623000  0.19526000  1.0
  N  N67  1  0.34028000  0.96377000  0.69526000  1.0
  N  N68  1  0.83355000  0.89443000  0.30582000  1.0
  N  N69  1  0.16645000  0.10557000  0.80582000  1.0
  N  N70  1  0.60057000  0.59033000  0.47296000  1.0
  N  N71  1  0.39943000  0.40968000  0.97295000  1.0
  N  N72  1  0.72482000  0.44514000  0.35200000  1.0
  N  N73  1  0.27518000  0.55486000  0.85199000  1.0
  O  O74  1  0.28264000  0.09019000  0.33333333  1.0
  O  O75  1  0.71736000  0.90980000  0.83332000  1.0
  O  O76  1  0.30753000  0.20437000  0.20216000  1.0
  O  O77  1  0.69246000  0.79563000  0.70216000  1.0
  O  O78  1  0.47786000  0.93569000  0.45943000  1.0
  O  O79  1  0.52214000  0.06432000  0.95943000  1.0
  O  O80  1  0.76084000  0.80707000  0.48480000  1.0
  O  O81  1  0.23915000  0.19294000  0.98480000  1.0
  O  O82  1  0.17964000  0.68863000  0.36845000  1.0
  O  O83  1  0.82036000  0.31137000  0.86845000  1.0
  O  O84  1  0.25261000  0.77374000  0.50036000  1.0
  O  O85  1  0.74738000  0.22626000  0.00036000  1.0
  O  O86  1  0.58947000  0.36245000  0.19583000  1.0
  O  O87  1  0.41054000  0.63754000  0.69582000  1.0
  O  O88  1  0.32106000  0.52323000  0.23636000  1.0
  O  O89  1  0.67895000  0.47676000  0.73635000  1.0
  F  F90  1  0.07926000  0.86920000  0.90374000  1.0
  F  F91  1  0.92074000  0.13080000  0.40374000  1.0
  F  F92  1  0.42334000  0.83637000  0.17222000  1.0
  F  F93  1  0.57666000  0.16363000  0.67222000  1.0
  F  F94  1  0.10586000  0.44362000  0.71277000  1.0
  F  F95  1  0.89414000  0.55638000  0.21277000  1.0
  F  F96  1  0.37008000  0.32293000  0.41196000  1.0
  F  F97  1  0.62992000  0.67706000  0.91196000  1.0
