# generated using pymatgen
data_DyH11(C5O3)3
_symmetry_space_group_name_H-M   'P 1'
_cell_length_a   8.99226000
_cell_length_b   9.49219620
_cell_length_c   12.86420000
_cell_angle_alpha   107.34267692
_cell_angle_beta   94.78190000
_cell_angle_gamma   116.46847954
_symmetry_Int_Tables_number   1
_chemical_formula_structural   DyH11(C5O3)3
_chemical_formula_sum   'Dy2 H22 C30 O18'
_cell_volume   907.72228393
_cell_formula_units_Z   2
loop_
 _symmetry_equiv_pos_site_id
 _symmetry_equiv_pos_as_xyz
  1  'x, y, z'
loop_
 _atom_site_type_symbol
 _atom_site_label
 _atom_site_symmetry_multiplicity
 _atom_site_fract_x
 _atom_site_fract_y
 _atom_site_fract_z
 _atom_site_occupancy
  Dy  Dy0  1  0.70218000  0.44836000  0.48087000  1.0
  Dy  Dy1  1  0.29782000  0.55165000  0.51913000  1.0
  H  H2  1  0.86989000  0.23989000  0.50320000  1.0
  H  H3  1  0.13011000  0.76011000  0.49679000  1.0
  H  H4  1  0.69704000  0.13318000  0.40587000  1.0
  H  H5  1  0.30295000  0.86681000  0.59412000  1.0
  H  H6  1  0.48144000  0.35324000  0.63700000  1.0
  H  H7  1  0.51855000  0.64674000  0.36300000  1.0
  H  H8  1  0.56037000  0.22716000  0.60074000  1.0
  H  H9  1  0.43962000  0.77282000  0.39925000  1.0
  H  H10  1  0.24442000  0.59777000  0.86207000  1.0
  H  H11  1  0.75558000  0.40225000  0.13793000  1.0
  H  H12  1  0.22760000  0.65872000  0.06287000  1.0
  H  H13  1  0.77245000  0.34134000  0.93714000  1.0
  H  H14  1  0.03856000  0.77413000  0.13195000  1.0
  H  H15  1  0.96147000  0.22591000  0.86806000  1.0
  H  H16  1  0.87399000  0.83474000  0.00160000  1.0
  H  H17  1  0.12602000  0.16527000  0.99840000  1.0
  H  H18  1  0.83028000  0.06141000  0.57586000  1.0
  H  H19  1  0.16973000  0.93859000  0.42414000  1.0
  H  H20  1  0.33690000  0.22786000  0.76352000  1.0
  H  H21  1  0.66308000  0.77211000  0.23647000  1.0
  H  H22  1  0.21324000  0.00246000  0.84157000  1.0
  H  H23  1  0.78676000  0.99753000  0.15844000  1.0
  C  C24  1  0.07321000  0.62670000  0.69845000  1.0
  C  C25  1  0.92677000  0.37329000  0.30153000  1.0
  C  C26  1  0.06624000  0.67619000  0.81937000  1.0
  C  C27  1  0.93376000  0.32380000  0.18063000  1.0
  C  C28  1  0.16337000  0.64907000  0.89455000  1.0
  C  C29  1  0.83664000  0.35095000  0.10545000  1.0
  C  C30  1  0.15444000  0.68412000  0.00627000  1.0
  C  C31  1  0.84560000  0.31592000  0.99375000  1.0
  C  C32  1  0.04821000  0.74832000  0.04515000  1.0
  C  C33  1  0.95183000  0.25173000  0.95486000  1.0
  C  C34  1  0.95447000  0.78076000  0.97279000  1.0
  C  C35  1  0.04554000  0.21925000  0.02722000  1.0
  C  C36  1  0.96526000  0.74636000  0.86150000  1.0
  C  C37  1  0.03472000  0.25362000  0.13850000  1.0
  C  C38  1  0.95170000  0.90435000  0.75120000  1.0
  C  C39  1  0.04828000  0.09562000  0.24879000  1.0
  C  C40  1  0.84442000  0.92134000  0.67544000  1.0
  C  C41  1  0.15557000  0.07867000  0.32457000  1.0
  C  C42  1  0.91543000  0.04933000  0.63358000  1.0
  C  C43  1  0.08457000  0.95066000  0.36642000  1.0
  C  C44  1  0.09320000  0.15944000  0.66319000  1.0
  C  C45  1  0.90680000  0.84055000  0.33681000  1.0
  C  C46  1  0.19877000  0.14073000  0.73849000  1.0
  C  C47  1  0.80122000  0.85925000  0.26151000  1.0
  C  C48  1  0.12978000  0.01475000  0.78263000  1.0
  C  C49  1  0.87022000  0.98526000  0.21739000  1.0
  C  C50  1  0.65731000  0.79567000  0.63201000  1.0
  C  C51  1  0.34268000  0.20433000  0.36799000  1.0
  C  C52  1  0.16777000  0.29046000  0.61396000  1.0
  C  C53  1  0.83224000  0.70953000  0.38603000  1.0
  O  O54  1  0.93883000  0.56756000  0.62210000  1.0
  O  O55  1  0.06114000  0.43243000  0.37789000  1.0
  O  O56  1  0.21589000  0.64410000  0.68015000  1.0
  O  O57  1  0.78410000  0.35589000  0.31985000  1.0
  O  O58  1  0.86980000  0.78367000  0.79441000  1.0
  O  O59  1  0.13018000  0.21632000  0.20559000  1.0
  O  O60  1  0.61292000  0.63800000  0.58344000  1.0
  O  O61  1  0.38707000  0.36200000  0.41656000  1.0
  O  O62  1  0.54573000  0.84180000  0.63640000  1.0
  O  O63  1  0.45428000  0.15821000  0.36361000  1.0
  O  O64  1  0.07237000  0.29776000  0.53826000  1.0
  O  O65  1  0.92764000  0.70223000  0.46174000  1.0
  O  O66  1  0.32860000  0.39777000  0.64528000  1.0
  O  O67  1  0.67138000  0.60222000  0.35471000  1.0
  O  O68  1  0.74560000  0.20911000  0.48469000  1.0
  O  O69  1  0.25439000  0.79088000  0.51531000  1.0
  O  O70  1  0.58404000  0.34345000  0.61956000  1.0
  O  O71  1  0.41594000  0.65653000  0.38043000  1.0
