# generated using pymatgen
data_KH2C3N3O2
_symmetry_space_group_name_H-M   'P 1'
_cell_length_a   6.39864000
_cell_length_b   9.48348217
_cell_length_c   10.33960000
_cell_angle_alpha   62.74556359
_cell_angle_beta   81.58790000
_cell_angle_gamma   71.36976673
_symmetry_Int_Tables_number   1
_chemical_formula_structural   KH2C3N3O2
_chemical_formula_sum   'K4 H8 C12 N12 O8'
_cell_volume   528.53907437
_cell_formula_units_Z   4
loop_
 _symmetry_equiv_pos_site_id
 _symmetry_equiv_pos_as_xyz
  1  'x, y, z'
loop_
 _atom_site_type_symbol
 _atom_site_label
 _atom_site_symmetry_multiplicity
 _atom_site_fract_x
 _atom_site_fract_y
 _atom_site_fract_z
 _atom_site_occupancy
  K  K0  1  0.26360000  0.45063000  0.84208000  1.0
  K  K1  1  0.76416000  0.29256000  0.15841000  1.0
  K  K2  1  0.59459000  0.37548000  0.50401000  1.0
  K  K3  1  0.09508000  0.87937000  0.49615000  1.0
  H  H4  1  0.53857000  0.07713000  0.38512000  1.0
  H  H5  1  0.03860000  0.46200000  0.61489000  1.0
  H  H6  1  0.61612000  0.02669000  0.54428000  1.0
  H  H7  1  0.11581000  0.57104000  0.45580000  1.0
  H  H8  1  0.57343000  0.71513000  0.47033000  1.0
  H  H9  1  0.07337000  0.18549000  0.52951000  1.0
  H  H10  1  0.63496000  0.65957000  0.63326000  1.0
  H  H11  1  0.13472000  0.29311000  0.36666000  1.0
  C  C12  1  0.55733000  0.04650000  0.88029000  1.0
  C  C13  1  0.05719000  0.92717000  0.11969000  1.0
  C  C14  1  0.62834000  0.89632000  0.85770000  1.0
  C  C15  1  0.12845000  0.75441000  0.14227000  1.0
  C  C16  1  0.67519000  0.73490000  0.97153000  1.0
  C  C17  1  0.17544000  0.70669000  0.02845000  1.0
  C  C18  1  0.65398000  0.69601000  0.12671000  1.0
  C  C19  1  0.15438000  0.82261000  0.87331000  1.0
  C  C20  1  0.58462000  0.84592000  0.14934000  1.0
  C  C21  1  0.08470000  0.99517000  0.85065000  1.0
  C  C22  1  0.54047000  0.00736000  0.03556000  1.0
  C  C23  1  0.04046000  0.04307000  0.96439000  1.0
  N  N24  1  0.65859000  0.88187000  0.73166000  1.0
  N  N25  1  0.15823000  0.61408000  0.26830000  1.0
  N  N26  1  0.72189000  0.71921000  0.76697000  1.0
  N  N27  1  0.22141000  0.48672000  0.23294000  1.0
  N  N28  1  0.73348000  0.62704000  0.91204000  1.0
  N  N29  1  0.23335000  0.53944000  0.08789000  1.0
  N  N30  1  0.48055000  0.11496000  0.09541000  1.0
  N  N31  1  0.98061000  0.21044000  0.90448000  1.0
  N  N32  1  0.48768000  0.02221000  0.24044000  1.0
  N  N33  1  0.98794000  0.26244000  0.75945000  1.0
  N  N34  1  0.55047000  0.85968000  0.27568000  1.0
  N  N35  1  0.05073000  0.13504000  0.72429000  1.0
  O  O36  1  0.68810000  0.55276000  0.22575000  1.0
  O  O37  1  0.18906000  0.77811000  0.77433000  1.0
  O  O38  1  0.51451000  0.19019000  0.78126000  1.0
  O  O39  1  0.01432000  0.97188000  0.21875000  1.0
  O  O40  1  0.61956000  0.10621000  0.43961000  1.0
  O  O41  1  0.11956000  0.54554000  0.56058000  1.0
  O  O42  1  0.55039000  0.63994000  0.57334000  1.0
  O  O43  1  0.05021000  0.21354000  0.42641000  1.0
