# generated using pymatgen
data_Cu2H16C15SI2N3
_symmetry_space_group_name_H-M   'P 1'
_cell_length_a   9.70463000
_cell_length_b   10.07940000
_cell_length_c   10.83960000
_cell_angle_alpha   91.65220000
_cell_angle_beta   96.53820000
_cell_angle_gamma   116.87000000
_symmetry_Int_Tables_number   1
_chemical_formula_structural   Cu2H16C15SI2N3
_chemical_formula_sum   'Cu4 H32 C30 S2 I4 N6'
_cell_volume   935.80366835
_cell_formula_units_Z   2
loop_
 _symmetry_equiv_pos_site_id
 _symmetry_equiv_pos_as_xyz
  1  'x, y, z'
loop_
 _atom_site_type_symbol
 _atom_site_label
 _atom_site_symmetry_multiplicity
 _atom_site_fract_x
 _atom_site_fract_y
 _atom_site_fract_z
 _atom_site_occupancy
  Cu  Cu0  1  0.05574000  0.15495000  0.01771000  1.0
  Cu  Cu1  1  0.94426000  0.84505000  0.98230000  1.0
  Cu  Cu2  1  0.36342000  0.00155000  0.99766000  1.0
  Cu  Cu3  1  0.63658000  0.99845000  0.00234000  1.0
  H  H4  1  0.16050000  0.47474000  0.07054000  1.0
  H  H5  1  0.83950000  0.52526000  0.92946000  1.0
  H  H6  1  0.10302000  0.64320000  0.20250000  1.0
  H  H7  1  0.89698000  0.35680000  0.79750000  1.0
  H  H8  1  0.02386000  0.75895000  0.31098000  1.0
  H  H9  1  0.97614000  0.24105000  0.68903000  1.0
  H  H10  1  0.94514000  0.89465000  0.45382000  1.0
  H  H11  1  0.05486000  0.10535000  0.54618000  1.0
  H  H12  1  0.76406000  0.76136000  0.60599000  1.0
  H  H13  1  0.23593000  0.23863000  0.39401000  1.0
  H  H14  1  0.65904000  0.48484000  0.60711000  1.0
  H  H15  1  0.34096000  0.51516000  0.39289000  1.0
  H  H16  1  0.73905000  0.34623000  0.46036000  1.0
  H  H17  1  0.26095000  0.65377000  0.53964000  1.0
  H  H18  1  0.59532000  0.08677000  0.27203000  1.0
  H  H19  1  0.40468000  0.91324000  0.72797000  1.0
  H  H20  1  0.54040000  0.89301000  0.25766000  1.0
  H  H21  1  0.45960000  0.10699000  0.74233000  1.0
  H  H22  1  0.76930000  0.12193000  0.47063000  1.0
  H  H23  1  0.23071000  0.87808000  0.52937000  1.0
  H  H24  1  0.74216000  0.93708000  0.44944000  1.0
  H  H25  1  0.25784000  0.06292000  0.55056000  1.0
  H  H26  1  0.45949000  0.83622000  0.46675000  1.0
  H  H27  1  0.54051000  0.16378000  0.53325000  1.0
  H  H28  1  0.58138000  0.94599000  0.60251000  1.0
  H  H29  1  0.41862000  0.05401000  0.39749000  1.0
  H  H30  1  0.53484000  0.43578000  0.82039000  1.0
  H  H31  1  0.46515000  0.56421000  0.17961000  1.0
  H  H32  1  0.47574000  0.58055000  0.83170000  1.0
  H  H33  1  0.52425000  0.41944000  0.16830000  1.0
  H  H34  1  0.39151000  0.44054000  0.70187000  1.0
  H  H35  1  0.60849000  0.55946000  0.29813000  1.0
  C  C36  1  0.89290000  0.22571000  0.21284000  1.0
  C  C37  1  0.10710000  0.77429000  0.78716000  1.0
  C  C38  1  0.07423000  0.42940000  0.13418000  1.0
  C  C39  1  0.92577000  0.57060000  0.86582000  1.0
  C  C40  1  0.04191000  0.52311000  0.20868000  1.0
  C  C41  1  0.95809000  0.47690000  0.79132000  1.0
  C  C42  1  0.93160000  0.45657000  0.29016000  1.0
  C  C43  1  0.06840000  0.54343000  0.70984000  1.0
  C  C44  1  0.88758000  0.54176000  0.37673000  1.0
  C  C45  1  0.11243000  0.45825000  0.62327000  1.0
  C  C46  1  0.94520000  0.69704000  0.37616000  1.0
  C  C47  1  0.05480000  0.30296000  0.62384000  1.0
  C  C48  1  0.89978000  0.77453000  0.45735000  1.0
  C  C49  1  0.10022000  0.22547000  0.54265000  1.0
  C  C50  1  0.79715000  0.69958000  0.54113000  1.0
  C  C51  1  0.20285000  0.30042000  0.45887000  1.0
  C  C52  1  0.73906000  0.54480000  0.54213000  1.0
  C  C53  1  0.26094000  0.45520000  0.45787000  1.0
  C  C54  1  0.78350000  0.46664000  0.46070000  1.0
  C  C55  1  0.21650000  0.53336000  0.53930000  1.0
  C  C56  1  0.63532000  0.00337000  0.29525000  1.0
  C  C57  1  0.36468000  0.99663000  0.70475000  1.0
  C  C58  1  0.68362000  0.00759000  0.43420000  1.0
  C  C59  1  0.31638000  0.99241000  0.56580000  1.0
  C  C60  1  0.54232000  0.95175000  0.50428000  1.0
  C  C61  1  0.45768000  0.04825000  0.49572000  1.0
  C  C62  1  0.31480000  0.36879000  0.87146000  1.0
  C  C63  1  0.68519000  0.63120000  0.12854000  1.0
  C  C64  1  0.43642000  0.46207000  0.80196000  1.0
  C  C65  1  0.56358000  0.53792000  0.19804000  1.0
  S  S66  1  0.78470000  0.02965000  0.19840000  1.0
  S  S67  1  0.21531000  0.97035000  0.80160000  1.0
  I  I68  1  0.18398000  0.01477000  0.15583000  1.0
  I  I69  1  0.81602000  0.98523000  0.84417000  1.0
  I  I70  1  0.61337000  0.24867000  0.99142000  1.0
  I  I71  1  0.38663000  0.75133000  0.00858000  1.0
  N  N72  1  0.00221000  0.27958000  0.13482000  1.0
  N  N73  1  0.99779000  0.72042000  0.86518000  1.0
  N  N74  1  0.85875000  0.30663000  0.29060000  1.0
  N  N75  1  0.14125000  0.69337000  0.70940000  1.0
  N  N76  1  0.21715000  0.29237000  0.92741000  1.0
  N  N77  1  0.78285000  0.70762000  0.07258000  1.0
