# generated using pymatgen
data_HgH12C16N4(ClO)2
_symmetry_space_group_name_H-M   'P 1'
_cell_length_a   3.80480000
_cell_length_b   8.60660000
_cell_length_c   12.91410000
_cell_angle_alpha   94.76580000
_cell_angle_beta   92.85670000
_cell_angle_gamma   99.06490000
_symmetry_Int_Tables_number   1
_chemical_formula_structural   HgH12C16N4(ClO)2
_chemical_formula_sum   'Hg1 H12 C16 N4 Cl2 O2'
_cell_volume   415.31295140
_cell_formula_units_Z   1
loop_
 _symmetry_equiv_pos_site_id
 _symmetry_equiv_pos_as_xyz
  1  'x, y, z'
loop_
 _atom_site_type_symbol
 _atom_site_label
 _atom_site_symmetry_multiplicity
 _atom_site_fract_x
 _atom_site_fract_y
 _atom_site_fract_z
 _atom_site_occupancy
  Hg  Hg0  1  0.50000000  0.50000000  0.50000000  1.0
  H  H1  1  0.89638000  0.62376000  0.02522000  1.0
  H  H2  1  0.10362000  0.37624000  0.97478000  1.0
  H  H3  1  0.65475000  0.33796000  0.27194000  1.0
  H  H4  1  0.34524000  0.66204000  0.72806000  1.0
  H  H5  1  0.77417000  0.89373000  0.03494000  1.0
  H  H6  1  0.22583000  0.10627000  0.96506000  1.0
  H  H7  1  0.58786000  0.11616000  0.14134000  1.0
  H  H8  1  0.41213000  0.88383000  0.85866000  1.0
  H  H9  1  0.37163000  0.07890000  0.31935000  1.0
  H  H10  1  0.62836000  0.92110000  0.68065000  1.0
  H  H11  1  0.35537000  0.81844000  0.39110000  1.0
  H  H12  1  0.64463000  0.18156000  0.60890000  1.0
  C  C13  1  0.65617000  0.45064000  0.23883000  1.0
  C  C14  1  0.34383000  0.54936000  0.76117000  1.0
  C  C15  1  0.78956000  0.46398000  0.13563000  1.0
  C  C16  1  0.21045000  0.53602000  0.86437000  1.0
  C  C17  1  0.67587000  0.73222000  0.15346000  1.0
  C  C18  1  0.32414000  0.26778000  0.84654000  1.0
  C  C19  1  0.68182000  0.87862000  0.11259000  1.0
  C  C20  1  0.31819000  0.12138000  0.88741000  1.0
  C  C21  1  0.57517000  0.00180000  0.17276000  1.0
  C  C22  1  0.42482000  0.99820000  0.82724000  1.0
  C  C23  1  0.45844000  0.98158000  0.27332000  1.0
  C  C24  1  0.54155000  0.01842000  0.72668000  1.0
  C  C25  1  0.44815000  0.83721000  0.31396000  1.0
  C  C26  1  0.55184000  0.16279000  0.68604000  1.0
  C  C27  1  0.55777000  0.71028000  0.25478000  1.0
  C  C28  1  0.44224000  0.28972000  0.74522000  1.0
  N  N29  1  0.55111000  0.56603000  0.29449000  1.0
  N  N30  1  0.44889000  0.43396000  0.70551000  1.0
  N  N31  1  0.78633000  0.60713000  0.09783000  1.0
  N  N32  1  0.21368000  0.39287000  0.90217000  1.0
  Cl  Cl33  1  0.95813000  0.72033000  0.55189000  1.0
  Cl  Cl34  1  0.04187000  0.27968000  0.44811000  1.0
  O  O35  1  0.90475000  0.35224000  0.08554000  1.0
  O  O36  1  0.09525000  0.64776000  0.91446000  1.0
