# generated using pymatgen
data_ZnH24C28(NO)4
_symmetry_space_group_name_H-M   'P 1'
_cell_length_a   6.09532000
_cell_length_b   12.85939810
_cell_length_c   16.32944142
_cell_angle_alpha   85.89048043
_cell_angle_beta   79.29666545
_cell_angle_gamma   76.39797387
_symmetry_Int_Tables_number   1
_chemical_formula_structural   ZnH24C28(NO)4
_chemical_formula_sum   'Zn2 H48 C56 N8 O8'
_cell_volume   1221.86918201
_cell_formula_units_Z   2
loop_
 _symmetry_equiv_pos_site_id
 _symmetry_equiv_pos_as_xyz
  1  'x, y, z'
loop_
 _atom_site_type_symbol
 _atom_site_label
 _atom_site_symmetry_multiplicity
 _atom_site_fract_x
 _atom_site_fract_y
 _atom_site_fract_z
 _atom_site_occupancy
  Zn  Zn0  1  0.61834000  0.75011000  0.25018000  1.0
  Zn  Zn1  1  0.38167000  0.24987000  0.74984000  1.0
  H  H2  1  0.12464000  0.88834000  0.23228000  1.0
  H  H3  1  0.24350000  0.61239000  0.26775000  1.0
  H  H4  1  0.87534000  0.11163000  0.76775000  1.0
  H  H5  1  0.75648000  0.38761000  0.73225000  1.0
  H  H6  1  0.40959000  0.79518000  0.45068000  1.0
  H  H7  1  0.65513000  0.70476000  0.04946000  1.0
  H  H8  1  0.59040000  0.20480000  0.54934000  1.0
  H  H9  1  0.34483000  0.29527000  0.95055000  1.0
  H  H10  1  0.95742000  0.90541000  0.49512000  1.0
  H  H11  1  0.35703000  0.59449000  0.00497000  1.0
  H  H12  1  0.04255000  0.09458000  0.50491000  1.0
  H  H13  1  0.64296000  0.40556000  0.99503000  1.0
  H  H14  1  0.62514000  0.93358000  0.40162000  1.0
  H  H15  1  0.95881000  0.56634000  0.09818000  1.0
  H  H16  1  0.37486000  0.06641000  0.59838000  1.0
  H  H17  1  0.04118000  0.43367000  0.90180000  1.0
  H  H18  1  0.71290000  0.94698000  0.29329000  1.0
  H  H19  1  0.95188000  0.55320000  0.20664000  1.0
  H  H20  1  0.28705000  0.05302000  0.70672000  1.0
  H  H21  1  0.04810000  0.44683000  0.79333000  1.0
  H  H22  1  0.33487000  0.09168000  0.41575000  1.0
  H  H23  1  0.84007000  0.40776000  0.08486000  1.0
  H  H24  1  0.66509000  0.90833000  0.58426000  1.0
  H  H25  1  0.15991000  0.59229000  0.91512000  1.0
  H  H26  1  0.21876000  0.29085000  0.42142000  1.0
  H  H27  1  0.92892000  0.20851000  0.07908000  1.0
  H  H28  1  0.78126000  0.70915000  0.57856000  1.0
  H  H29  1  0.07102000  0.79153000  0.92091000  1.0
  H  H30  1  0.50756000  0.40021000  0.36635000  1.0
  H  H31  1  0.27325000  0.09994000  0.13356000  1.0
  H  H32  1  0.49245000  0.59978000  0.63364000  1.0
  H  H33  1  0.72668000  0.90008000  0.86644000  1.0
  H  H34  1  0.90662000  0.30920000  0.30807000  1.0
  H  H35  1  0.52338000  0.19167000  0.19150000  1.0
  H  H36  1  0.09340000  0.69078000  0.69192000  1.0
  H  H37  1  0.47656000  0.80833000  0.80851000  1.0
  H  H38  1  0.02163000  0.11164000  0.30339000  1.0
  H  H39  1  0.43556000  0.38927000  0.19627000  1.0
  H  H40  1  0.97838000  0.88834000  0.69662000  1.0
  H  H41  1  0.56441000  0.61073000  0.80373000  1.0
  H  H42  1  0.18846000  0.85071000  0.08639000  1.0
  H  H43  1  0.12565000  0.64946000  0.41365000  1.0
  H  H44  1  0.81155000  0.14929000  0.91361000  1.0
  H  H45  1  0.87446000  0.35051000  0.58633000  1.0
  H  H46  1  0.57629000  0.06401000  0.02819000  1.0
  H  H47  1  0.66803000  0.43575000  0.47194000  1.0
  H  H48  1  0.42373000  0.93600000  0.97183000  1.0
  H  H49  1  0.33205000  0.56422000  0.52804000  1.0
  C  C50  1  0.14567000  0.87900000  0.29705000  1.0
  C  C51  1  0.32019000  0.62154000  0.20300000  1.0
  C  C52  1  0.85431000  0.12097000  0.70298000  1.0
  C  C53  1  0.67977000  0.37849000  0.79699000  1.0
  C  C54  1  0.28542000  0.83262000  0.41161000  1.0
  C  C55  1  0.52900000  0.66746000  0.08855000  1.0
  C  C56  1  0.71456000  0.16736000  0.58842000  1.0
  C  C57  1  0.47099000  0.33256000  0.91145000  1.0
  C  C58  1  0.06149000  0.88627000  0.43460000  1.0
  C  C59  1  0.38124000  0.61387000  0.06550000  1.0
  C  C60  1  0.93848000  0.11372000  0.56542000  1.0
  C  C61  1  0.61877000  0.38616000  0.93450000  1.0
  C  C62  1  0.74118000  0.96837000  0.35385000  1.0
  C  C63  1  0.06163000  0.53179000  0.14607000  1.0
  C  C64  1  0.25883000  0.03161000  0.64615000  1.0
  C  C65  1  0.93839000  0.46824000  0.85390000  1.0
  C  C66  1  0.68540000  0.08865000  0.36045000  1.0
  C  C67  1  0.13287000  0.41147000  0.13957000  1.0
  C  C68  1  0.31460000  0.91133000  0.63956000  1.0
  C  C69  1  0.86714000  0.58854000  0.86041000  1.0
  C  C70  1  0.46001000  0.14022000  0.39322000  1.0
  C  C71  1  0.99147000  0.35945000  0.10714000  1.0
  C  C72  1  0.53998000  0.85976000  0.60679000  1.0
  C  C73  1  0.00853000  0.64057000  0.89283000  1.0
  C  C74  1  0.39466000  0.25167000  0.39565000  1.0
  C  C75  1  0.04013000  0.24800000  0.10467000  1.0
  C  C76  1  0.60536000  0.74832000  0.60435000  1.0
  C  C77  1  0.95983000  0.75203000  0.89531000  1.0
  C  C78  1  0.55537000  0.31299000  0.36506000  1.0
  C  C79  1  0.23219000  0.18716000  0.13494000  1.0
  C  C80  1  0.44466000  0.68699000  0.63494000  1.0
  C  C81  1  0.76776000  0.81286000  0.86506000  1.0
  C  C82  1  0.78067000  0.26189000  0.33250000  1.0
  C  C83  1  0.37416000  0.23866000  0.16726000  1.0
  C  C84  1  0.21936000  0.73809000  0.66750000  1.0
  C  C85  1  0.62580000  0.76134000  0.83274000  1.0
  C  C86  1  0.84588000  0.15028000  0.33008000  1.0
  C  C87  1  0.32508000  0.35028000  0.16972000  1.0
  C  C88  1  0.15413000  0.84971000  0.66992000  1.0
  C  C89  1  0.67490000  0.64972000  0.83027000  1.0
  C  C90  1  0.72307000  0.90167000  0.13300000  1.0
  C  C91  1  0.75726000  0.59844000  0.36719000  1.0
  C  C92  1  0.27695000  0.09833000  0.86702000  1.0
  C  C93  1  0.24278000  0.40155000  0.63280000  1.0
  C  C94  1  0.86734000  0.95288000  0.06496000  1.0
  C  C95  1  0.88479000  0.54718000  0.43515000  1.0
  C  C96  1  0.13266000  0.04712000  0.93506000  1.0
  C  C97  1  0.11526000  0.45282000  0.56482000  1.0
  C  C98  1  0.10656000  0.91633000  0.04864000  1.0
  C  C99  1  0.07153000  0.58378000  0.45139000  1.0
  C  C100  1  0.89346000  0.08366000  0.95138000  1.0
  C  C101  1  0.92855000  0.41621000  0.54859000  1.0
  C  C102  1  0.76200000  0.03686000  0.01576000  1.0
  C  C103  1  0.81429000  0.46304000  0.48431000  1.0
  C  C104  1  0.23802000  0.96315000  0.98426000  1.0
  C  C105  1  0.18577000  0.53693000  0.51567000  1.0
  N  N106  1  0.33578000  0.82925000  0.32553000  1.0
  N  N107  1  0.48963000  0.67109000  0.17462000  1.0
  N  N108  1  0.66422000  0.17072000  0.67449000  1.0
  N  N109  1  0.51034000  0.32892000  0.82538000  1.0
  N  N110  1  0.97564000  0.91449000  0.36138000  1.0
  N  N111  1  0.24980000  0.58591000  0.13863000  1.0
  N  N112  1  0.02436000  0.08548000  0.63863000  1.0
  N  N113  1  0.75019000  0.41411000  0.86135000  1.0
  O  O114  1  0.83470000  0.82105000  0.17323000  1.0
  O  O115  1  0.82870000  0.67917000  0.32702000  1.0
  O  O116  1  0.16531000  0.17893000  0.82676000  1.0
  O  O117  1  0.17136000  0.32081000  0.67297000  1.0
  O  O118  1  0.51002000  0.93525000  0.14870000  1.0
  O  O119  1  0.59329000  0.56481000  0.35143000  1.0
  O  O120  1  0.49000000  0.06480000  0.85135000  1.0
  O  O121  1  0.40675000  0.43517000  0.64856000  1.0
