# generated using pymatgen
data_CdH24C22(N3O2)2
_symmetry_space_group_name_H-M   'P 1'
_cell_length_a   10.93710000
_cell_length_b   10.96300000
_cell_length_c   21.27030000
_cell_angle_alpha   96.26950000
_cell_angle_beta   96.24900000
_cell_angle_gamma   104.30900000
_symmetry_Int_Tables_number   1
_chemical_formula_structural   CdH24C22(N3O2)2
_chemical_formula_sum   'Cd4 H96 C88 N24 O16'
_cell_volume   2431.92858662
_cell_formula_units_Z   4
loop_
 _symmetry_equiv_pos_site_id
 _symmetry_equiv_pos_as_xyz
  1  'x, y, z'
loop_
 _atom_site_type_symbol
 _atom_site_label
 _atom_site_symmetry_multiplicity
 _atom_site_fract_x
 _atom_site_fract_y
 _atom_site_fract_z
 _atom_site_occupancy
  Cd  Cd0  1  0.81640000  0.67197000  0.35241000  1.0
  Cd  Cd1  1  0.32764000  0.18343000  0.14737000  1.0
  Cd  Cd2  1  0.18361000  0.32804000  0.64760000  1.0
  Cd  Cd3  1  0.67235000  0.81657000  0.85262000  1.0
  H  H4  1  0.26093000  0.76884000  0.50332000  1.0
  H  H5  1  0.23148000  0.73876000  0.99665000  1.0
  H  H6  1  0.73907000  0.23116000  0.49669000  1.0
  H  H7  1  0.76852000  0.26124000  0.00334000  1.0
  H  H8  1  0.63841000  0.86117000  0.60806000  1.0
  H  H9  1  0.13906000  0.36211000  0.89210000  1.0
  H  H10  1  0.36160000  0.13885000  0.39194000  1.0
  H  H11  1  0.86094000  0.63788000  0.10789000  1.0
  H  H12  1  0.43267000  0.14781000  0.60079000  1.0
  H  H13  1  0.85163000  0.56729000  0.89907000  1.0
  H  H14  1  0.56733000  0.85220000  0.39920000  1.0
  H  H15  1  0.14837000  0.43271000  0.10093000  1.0
  H  H16  1  0.19740000  0.06209000  0.57462000  1.0
  H  H17  1  0.93770000  0.80237000  0.92538000  1.0
  H  H18  1  0.80260000  0.93792000  0.42539000  1.0
  H  H19  1  0.06228000  0.19762000  0.07462000  1.0
  H  H20  1  0.22527000  0.06638000  0.49389000  1.0
  H  H21  1  0.93333000  0.77453000  0.00608000  1.0
  H  H22  1  0.77472000  0.93363000  0.50612000  1.0
  H  H23  1  0.06667000  0.22547000  0.99392000  1.0
  H  H24  1  0.05480000  0.92609000  0.41204000  1.0
  H  H25  1  0.07369000  0.94493000  0.08797000  1.0
  H  H26  1  0.94519000  0.07392000  0.58797000  1.0
  H  H27  1  0.92632000  0.05507000  0.91202000  1.0
  H  H28  1  0.89201000  0.63289000  0.51364000  1.0
  H  H29  1  0.36716000  0.10812000  0.98631000  1.0
  H  H30  1  0.10800000  0.36711000  0.48637000  1.0
  H  H31  1  0.63282000  0.89187000  0.01367000  1.0
  H  H32  1  0.08564000  0.81331000  0.59634000  1.0
  H  H33  1  0.18689000  0.91439000  0.90365000  1.0
  H  H34  1  0.91437000  0.18669000  0.40367000  1.0
  H  H35  1  0.81308000  0.08561000  0.09634000  1.0
  H  H36  1  0.51854000  0.64045000  0.57358000  1.0
  H  H37  1  0.36003000  0.48165000  0.92645000  1.0
  H  H38  1  0.48147000  0.35956000  0.42643000  1.0
  H  H39  1  0.63996000  0.51836000  0.07354000  1.0
  H  H40  1  0.35777000  0.60293000  0.53742000  1.0
  H  H41  1  0.39772000  0.64197000  0.96273000  1.0
  H  H42  1  0.64225000  0.39707000  0.46260000  1.0
  H  H43  1  0.60227000  0.35803000  0.03726000  1.0
  H  H44  1  0.69853000  0.70220000  0.50156000  1.0
  H  H45  1  0.29795000  0.30188000  0.99842000  1.0
  H  H46  1  0.30148000  0.29780000  0.49845000  1.0
  H  H47  1  0.70206000  0.69813000  0.00157000  1.0
  H  H48  1  0.48053000  0.56686000  0.32056000  1.0
  H  H49  1  0.43312000  0.51940000  0.17949000  1.0
  H  H50  1  0.51948000  0.43313000  0.67945000  1.0
  H  H51  1  0.56689000  0.48059000  0.82050000  1.0
  H  H52  1  0.31621000  0.56633000  0.41282000  1.0
  H  H53  1  0.43364000  0.68333000  0.08724000  1.0
  H  H54  1  0.68381000  0.43367000  0.58720000  1.0
  H  H55  1  0.56636000  0.31667000  0.91275000  1.0
  H  H56  1  0.75179000  0.10552000  0.63623000  1.0
  H  H57  1  0.89469000  0.24885000  0.86386000  1.0
  H  H58  1  0.24821000  0.89451000  0.36377000  1.0
  H  H59  1  0.10530000  0.75114000  0.13614000  1.0
  H  H60  1  0.65258000  0.21010000  0.64374000  1.0
  H  H61  1  0.78935000  0.34727000  0.85625000  1.0
  H  H62  1  0.34741000  0.78992000  0.35626000  1.0
  H  H63  1  0.21064000  0.65272000  0.14375000  1.0
  H  H64  1  0.79254000  0.98353000  0.72726000  1.0
  H  H65  1  0.01643000  0.20768000  0.77268000  1.0
  H  H66  1  0.20747000  0.01648000  0.27272000  1.0
  H  H67  1  0.98357000  0.79232000  0.22733000  1.0
  H  H68  1  0.54817000  0.08141000  0.85227000  1.0
  H  H69  1  0.91869000  0.45168000  0.64777000  1.0
  H  H70  1  0.45185000  0.91859000  0.14773000  1.0
  H  H71  1  0.08131000  0.54831000  0.35223000  1.0
  H  H72  1  0.50898000  0.18475000  0.73979000  1.0
  H  H73  1  0.81523000  0.49100000  0.76030000  1.0
  H  H74  1  0.49102000  0.81526000  0.26021000  1.0
  H  H75  1  0.18477000  0.50899000  0.23970000  1.0
  H  H76  1  0.80689000  0.23543000  0.30439000  1.0
  H  H77  1  0.76494000  0.19338000  0.19564000  1.0
  H  H78  1  0.19312000  0.76457000  0.69562000  1.0
  H  H79  1  0.23505000  0.80661000  0.80436000  1.0
  H  H80  1  0.64474000  0.23614000  0.29187000  1.0
  H  H81  1  0.76407000  0.35510000  0.20814000  1.0
  H  H82  1  0.35527000  0.76386000  0.70813000  1.0
  H  H83  1  0.23594000  0.64489000  0.79187000  1.0
  H  H84  1  0.71510000  0.20762000  0.36779000  1.0
  H  H85  1  0.79287000  0.28493000  0.13223000  1.0
  H  H86  1  0.28489000  0.79236000  0.63221000  1.0
  H  H87  1  0.20713000  0.71506000  0.86777000  1.0
  H  H88  1  0.70865000  0.02914000  0.25210000  1.0
  H  H89  1  0.97053000  0.29116000  0.24793000  1.0
  H  H90  1  0.29136000  0.97087000  0.74792000  1.0
  H  H91  1  0.02945000  0.70882000  0.75205000  1.0
  H  H92  1  0.68874000  0.89795000  0.19126000  1.0
  H  H93  1  0.10208000  0.31112000  0.30875000  1.0
  H  H94  1  0.31125000  0.10205000  0.80875000  1.0
  H  H95  1  0.89791000  0.68889000  0.69123000  1.0
  H  H96  1  0.84192000  0.00938000  0.21519000  1.0
  H  H97  1  0.99038000  0.15828000  0.28484000  1.0
  H  H98  1  0.15807000  0.99062000  0.78483000  1.0
  H  H99  1  0.00961000  0.84172000  0.71514000  1.0
  C  C100  1  0.33476000  0.96379000  0.54817000  1.0
  C  C101  1  0.03606000  0.66517000  0.95176000  1.0
  C  C102  1  0.66524000  0.03621000  0.45183000  1.0
  C  C103  1  0.96394000  0.33483000  0.04823000  1.0
  C  C104  1  0.34290000  0.84010000  0.53045000  1.0
  C  C105  1  0.16001000  0.65701000  0.96952000  1.0
  C  C106  1  0.65710000  0.15991000  0.46955000  1.0
  C  C107  1  0.83999000  0.34299000  0.03047000  1.0
  C  C108  1  0.45172000  0.80253000  0.55206000  1.0
  C  C109  1  0.19765000  0.54840000  0.94798000  1.0
  C  C110  1  0.54829000  0.19748000  0.44795000  1.0
  C  C111  1  0.80234000  0.45159000  0.05202000  1.0
  C  C112  1  0.55501000  0.89126000  0.58945000  1.0
  C  C113  1  0.10877000  0.44531000  0.91062000  1.0
  C  C114  1  0.44500000  0.10876000  0.41055000  1.0
  C  C115  1  0.89122000  0.55468000  0.08938000  1.0
  C  C116  1  0.55001000  0.01704000  0.60560000  1.0
  C  C117  1  0.98274000  0.45028000  0.89439000  1.0
  C  C118  1  0.45000000  0.98298000  0.39439000  1.0
  C  C119  1  0.01725000  0.54972000  0.10561000  1.0
  C  C120  1  0.43932000  0.05169000  0.58554000  1.0
  C  C121  1  0.94798000  0.56078000  0.91437000  1.0
  C  C122  1  0.56068000  0.94831000  0.41446000  1.0
  C  C123  1  0.05202000  0.43922000  0.08562000  1.0
  C  C124  1  0.21493000  0.00596000  0.53203000  1.0
  C  C125  1  0.99395000  0.78484000  0.96795000  1.0
  C  C126  1  0.78506000  0.99405000  0.46798000  1.0
  C  C127  1  0.00604000  0.21515000  0.03204000  1.0
  C  C128  1  0.03746000  0.86913000  0.45041000  1.0
  C  C129  1  0.13072000  0.96228000  0.04957000  1.0
  C  C130  1  0.96254000  0.13087000  0.54960000  1.0
  C  C131  1  0.86928000  0.03771000  0.95042000  1.0
  C  C132  1  0.95239000  0.72279000  0.50572000  1.0
  C  C133  1  0.27719000  0.04759000  0.99423000  1.0
  C  C134  1  0.04761000  0.27721000  0.49429000  1.0
  C  C135  1  0.72280000  0.95241000  0.00575000  1.0
  C  C136  1  0.04890000  0.80902000  0.54657000  1.0
  C  C137  1  0.19115000  0.95091000  0.95343000  1.0
  C  C138  1  0.95109000  0.19098000  0.45344000  1.0
  C  C139  1  0.80883000  0.04909000  0.04655000  1.0
  C  C140  1  0.45331000  0.66527000  0.53711000  1.0
  C  C141  1  0.33514000  0.54668000  0.96296000  1.0
  C  C142  1  0.54670000  0.33474000  0.46291000  1.0
  C  C143  1  0.66485000  0.45333000  0.03704000  1.0
  C  C144  1  0.61827000  0.66608000  0.46386000  1.0
  C  C145  1  0.33406000  0.38194000  0.03615000  1.0
  C  C146  1  0.38174000  0.33392000  0.53615000  1.0
  C  C147  1  0.66594000  0.61806000  0.96384000  1.0
  C  C148  1  0.50155000  0.59670000  0.37176000  1.0
  C  C149  1  0.40331000  0.49836000  0.12829000  1.0
  C  C150  1  0.49845000  0.40329000  0.62825000  1.0
  C  C151  1  0.59669000  0.50165000  0.87170000  1.0
  C  C152  1  0.41923000  0.59470000  0.41670000  1.0
  C  C153  1  0.40538000  0.58052000  0.08337000  1.0
  C  C154  1  0.58077000  0.40531000  0.58332000  1.0
  C  C155  1  0.59463000  0.41948000  0.91662000  1.0
  C  C156  1  0.65864000  0.11302000  0.64839000  1.0
  C  C157  1  0.88680000  0.34162000  0.85164000  1.0
  C  C158  1  0.34137000  0.88700000  0.35161000  1.0
  C  C159  1  0.11320000  0.65837000  0.14836000  1.0
  C  C160  1  0.72191000  0.02421000  0.74732000  1.0
  C  C161  1  0.97575000  0.27824000  0.75268000  1.0
  C  C162  1  0.27809000  0.97579000  0.25267000  1.0
  C  C163  1  0.02426000  0.72176000  0.24732000  1.0
  C  C164  1  0.59542000  0.07885000  0.81001000  1.0
  C  C165  1  0.92114000  0.40452000  0.69002000  1.0
  C  C166  1  0.40459000  0.92114000  0.18999000  1.0
  C  C167  1  0.07886000  0.59548000  0.30998000  1.0
  C  C168  1  0.57486000  0.13041000  0.75487000  1.0
  C  C169  1  0.86957000  0.42516000  0.74519000  1.0
  C  C170  1  0.42514000  0.86960000  0.24513000  1.0
  C  C171  1  0.13042000  0.57483000  0.25481000  1.0
  C  C172  1  0.76957000  0.40316000  0.34942000  1.0
  C  C173  1  0.59682000  0.23047000  0.15059000  1.0
  C  C174  1  0.23044000  0.59683000  0.65059000  1.0
  C  C175  1  0.40318000  0.76954000  0.84940000  1.0
  C  C176  1  0.73033000  0.26110000  0.32777000  1.0
  C  C177  1  0.73919000  0.26970000  0.17223000  1.0
  C  C178  1  0.26968000  0.73890000  0.67223000  1.0
  C  C179  1  0.26081000  0.73029000  0.82777000  1.0
  C  C180  1  0.78627000  0.88051000  0.28315000  1.0
  C  C181  1  0.11955000  0.21386000  0.21688000  1.0
  C  C182  1  0.21372000  0.11948000  0.71686000  1.0
  C  C183  1  0.88044000  0.78614000  0.78311000  1.0
  C  C184  1  0.75436000  0.95821000  0.23177000  1.0
  C  C185  1  0.04165000  0.24562000  0.26826000  1.0
  C  C186  1  0.24564000  0.04179000  0.76825000  1.0
  C  C187  1  0.95834000  0.75437000  0.73172000  1.0
  N  N188  1  0.10240000  0.90072000  0.51057000  1.0
  N  N189  1  0.09938000  0.89721000  0.98945000  1.0
  N  N190  1  0.89759000  0.09929000  0.48944000  1.0
  N  N191  1  0.90061000  0.10279000  0.01054000  1.0
  N  N192  1  0.94561000  0.76233000  0.44626000  1.0
  N  N193  1  0.23745000  0.05431000  0.05367000  1.0
  N  N194  1  0.05439000  0.23767000  0.55375000  1.0
  N  N195  1  0.76255000  0.94569000  0.94632000  1.0
  N  N196  1  0.49514000  0.63873000  0.47501000  1.0
  N  N197  1  0.36147000  0.50480000  0.02503000  1.0
  N  N198  1  0.50487000  0.36127000  0.52500000  1.0
  N  N199  1  0.63854000  0.49520000  0.97496000  1.0
  N  N200  1  0.62530000  0.64198000  0.40196000  1.0
  N  N201  1  0.35805000  0.37488000  0.09806000  1.0
  N  N202  1  0.37471000  0.35802000  0.59806000  1.0
  N  N203  1  0.64195000  0.62512000  0.90193000  1.0
  N  N204  1  0.65667000  0.09502000  0.71549000  1.0
  N  N205  1  0.90492000  0.34349000  0.78454000  1.0
  N  N206  1  0.34332000  0.90499000  0.28450000  1.0
  N  N207  1  0.09508000  0.65650000  0.21546000  1.0
  N  N208  1  0.68753000  0.01325000  0.80487000  1.0
  N  N209  1  0.98673000  0.31249000  0.69513000  1.0
  N  N210  1  0.31247000  0.98676000  0.19512000  1.0
  N  N211  1  0.01327000  0.68751000  0.30487000  1.0
  O  O212  1  0.76343000  0.47217000  0.30439000  1.0
  O  O213  1  0.52765000  0.23655000  0.19563000  1.0
  O  O214  1  0.23660000  0.52783000  0.69563000  1.0
  O  O215  1  0.47235000  0.76348000  0.80437000  1.0
  O  O216  1  0.80655000  0.44823000  0.40767000  1.0
  O  O217  1  0.55163000  0.19351000  0.09234000  1.0
  O  O218  1  0.19343000  0.55174000  0.59234000  1.0
  O  O219  1  0.44838000  0.80649000  0.90765000  1.0
  O  O220  1  0.71919000  0.76430000  0.27726000  1.0
  O  O221  1  0.23593000  0.28098000  0.22271000  1.0
  O  O222  1  0.28081000  0.23570000  0.72275000  1.0
  O  O223  1  0.76407000  0.71902000  0.77727000  1.0
  O  O224  1  0.87545000  0.93185000  0.32843000  1.0
  O  O225  1  0.06826000  0.12473000  0.17162000  1.0
  O  O226  1  0.12455000  0.06813000  0.67158000  1.0
  O  O227  1  0.93174000  0.87525000  0.82836000  1.0
