# generated using pymatgen
data_ZnH12C20S(NO2)3
_symmetry_space_group_name_H-M   'P 1'
_cell_length_a   7.21980000
_cell_length_b   12.48010000
_cell_length_c   14.42320000
_cell_angle_alpha   75.19600000
_cell_angle_beta   76.78900000
_cell_angle_gamma   88.41700000
_symmetry_Int_Tables_number   1
_chemical_formula_structural   ZnH12C20S(NO2)3
_chemical_formula_sum   'Zn2 H24 C40 S2 N6 O12'
_cell_volume   1222.54089121
_cell_formula_units_Z   2
loop_
 _symmetry_equiv_pos_site_id
 _symmetry_equiv_pos_as_xyz
  1  'x, y, z'
loop_
 _atom_site_type_symbol
 _atom_site_label
 _atom_site_symmetry_multiplicity
 _atom_site_fract_x
 _atom_site_fract_y
 _atom_site_fract_z
 _atom_site_occupancy
  Zn  Zn0  1  0.81699000  0.98253000  0.07037000  1.0
  Zn  Zn1  1  0.18301000  0.01748000  0.92963000  1.0
  H  H2  1  0.08270000  0.32436000  0.73899000  1.0
  H  H3  1  0.91731000  0.67563000  0.26101000  1.0
  H  H4  1  0.39166000  0.68977000  0.81768000  1.0
  H  H5  1  0.60833000  0.31025000  0.18231000  1.0
  H  H6  1  0.97463000  0.49666000  0.63500000  1.0
  H  H7  1  0.02537000  0.50333000  0.36499000  1.0
  H  H8  1  0.77948000  0.01694000  0.26854000  1.0
  H  H9  1  0.22051000  0.98305000  0.73147000  1.0
  H  H10  1  0.12464000  0.92147000  0.26557000  1.0
  H  H11  1  0.87537000  0.07853000  0.73443000  1.0
  H  H12  1  0.40272000  0.92258000  0.12419000  1.0
  H  H13  1  0.59729000  0.07743000  0.87581000  1.0
  H  H14  1  0.52018000  0.02425000  0.41390000  1.0
  H  H15  1  0.47981000  0.97574000  0.58610000  1.0
  H  H16  1  0.51315000  0.25606000  0.91877000  1.0
  H  H17  1  0.48685000  0.74395000  0.08123000  1.0
  H  H18  1  0.40492000  0.43006000  0.81717000  1.0
  H  H19  1  0.59506000  0.56994000  0.18283000  1.0
  H  H20  1  0.48592000  0.79810000  0.92506000  1.0
  H  H21  1  0.51407000  0.20192000  0.07494000  1.0
  H  H22  1  0.97736000  0.69674000  0.65940000  1.0
  H  H23  1  0.02263000  0.30325000  0.34061000  1.0
  H  H24  1  0.07037000  0.80263000  0.76794000  1.0
  H  H25  1  0.92964000  0.19737000  0.23206000  1.0
  C  C26  1  0.93516000  0.34871000  0.75561000  1.0
  C  C27  1  0.06484000  0.65129000  0.24439000  1.0
  C  C28  1  0.53977000  0.71496000  0.80765000  1.0
  C  C29  1  0.46023000  0.28505000  0.19234000  1.0
  C  C30  1  0.87517000  0.44449000  0.69786000  1.0
  C  C31  1  0.12483000  0.55551000  0.30213000  1.0
  C  C32  1  0.84434000  0.87405000  0.91449000  1.0
  C  C33  1  0.15565000  0.12595000  0.08552000  1.0
  C  C34  1  0.63233000  0.99664000  0.27134000  1.0
  C  C35  1  0.36767000  0.00336000  0.72867000  1.0
  C  C36  1  0.29995000  0.97507000  0.35030000  1.0
  C  C37  1  0.70006000  0.02493000  0.64970000  1.0
  C  C38  1  0.26757000  0.94289000  0.26902000  1.0
  C  C39  1  0.73244000  0.05711000  0.73098000  1.0
  C  C40  1  0.80623000  0.28246000  0.83668000  1.0
  C  C41  1  0.19377000  0.71754000  0.16332000  1.0
  C  C42  1  0.42117000  0.94246000  0.19080000  1.0
  C  C43  1  0.57884000  0.05754000  0.80920000  1.0
  C  C44  1  0.48697000  0.00038000  0.35195000  1.0
  C  C45  1  0.51303000  0.99961000  0.64806000  1.0
  C  C46  1  0.78466000  0.80560000  0.85355000  1.0
  C  C47  1  0.21533000  0.19441000  0.14645000  1.0
  C  C48  1  0.61424000  0.31028000  0.85812000  1.0
  C  C49  1  0.38576000  0.68972000  0.14188000  1.0
  C  C50  1  0.87500000  0.18010000  0.89837000  1.0
  C  C51  1  0.12500000  0.81990000  0.10163000  1.0
  C  C52  1  0.68474000  0.47315000  0.72246000  1.0
  C  C53  1  0.31526000  0.52684000  0.27753000  1.0
  C  C54  1  0.55295000  0.40632000  0.80111000  1.0
  C  C55  1  0.44704000  0.59369000  0.19889000  1.0
  C  C56  1  0.67869000  0.68814000  0.73295000  1.0
  C  C57  1  0.32130000  0.31187000  0.26704000  1.0
  C  C58  1  0.13997000  0.98673000  0.43058000  1.0
  C  C59  1  0.86004000  0.01325000  0.56942000  1.0
  C  C60  1  0.59321000  0.77413000  0.86795000  1.0
  C  C61  1  0.40679000  0.22587000  0.13205000  1.0
  C  C62  1  0.87042000  0.71884000  0.71764000  1.0
  C  C63  1  0.12958000  0.28115000  0.28237000  1.0
  C  C64  1  0.92233000  0.77741000  0.77835000  1.0
  C  C65  1  0.07768000  0.22258000  0.22165000  1.0
  S  S66  1  0.61437000  0.60518000  0.66005000  1.0
  S  S67  1  0.38565000  0.39483000  0.33994000  1.0
  N  N68  1  0.59928000  0.97049000  0.19140000  1.0
  N  N69  1  0.40072000  0.02951000  0.80860000  1.0
  N  N70  1  0.81984000  0.00271000  0.48502000  1.0
  N  N71  1  0.18016000  0.99727000  0.51498000  1.0
  N  N72  1  0.96250000  0.98917000  0.41420000  1.0
  N  N73  1  0.03750000  0.01082000  0.58581000  1.0
  O  O74  1  0.75659000  0.12596000  0.97516000  1.0
  O  O75  1  0.24342000  0.87405000  0.02484000  1.0
  O  O76  1  0.72302000  0.88766000  0.98969000  1.0
  O  O77  1  0.27698000  0.11235000  0.01031000  1.0
  O  O78  1  0.01270000  0.91594000  0.88418000  1.0
  O  O79  1  0.98730000  0.08404000  0.11583000  1.0
  O  O80  1  0.04500000  0.15359000  0.86796000  1.0
  O  O81  1  0.95499000  0.84641000  0.13204000  1.0
  O  O82  1  0.40862000  0.60393000  0.67467000  1.0
  O  O83  1  0.59138000  0.39607000  0.32533000  1.0
  O  O84  1  0.73701000  0.63875000  0.56209000  1.0
  O  O85  1  0.26299000  0.36126000  0.43791000  1.0
