# generated using pymatgen
data_ZnH8C10(SN3)2
_symmetry_space_group_name_H-M   'P 1'
_cell_length_a   6.91754000
_cell_length_b   7.26031000
_cell_length_c   7.26029000
_cell_angle_alpha   91.17670000
_cell_angle_beta   109.07000000
_cell_angle_gamma   109.06800000
_symmetry_Int_Tables_number   1
_chemical_formula_structural   ZnH8C10(SN3)2
_chemical_formula_sum   'Zn1 H8 C10 S2 N6'
_cell_volume   322.39361215
_cell_formula_units_Z   1
loop_
 _symmetry_equiv_pos_site_id
 _symmetry_equiv_pos_as_xyz
  1  'x, y, z'
loop_
 _atom_site_type_symbol
 _atom_site_label
 _atom_site_symmetry_multiplicity
 _atom_site_fract_x
 _atom_site_fract_y
 _atom_site_fract_z
 _atom_site_occupancy
  Zn  Zn0  1  0.00000000  0.50000000  0.50000000  1.0
  H  H1  1  0.68349000  0.05958000  0.27986000  1.0
  H  H2  1  0.31649000  0.72014000  0.94043000  1.0
  H  H3  1  0.31649000  0.94042000  0.72015000  1.0
  H  H4  1  0.68351000  0.27985000  0.05958000  1.0
  H  H5  1  0.29773000  0.28151000  0.71711000  1.0
  H  H6  1  0.70229000  0.28290000  0.71848000  1.0
  H  H7  1  0.70227000  0.71847000  0.28289000  1.0
  H  H8  1  0.29772000  0.71709000  0.28152000  1.0
  C  C9  1  0.82611000  0.03374000  0.37848000  1.0
  C  C10  1  0.17390000  0.62151000  0.96626000  1.0
  C  C11  1  0.17390000  0.96626000  0.62151000  1.0
  C  C12  1  0.82613000  0.37848000  0.03375000  1.0
  C  C13  1  0.16462000  0.15491000  0.62014000  1.0
  C  C14  1  0.83539000  0.37984000  0.84510000  1.0
  C  C15  1  0.83537000  0.84509000  0.37984000  1.0
  C  C16  1  0.16462000  0.62013000  0.15490000  1.0
  C  C17  1  0.49101000  0.28974000  0.28971000  1.0
  C  C18  1  0.50901000  0.71030000  0.71029000  1.0
  S  S19  1  0.26207000  0.13793000  0.13793000  1.0
  S  S20  1  0.73794000  0.86211000  0.86208000  1.0
  N  N21  1  0.99088000  0.18881000  0.49828000  1.0
  N  N22  1  0.00911000  0.50173000  0.81118000  1.0
  N  N23  1  0.00911000  0.81118000  0.50173000  1.0
  N  N24  1  0.99088000  0.49829000  0.18881000  1.0
  N  N25  1  0.66312000  0.39929000  0.39929000  1.0
  N  N26  1  0.33688000  0.60071000  0.60072000  1.0
