# generated using pymatgen
data_BaH6C6S2O9
_symmetry_space_group_name_H-M   'P 1'
_cell_length_a   7.23632000
_cell_length_b   8.66873000
_cell_length_c   9.07971000
_cell_angle_alpha   98.08960000
_cell_angle_beta   95.31180000
_cell_angle_gamma   94.63900000
_symmetry_Int_Tables_number   1
_chemical_formula_structural   BaH6C6S2O9
_chemical_formula_sum   'Ba2 H12 C12 S4 O18'
_cell_volume   558.92506013
_cell_formula_units_Z   2
loop_
 _symmetry_equiv_pos_site_id
 _symmetry_equiv_pos_as_xyz
  1  'x, y, z'
loop_
 _atom_site_type_symbol
 _atom_site_label
 _atom_site_symmetry_multiplicity
 _atom_site_fract_x
 _atom_site_fract_y
 _atom_site_fract_z
 _atom_site_occupancy
  Ba  Ba0  1  0.72665000  0.22362000  0.57474000  1.0
  Ba  Ba1  1  0.27334000  0.77637000  0.42526000  1.0
  H  H2  1  0.74733000  0.26639000  0.98036000  1.0
  H  H3  1  0.25267000  0.73361000  0.01963000  1.0
  H  H4  1  0.90229000  0.87973000  0.64545000  1.0
  H  H5  1  0.09771000  0.12026000  0.35455000  1.0
  H  H6  1  0.41157000  0.38937000  0.35018000  1.0
  H  H7  1  0.58843000  0.61063000  0.64983000  1.0
  H  H8  1  0.60448000  0.45159000  0.31529000  1.0
  H  H9  1  0.39551000  0.54841000  0.68471000  1.0
  H  H10  1  0.86483000  0.64353000  0.06403000  1.0
  H  H11  1  0.13517000  0.35647000  0.93597000  1.0
  H  H12  1  0.65506000  0.09634000  0.15921000  1.0
  H  H13  1  0.34495000  0.90367000  0.84079000  1.0
  C  C14  1  0.85945000  0.78505000  0.88620000  1.0
  C  C15  1  0.14055000  0.21495000  0.11380000  1.0
  C  C16  1  0.82778000  0.75307000  0.02860000  1.0
  C  C17  1  0.17222000  0.24693000  0.97141000  1.0
  C  C18  1  0.74974000  0.86408000  0.12364000  1.0
  C  C19  1  0.25026000  0.13593000  0.87636000  1.0
  C  C20  1  0.71041000  0.00830000  0.08188000  1.0
  C  C21  1  0.28960000  0.99170000  0.91812000  1.0
  C  C22  1  0.74513000  0.04024000  0.94037000  1.0
  C  C23  1  0.25487000  0.95976000  0.05962000  1.0
  C  C24  1  0.81008000  0.92457000  0.83762000  1.0
  C  C25  1  0.18993000  0.07542000  0.16237000  1.0
  S  S26  1  0.97566000  0.64942000  0.77156000  1.0
  S  S27  1  0.02434000  0.35058000  0.22844000  1.0
  S  S28  1  0.71370000  0.82217000  0.30481000  1.0
  S  S29  1  0.28630000  0.17783000  0.69519000  1.0
  O  O30  1  0.83196000  0.52388000  0.70048000  1.0
  O  O31  1  0.16804000  0.47611000  0.29952000  1.0
  O  O32  1  0.05221000  0.73841000  0.65979000  1.0
  O  O33  1  0.94779000  0.26158000  0.34021000  1.0
  O  O34  1  0.12103000  0.59468000  0.86934000  1.0
  O  O35  1  0.87897000  0.40532000  0.13066000  1.0
  O  O36  1  0.59493000  0.67337000  0.28870000  1.0
  O  O37  1  0.40507000  0.32663000  0.71129000  1.0
  O  O38  1  0.89845000  0.81484000  0.38318000  1.0
  O  O39  1  0.10155000  0.18517000  0.61682000  1.0
  O  O40  1  0.61595000  0.95262000  0.37546000  1.0
  O  O41  1  0.38404000  0.04738000  0.62454000  1.0
  O  O42  1  0.71925000  0.18132000  0.89350000  1.0
  O  O43  1  0.28076000  0.81868000  0.10650000  1.0
  O  O44  1  0.82539000  0.95691000  0.69748000  1.0
  O  O45  1  0.17461000  0.04308000  0.30251000  1.0
  O  O46  1  0.54127000  0.36356000  0.35415000  1.0
  O  O47  1  0.45873000  0.63645000  0.64586000  1.0
