# generated using pymatgen
data_DyH11C16(NO5)2
_symmetry_space_group_name_H-M   'P 1'
_cell_length_a   6.86654000
_cell_length_b   10.10130000
_cell_length_c   13.12130000
_cell_angle_alpha   101.30900000
_cell_angle_beta   98.63910000
_cell_angle_gamma   97.58910000
_symmetry_Int_Tables_number   1
_chemical_formula_structural   DyH11C16(NO5)2
_chemical_formula_sum   'Dy2 H22 C32 N4 O20'
_cell_volume   869.97745269
_cell_formula_units_Z   2
loop_
 _symmetry_equiv_pos_site_id
 _symmetry_equiv_pos_as_xyz
  1  'x, y, z'
loop_
 _atom_site_type_symbol
 _atom_site_label
 _atom_site_symmetry_multiplicity
 _atom_site_fract_x
 _atom_site_fract_y
 _atom_site_fract_z
 _atom_site_occupancy
  Dy  Dy0  1  0.26386000  0.06558000  0.83647000  1.0
  Dy  Dy1  1  0.73614000  0.93442000  0.16353000  1.0
  H  H2  1  0.17661000  0.68037000  0.98666000  1.0
  H  H3  1  0.82339000  0.31963000  0.01334000  1.0
  H  H4  1  0.30919000  0.38022000  0.02935000  1.0
  H  H5  1  0.69081000  0.61978000  0.97065000  1.0
  H  H6  1  0.59281000  0.26975000  0.30915000  1.0
  H  H7  1  0.40719000  0.73025000  0.69085000  1.0
  H  H8  1  0.12007000  0.51197000  0.85971000  1.0
  H  H9  1  0.87993000  0.48803000  0.14028000  1.0
  H  H10  1  0.85138000  0.68261000  0.60643000  1.0
  H  H11  1  0.14862000  0.31738000  0.39357000  1.0
  H  H12  1  0.53267000  0.68927000  0.31666000  1.0
  H  H13  1  0.46734000  0.31073000  0.68334000  1.0
  H  H14  1  0.85044000  0.24797000  0.56087000  1.0
  H  H15  1  0.14956000  0.75203000  0.43913000  1.0
  H  H16  1  0.82298000  0.04652000  0.86455000  1.0
  H  H17  1  0.17702000  0.95349000  0.13546000  1.0
  H  H18  1  0.94872000  0.11090000  0.97767000  1.0
  H  H19  1  0.05128000  0.88910000  0.02233000  1.0
  H  H20  1  0.21639000  0.02982000  0.61690000  1.0
  H  H21  1  0.78360000  0.97018000  0.38310000  1.0
  H  H22  1  0.36803000  0.92678000  0.62819000  1.0
  H  H23  1  0.63196000  0.07322000  0.37181000  1.0
  C  C24  1  0.43142000  0.16215000  0.10681000  1.0
  C  C25  1  0.56859000  0.83784000  0.89320000  1.0
  C  C26  1  0.05934000  0.75542000  0.80962000  1.0
  C  C27  1  0.94066000  0.24458000  0.19039000  1.0
  C  C28  1  0.07190000  0.25641000  0.75573000  1.0
  C  C29  1  0.92811000  0.74359000  0.24427000  1.0
  C  C30  1  0.44930000  0.30890000  0.16343000  1.0
  C  C31  1  0.55070000  0.69110000  0.83657000  1.0
  C  C32  1  0.38307000  0.40868000  0.11192000  1.0
  C  C33  1  0.61693000  0.59132000  0.88808000  1.0
  C  C34  1  0.98905000  0.61394000  0.74174000  1.0
  C  C35  1  0.01095000  0.38606000  0.25826000  1.0
  C  C36  1  0.54012000  0.34626000  0.26923000  1.0
  C  C37  1  0.45988000  0.65374000  0.73076000  1.0
  C  C38  1  0.03783000  0.50056000  0.78021000  1.0
  C  C39  1  0.96218000  0.49944000  0.21979000  1.0
  C  C40  1  0.99209000  0.36955000  0.71509000  1.0
  C  C41  1  0.00792000  0.63045000  0.28491000  1.0
  C  C42  1  0.35217000  0.65487000  0.11417000  1.0
  C  C43  1  0.64785000  0.34514000  0.88583000  1.0
  C  C44  1  0.88738000  0.59507000  0.63800000  1.0
  C  C45  1  0.11261000  0.40493000  0.36200000  1.0
  C  C46  1  0.41388000  0.54559000  0.16740000  1.0
  C  C47  1  0.58612000  0.45441000  0.83260000  1.0
  C  C48  1  0.57065000  0.48269000  0.32481000  1.0
  C  C49  1  0.42935000  0.51731000  0.67519000  1.0
  C  C50  1  0.50808000  0.58277000  0.27368000  1.0
  C  C51  1  0.49192000  0.41723000  0.72632000  1.0
  C  C52  1  0.88729000  0.34984000  0.61235000  1.0
  C  C53  1  0.11272000  0.65016000  0.38765000  1.0
  C  C54  1  0.83168000  0.46203000  0.57411000  1.0
  C  C55  1  0.16832000  0.53797000  0.42589000  1.0
  N  N56  1  0.67087000  0.52612000  0.43159000  1.0
  N  N57  1  0.32913000  0.47387000  0.56841000  1.0
  N  N58  1  0.72692000  0.42839000  0.46934000  1.0
  N  N59  1  0.27308000  0.57160000  0.53066000  1.0
  O  O60  1  0.35400000  0.12929000  0.00961000  1.0
  O  O61  1  0.64600000  0.87071000  0.99038000  1.0
  O  O62  1  0.49369000  0.07767000  0.15927000  1.0
  O  O63  1  0.50630000  0.92233000  0.84073000  1.0
  O  O64  1  0.11016000  0.77245000  0.90972000  1.0
  O  O65  1  0.88982000  0.22755000  0.09028000  1.0
  O  O66  1  0.07104000  0.85336000  0.76153000  1.0
  O  O67  1  0.92896000  0.14664000  0.23848000  1.0
  O  O68  1  0.18339000  0.28577000  0.84690000  1.0
  O  O69  1  0.81662000  0.71423000  0.15310000  1.0
  O  O70  1  0.42453000  0.77849000  0.14831000  1.0
  O  O71  1  0.57547000  0.22150000  0.85168000  1.0
  O  O72  1  0.03636000  0.13393000  0.69933000  1.0
  O  O73  1  0.96365000  0.86607000  0.30067000  1.0
  O  O74  1  0.21376000  0.60857000  0.02894000  1.0
  O  O75  1  0.78625000  0.39143000  0.97106000  1.0
  O  O76  1  0.95799000  0.06255000  0.90577000  1.0
  O  O77  1  0.04201000  0.93746000  0.09423000  1.0
  O  O78  1  0.34552000  0.01936000  0.65505000  1.0
  O  O79  1  0.65447000  0.98064000  0.34495000  1.0
