# generated using pymatgen
data_H12Pb(C2O)8
_symmetry_space_group_name_H-M   'P 1'
_cell_length_a   8.54547000
_cell_length_b   8.77231000
_cell_length_c   12.16700000
_cell_angle_alpha   85.95440000
_cell_angle_beta   70.42980000
_cell_angle_gamma   73.31620000
_symmetry_Int_Tables_number   1
_chemical_formula_structural   H12Pb(C2O)8
_chemical_formula_sum   'H24 Pb2 C32 O16'
_cell_volume   822.88300406
_cell_formula_units_Z   2
loop_
 _symmetry_equiv_pos_site_id
 _symmetry_equiv_pos_as_xyz
  1  'x, y, z'
loop_
 _atom_site_type_symbol
 _atom_site_label
 _atom_site_symmetry_multiplicity
 _atom_site_fract_x
 _atom_site_fract_y
 _atom_site_fract_z
 _atom_site_occupancy
  H  H0  1  0.52512000  0.14291000  0.12047000  1.0
  H  H1  1  0.47489000  0.85708000  0.87952000  1.0
  H  H2  1  0.02430000  0.57522000  0.29598000  1.0
  H  H3  1  0.97570000  0.42477000  0.70402000  1.0
  H  H4  1  0.85539000  0.72170000  0.31661000  1.0
  H  H5  1  0.14462000  0.27830000  0.68340000  1.0
  H  H6  1  0.72389000  0.94565000  0.53828000  1.0
  H  H7  1  0.27609000  0.05435000  0.46173000  1.0
  H  H8  1  0.61581000  0.32822000  0.77923000  1.0
  H  H9  1  0.38418000  0.67178000  0.22078000  1.0
  H  H10  1  0.05805000  0.91988000  0.74057000  1.0
  H  H11  1  0.94194000  0.08014000  0.25943000  1.0
  H  H12  1  0.85685000  0.31278000  0.06475000  1.0
  H  H13  1  0.14316000  0.68721000  0.93524000  1.0
  H  H14  1  0.49794000  0.16003000  0.95966000  1.0
  H  H15  1  0.50207000  0.83997000  0.04032000  1.0
  H  H16  1  0.81870000  0.32079000  0.88371000  1.0
  H  H17  1  0.18130000  0.67922000  0.11629000  1.0
  H  H18  1  0.79603000  0.14270000  0.96070000  1.0
  H  H19  1  0.20398000  0.85731000  0.03930000  1.0
  H  H20  1  0.36507000  0.08933000  0.82526000  1.0
  H  H21  1  0.63493000  0.91067000  0.17473000  1.0
  H  H22  1  0.98642000  0.39258000  0.19417000  1.0
  H  H23  1  0.01358000  0.60741000  0.80583000  1.0
  Pb  Pb24  1  0.71940000  0.54908000  0.51337000  1.0
  Pb  Pb25  1  0.28060000  0.45092000  0.48662000  1.0
  C  C26  1  0.75653000  0.99630000  0.60417000  1.0
  C  C27  1  0.24346000  0.00370000  0.39584000  1.0
  C  C28  1  0.90403000  0.91779000  0.63345000  1.0
  C  C29  1  0.09596000  0.08222000  0.36655000  1.0
  C  C30  1  0.83486000  0.12676000  0.77683000  1.0
  C  C31  1  0.16513000  0.87324000  0.22318000  1.0
  C  C32  1  0.50681000  0.23668000  0.61583000  1.0
  C  C33  1  0.49318000  0.76332000  0.38417000  1.0
  C  C34  1  0.69473000  0.21069000  0.74133000  1.0
  C  C35  1  0.30526000  0.78931000  0.25868000  1.0
  C  C36  1  0.65475000  0.14533000  0.65585000  1.0
  C  C37  1  0.34523000  0.85467000  0.34416000  1.0
  C  C38  1  0.94255000  0.98318000  0.71957000  1.0
  C  C39  1  0.05744000  0.01682000  0.28043000  1.0
  C  C40  1  0.10425000  0.18876000  0.93874000  1.0
  C  C41  1  0.89577000  0.81125000  0.06126000  1.0
  C  C42  1  0.02217000  0.76246000  0.57459000  1.0
  C  C43  1  0.97782000  0.23754000  0.42541000  1.0
  C  C44  1  0.25137000  0.27845000  0.08943000  1.0
  C  C45  1  0.74865000  0.72154000  0.91056000  1.0
  C  C46  1  0.99713000  0.27850000  0.04113000  1.0
  C  C47  1  0.00288000  0.72150000  0.95887000  1.0
  C  C48  1  0.32494000  0.32656000  0.17053000  1.0
  C  C49  1  0.67508000  0.67342000  0.82946000  1.0
  C  C50  1  0.35725000  0.18991000  0.98564000  1.0
  C  C51  1  0.64276000  0.81009000  0.01435000  1.0
  C  C52  1  0.86479000  0.18977000  0.87759000  1.0
  C  C53  1  0.13521000  0.81024000  0.12241000  1.0
  C  C54  1  0.28548000  0.14674000  0.91027000  1.0
  C  C55  1  0.71453000  0.85327000  0.08972000  1.0
  C  C56  1  0.07107000  0.32382000  0.11471000  1.0
  C  C57  1  0.92894000  0.67617000  0.88529000  1.0
  O  O58  1  0.48504000  0.38864000  0.60433000  1.0
  O  O59  1  0.51495000  0.61136000  0.39568000  1.0
  O  O60  1  0.48734000  0.24190000  0.16660000  1.0
  O  O61  1  0.51267000  0.75810000  0.83340000  1.0
  O  O62  1  0.16222000  0.70458000  0.59851000  1.0
  O  O63  1  0.83778000  0.29543000  0.40148000  1.0
  O  O64  1  0.97980000  0.69358000  0.50470000  1.0
  O  O65  1  0.02019000  0.30641000  0.49531000  1.0
  O  O66  1  0.25100000  0.44034000  0.24078000  1.0
  O  O67  1  0.74900000  0.55967000  0.75924000  1.0
  O  O68  1  0.89973000  0.60570000  0.30754000  1.0
  O  O69  1  0.10027000  0.39430000  0.69247000  1.0
  O  O70  1  0.04707000  0.13787000  0.86079000  1.0
  O  O71  1  0.95294000  0.86214000  0.13920000  1.0
  O  O72  1  0.41222000  0.16382000  0.59483000  1.0
  O  O73  1  0.58777000  0.83617000  0.40518000  1.0
