# generated using pymatgen
data_ZnH22C22(NO)4
_symmetry_space_group_name_H-M   'P 1'
_cell_length_a   5.21956000
_cell_length_b   9.41812000
_cell_length_c   19.64940000
_cell_angle_alpha   96.91480000
_cell_angle_beta   89.99900000
_cell_angle_gamma   90.00000000
_symmetry_Int_Tables_number   1
_chemical_formula_structural   ZnH22C22(NO)4
_chemical_formula_sum   'Zn2 H44 C44 N8 O8'
_cell_volume   958.90796230
_cell_formula_units_Z   2
loop_
 _symmetry_equiv_pos_site_id
 _symmetry_equiv_pos_as_xyz
  1  'x, y, z'
loop_
 _atom_site_type_symbol
 _atom_site_label
 _atom_site_symmetry_multiplicity
 _atom_site_fract_x
 _atom_site_fract_y
 _atom_site_fract_z
 _atom_site_occupancy
  Zn  Zn0  1  0.50000000  0.50000000  0.00000000  1.0
  Zn  Zn1  1  0.99999000  0.00000000  0.00000000  1.0
  H  H2  1  0.22778000  0.46460000  0.53778000  1.0
  H  H3  1  0.72776000  0.03540000  0.46223000  1.0
  H  H4  1  0.77225000  0.53540000  0.46222000  1.0
  H  H5  1  0.27225000  0.96460000  0.53778000  1.0
  H  H6  1  0.57747000  0.28665000  0.50986000  1.0
  H  H7  1  0.07745000  0.21335000  0.49014000  1.0
  H  H8  1  0.42255000  0.71336000  0.49014000  1.0
  H  H9  1  0.92256000  0.78665000  0.50986000  1.0
  H  H10  1  0.89270000  0.23567000  0.59841000  1.0
  H  H11  1  0.39269000  0.26434000  0.40159000  1.0
  H  H12  1  0.10731000  0.76434000  0.40159000  1.0
  H  H13  1  0.60732000  0.73567000  0.59841000  1.0
  H  H14  1  0.86891000  0.35913000  0.71670000  1.0
  H  H15  1  0.36890000  0.14087000  0.28329000  1.0
  H  H16  1  0.13110000  0.64087000  0.28330000  1.0
  H  H17  1  0.63111000  0.85913000  0.71671000  1.0
  H  H18  1  0.79363000  0.65119000  0.81345000  1.0
  H  H19  1  0.29362000  0.84881000  0.18655000  1.0
  H  H20  1  0.20637000  0.34881000  0.18655000  1.0
  H  H21  1  0.70637000  0.15119000  0.81345000  1.0
  H  H22  1  0.67898000  0.48802000  0.83625000  1.0
  H  H23  1  0.17897000  0.01197000  0.16374000  1.0
  H  H24  1  0.32101000  0.51197000  0.16375000  1.0
  H  H25  1  0.82102000  0.98803000  0.83625000  1.0
  H  H26  1  0.37622000  0.76569000  0.86901000  1.0
  H  H27  1  0.87621000  0.73430000  0.13099000  1.0
  H  H28  1  0.62377000  0.23431000  0.13099000  1.0
  H  H29  1  0.12378000  0.26569000  0.86901000  1.0
  H  H30  1  0.23278000  0.50006000  0.88212000  1.0
  H  H31  1  0.73278000  0.99994000  0.11789000  1.0
  H  H32  1  0.76721000  0.49994000  0.11788000  1.0
  H  H33  1  0.26720000  0.00006000  0.88212000  1.0
  H  H34  1  0.15077000  0.73821000  0.77072000  1.0
  H  H35  1  0.65076000  0.76180000  0.22928000  1.0
  H  H36  1  0.84923000  0.26179000  0.22928000  1.0
  H  H37  1  0.34925000  0.23821000  0.77072000  1.0
  H  H38  1  0.04040000  0.66010000  0.64904000  1.0
  H  H39  1  0.54039000  0.83991000  0.35096000  1.0
  H  H40  1  0.95961000  0.33990000  0.35096000  1.0
  H  H41  1  0.45962000  0.16009000  0.64904000  1.0
  H  H42  1  0.15160000  0.63513000  0.93921000  1.0
  H  H43  1  0.65160000  0.86487000  0.06079000  1.0
  H  H44  1  0.84839000  0.36487000  0.06079000  1.0
  H  H45  1  0.34839000  0.13513000  0.93921000  1.0
  C  C46  1  0.68985000  0.73444000  0.93437000  1.0
  C  C47  1  0.18983000  0.76556000  0.06562000  1.0
  C  C48  1  0.31015000  0.26557000  0.06562000  1.0
  C  C49  1  0.81016000  0.23444000  0.93438000  1.0
  C  C50  1  0.47988000  0.67309000  0.88443000  1.0
  C  C51  1  0.97987000  0.82690000  0.11556000  1.0
  C  C52  1  0.52012000  0.32691000  0.11557000  1.0
  C  C53  1  0.02013000  0.17310000  0.88443000  1.0
  C  C54  1  0.61642000  0.59227000  0.82205000  1.0
  C  C55  1  0.11640000  0.90773000  0.17795000  1.0
  C  C56  1  0.38358000  0.40773000  0.17795000  1.0
  C  C57  1  0.88359000  0.09227000  0.82205000  1.0
  C  C58  1  0.46489000  0.57510000  0.75700000  1.0
  C  C59  1  0.96488000  0.92490000  0.24301000  1.0
  C  C60  1  0.53510000  0.42490000  0.24300000  1.0
  C  C61  1  0.03512000  0.07510000  0.75700000  1.0
  C  C62  1  0.25580000  0.65389000  0.74021000  1.0
  C  C63  1  0.75579000  0.84611000  0.25980000  1.0
  C  C64  1  0.74420000  0.34611000  0.25979000  1.0
  C  C65  1  0.24421000  0.15389000  0.74020000  1.0
  C  C66  1  0.35152000  0.51067000  0.64373000  1.0
  C  C67  1  0.85150000  0.98934000  0.35627000  1.0
  C  C68  1  0.64849000  0.48933000  0.35627000  1.0
  C  C69  1  0.14851000  0.01067000  0.64373000  1.0
  C  C70  1  0.36391000  0.44068000  0.57687000  1.0
  C  C71  1  0.86389000  0.05933000  0.42313000  1.0
  C  C72  1  0.63611000  0.55933000  0.42313000  1.0
  C  C73  1  0.13612000  0.94068000  0.57687000  1.0
  C  C74  1  0.56041000  0.34182000  0.56169000  1.0
  C  C75  1  0.06039000  0.15818000  0.43831000  1.0
  C  C76  1  0.43961000  0.65818000  0.43831000  1.0
  C  C77  1  0.93962000  0.84182000  0.56169000  1.0
  C  C78  1  0.73994000  0.31273000  0.61203000  1.0
  C  C79  1  0.23992000  0.18727000  0.38797000  1.0
  C  C80  1  0.26007000  0.68727000  0.38797000  1.0
  C  C81  1  0.76008000  0.81273000  0.61203000  1.0
  C  C82  1  0.72696000  0.38218000  0.67878000  1.0
  C  C83  1  0.22695000  0.11782000  0.32122000  1.0
  C  C84  1  0.27304000  0.61782000  0.32122000  1.0
  C  C85  1  0.77305000  0.88218000  0.67878000  1.0
  C  C86  1  0.53065000  0.48253000  0.69569000  1.0
  C  C87  1  0.03063000  0.01748000  0.30431000  1.0
  C  C88  1  0.46935000  0.51747000  0.30431000  1.0
  C  C89  1  0.96937000  0.98252000  0.69569000  1.0
  N  N90  1  0.18819000  0.61513000  0.67270000  1.0
  N  N91  1  0.68817000  0.88488000  0.32730000  1.0
  N  N92  1  0.81181000  0.38487000  0.32730000  1.0
  N  N93  1  0.31183000  0.11513000  0.67270000  1.0
  N  N94  1  0.30470000  0.57887000  0.91716000  1.0
  N  N95  1  0.80469000  0.92113000  0.08284000  1.0
  N  N96  1  0.69529000  0.42113000  0.08283000  1.0
  N  N97  1  0.19529000  0.07887000  0.91716000  1.0
  O  O98  1  0.79170000  0.85038000  0.92181000  1.0
  O  O99  1  0.29169000  0.64961000  0.07819000  1.0
  O  O100  1  0.20829000  0.14962000  0.07819000  1.0
  O  O101  1  0.70831000  0.35040000  0.92181000  1.0
  O  O102  1  0.75974000  0.66210000  0.98203000  1.0
  O  O103  1  0.25973000  0.83790000  0.01797000  1.0
  O  O104  1  0.24025000  0.33790000  0.01797000  1.0
  O  O105  1  0.74025000  0.16210000  0.98203000  1.0
