# generated using pymatgen
data_ZnH4(CN2)4
_symmetry_space_group_name_H-M   'P 1'
_cell_length_a   7.46985000
_cell_length_b   8.20683000
_cell_length_c   8.20711000
_cell_angle_alpha   94.66080000
_cell_angle_beta   115.86300000
_cell_angle_gamma   115.86200000
_symmetry_Int_Tables_number   1
_chemical_formula_structural   ZnH4(CN2)4
_chemical_formula_sum   'Zn2 H8 C8 N16'
_cell_volume   383.80065435
_cell_formula_units_Z   2
loop_
 _symmetry_equiv_pos_site_id
 _symmetry_equiv_pos_as_xyz
  1  'x, y, z'
loop_
 _atom_site_type_symbol
 _atom_site_label
 _atom_site_symmetry_multiplicity
 _atom_site_fract_x
 _atom_site_fract_y
 _atom_site_fract_z
 _atom_site_occupancy
  Zn  Zn0  1  0.50000000  0.50000000  0.00000000  1.0
  Zn  Zn1  1  0.50000000  0.00000000  0.50000000  1.0
  H  H2  1  0.92105000  0.58350000  0.94098000  1.0
  H  H3  1  0.07896000  0.05904000  0.41651000  1.0
  H  H4  1  0.07895000  0.41650000  0.05902000  1.0
  H  H5  1  0.92104000  0.94096000  0.58349000  1.0
  H  H6  1  0.10661000  0.77158000  0.77159000  1.0
  H  H7  1  0.89338000  0.22842000  0.22841000  1.0
  H  H8  1  0.43121000  0.74574000  0.74573000  1.0
  H  H9  1  0.56879000  0.25426000  0.25427000  1.0
  C  C10  1  0.85526000  0.66347000  0.86014000  1.0
  C  C11  1  0.14474000  0.13988000  0.33653000  1.0
  C  C12  1  0.14474000  0.33653000  0.13986000  1.0
  C  C13  1  0.85526000  0.86013000  0.66347000  1.0
  C  C14  1  0.95586000  0.76599000  0.76599000  1.0
  C  C15  1  0.04414000  0.23401000  0.23401000  1.0
  C  C16  1  0.58215000  0.75130000  0.75131000  1.0
  C  C17  1  0.41785000  0.24870000  0.24869000  1.0
  N  N18  1  0.66858000  0.65685000  0.85335000  1.0
  N  N19  1  0.33143000  0.14666000  0.34315000  1.0
  N  N20  1  0.33142000  0.34315000  0.14665000  1.0
  N  N21  1  0.66857000  0.85334000  0.65685000  1.0
  N  N22  1  0.81786000  0.66487000  0.27904000  1.0
  N  N23  1  0.18216000  0.72095000  0.33511000  1.0
  N  N24  1  0.18214000  0.33513000  0.72096000  1.0
  N  N25  1  0.81785000  0.27905000  0.66489000  1.0
  N  N26  1  0.00001000  0.69323000  0.30676000  1.0
  N  N27  1  0.99999000  0.30677000  0.69324000  1.0
  N  N28  1  0.60920000  0.30092000  0.97401000  1.0
  N  N29  1  0.39077000  0.02598000  0.69905000  1.0
  N  N30  1  0.39080000  0.69909000  0.02600000  1.0
  N  N31  1  0.60924000  0.97403000  0.30095000  1.0
  N  N32  1  0.49998000  0.16494000  0.83504000  1.0
  N  N33  1  0.50002000  0.83506000  0.16496000  1.0
