# generated using pymatgen
data_CsH10C5ClO5
_symmetry_space_group_name_H-M   'P 1'
_cell_length_a   5.36424000
_cell_length_b   7.60826000
_cell_length_c   11.82270000
_cell_angle_alpha   96.07710000
_cell_angle_beta   102.78100000
_cell_angle_gamma   91.60760000
_symmetry_Int_Tables_number   1
_chemical_formula_structural   CsH10C5ClO5
_chemical_formula_sum   'Cs2 H20 C10 Cl2 O10'
_cell_volume   467.25492375
_cell_formula_units_Z   2
loop_
 _symmetry_equiv_pos_site_id
 _symmetry_equiv_pos_as_xyz
  1  'x, y, z'
loop_
 _atom_site_type_symbol
 _atom_site_label
 _atom_site_symmetry_multiplicity
 _atom_site_fract_x
 _atom_site_fract_y
 _atom_site_fract_z
 _atom_site_occupancy
  Cs  Cs0  1  0.69557000  0.18986000  0.03697000  1.0
  Cs  Cs1  1  0.71036000  0.49739000  0.52927000  1.0
  H  H2  1  0.03313000  0.19303000  0.43311000  1.0
  H  H3  1  0.04880000  0.32357000  0.85560000  1.0
  H  H4  1  0.35971000  0.23255000  0.30812000  1.0
  H  H5  1  0.79796000  0.54278000  0.23931000  1.0
  H  H6  1  0.79402000  0.91707000  0.41436000  1.0
  H  H7  1  0.59242000  0.68790000  0.95893000  1.0
  H  H8  1  0.39569000  0.42521000  0.72775000  1.0
  H  H9  1  0.24316000  0.58364000  0.01112000  1.0
  H  H10  1  0.83920000  0.76387000  0.80383000  1.0
  H  H11  1  0.74077000  0.90916000  0.22123000  1.0
  H  H12  1  0.47647000  0.15079000  0.72595000  1.0
  H  H13  1  0.23263000  0.93978000  0.29839000  1.0
  H  H14  1  0.35267000  0.60749000  0.22173000  1.0
  H  H15  1  0.89591000  0.16259000  0.69435000  1.0
  H  H16  1  0.23741000  0.88298000  0.80665000  1.0
  H  H17  1  0.40512000  0.09209000  0.51467000  1.0
  H  H18  1  0.03405000  0.86988000  0.98445000  1.0
  H  H19  1  0.99492000  0.78034000  0.11381000  1.0
  H  H20  1  0.21006000  0.78394000  0.49589000  1.0
  H  H21  1  0.43191000  0.84545000  0.63375000  1.0
  C  C22  1  0.33849000  0.70929000  0.05798000  1.0
  C  C23  1  0.58615000  0.84953000  0.25528000  1.0
  C  C24  1  0.28543000  0.17728000  0.67456000  1.0
  C  C25  1  0.37707000  0.98412000  0.25153000  1.0
  C  C26  1  0.48642000  0.67589000  0.17951000  1.0
  C  C27  1  0.08518000  0.12578000  0.74133000  1.0
  C  C28  1  0.06525000  0.92601000  0.74741000  1.0
  C  C29  1  0.24580000  0.06462000  0.55649000  1.0
  C  C30  1  0.13439000  0.83853000  0.07051000  1.0
  C  C31  1  0.24476000  0.87133000  0.57851000  1.0
  Cl  Cl32  1  0.10253000  0.40631000  0.34336000  1.0
  Cl  Cl33  1  0.75992000  0.51020000  0.84347000  1.0
  O  O34  1  0.00624000  0.09641000  0.48047000  1.0
  O  O35  1  0.24752000  0.00436000  0.13347000  1.0
  O  O36  1  0.14630000  0.21500000  0.85771000  1.0
  O  O37  1  0.49604000  0.14796000  0.30120000  1.0
  O  O38  1  0.03974000  0.83010000  0.63310000  1.0
  O  O39  1  0.68900000  0.56467000  0.16369000  1.0
  O  O40  1  0.68353000  0.81260000  0.37222000  1.0
  O  O41  1  0.49945000  0.78370000  0.99139000  1.0
  O  O42  1  0.27619000  0.36129000  0.65888000  1.0
  O  O43  1  0.84223000  0.88798000  0.78470000  1.0
