# generated using pymatgen
data_ZnH20C27NO4F
_symmetry_space_group_name_H-M   'P 1'
_cell_length_a   10.36740000
_cell_length_b   11.01230000
_cell_length_c   11.83630000
_cell_angle_alpha   71.09950000
_cell_angle_beta   66.42280000
_cell_angle_gamma   65.27360000
_symmetry_Int_Tables_number   1
_chemical_formula_structural   ZnH20C27NO4F
_chemical_formula_sum   'Zn2 H40 C54 N2 O8 F2'
_cell_volume   1104.88877947
_cell_formula_units_Z   2
loop_
 _symmetry_equiv_pos_site_id
 _symmetry_equiv_pos_as_xyz
  1  'x, y, z'
loop_
 _atom_site_type_symbol
 _atom_site_label
 _atom_site_symmetry_multiplicity
 _atom_site_fract_x
 _atom_site_fract_y
 _atom_site_fract_z
 _atom_site_occupancy
  Zn  Zn0  1  0.09770000  0.05477000  0.38915000  1.0
  Zn  Zn1  1  0.90231000  0.94523000  0.61085000  1.0
  H  H2  1  0.21227000  0.11580000  0.10342000  1.0
  H  H3  1  0.78773000  0.88420000  0.89658000  1.0
  H  H4  1  0.36938000  0.25202000  0.94057000  1.0
  H  H5  1  0.63062000  0.74798000  0.05943000  1.0
  H  H6  1  0.37177000  0.38867000  0.24319000  1.0
  H  H7  1  0.62824000  0.61133000  0.75681000  1.0
  H  H8  1  0.22013000  0.24517000  0.39126000  1.0
  H  H9  1  0.77987000  0.75483000  0.60874000  1.0
  H  H10  1  0.52011000  0.38907000  0.89204000  1.0
  H  H11  1  0.47989000  0.61093000  0.10796000  1.0
  H  H12  1  0.40951000  0.62338000  0.87654000  1.0
  H  H13  1  0.59049000  0.37662000  0.12346000  1.0
  H  H14  1  0.26355000  0.68342000  0.19697000  1.0
  H  H15  1  0.73645000  0.31658000  0.80303000  1.0
  H  H16  1  0.99794000  0.74247000  0.32071000  1.0
  H  H17  1  0.00206000  0.25754000  0.67930000  1.0
  H  H18  1  0.81580000  0.71806000  0.24782000  1.0
  H  H19  1  0.18420000  0.28195000  0.75219000  1.0
  H  H20  1  0.90713000  0.63013000  0.04919000  1.0
  H  H21  1  0.09288000  0.36987000  0.95081000  1.0
  H  H22  1  0.09106000  0.91311000  0.89512000  1.0
  H  H23  1  0.90894000  0.08690000  0.10487000  1.0
  H  H24  1  0.22268000  0.93109000  0.02167000  1.0
  H  H25  1  0.77732000  0.06891000  0.97833000  1.0
  H  H26  1  0.44053000  0.01422000  0.91425000  1.0
  H  H27  1  0.55947000  0.98577000  0.08576000  1.0
  H  H28  1  0.52967000  0.07419000  0.68088000  1.0
  H  H29  1  0.47033000  0.92581000  0.31912000  1.0
  H  H30  1  0.39425000  0.05585000  0.55637000  1.0
  H  H31  1  0.60576000  0.94415000  0.44362000  1.0
  H  H32  1  0.48334000  0.67517000  0.30359000  1.0
  H  H33  1  0.51666000  0.32482000  0.69641000  1.0
  H  H34  1  0.65265000  0.43427000  0.29673000  1.0
  H  H35  1  0.34734000  0.56572000  0.70328000  1.0
  H  H36  1  0.55304000  0.24423000  0.41999000  1.0
  H  H37  1  0.44696000  0.75577000  0.58002000  1.0
  H  H38  1  0.28588000  0.29498000  0.54874000  1.0
  H  H39  1  0.71411000  0.70501000  0.45126000  1.0
  H  H40  1  0.11969000  0.53575000  0.55863000  1.0
  H  H41  1  0.88030000  0.46425000  0.44137000  1.0
  C  C42  1  0.25225000  0.17692000  0.12938000  1.0
  C  C43  1  0.74776000  0.82308000  0.87062000  1.0
  C  C44  1  0.33905000  0.25335000  0.03975000  1.0
  C  C45  1  0.66095000  0.74665000  0.96025000  1.0
  C  C46  1  0.38758000  0.33057000  0.07755000  1.0
  C  C47  1  0.61242000  0.66943000  0.92245000  1.0
  C  C48  1  0.34134000  0.32935000  0.20644000  1.0
  C  C49  1  0.65866000  0.67065000  0.79356000  1.0
  C  C50  1  0.25571000  0.25023000  0.29040000  1.0
  C  C51  1  0.74429000  0.74977000  0.70960000  1.0
  C  C52  1  0.47904000  0.41571000  0.98471000  1.0
  C  C53  1  0.52096000  0.58430000  0.01529000  1.0
  C  C54  1  0.40001000  0.57571000  0.97535000  1.0
  C  C55  1  0.59999000  0.42429000  0.02465000  1.0
  C  C56  1  0.23932000  0.62309000  0.05236000  1.0
  C  C57  1  0.76068000  0.37691000  0.94765000  1.0
  C  C58  1  0.18615000  0.67181000  0.16377000  1.0
  C  C59  1  0.81385000  0.32819000  0.83623000  1.0
  C  C60  1  0.03533000  0.70513000  0.23428000  1.0
  C  C61  1  0.96467000  0.29487000  0.76572000  1.0
  C  C62  1  0.93377000  0.69093000  0.19418000  1.0
  C  C63  1  0.06623000  0.30908000  0.80583000  1.0
  C  C64  1  0.98268000  0.64359000  0.08306000  1.0
  C  C65  1  0.01732000  0.35641000  0.91695000  1.0
  C  C66  1  0.13290000  0.61157000  0.01581000  1.0
  C  C67  1  0.86710000  0.38843000  0.98419000  1.0
  C  C68  1  0.15067000  0.98186000  0.64144000  1.0
  C  C69  1  0.84934000  0.01814000  0.35855000  1.0
  C  C70  1  0.23497000  0.98399000  0.71817000  1.0
  C  C71  1  0.76504000  0.01601000  0.28182000  1.0
  C  C72  1  0.18720000  0.94789000  0.84935000  1.0
  C  C73  1  0.81280000  0.05211000  0.15064000  1.0
  C  C74  1  0.26099000  0.95902000  0.91959000  1.0
  C  C75  1  0.73901000  0.04098000  0.08041000  1.0
  C  C76  1  0.38295000  0.00572000  0.85919000  1.0
  C  C77  1  0.61705000  0.99428000  0.14081000  1.0
  C  C78  1  0.43321000  0.03958000  0.72823000  1.0
  C  C79  1  0.56679000  0.96041000  0.27177000  1.0
  C  C80  1  0.35885000  0.02861000  0.65838000  1.0
  C  C81  1  0.64116000  0.97139000  0.34162000  1.0
  C  C82  1  0.19167000  0.76413000  0.43934000  1.0
  C  C83  1  0.80832000  0.23587000  0.56066000  1.0
  C  C84  1  0.29130000  0.61976000  0.43026000  1.0
  C  C85  1  0.70870000  0.38023000  0.56975000  1.0
  C  C86  1  0.44127000  0.59073000  0.35573000  1.0
  C  C87  1  0.55872000  0.40927000  0.64427000  1.0
  C  C88  1  0.53540000  0.45621000  0.35223000  1.0
  C  C89  1  0.46459000  0.54379000  0.64777000  1.0
  C  C90  1  0.47951000  0.34949000  0.42190000  1.0
  C  C91  1  0.52049000  0.65050000  0.57810000  1.0
  C  C92  1  0.32948000  0.37814000  0.49471000  1.0
  C  C93  1  0.67051000  0.62186000  0.50529000  1.0
  C  C94  1  0.23589000  0.51239000  0.49988000  1.0
  C  C95  1  0.76410000  0.48760000  0.50012000  1.0
  N  N96  1  0.21276000  0.17398000  0.25290000  1.0
  N  N97  1  0.78724000  0.82602000  0.74710000  1.0
  O  O98  1  0.19926000  0.01954000  0.52294000  1.0
  O  O99  1  0.80075000  0.98046000  0.47705000  1.0
  O  O100  1  0.03586000  0.94496000  0.70003000  1.0
  O  O101  1  0.96414000  0.05504000  0.29995000  1.0
  O  O102  1  0.06897000  0.78089000  0.52841000  1.0
  O  O103  1  0.93102000  0.21911000  0.47158000  1.0
  O  O104  1  0.23637000  0.85928000  0.35843000  1.0
  O  O105  1  0.76362000  0.14072000  0.64156000  1.0
  F  F106  1  0.18144000  0.56345000  0.90698000  1.0
  F  F107  1  0.81856000  0.43655000  0.09303000  1.0
