# generated using pymatgen
data_MgH18C8O7
_symmetry_space_group_name_H-M   'P 1'
_cell_length_a   7.99044000
_cell_length_b   9.02638000
_cell_length_c   15.87340000
_cell_angle_alpha   76.17700000
_cell_angle_beta   89.99970000
_cell_angle_gamma   89.99990000
_symmetry_Int_Tables_number   1
_chemical_formula_structural   MgH18C8O7
_chemical_formula_sum   'Mg4 H72 C32 O28'
_cell_volume   1111.70790564
_cell_formula_units_Z   4
loop_
 _symmetry_equiv_pos_site_id
 _symmetry_equiv_pos_as_xyz
  1  'x, y, z'
loop_
 _atom_site_type_symbol
 _atom_site_label
 _atom_site_symmetry_multiplicity
 _atom_site_fract_x
 _atom_site_fract_y
 _atom_site_fract_z
 _atom_site_occupancy
  Mg  Mg0  1  0.13242000  0.30372000  0.62974000  1.0
  Mg  Mg1  1  0.36758000  0.80372000  0.62974000  1.0
  Mg  Mg2  1  0.86758000  0.69628000  0.37026000  1.0
  Mg  Mg3  1  0.63242000  0.19628000  0.37026000  1.0
  H  H4  1  0.20728000  0.76721000  0.83135000  1.0
  H  H5  1  0.29271000  0.26721000  0.83135000  1.0
  H  H6  1  0.79272000  0.23279000  0.16865000  1.0
  H  H7  1  0.70729000  0.73279000  0.16865000  1.0
  H  H8  1  0.01289000  0.86210000  0.83517000  1.0
  H  H9  1  0.48710000  0.36209000  0.83517000  1.0
  H  H10  1  0.98710000  0.13790000  0.16483000  1.0
  H  H11  1  0.51290000  0.63791000  0.16483000  1.0
  H  H12  1  0.15102000  0.03961000  0.91336000  1.0
  H  H13  1  0.34898000  0.53961000  0.91336000  1.0
  H  H14  1  0.84898000  0.96039000  0.08664000  1.0
  H  H15  1  0.65102000  0.46039000  0.08664000  1.0
  H  H16  1  0.34276000  0.94234000  0.91330000  1.0
  H  H17  1  0.15724000  0.44234000  0.91330000  1.0
  H  H18  1  0.65725000  0.05766000  0.08669000  1.0
  H  H19  1  0.84276000  0.55766000  0.08670000  1.0
  H  H20  1  0.01891000  0.79937000  0.00097000  1.0
  H  H21  1  0.48109000  0.29937000  0.00097000  1.0
  H  H22  1  0.98109000  0.20063000  0.99903000  1.0
  H  H23  1  0.51891000  0.70063000  0.99903000  1.0
  H  H24  1  0.20766000  0.69992000  0.99865000  1.0
  H  H25  1  0.29234000  0.19992000  0.99866000  1.0
  H  H26  1  0.79234000  0.30008000  0.00135000  1.0
  H  H27  1  0.70766000  0.80008000  0.00135000  1.0
  H  H28  1  0.15591000  0.96952000  0.08290000  1.0
  H  H29  1  0.34410000  0.46952000  0.08290000  1.0
  H  H30  1  0.84410000  0.03048000  0.91710000  1.0
  H  H31  1  0.65591000  0.53048000  0.91710000  1.0
  H  H32  1  0.35134000  0.88407000  0.07453000  1.0
  H  H33  1  0.14866000  0.38407000  0.07453000  1.0
  H  H34  1  0.64866000  0.11593000  0.92547000  1.0
  H  H35  1  0.85134000  0.61593000  0.92547000  1.0
  H  H36  1  0.23845000  0.63243000  0.15993000  1.0
  H  H37  1  0.26155000  0.13243000  0.15993000  1.0
  H  H38  1  0.76155000  0.36757000  0.84007000  1.0
  H  H39  1  0.73845000  0.86757000  0.84007000  1.0
  H  H40  1  0.04561000  0.72056000  0.17241000  1.0
  H  H41  1  0.45438000  0.22056000  0.17241000  1.0
  H  H42  1  0.95438000  0.27944000  0.82759000  1.0
  H  H43  1  0.54562000  0.77944000  0.82759000  1.0
  H  H44  1  0.37774000  0.83205000  0.23175000  1.0
  H  H45  1  0.12226000  0.33205000  0.23175000  1.0
  H  H46  1  0.62226000  0.16795000  0.76825000  1.0
  H  H47  1  0.87774000  0.66795000  0.76825000  1.0
  H  H48  1  0.17016000  0.88331000  0.25591000  1.0
  H  H49  1  0.32984000  0.38331000  0.25591000  1.0
  H  H50  1  0.82984000  0.11669000  0.74409000  1.0
  H  H51  1  0.67016000  0.61669000  0.74409000  1.0
  H  H52  1  0.38227000  0.12698000  0.63937000  1.0
  H  H53  1  0.11773000  0.62698000  0.63937000  1.0
  H  H54  1  0.61773000  0.87302000  0.36063000  1.0
  H  H55  1  0.88227000  0.37302000  0.36063000  1.0
  H  H56  1  0.47002000  0.29196000  0.63682000  1.0
  H  H57  1  0.02998000  0.79196000  0.63682000  1.0
  H  H58  1  0.52998000  0.70804000  0.36318000  1.0
  H  H59  1  0.97002000  0.20804000  0.36318000  1.0
  H  H60  1  0.14798000  0.51395000  0.46106000  1.0
  H  H61  1  0.35202000  0.01395000  0.46106000  1.0
  H  H62  1  0.85202000  0.48605000  0.53894000  1.0
  H  H63  1  0.64798000  0.98605000  0.53894000  1.0
  H  H64  1  0.28127000  0.54239000  0.52930000  1.0
  H  H65  1  0.21873000  0.04239000  0.52930000  1.0
  H  H66  1  0.71873000  0.45761000  0.47070000  1.0
  H  H67  1  0.78127000  0.95761000  0.47070000  1.0
  H  H68  1  0.96115000  0.07435000  0.58556000  1.0
  H  H69  1  0.53884000  0.57434000  0.58556000  1.0
  H  H70  1  0.03885000  0.92565000  0.41444000  1.0
  H  H71  1  0.46115000  0.42566000  0.41444000  1.0
  H  H72  1  0.97609000  0.20453000  0.49766000  1.0
  H  H73  1  0.52391000  0.70453000  0.49766000  1.0
  H  H74  1  0.02391000  0.79547000  0.50234000  1.0
  H  H75  1  0.47609000  0.29547000  0.50234000  1.0
  C  C76  1  0.19295000  0.99425000  0.75130000  1.0
  C  C77  1  0.30705000  0.49425000  0.75130000  1.0
  C  C78  1  0.80705000  0.00576000  0.24870000  1.0
  C  C79  1  0.69295000  0.50574000  0.24870000  1.0
  C  C80  1  0.14957000  0.87653000  0.83355000  1.0
  C  C81  1  0.35042000  0.37653000  0.83355000  1.0
  C  C82  1  0.85043000  0.12347000  0.16645000  1.0
  C  C83  1  0.64957000  0.62347000  0.16645000  1.0
  C  C84  1  0.20564000  0.92699000  0.91477000  1.0
  C  C85  1  0.29436000  0.42699000  0.91477000  1.0
  C  C86  1  0.79437000  0.07300000  0.08523000  1.0
  C  C87  1  0.70564000  0.57301000  0.08523000  1.0
  C  C88  1  0.15617000  0.81328000  0.99874000  1.0
  C  C89  1  0.34383000  0.31328000  0.99874000  1.0
  C  C90  1  0.84383000  0.18672000  0.00126000  1.0
  C  C91  1  0.65617000  0.68672000  0.00126000  1.0
  C  C92  1  0.21556000  0.86070000  0.07990000  1.0
  C  C93  1  0.28444000  0.36070000  0.07990000  1.0
  C  C94  1  0.78444000  0.13930000  0.92010000  1.0
  C  C95  1  0.71556000  0.63930000  0.92010000  1.0
  C  C96  1  0.18085000  0.74148000  0.16393000  1.0
  C  C97  1  0.31915000  0.24148000  0.16393000  1.0
  C  C98  1  0.81915000  0.25852000  0.83607000  1.0
  C  C99  1  0.68085000  0.75852000  0.83607000  1.0
  C  C100  1  0.24848000  0.79071000  0.24373000  1.0
  C  C101  1  0.25152000  0.29071000  0.24373000  1.0
  C  C102  1  0.75152000  0.20930000  0.75627000  1.0
  C  C103  1  0.74848000  0.70930000  0.75627000  1.0
  C  C104  1  0.24682000  0.65819000  0.32281000  1.0
  C  C105  1  0.25318000  0.15818000  0.32281000  1.0
  C  C106  1  0.75318000  0.34181000  0.67719000  1.0
  C  C107  1  0.74681000  0.84182000  0.67719000  1.0
  O  O108  1  0.12650000  0.12520000  0.73901000  1.0
  O  O109  1  0.37350000  0.62519000  0.73901000  1.0
  O  O110  1  0.87350000  0.87480000  0.26099000  1.0
  O  O111  1  0.62650000  0.37481000  0.26099000  1.0
  O  O112  1  0.29913000  0.95949000  0.69881000  1.0
  O  O113  1  0.20086000  0.45948000  0.69881000  1.0
  O  O114  1  0.70087000  0.04051000  0.30119000  1.0
  O  O115  1  0.79914000  0.54051000  0.30119000  1.0
  O  O116  1  0.10813000  0.61599000  0.36111000  1.0
  O  O117  1  0.39187000  0.11599000  0.36111000  1.0
  O  O118  1  0.89186000  0.38401000  0.63889000  1.0
  O  O119  1  0.60814000  0.88400000  0.63889000  1.0
  O  O120  1  0.38468000  0.59030000  0.34711000  1.0
  O  O121  1  0.11532000  0.09029000  0.34710000  1.0
  O  O122  1  0.61531000  0.40971000  0.65289000  1.0
  O  O123  1  0.88468000  0.90971000  0.65290000  1.0
  O  O124  1  0.38479000  0.23761000  0.60866000  1.0
  O  O125  1  0.11520000  0.73760000  0.60866000  1.0
  O  O126  1  0.61521000  0.76240000  0.39134000  1.0
  O  O127  1  0.88480000  0.26240000  0.39134000  1.0
  O  O128  1  0.18555000  0.47702000  0.52256000  1.0
  O  O129  1  0.31445000  0.97702000  0.52256000  1.0
  O  O130  1  0.81446000  0.52297000  0.47744000  1.0
  O  O131  1  0.68555000  0.02298000  0.47744000  1.0
  O  O132  1  0.03553000  0.15789000  0.55295000  1.0
  O  O133  1  0.46447000  0.65789000  0.55295000  1.0
  O  O134  1  0.96447000  0.84211000  0.44705000  1.0
  O  O135  1  0.53553000  0.34211000  0.44705000  1.0
