# generated using pymatgen
data_TlH28AuC28N2(Cl5O2)2
_symmetry_space_group_name_H-M   'P 1'
_cell_length_a   11.54120000
_cell_length_b   12.84010000
_cell_length_c   15.19200000
_cell_angle_alpha   105.30600000
_cell_angle_beta   103.45400000
_cell_angle_gamma   111.67500000
_symmetry_Int_Tables_number   1
_chemical_formula_structural   TlH28AuC28N2(Cl5O2)2
_chemical_formula_sum   'Tl2 H56 Au2 C56 N4 Cl20 O8'
_cell_volume   1876.03266320
_cell_formula_units_Z   2
loop_
 _symmetry_equiv_pos_site_id
 _symmetry_equiv_pos_as_xyz
  1  'x, y, z'
loop_
 _atom_site_type_symbol
 _atom_site_label
 _atom_site_symmetry_multiplicity
 _atom_site_fract_x
 _atom_site_fract_y
 _atom_site_fract_z
 _atom_site_occupancy
  Tl  Tl0  1  0.78186000  0.99746000  0.08237000  1.0
  Tl  Tl1  1  0.21814000  0.00254000  0.91763000  1.0
  H  H2  1  0.11765000  0.19756000  0.32999000  1.0
  H  H3  1  0.88234000  0.80243000  0.67000000  1.0
  H  H4  1  0.11719000  0.25412000  0.45119000  1.0
  H  H5  1  0.88281000  0.74588000  0.54880000  1.0
  H  H6  1  0.00685000  0.25870000  0.35010000  1.0
  H  H7  1  0.99314000  0.74129000  0.64990000  1.0
  H  H8  1  0.95926000  0.12533000  0.50090000  1.0
  H  H9  1  0.04075000  0.87467000  0.49910000  1.0
  H  H10  1  0.75626000  0.84506000  0.50305000  1.0
  H  H11  1  0.24374000  0.15494000  0.49695000  1.0
  H  H12  1  0.65869000  0.92253000  0.48745000  1.0
  H  H13  1  0.34131000  0.07747000  0.51255000  1.0
  H  H14  1  0.83024000  0.00574000  0.56589000  1.0
  H  H15  1  0.16976000  0.99426000  0.43411000  1.0
  H  H16  1  0.76354000  0.87978000  0.26996000  1.0
  H  H17  1  0.23645000  0.12022000  0.73004000  1.0
  H  H18  1  0.53905000  0.72312000  0.22742000  1.0
  H  H19  1  0.46094000  0.27688000  0.77258000  1.0
  H  H20  1  0.57139000  0.74515000  0.35249000  1.0
  H  H21  1  0.42861000  0.25484000  0.64751000  1.0
  H  H22  1  0.56122000  0.55257000  0.25401000  1.0
  H  H23  1  0.43877000  0.44743000  0.74599000  1.0
  H  H24  1  0.69704000  0.63435000  0.22188000  1.0
  H  H25  1  0.30296000  0.36565000  0.77812000  1.0
  H  H26  1  0.70555000  0.47749000  0.29750000  1.0
  H  H27  1  0.29445000  0.52251000  0.70250000  1.0
  H  H28  1  0.77484000  0.53723000  0.42765000  1.0
  H  H29  1  0.22516000  0.46277000  0.57235000  1.0
  H  H30  1  0.99600000  0.66932000  0.42873000  1.0
  H  H31  1  0.00400000  0.33069000  0.57127000  1.0
  H  H32  1  0.93952000  0.51284000  0.35881000  1.0
  H  H33  1  0.06049000  0.48717000  0.64119000  1.0
  H  H34  1  0.10841000  0.78148000  0.34958000  1.0
  H  H35  1  0.89159000  0.21852000  0.65042000  1.0
  H  H36  1  0.95431000  0.79179000  0.32850000  1.0
  H  H37  1  0.04569000  0.20821000  0.67150000  1.0
  H  H38  1  0.07171000  0.85247000  0.21707000  1.0
  H  H39  1  0.92829000  0.14753000  0.78292000  1.0
  H  H40  1  0.05647000  0.70463000  0.16817000  1.0
  H  H41  1  0.94353000  0.29537000  0.83182000  1.0
  H  H42  1  0.83421000  0.77630000  0.14099000  1.0
  H  H43  1  0.16579000  0.22371000  0.85902000  1.0
  H  H44  1  0.94443000  0.55447000  0.02900000  1.0
  H  H45  1  0.05557000  0.44553000  0.97100000  1.0
  H  H46  1  0.77477000  0.44285000  0.96298000  1.0
  H  H47  1  0.22523000  0.55715000  0.03702000  1.0
  H  H48  1  0.85126000  0.48254000  0.09189000  1.0
  H  H49  1  0.14874000  0.51747000  0.90812000  1.0
  H  H50  1  0.61513000  0.50655000  0.92982000  1.0
  H  H51  1  0.38487000  0.49345000  0.07018000  1.0
  H  H52  1  0.45475000  0.71124000  0.96163000  1.0
  H  H53  1  0.54525000  0.28876000  0.03837000  1.0
  H  H54  1  0.42405000  0.55945000  0.89640000  1.0
  H  H55  1  0.57595000  0.44055000  0.10360000  1.0
  H  H56  1  0.52581000  0.68244000  0.87185000  1.0
  H  H57  1  0.47419000  0.31757000  0.12815000  1.0
  Au  Au58  1  0.50000000  0.00000000  0.00000000  1.0
  Au  Au59  1  0.00000000  0.00000000  0.00000000  1.0
  C  C60  1  0.54313000  0.03497000  0.14756000  1.0
  C  C61  1  0.45687000  0.96502000  0.85244000  1.0
  C  C62  1  0.46932000  0.94741000  0.17870000  1.0
  C  C63  1  0.53068000  0.05258000  0.82130000  1.0
  C  C64  1  0.48231000  0.97126000  0.27705000  1.0
  C  C65  1  0.51770000  0.02874000  0.72295000  1.0
  C  C66  1  0.57766000  0.08591000  0.34938000  1.0
  C  C67  1  0.42235000  0.91409000  0.65062000  1.0
  C  C68  1  0.66029000  0.17319000  0.32231000  1.0
  C  C69  1  0.33972000  0.82681000  0.67769000  1.0
  C  C70  1  0.64053000  0.14711000  0.22262000  1.0
  C  C71  1  0.35947000  0.85289000  0.77738000  1.0
  C  C72  1  0.11928000  0.17073000  0.11221000  1.0
  C  C73  1  0.88072000  0.82927000  0.88779000  1.0
  C  C74  1  0.08779000  0.26795000  0.12153000  1.0
  C  C75  1  0.91221000  0.73205000  0.87847000  1.0
  C  C76  1  0.16108000  0.38019000  0.20220000  1.0
  C  C77  1  0.83892000  0.61981000  0.79780000  1.0
  C  C78  1  0.27603000  0.40009000  0.27543000  1.0
  C  C79  1  0.72397000  0.59991000  0.72457000  1.0
  C  C80  1  0.31406000  0.30680000  0.26757000  1.0
  C  C81  1  0.68594000  0.69320000  0.73243000  1.0
  C  C82  1  0.23399000  0.19426000  0.18775000  1.0
  C  C83  1  0.76602000  0.80574000  0.81226000  1.0
  C  C84  1  0.05467000  0.20514000  0.37291000  1.0
  C  C85  1  0.94533000  0.79485000  0.62708000  1.0
  C  C86  1  0.94687000  0.08040000  0.35089000  1.0
  C  C87  1  0.05313000  0.91960000  0.64911000  1.0
  C  C88  1  0.90536000  0.05596000  0.42693000  1.0
  C  C89  1  0.09464000  0.94403000  0.57307000  1.0
  C  C90  1  0.79819000  0.94719000  0.41276000  1.0
  C  C91  1  0.20181000  0.05281000  0.58724000  1.0
  C  C92  1  0.75896000  0.92919000  0.49706000  1.0
  C  C93  1  0.24103000  0.07081000  0.50294000  1.0
  C  C94  1  0.61595000  0.74220000  0.29617000  1.0
  C  C95  1  0.38405000  0.25780000  0.70383000  1.0
  C  C96  1  0.65347000  0.63890000  0.27944000  1.0
  C  C97  1  0.34653000  0.36110000  0.72056000  1.0
  C  C98  1  0.78015000  0.55921000  0.36283000  1.0
  C  C99  1  0.21985000  0.44079000  0.63717000  1.0
  C  C100  1  0.92002000  0.59120000  0.36130000  1.0
  C  C101  1  0.07998000  0.40880000  0.63870000  1.0
  C  C102  1  0.00473000  0.74219000  0.29662000  1.0
  C  C103  1  0.99527000  0.25782000  0.70338000  1.0
  C  C104  1  0.00906000  0.75609000  0.20092000  1.0
  C  C105  1  0.99095000  0.24392000  0.79908000  1.0
  C  C106  1  0.84454000  0.51758000  0.03321000  1.0
  C  C107  1  0.15546000  0.48242000  0.96679000  1.0
  C  C108  1  0.79839000  0.61293000  0.05466000  1.0
  C  C109  1  0.20161000  0.38708000  0.94535000  1.0
  C  C110  1  0.67345000  0.59191000  0.99358000  1.0
  C  C111  1  0.32656000  0.40810000  0.00642000  1.0
  C  C112  1  0.62284000  0.67729000  0.00791000  1.0
  C  C113  1  0.37716000  0.32271000  0.99209000  1.0
  C  C114  1  0.49863000  0.65545000  0.93015000  1.0
  C  C115  1  0.50137000  0.34455000  0.06985000  1.0
  N  N116  1  0.72840000  0.85905000  0.32306000  1.0
  N  N117  1  0.27159000  0.14094000  0.67694000  1.0
  N  N118  1  0.87711000  0.71824000  0.13185000  1.0
  N  N119  1  0.12290000  0.28176000  0.86815000  1.0
  Cl  Cl120  1  0.35352000  0.80360000  0.09213000  1.0
  Cl  Cl121  1  0.64649000  0.19640000  0.90788000  1.0
  Cl  Cl122  1  0.38065000  0.86269000  0.30884000  1.0
  Cl  Cl123  1  0.61935000  0.13732000  0.69116000  1.0
  Cl  Cl124  1  0.59263000  0.11955000  0.46950000  1.0
  Cl  Cl125  1  0.40737000  0.88045000  0.53050000  1.0
  Cl  Cl126  1  0.78296000  0.30998000  0.41240000  1.0
  Cl  Cl127  1  0.21705000  0.69002000  0.58760000  1.0
  Cl  Cl128  1  0.74355000  0.25859000  0.19227000  1.0
  Cl  Cl129  1  0.25643000  0.74140000  0.80772000  1.0
  Cl  Cl130  1  0.94828000  0.24781000  0.03153000  1.0
  Cl  Cl131  1  0.05172000  0.75219000  0.96847000  1.0
  Cl  Cl132  1  0.10905000  0.49090000  0.21486000  1.0
  Cl  Cl133  1  0.89095000  0.50909000  0.78515000  1.0
  Cl  Cl134  1  0.36683000  0.53566000  0.37537000  1.0
  Cl  Cl135  1  0.63316000  0.46434000  0.62464000  1.0
  Cl  Cl136  1  0.45454000  0.33064000  0.35696000  1.0
  Cl  Cl137  1  0.54546000  0.66937000  0.64304000  1.0
  Cl  Cl138  1  0.27939000  0.07922000  0.18410000  1.0
  Cl  Cl139  1  0.72061000  0.92078000  0.81590000  1.0
  O  O140  1  0.89470000  0.00102000  0.26281000  1.0
  O  O141  1  0.10529000  0.99897000  0.73719000  1.0
  O  O142  1  0.74657000  0.65733000  0.36938000  1.0
  O  O143  1  0.25342000  0.34267000  0.63062000  1.0
  O  O144  1  0.93423000  0.61583000  0.27663000  1.0
  O  O145  1  0.06577000  0.38417000  0.72336000  1.0
  O  O146  1  0.68211000  0.77633000  0.08460000  1.0
  O  O147  1  0.31788000  0.22367000  0.91540000  1.0
