# generated using pymatgen
data_NiH16C20(NO2)2
_symmetry_space_group_name_H-M   'P 1'
_cell_length_a   9.47383000
_cell_length_b   10.28860000
_cell_length_c   10.11720000
_cell_angle_alpha   79.07980000
_cell_angle_beta   69.13580000
_cell_angle_gamma   83.93050000
_symmetry_Int_Tables_number   1
_chemical_formula_structural   NiH16C20(NO2)2
_chemical_formula_sum   'Ni2 H32 C40 N4 O8'
_cell_volume   904.01030268
_cell_formula_units_Z   2
loop_
 _symmetry_equiv_pos_site_id
 _symmetry_equiv_pos_as_xyz
  1  'x, y, z'
loop_
 _atom_site_type_symbol
 _atom_site_label
 _atom_site_symmetry_multiplicity
 _atom_site_fract_x
 _atom_site_fract_y
 _atom_site_fract_z
 _atom_site_occupancy
  Ni  Ni0  1  0.55673000  0.63470000  0.13556000  1.0
  Ni  Ni1  1  0.44327000  0.36529000  0.86444000  1.0
  H  H2  1  0.77087000  0.48076000  0.92397000  1.0
  H  H3  1  0.22915000  0.51925000  0.07602000  1.0
  H  H4  1  0.96922000  0.30261000  0.92335000  1.0
  H  H5  1  0.03079000  0.69740000  0.07666000  1.0
  H  H6  1  0.85623000  0.30316000  0.37571000  1.0
  H  H7  1  0.14378000  0.69684000  0.62429000  1.0
  H  H8  1  0.66537000  0.48355000  0.35776000  1.0
  H  H9  1  0.33462000  0.51645000  0.64225000  1.0
  H  H10  1  0.14702000  0.19918000  0.04848000  1.0
  H  H11  1  0.85299000  0.80082000  0.95152000  1.0
  H  H12  1  0.10172000  0.19833000  0.23373000  1.0
  H  H13  1  0.89829000  0.80167000  0.76627000  1.0
  H  H14  1  0.94489000  0.02733000  0.11345000  1.0
  H  H15  1  0.05512000  0.97269000  0.88653000  1.0
  H  H16  1  0.91949000  0.02119000  0.29537000  1.0
  H  H17  1  0.08050000  0.97882000  0.70462000  1.0
  H  H18  1  0.27710000  0.03659000  0.96495000  1.0
  H  H19  1  0.72291000  0.96342000  0.03505000  1.0
  H  H20  1  0.49057000  0.87349000  0.95444000  1.0
  H  H21  1  0.50944000  0.12653000  0.04558000  1.0
  H  H22  1  0.25672000  0.65627000  0.34550000  1.0
  H  H23  1  0.74326000  0.34373000  0.65451000  1.0
  H  H24  1  0.02908000  0.81183000  0.37627000  1.0
  H  H25  1  0.97090000  0.18817000  0.62372000  1.0
  H  H26  1  0.67272000  0.99470000  0.33772000  1.0
  H  H27  1  0.32730000  0.00528000  0.66228000  1.0
  H  H28  1  0.69934000  0.06951000  0.54875000  1.0
  H  H29  1  0.30070000  0.93047000  0.45124000  1.0
  H  H30  1  0.67640000  0.90714000  0.77013000  1.0
  H  H31  1  0.32360000  0.09284000  0.22986000  1.0
  H  H32  1  0.59137000  0.60022000  0.57662000  1.0
  H  H33  1  0.40862000  0.39977000  0.42338000  1.0
  C  C34  1  0.79573000  0.44119000  0.02107000  1.0
  C  C35  1  0.20428000  0.55882000  0.97893000  1.0
  C  C36  1  0.90402000  0.33936000  0.02284000  1.0
  C  C37  1  0.09599000  0.66065000  0.97716000  1.0
  C  C38  1  0.93208000  0.28720000  0.14975000  1.0
  C  C39  1  0.06792000  0.71280000  0.85026000  1.0
  C  C40  1  0.84231000  0.33974000  0.27230000  1.0
  C  C41  1  0.15769000  0.66026000  0.72770000  1.0
  C  C42  1  0.73566000  0.44140000  0.26366000  1.0
  C  C43  1  0.26434000  0.55861000  0.73634000  1.0
  C  C44  1  0.05530000  0.18374000  0.15266000  1.0
  C  C45  1  0.94470000  0.81627000  0.84734000  1.0
  C  C46  1  0.00302000  0.04026000  0.18687000  1.0
  C  C47  1  0.99698000  0.95975000  0.81312000  1.0
  C  C48  1  0.13288000  0.93976000  0.17367000  1.0
  C  C49  1  0.86712000  0.06024000  0.82633000  1.0
  C  C50  1  0.26515000  0.95418000  0.05322000  1.0
  C  C51  1  0.73485000  0.04582000  0.94678000  1.0
  C  C52  1  0.38630000  0.86430000  0.04591000  1.0
  C  C53  1  0.61370000  0.13571000  0.95411000  1.0
  C  C54  1  0.25539000  0.74285000  0.26523000  1.0
  C  C55  1  0.74459000  0.25715000  0.73478000  1.0
  C  C56  1  0.12958000  0.82982000  0.28048000  1.0
  C  C57  1  0.87041000  0.17018000  0.71953000  1.0
  C  C58  1  0.62251000  0.75251000  0.31248000  1.0
  C  C59  1  0.37749000  0.24748000  0.68753000  1.0
  C  C60  1  0.63062000  0.79357000  0.44358000  1.0
  C  C61  1  0.36937000  0.20643000  0.55643000  1.0
  C  C62  1  0.66243000  0.92535000  0.43610000  1.0
  C  C63  1  0.33757000  0.07464000  0.56390000  1.0
  C  C64  1  0.67748000  0.96635000  0.55377000  1.0
  C  C65  1  0.32253000  0.03364000  0.44623000  1.0
  C  C66  1  0.66308000  0.87555000  0.67871000  1.0
  C  C67  1  0.33693000  0.12444000  0.32129000  1.0
  C  C68  1  0.63327000  0.74297000  0.68699000  1.0
  C  C69  1  0.36673000  0.25702000  0.31301000  1.0
  C  C70  1  0.61529000  0.70311000  0.56916000  1.0
  C  C71  1  0.38471000  0.29688000  0.43084000  1.0
  C  C72  1  0.62204000  0.64094000  0.81799000  1.0
  C  C73  1  0.37795000  0.35906000  0.18202000  1.0
  N  N74  1  0.71292000  0.49431000  0.13934000  1.0
  N  N75  1  0.28708000  0.50570000  0.86066000  1.0
  N  N76  1  0.38330000  0.76031000  0.14982000  1.0
  N  N77  1  0.61669000  0.23969000  0.85019000  1.0
  O  O78  1  0.53190000  0.65869000  0.33096000  1.0
  O  O79  1  0.46810000  0.34131000  0.66905000  1.0
  O  O80  1  0.70370000  0.80800000  0.19159000  1.0
  O  O81  1  0.29628000  0.19201000  0.80840000  1.0
  O  O82  1  0.62168000  0.52078000  0.80943000  1.0
  O  O83  1  0.37831000  0.47921000  0.19059000  1.0
  O  O84  1  0.61789000  0.68711000  0.92952000  1.0
  O  O85  1  0.38210000  0.31288000  0.07048000  1.0
