# generated using pymatgen
data_CdH12C16(SN3)2
_symmetry_space_group_name_H-M   'P 1'
_cell_length_a   5.72869000
_cell_length_b   7.37482000
_cell_length_c   20.42440000
_cell_angle_alpha   94.91390000
_cell_angle_beta   89.99900000
_cell_angle_gamma   89.99880000
_symmetry_Int_Tables_number   1
_chemical_formula_structural   CdH12C16(SN3)2
_chemical_formula_sum   'Cd2 H24 C32 S4 N12'
_cell_volume   859.71970884
_cell_formula_units_Z   2
loop_
 _symmetry_equiv_pos_site_id
 _symmetry_equiv_pos_as_xyz
  1  'x, y, z'
loop_
 _atom_site_type_symbol
 _atom_site_label
 _atom_site_symmetry_multiplicity
 _atom_site_fract_x
 _atom_site_fract_y
 _atom_site_fract_z
 _atom_site_occupancy
  Cd  Cd0  1  0.00001000  0.00000000  0.00000000  1.0
  Cd  Cd1  1  0.50000000  0.50000000  0.50000000  1.0
  H  H2  1  0.40015000  0.11617000  0.37519000  1.0
  H  H3  1  0.09984000  0.61616000  0.87519000  1.0
  H  H4  1  0.59986000  0.88384000  0.62481000  1.0
  H  H5  1  0.90016000  0.38383000  0.12480000  1.0
  H  H6  1  0.15463000  0.15229000  0.27797000  1.0
  H  H7  1  0.34534000  0.65224000  0.77797000  1.0
  H  H8  1  0.84536000  0.84772000  0.72203000  1.0
  H  H9  1  0.65464000  0.34774000  0.22203000  1.0
  H  H10  1  0.68951000  0.89629000  0.15193000  1.0
  H  H11  1  0.81051000  0.39629000  0.65193000  1.0
  H  H12  1  0.31048000  0.10369000  0.84806000  1.0
  H  H13  1  0.18950000  0.60370000  0.34806000  1.0
  H  H14  1  0.93319000  0.85550000  0.24918000  1.0
  H  H15  1  0.56683000  0.35551000  0.74918000  1.0
  H  H16  1  0.06681000  0.14450000  0.75082000  1.0
  H  H17  1  0.43318000  0.64448000  0.25081000  1.0
  H  H18  1  0.97973000  0.90548000  0.36889000  1.0
  H  H19  1  0.52026000  0.40545000  0.86887000  1.0
  H  H20  1  0.02027000  0.09453000  0.63112000  1.0
  H  H21  1  0.47972000  0.59454000  0.13111000  1.0
  H  H22  1  0.76815000  0.01354000  0.41834000  1.0
  H  H23  1  0.73182000  0.51351000  0.91833000  1.0
  H  H24  1  0.23185000  0.98647000  0.58166000  1.0
  H  H25  1  0.26816000  0.48649000  0.08166000  1.0
  C  C26  1  0.49715000  0.76824000  0.99695000  1.0
  C  C27  1  0.00285000  0.26825000  0.49696000  1.0
  C  C28  1  0.50288000  0.23175000  0.00307000  1.0
  C  C29  1  0.99711000  0.73176000  0.50307000  1.0
  C  C30  1  0.68366000  0.98034000  0.31949000  1.0
  C  C31  1  0.81633000  0.48033000  0.81949000  1.0
  C  C32  1  0.31635000  0.01967000  0.68051000  1.0
  C  C33  1  0.18367000  0.51968000  0.18051000  1.0
  C  C34  1  0.46120000  0.06505000  0.32648000  1.0
  C  C35  1  0.03880000  0.56504000  0.82648000  1.0
  C  C36  1  0.53881000  0.93496000  0.67352000  1.0
  C  C37  1  0.96120000  0.43497000  0.17352000  1.0
  C  C38  1  0.32411000  0.08597000  0.27211000  1.0
  C  C39  1  0.17587000  0.58593000  0.77211000  1.0
  C  C40  1  0.67588000  0.91405000  0.72789000  1.0
  C  C41  1  0.82413000  0.41406000  0.22789000  1.0
  C  C42  1  0.40266000  0.02237000  0.20856000  1.0
  C  C43  1  0.09735000  0.52234000  0.70856000  1.0
  C  C44  1  0.59733000  0.97763000  0.79143000  1.0
  C  C45  1  0.90267000  0.47765000  0.29143000  1.0
  C  C46  1  0.62562000  0.94125000  0.20099000  1.0
  C  C47  1  0.87440000  0.44123000  0.70099000  1.0
  C  C48  1  0.37438000  0.05874000  0.79901000  1.0
  C  C49  1  0.12562000  0.55876000  0.29901000  1.0
  C  C50  1  0.76245000  0.91972000  0.25537000  1.0
  C  C51  1  0.73755000  0.41971000  0.75537000  1.0
  C  C52  1  0.23754000  0.08028000  0.74462000  1.0
  C  C53  1  0.26246000  0.58028000  0.24462000  1.0
  C  C54  1  0.25739000  0.02999000  0.15346000  1.0
  C  C55  1  0.24259000  0.52997000  0.65346000  1.0
  C  C56  1  0.74259000  0.97001000  0.84654000  1.0
  C  C57  1  0.75740000  0.47003000  0.34654000  1.0
  S  S58  1  0.74495000  0.69604000  0.02499000  1.0
  S  S59  1  0.75507000  0.19606000  0.52500000  1.0
  S  S60  1  0.25508000  0.30395000  0.97502000  1.0
  S  S61  1  0.24493000  0.80396000  0.47502000  1.0
  N  N62  1  0.31827000  0.81683000  0.97545000  1.0
  N  N63  1  0.18174000  0.31685000  0.47546000  1.0
  N  N64  1  0.68173000  0.18317000  0.02457000  1.0
  N  N65  1  0.81826000  0.68317000  0.52456000  1.0
  N  N66  1  0.81695000  0.95898000  0.37288000  1.0
  N  N67  1  0.68303000  0.45897000  0.87288000  1.0
  N  N68  1  0.18306000  0.04104000  0.62711000  1.0
  N  N69  1  0.31696000  0.54103000  0.12711000  1.0
  N  N70  1  0.13450000  0.03064000  0.10786000  1.0
  N  N71  1  0.36552000  0.53065000  0.60786000  1.0
  N  N72  1  0.86548000  0.96935000  0.89214000  1.0
  N  N73  1  0.63453000  0.46935000  0.39214000  1.0
