# generated using pymatgen
data_H16RhC22N(ClO3)2
_symmetry_space_group_name_H-M   'P 1'
_cell_length_a   9.74404000
_cell_length_b   10.70830000
_cell_length_c   11.05360000
_cell_angle_alpha   99.67750000
_cell_angle_beta   93.80090000
_cell_angle_gamma   106.18100000
_symmetry_Int_Tables_number   1
_chemical_formula_structural   H16RhC22N(ClO3)2
_chemical_formula_sum   'H32 Rh2 C44 N2 Cl4 O12'
_cell_volume   1084.07975763
_cell_formula_units_Z   2
loop_
 _symmetry_equiv_pos_site_id
 _symmetry_equiv_pos_as_xyz
  1  'x, y, z'
loop_
 _atom_site_type_symbol
 _atom_site_label
 _atom_site_symmetry_multiplicity
 _atom_site_fract_x
 _atom_site_fract_y
 _atom_site_fract_z
 _atom_site_occupancy
  H  H0  1  0.68355000  0.77491000  0.34670000  1.0
  H  H1  1  0.31643000  0.22512000  0.65329000  1.0
  H  H2  1  0.76164000  0.65863000  0.16287000  1.0
  H  H3  1  0.23834000  0.34139000  0.83713000  1.0
  H  H4  1  0.01972000  0.72944000  0.12297000  1.0
  H  H5  1  0.98027000  0.27056000  0.87703000  1.0
  H  H6  1  0.19942000  0.90405000  0.27359000  1.0
  H  H7  1  0.80057000  0.09595000  0.72642000  1.0
  H  H8  1  0.55432000  0.35781000  0.36915000  1.0
  H  H9  1  0.44569000  0.64219000  0.63086000  1.0
  H  H10  1  0.69493000  0.49104000  0.33457000  1.0
  H  H11  1  0.30508000  0.50897000  0.66545000  1.0
  H  H12  1  0.54444000  0.40239000  0.21985000  1.0
  H  H13  1  0.45557000  0.59762000  0.78016000  1.0
  H  H14  1  0.33406000  0.29007000  0.29238000  1.0
  H  H15  1  0.66595000  0.70992000  0.70762000  1.0
  H  H16  1  0.94710000  0.40125000  0.34386000  1.0
  H  H17  1  0.05290000  0.59873000  0.65611000  1.0
  H  H18  1  0.09458000  0.63703000  0.41375000  1.0
  H  H19  1  0.90541000  0.36296000  0.58623000  1.0
  H  H20  1  0.23210000  0.02646000  0.89441000  1.0
  H  H21  1  0.76792000  0.97354000  0.10558000  1.0
  H  H22  1  0.10951000  0.97530000  0.00290000  1.0
  H  H23  1  0.89050000  0.02470000  0.99708000  1.0
  H  H24  1  0.18946000  0.14880000  0.00613000  1.0
  H  H25  1  0.81054000  0.85121000  0.99385000  1.0
  H  H26  1  0.41099000  0.20702000  0.91883000  1.0
  H  H27  1  0.58903000  0.79300000  0.08117000  1.0
  H  H28  1  0.84933000  0.34566000  0.09343000  1.0
  H  H29  1  0.15069000  0.65434000  0.90660000  1.0
  H  H30  1  0.77903000  0.20024000  0.24789000  1.0
  H  H31  1  0.22096000  0.79975000  0.75214000  1.0
  Rh  Rh32  1  0.61754000  0.98063000  0.50366000  1.0
  Rh  Rh33  1  0.38245000  0.01937000  0.49634000  1.0
  C  C34  1  0.89670000  0.90601000  0.41706000  1.0
  C  C35  1  0.10328000  0.09400000  0.58293000  1.0
  C  C36  1  0.79571000  0.80290000  0.32974000  1.0
  C  C37  1  0.20428000  0.19712000  0.67025000  1.0
  C  C38  1  0.83997000  0.73876000  0.22808000  1.0
  C  C39  1  0.16001000  0.26126000  0.77192000  1.0
  C  C40  1  0.98641000  0.77712000  0.20640000  1.0
  C  C41  1  0.01358000  0.22289000  0.79361000  1.0
  C  C42  1  0.08768000  0.87327000  0.29055000  1.0
  C  C43  1  0.91230000  0.12673000  0.70946000  1.0
  C  C44  1  0.04795000  0.93709000  0.40075000  1.0
  C  C45  1  0.95204000  0.06291000  0.59925000  1.0
  C  C46  1  0.37424000  0.74324000  0.43159000  1.0
  C  C47  1  0.62574000  0.25675000  0.56841000  1.0
  C  C48  1  0.29743000  0.59963000  0.39385000  1.0
  C  C49  1  0.70257000  0.40036000  0.60615000  1.0
  C  C50  1  0.36710000  0.50085000  0.35949000  1.0
  C  C51  1  0.63290000  0.49915000  0.64051000  1.0
  C  C52  1  0.57928000  0.44023000  0.31916000  1.0
  C  C53  1  0.42073000  0.55978000  0.68085000  1.0
  C  C54  1  0.28426000  0.36822000  0.31815000  1.0
  C  C55  1  0.71575000  0.63177000  0.68185000  1.0
  C  C56  1  0.13507000  0.33516000  0.31188000  1.0
  C  C57  1  0.86493000  0.66483000  0.68811000  1.0
  C  C58  1  0.06378000  0.42939000  0.34767000  1.0
  C  C59  1  0.93623000  0.57060000  0.65231000  1.0
  C  C60  1  0.14661000  0.56039000  0.38769000  1.0
  C  C61  1  0.85337000  0.43959000  0.61229000  1.0
  C  C62  1  0.52544000  0.05592000  0.27943000  1.0
  C  C63  1  0.47456000  0.94407000  0.72057000  1.0
  C  C64  1  0.55769000  0.12429000  0.17375000  1.0
  C  C65  1  0.44231000  0.87570000  0.82625000  1.0
  C  C66  1  0.45149000  0.12516000  0.08010000  1.0
  C  C67  1  0.54851000  0.87484000  0.91990000  1.0
  C  C68  1  0.20642000  0.05024000  0.98931000  1.0
  C  C69  1  0.79359000  0.94976000  0.01067000  1.0
  C  C70  1  0.48986000  0.20594000  0.99269000  1.0
  C  C71  1  0.51016000  0.79407000  0.00732000  1.0
  C  C72  1  0.63221000  0.28421000  0.99944000  1.0
  C  C73  1  0.36781000  0.71579000  0.00058000  1.0
  C  C74  1  0.73902000  0.28343000  0.08952000  1.0
  C  C75  1  0.26099000  0.71657000  0.91050000  1.0
  C  C76  1  0.69936000  0.20259000  0.17524000  1.0
  C  C77  1  0.30064000  0.79740000  0.82478000  1.0
  N  N78  1  0.84975000  0.97202000  0.51410000  1.0
  N  N79  1  0.15023000  0.02799000  0.48590000  1.0
  Cl  Cl80  1  0.03722000  0.17134000  0.25666000  1.0
  Cl  Cl81  1  0.96279000  0.82865000  0.74332000  1.0
  Cl  Cl82  1  0.67669000  0.38540000  0.89252000  1.0
  Cl  Cl83  1  0.32334000  0.61461000  0.10750000  1.0
  O  O84  1  0.51221000  0.78243000  0.44916000  1.0
  O  O85  1  0.48778000  0.21757000  0.55084000  1.0
  O  O86  1  0.29374000  0.82010000  0.44493000  1.0
  O  O87  1  0.70625000  0.17989000  0.55507000  1.0
  O  O88  1  0.51217000  0.53880000  0.36571000  1.0
  O  O89  1  0.48783000  0.46120000  0.63430000  1.0
  O  O90  1  0.62412000  0.01352000  0.32546000  1.0
  O  O91  1  0.37587000  0.98647000  0.67454000  1.0
  O  O92  1  0.40576000  0.05355000  0.32221000  1.0
  O  O93  1  0.59423000  0.94644000  0.67779000  1.0
  O  O94  1  0.31688000  0.04438000  0.07844000  1.0
  O  O95  1  0.68312000  0.95563000  0.92155000  1.0
