# generated using pymatgen
data_HoH14C21(SN3)2
_symmetry_space_group_name_H-M   'P 1'
_cell_length_a   9.97004000
_cell_length_b   10.22940000
_cell_length_c   10.49940000
_cell_angle_alpha   88.45020000
_cell_angle_beta   84.37230000
_cell_angle_gamma   67.27650000
_symmetry_Int_Tables_number   1
_chemical_formula_structural   HoH14C21(SN3)2
_chemical_formula_sum   'Ho2 H28 C42 S4 N12'
_cell_volume   982.86240905
_cell_formula_units_Z   2
loop_
 _symmetry_equiv_pos_site_id
 _symmetry_equiv_pos_as_xyz
  1  'x, y, z'
loop_
 _atom_site_type_symbol
 _atom_site_label
 _atom_site_symmetry_multiplicity
 _atom_site_fract_x
 _atom_site_fract_y
 _atom_site_fract_z
 _atom_site_occupancy
  Ho  Ho0  1  0.81621000  0.44540000  0.03260000  1.0
  Ho  Ho1  1  0.18379000  0.55460000  0.96740000  1.0
  H  H2  1  0.01717000  0.97009000  0.24593000  1.0
  H  H3  1  0.98283000  0.02991000  0.75407000  1.0
  H  H4  1  0.19329000  0.04975000  0.95890000  1.0
  H  H5  1  0.80671000  0.95025000  0.04110000  1.0
  H  H6  1  0.18042000  0.96416000  0.46437000  1.0
  H  H7  1  0.81958000  0.03584000  0.53563000  1.0
  H  H8  1  0.25553000  0.12808000  0.58601000  1.0
  H  H9  1  0.74448000  0.87191000  0.41399000  1.0
  H  H10  1  0.18320000  0.37955000  0.52556000  1.0
  H  H11  1  0.81680000  0.62044000  0.47444000  1.0
  H  H12  1  0.03040000  0.47844000  0.34656000  1.0
  H  H13  1  0.96960000  0.52156000  0.65344000  1.0
  H  H14  1  0.39171000  0.85802000  0.12595000  1.0
  H  H15  1  0.60829000  0.14198000  0.87405000  1.0
  H  H16  1  0.56015000  0.85993000  0.28498000  1.0
  H  H17  1  0.43985000  0.14007000  0.71502000  1.0
  H  H18  1  0.59381000  0.08010000  0.33449000  1.0
  H  H19  1  0.40619000  0.91990000  0.66551000  1.0
  H  H20  1  0.45645000  0.30784000  0.22923000  1.0
  H  H21  1  0.54355000  0.69216000  0.77077000  1.0
  H  H22  1  0.87063000  0.32276000  0.66110000  1.0
  H  H23  1  0.12937000  0.67724000  0.33890000  1.0
  H  H24  1  0.79303000  0.26713000  0.45838000  1.0
  H  H25  1  0.20697000  0.73287000  0.54162000  1.0
  H  H26  1  0.53651000  0.29990000  0.43934000  1.0
  H  H27  1  0.46349000  0.70010000  0.56066000  1.0
  H  H28  1  0.34534000  0.39710000  0.62177000  1.0
  H  H29  1  0.65466000  0.60290000  0.37823000  1.0
  C  C30  1  0.92664000  0.17777000  0.17252000  1.0
  C  C31  1  0.07337000  0.82223000  0.82748000  1.0
  C  C32  1  0.06053000  0.13286000  0.33991000  1.0
  C  C33  1  0.93947000  0.86714000  0.66009000  1.0
  C  C34  1  0.14562000  0.07593000  0.44068000  1.0
  C  C35  1  0.85438000  0.92407000  0.55932000  1.0
  C  C36  1  0.18800000  0.16803000  0.50704000  1.0
  C  C37  1  0.81200000  0.83197000  0.49296000  1.0
  C  C38  1  0.14704000  0.31090000  0.47294000  1.0
  C  C39  1  0.85296000  0.68910000  0.52706000  1.0
  C  C40  1  0.06140000  0.36765000  0.37235000  1.0
  C  C41  1  0.93860000  0.63235000  0.62766000  1.0
  C  C42  1  0.01731000  0.27742000  0.30554000  1.0
  C  C43  1  0.98269000  0.72257000  0.69447000  1.0
  C  C44  1  0.19013000  0.25907000  0.97411000  1.0
  C  C45  1  0.80987000  0.74093000  0.02589000  1.0
  C  C46  1  0.32948000  0.08332000  0.09012000  1.0
  C  C47  1  0.67052000  0.91668000  0.90988000  1.0
  C  C48  1  0.40508000  0.95528000  0.14848000  1.0
  C  C49  1  0.59493000  0.04472000  0.85152000  1.0
  C  C50  1  0.49982000  0.95768000  0.23678000  1.0
  C  C51  1  0.50018000  0.04232000  0.76322000  1.0
  C  C52  1  0.51850000  0.08292000  0.26487000  1.0
  C  C53  1  0.48150000  0.91709000  0.73513000  1.0
  C  C54  1  0.44232000  0.21094000  0.20688000  1.0
  C  C55  1  0.55768000  0.78906000  0.79311000  1.0
  C  C56  1  0.34614000  0.21072000  0.11861000  1.0
  C  C57  1  0.65386000  0.78928000  0.88139000  1.0
  C  C58  1  0.51976000  0.47539000  0.93461000  1.0
  C  C59  1  0.48024000  0.52462000  0.06539000  1.0
  C  C60  1  0.64993000  0.39149000  0.75685000  1.0
  C  C61  1  0.35007000  0.60851000  0.24315000  1.0
  C  C62  1  0.75715000  0.33786000  0.65389000  1.0
  C  C63  1  0.24285000  0.66214000  0.34611000  1.0
  C  C64  1  0.71275000  0.30600000  0.54089000  1.0
  C  C65  1  0.28725000  0.69400000  0.45911000  1.0
  C  C66  1  0.56662000  0.32503000  0.52978000  1.0
  C  C67  1  0.43338000  0.67497000  0.47022000  1.0
  C  C68  1  0.45891000  0.37960000  0.63067000  1.0
  C  C69  1  0.54109000  0.62040000  0.36933000  1.0
  C  C70  1  0.50112000  0.41363000  0.74430000  1.0
  C  C71  1  0.49888000  0.58637000  0.25570000  1.0
  S  S72  1  0.83816000  0.16382000  0.04566000  1.0
  S  S73  1  0.16184000  0.83619000  0.95434000  1.0
  S  S74  1  0.07525000  0.35812000  0.86262000  1.0
  S  S75  1  0.92476000  0.64188000  0.13738000  1.0
  N  N76  1  0.93345000  0.30265000  0.20244000  1.0
  N  N77  1  0.06655000  0.69735000  0.79756000  1.0
  N  N78  1  0.00099000  0.07384000  0.25418000  1.0
  N  N79  1  0.99901000  0.92616000  0.74582000  1.0
  N  N80  1  0.25657000  0.31878000  0.04534000  1.0
  N  N81  1  0.74342000  0.68123000  0.95467000  1.0
  N  N82  1  0.23020000  0.11867000  0.99869000  1.0
  N  N83  1  0.76980000  0.88133000  0.00131000  1.0
  N  N84  1  0.41990000  0.46840000  0.85900000  1.0
  N  N85  1  0.58011000  0.53160000  0.14100000  1.0
  N  N86  1  0.65851000  0.43226000  0.87958000  1.0
  N  N87  1  0.34149000  0.56775000  0.12042000  1.0
