# generated using pymatgen
data_ZnH6(C3N2)2
_symmetry_space_group_name_H-M   'P 1'
_cell_length_a   16.95380000
_cell_length_b   19.25130000
_cell_length_c   19.25150000
_cell_angle_alpha   90.00040000
_cell_angle_beta   90.00020000
_cell_angle_gamma   89.99990000
_symmetry_Int_Tables_number   1
_chemical_formula_structural   ZnH6(C3N2)2
_chemical_formula_sum   'Zn16 H96 C96 N64'
_cell_volume   6283.35635518
_cell_formula_units_Z   16
loop_
 _symmetry_equiv_pos_site_id
 _symmetry_equiv_pos_as_xyz
  1  'x, y, z'
loop_
 _atom_site_type_symbol
 _atom_site_label
 _atom_site_symmetry_multiplicity
 _atom_site_fract_x
 _atom_site_fract_y
 _atom_site_fract_z
 _atom_site_occupancy
  Zn  Zn0  1  0.17837000  0.88522000  0.66604000  1.0
  Zn  Zn1  1  0.17837000  0.11478000  0.33396000  1.0
  Zn  Zn2  1  0.67838000  0.16604000  0.61478000  1.0
  Zn  Zn3  1  0.67837000  0.83396000  0.38522000  1.0
  Zn  Zn4  1  0.32163000  0.61478000  0.16604000  1.0
  Zn  Zn5  1  0.32163000  0.38522000  0.83396000  1.0
  Zn  Zn6  1  0.82163000  0.33396000  0.11478000  1.0
  Zn  Zn7  1  0.82163000  0.66604000  0.88522000  1.0
  Zn  Zn8  1  0.82163000  0.11478000  0.33396000  1.0
  Zn  Zn9  1  0.82163000  0.88522000  0.66604000  1.0
  Zn  Zn10  1  0.32163000  0.83396000  0.38522000  1.0
  Zn  Zn11  1  0.32163000  0.16604000  0.61478000  1.0
  Zn  Zn12  1  0.67837000  0.38522000  0.83396000  1.0
  Zn  Zn13  1  0.67838000  0.61478000  0.16604000  1.0
  Zn  Zn14  1  0.17838000  0.66604000  0.88522000  1.0
  Zn  Zn15  1  0.17838000  0.33396000  0.11478000  1.0
  H  H16  1  0.08209000  0.76805000  0.58696000  1.0
  H  H17  1  0.31392000  0.88716000  0.78483000  1.0
  H  H18  1  0.13553000  0.01475000  0.76732000  1.0
  H  H19  1  0.29872000  0.75893000  0.64448000  1.0
  H  H20  1  0.28335000  0.00157000  0.59207000  1.0
  H  H21  1  0.08209000  0.23195000  0.41303000  1.0
  H  H22  1  0.31391000  0.11284000  0.21517000  1.0
  H  H23  1  0.13553000  0.98526000  0.23268000  1.0
  H  H24  1  0.29872000  0.24107000  0.35552000  1.0
  H  H25  1  0.28335000  0.99843000  0.40793000  1.0
  H  H26  1  0.58209000  0.08697000  0.73195000  1.0
  H  H27  1  0.81392000  0.28483000  0.61284000  1.0
  H  H28  1  0.63553000  0.26733000  0.48526000  1.0
  H  H29  1  0.79872000  0.14448000  0.74107000  1.0
  H  H30  1  0.78336000  0.09207000  0.49843000  1.0
  H  H31  1  0.58209000  0.91303000  0.26805000  1.0
  H  H32  1  0.81392000  0.71517000  0.38716000  1.0
  H  H33  1  0.63553000  0.73267000  0.51474000  1.0
  H  H34  1  0.79871000  0.85552000  0.25893000  1.0
  H  H35  1  0.78335000  0.90793000  0.50157000  1.0
  H  H36  1  0.41791000  0.73195000  0.08697000  1.0
  H  H37  1  0.18608000  0.61284000  0.28484000  1.0
  H  H38  1  0.36447000  0.48526000  0.26732000  1.0
  H  H39  1  0.20128000  0.74107000  0.14448000  1.0
  H  H40  1  0.21665000  0.49843000  0.09207000  1.0
  H  H41  1  0.41791000  0.26805000  0.91303000  1.0
  H  H42  1  0.18608000  0.38716000  0.71517000  1.0
  H  H43  1  0.36447000  0.51474000  0.73267000  1.0
  H  H44  1  0.20129000  0.25893000  0.85552000  1.0
  H  H45  1  0.21665000  0.50157000  0.90793000  1.0
  H  H46  1  0.91791000  0.41303000  0.23194000  1.0
  H  H47  1  0.68608000  0.21517000  0.11284000  1.0
  H  H48  1  0.86447000  0.23267000  0.98526000  1.0
  H  H49  1  0.70128000  0.35552000  0.24107000  1.0
  H  H50  1  0.71665000  0.40793000  0.99843000  1.0
  H  H51  1  0.91791000  0.58697000  0.76806000  1.0
  H  H52  1  0.68608000  0.78483000  0.88716000  1.0
  H  H53  1  0.86447000  0.76733000  0.01475000  1.0
  H  H54  1  0.70129000  0.64448000  0.75893000  1.0
  H  H55  1  0.71665000  0.59207000  0.00157000  1.0
  H  H56  1  0.91791000  0.23195000  0.41303000  1.0
  H  H57  1  0.68609000  0.11284000  0.21517000  1.0
  H  H58  1  0.86447000  0.98526000  0.23268000  1.0
  H  H59  1  0.70128000  0.24107000  0.35552000  1.0
  H  H60  1  0.71665000  0.99843000  0.40793000  1.0
  H  H61  1  0.91791000  0.76805000  0.58697000  1.0
  H  H62  1  0.68608000  0.88716000  0.78483000  1.0
  H  H63  1  0.86447000  0.01474000  0.76732000  1.0
  H  H64  1  0.70128000  0.75893000  0.64448000  1.0
  H  H65  1  0.71665000  0.00157000  0.59207000  1.0
  H  H66  1  0.41791000  0.91303000  0.26805000  1.0
  H  H67  1  0.18609000  0.71517000  0.38716000  1.0
  H  H68  1  0.36447000  0.73268000  0.51474000  1.0
  H  H69  1  0.20128000  0.85552000  0.25893000  1.0
  H  H70  1  0.21665000  0.90793000  0.50157000  1.0
  H  H71  1  0.41791000  0.08697000  0.73195000  1.0
  H  H72  1  0.18608000  0.28484000  0.61284000  1.0
  H  H73  1  0.36447000  0.26732000  0.48526000  1.0
  H  H74  1  0.20129000  0.14448000  0.74107000  1.0
  H  H75  1  0.21665000  0.09207000  0.49843000  1.0
  H  H76  1  0.58209000  0.26806000  0.91303000  1.0
  H  H77  1  0.81392000  0.38716000  0.71517000  1.0
  H  H78  1  0.63553000  0.51474000  0.73268000  1.0
  H  H79  1  0.79871000  0.25893000  0.85552000  1.0
  H  H80  1  0.78335000  0.50157000  0.90793000  1.0
  H  H81  1  0.58209000  0.73194000  0.08697000  1.0
  H  H82  1  0.81392000  0.61284000  0.28483000  1.0
  H  H83  1  0.63553000  0.48526000  0.26733000  1.0
  H  H84  1  0.79871000  0.74107000  0.14448000  1.0
  H  H85  1  0.78335000  0.49843000  0.09207000  1.0
  H  H86  1  0.08209000  0.58697000  0.76806000  1.0
  H  H87  1  0.31392000  0.78483000  0.88716000  1.0
  H  H88  1  0.13553000  0.76732000  0.01474000  1.0
  H  H89  1  0.29871000  0.64448000  0.75893000  1.0
  H  H90  1  0.28335000  0.59207000  0.00157000  1.0
  H  H91  1  0.08209000  0.41303000  0.23194000  1.0
  H  H92  1  0.31392000  0.21516000  0.11284000  1.0
  H  H93  1  0.13553000  0.23268000  0.98525000  1.0
  H  H94  1  0.29872000  0.35552000  0.24107000  1.0
  H  H95  1  0.28335000  0.40793000  0.99843000  1.0
  H  H96  1  1.00000000  0.94584000  0.69188000  1.0
  H  H97  1  1.00000000  0.05415000  0.30812000  1.0
  H  H98  1  0.50000000  0.19188000  0.55416000  1.0
  H  H99  1  0.50000000  0.80812000  0.44584000  1.0
  H  H100  1  0.50000000  0.55416000  0.19188000  1.0
  H  H101  1  0.50000000  0.44584000  0.80812000  1.0
  H  H102  1  1.00000000  0.30812000  0.05415000  1.0
  H  H103  1  1.00000000  0.69188000  0.94585000  1.0
  H  H104  1  0.11423000  0.75936000  0.75936000  1.0
  H  H105  1  0.11423000  0.24064000  0.24064000  1.0
  H  H106  1  0.61423000  0.25936000  0.74064000  1.0
  H  H107  1  0.61423000  0.74064000  0.25936000  1.0
  H  H108  1  0.38577000  0.74064000  0.25937000  1.0
  H  H109  1  0.38577000  0.25936000  0.74063000  1.0
  H  H110  1  0.88577000  0.24064000  0.24063000  1.0
  H  H111  1  0.88577000  0.75936000  0.75936000  1.0
  C  C112  1  0.04062000  0.80476000  0.60914000  1.0
  C  C113  1  0.27254000  0.84527000  0.79463000  1.0
  C  C114  1  0.17530000  0.03134000  0.72641000  1.0
  C  C115  1  0.29170000  0.78622000  0.59553000  1.0
  C  C116  1  0.25113000  0.02317000  0.63575000  1.0
  C  C117  1  0.04062000  0.19524000  0.39086000  1.0
  C  C118  1  0.27255000  0.15473000  0.20536000  1.0
  C  C119  1  0.17529000  0.96866000  0.27359000  1.0
  C  C120  1  0.29170000  0.21378000  0.40447000  1.0
  C  C121  1  0.25113000  0.97682000  0.36426000  1.0
  C  C122  1  0.54062000  0.10914000  0.69524000  1.0
  C  C123  1  0.77254000  0.29464000  0.65473000  1.0
  C  C124  1  0.67530000  0.22641000  0.46866000  1.0
  C  C125  1  0.79171000  0.09553000  0.71378000  1.0
  C  C126  1  0.75113000  0.13575000  0.47682000  1.0
  C  C127  1  0.54062000  0.89085000  0.30476000  1.0
  C  C128  1  0.77255000  0.70536000  0.34527000  1.0
  C  C129  1  0.67530000  0.77359000  0.53134000  1.0
  C  C130  1  0.79170000  0.90447000  0.28622000  1.0
  C  C131  1  0.75113000  0.86424000  0.52318000  1.0
  C  C132  1  0.45938000  0.69523000  0.10915000  1.0
  C  C133  1  0.22745000  0.65473000  0.29464000  1.0
  C  C134  1  0.32471000  0.46866000  0.22641000  1.0
  C  C135  1  0.20829000  0.71378000  0.09553000  1.0
  C  C136  1  0.24888000  0.47682000  0.13575000  1.0
  C  C137  1  0.45938000  0.30476000  0.89085000  1.0
  C  C138  1  0.22745000  0.34527000  0.70537000  1.0
  C  C139  1  0.32470000  0.53133000  0.77359000  1.0
  C  C140  1  0.20829000  0.28622000  0.90447000  1.0
  C  C141  1  0.24887000  0.52318000  0.86425000  1.0
  C  C142  1  0.95938000  0.39085000  0.19523000  1.0
  C  C143  1  0.72745000  0.20537000  0.15473000  1.0
  C  C144  1  0.82470000  0.27359000  0.96866000  1.0
  C  C145  1  0.70829000  0.40447000  0.21378000  1.0
  C  C146  1  0.74887000  0.36425000  0.97683000  1.0
  C  C147  1  0.95938000  0.60914000  0.80477000  1.0
  C  C148  1  0.72745000  0.79463000  0.84527000  1.0
  C  C149  1  0.82470000  0.72641000  0.03134000  1.0
  C  C150  1  0.70830000  0.59553000  0.78622000  1.0
  C  C151  1  0.74887000  0.63575000  0.02318000  1.0
  C  C152  1  0.95938000  0.19524000  0.39086000  1.0
  C  C153  1  0.72745000  0.15473000  0.20536000  1.0
  C  C154  1  0.82470000  0.96867000  0.27359000  1.0
  C  C155  1  0.70830000  0.21378000  0.40447000  1.0
  C  C156  1  0.74887000  0.97683000  0.36425000  1.0
  C  C157  1  0.95938000  0.80476000  0.60914000  1.0
  C  C158  1  0.72745000  0.84527000  0.79464000  1.0
  C  C159  1  0.82471000  0.03134000  0.72641000  1.0
  C  C160  1  0.70829000  0.78622000  0.59553000  1.0
  C  C161  1  0.74888000  0.02318000  0.63575000  1.0
  C  C162  1  0.45938000  0.89085000  0.30476000  1.0
  C  C163  1  0.22745000  0.70536000  0.34528000  1.0
  C  C164  1  0.32470000  0.77359000  0.53134000  1.0
  C  C165  1  0.20829000  0.90447000  0.28622000  1.0
  C  C166  1  0.24887000  0.86425000  0.52317000  1.0
  C  C167  1  0.45938000  0.10914000  0.69524000  1.0
  C  C168  1  0.22745000  0.29464000  0.65473000  1.0
  C  C169  1  0.32470000  0.22641000  0.46866000  1.0
  C  C170  1  0.20830000  0.09553000  0.71378000  1.0
  C  C171  1  0.24887000  0.13575000  0.47682000  1.0
  C  C172  1  0.54062000  0.30476000  0.89085000  1.0
  C  C173  1  0.77255000  0.34527000  0.70536000  1.0
  C  C174  1  0.67530000  0.53134000  0.77359000  1.0
  C  C175  1  0.79171000  0.28622000  0.90447000  1.0
  C  C176  1  0.75113000  0.52318000  0.86425000  1.0
  C  C177  1  0.54062000  0.69523000  0.10915000  1.0
  C  C178  1  0.77255000  0.65473000  0.29463000  1.0
  C  C179  1  0.67530000  0.46866000  0.22641000  1.0
  C  C180  1  0.79170000  0.71379000  0.09553000  1.0
  C  C181  1  0.75112000  0.47682000  0.13575000  1.0
  C  C182  1  0.04062000  0.60915000  0.80477000  1.0
  C  C183  1  0.27255000  0.79463000  0.84527000  1.0
  C  C184  1  0.17530000  0.72641000  0.03134000  1.0
  C  C185  1  0.29170000  0.59553000  0.78621000  1.0
  C  C186  1  0.25113000  0.63575000  0.02318000  1.0
  C  C187  1  0.04062000  0.39085000  0.19523000  1.0
  C  C188  1  0.27255000  0.20536000  0.15473000  1.0
  C  C189  1  0.17530000  0.27359000  0.96866000  1.0
  C  C190  1  0.29171000  0.40447000  0.21378000  1.0
  C  C191  1  0.25113000  0.36425000  0.97682000  1.0
  C  C192  1  0.00000000  0.89698000  0.66369000  1.0
  C  C193  1  1.00000000  0.10302000  0.33631000  1.0
  C  C194  1  0.50000000  0.16369000  0.60303000  1.0
  C  C195  1  0.50000000  0.83630000  0.39698000  1.0
  C  C196  1  0.50000000  0.60302000  0.16370000  1.0
  C  C197  1  0.50000000  0.39698000  0.83630000  1.0
  C  C198  1  0.00000000  0.33630000  0.10302000  1.0
  C  C199  1  1.00000000  0.66370000  0.89699000  1.0
  C  C200  1  0.16885000  0.78025000  0.78025000  1.0
  C  C201  1  0.16885000  0.21975000  0.21975000  1.0
  C  C202  1  0.66885000  0.28025000  0.71975000  1.0
  C  C203  1  0.66886000  0.71975000  0.28025000  1.0
  C  C204  1  0.33115000  0.71975000  0.28025000  1.0
  C  C205  1  0.33114000  0.28025000  0.71975000  1.0
  C  C206  1  0.83115000  0.21975000  0.21975000  1.0
  C  C207  1  0.83115000  0.78025000  0.78025000  1.0
  N  N208  1  0.06598000  0.86350000  0.64385000  1.0
  N  N209  1  0.20656000  0.83575000  0.75364000  1.0
  N  N210  1  0.20262000  0.98570000  0.67654000  1.0
  N  N211  1  0.24366000  0.84386000  0.58989000  1.0
  N  N212  1  0.06598000  0.13651000  0.35615000  1.0
  N  N213  1  0.20656000  0.16425000  0.24636000  1.0
  N  N214  1  0.20262000  0.01430000  0.32346000  1.0
  N  N215  1  0.24367000  0.15614000  0.41011000  1.0
  N  N216  1  0.56598000  0.14384000  0.63650000  1.0
  N  N217  1  0.70656000  0.25364000  0.66425000  1.0
  N  N218  1  0.70262000  0.17654000  0.51430000  1.0
  N  N219  1  0.74367000  0.08989000  0.65614000  1.0
  N  N220  1  0.56598000  0.85616000  0.36350000  1.0
  N  N221  1  0.70656000  0.74636000  0.33575000  1.0
  N  N222  1  0.70262000  0.82345000  0.48570000  1.0
  N  N223  1  0.74366000  0.91011000  0.34385000  1.0
  N  N224  1  0.43402000  0.63650000  0.14385000  1.0
  N  N225  1  0.29344000  0.66425000  0.25364000  1.0
  N  N226  1  0.29738000  0.51430000  0.17654000  1.0
  N  N227  1  0.25633000  0.65615000  0.08989000  1.0
  N  N228  1  0.43402000  0.36350000  0.85615000  1.0
  N  N229  1  0.29344000  0.33575000  0.74636000  1.0
  N  N230  1  0.29737000  0.48569000  0.82345000  1.0
  N  N231  1  0.25633000  0.34386000  0.91011000  1.0
  N  N232  1  0.93402000  0.35615000  0.13650000  1.0
  N  N233  1  0.79344000  0.24636000  0.16425000  1.0
  N  N234  1  0.79738000  0.32346000  0.01430000  1.0
  N  N235  1  0.75633000  0.41011000  0.15615000  1.0
  N  N236  1  0.93402000  0.64385000  0.86350000  1.0
  N  N237  1  0.79345000  0.75364000  0.83575000  1.0
  N  N238  1  0.79737000  0.67655000  0.98570000  1.0
  N  N239  1  0.75634000  0.58989000  0.84386000  1.0
  N  N240  1  0.93402000  0.13651000  0.35615000  1.0
  N  N241  1  0.79344000  0.16425000  0.24636000  1.0
  N  N242  1  0.79738000  0.01431000  0.32346000  1.0
  N  N243  1  0.75634000  0.15615000  0.41011000  1.0
  N  N244  1  0.93402000  0.86349000  0.64385000  1.0
  N  N245  1  0.79344000  0.83575000  0.75364000  1.0
  N  N246  1  0.79738000  0.98570000  0.67654000  1.0
  N  N247  1  0.75633000  0.84385000  0.58989000  1.0
  N  N248  1  0.43402000  0.85616000  0.36349000  1.0
  N  N249  1  0.29344000  0.74636000  0.33576000  1.0
  N  N250  1  0.29738000  0.82346000  0.48569000  1.0
  N  N251  1  0.25633000  0.91011000  0.34386000  1.0
  N  N252  1  0.43402000  0.14384000  0.63650000  1.0
  N  N253  1  0.29344000  0.25364000  0.66425000  1.0
  N  N254  1  0.29738000  0.17654000  0.51430000  1.0
  N  N255  1  0.25633000  0.08989000  0.65614000  1.0
  N  N256  1  0.56598000  0.36350000  0.85615000  1.0
  N  N257  1  0.70656000  0.33575000  0.74636000  1.0
  N  N258  1  0.70262000  0.48569000  0.82346000  1.0
  N  N259  1  0.74367000  0.34385000  0.91011000  1.0
  N  N260  1  0.56598000  0.63650000  0.14385000  1.0
  N  N261  1  0.70656000  0.66425000  0.25364000  1.0
  N  N262  1  0.70262000  0.51430000  0.17654000  1.0
  N  N263  1  0.74366000  0.65615000  0.08989000  1.0
  N  N264  1  0.06598000  0.64385000  0.86350000  1.0
  N  N265  1  0.20656000  0.75364000  0.83575000  1.0
  N  N266  1  0.20262000  0.67654000  0.98570000  1.0
  N  N267  1  0.24366000  0.58989000  0.84385000  1.0
  N  N268  1  0.06598000  0.35615000  0.13650000  1.0
  N  N269  1  0.20656000  0.24636000  0.16425000  1.0
  N  N270  1  0.20262000  0.32346000  0.01430000  1.0
  N  N271  1  0.24367000  0.41011000  0.15614000  1.0
