# generated using pymatgen
data_MnH8C10(NO)4
_symmetry_space_group_name_H-M   'P 1'
_cell_length_a   7.46770000
_cell_length_b   16.78680000
_cell_length_c   16.78530000
_cell_angle_alpha   117.82800000
_cell_angle_beta   98.54300000
_cell_angle_gamma   98.52040000
_symmetry_Int_Tables_number   1
_chemical_formula_structural   MnH8C10(NO)4
_chemical_formula_sum   'Mn6 H48 C60 N24 O24'
_cell_volume   1782.37210604
_cell_formula_units_Z   6
loop_
 _symmetry_equiv_pos_site_id
 _symmetry_equiv_pos_as_xyz
  1  'x, y, z'
loop_
 _atom_site_type_symbol
 _atom_site_label
 _atom_site_symmetry_multiplicity
 _atom_site_fract_x
 _atom_site_fract_y
 _atom_site_fract_z
 _atom_site_occupancy
  Mn  Mn0  1  0.29908000  0.09488000  0.58492000  1.0
  Mn  Mn1  1  0.71399000  0.41509000  0.50999000  1.0
  Mn  Mn2  1  0.20407000  0.48995000  0.90505000  1.0
  Mn  Mn3  1  0.70092000  0.90512000  0.41508000  1.0
  Mn  Mn4  1  0.28600000  0.58491000  0.49001000  1.0
  Mn  Mn5  1  0.79593000  0.51005000  0.09494000  1.0
  H  H6  1  0.69807000  0.11269000  0.53147000  1.0
  H  H7  1  0.16632000  0.46850000  0.58117000  1.0
  H  H8  1  0.58550000  0.41877000  0.88732000  1.0
  H  H9  1  0.30194000  0.88731000  0.46853000  1.0
  H  H10  1  0.83367000  0.53150000  0.41883000  1.0
  H  H11  1  0.41451000  0.58123000  0.11268000  1.0
  H  H12  1  0.19766000  0.24653000  0.53911000  1.0
  H  H13  1  0.65841000  0.46073000  0.70740000  1.0
  H  H14  1  0.95137000  0.29247000  0.75325000  1.0
  H  H15  1  0.80234000  0.75347000  0.46089000  1.0
  H  H16  1  0.34159000  0.53927000  0.29260000  1.0
  H  H17  1  0.04863000  0.70753000  0.24675000  1.0
  H  H18  1  0.30552000  0.33739000  0.52578000  1.0
  H  H19  1  0.77984000  0.47407000  0.81159000  1.0
  H  H20  1  0.96860000  0.18830000  0.66246000  1.0
  H  H21  1  0.69448000  0.66261000  0.47423000  1.0
  H  H22  1  0.22016000  0.52593000  0.18840000  1.0
  H  H23  1  0.03140000  0.81170000  0.33753000  1.0
  H  H24  1  0.86597000  0.23685000  0.49312000  1.0
  H  H25  1  0.37279000  0.50713000  0.74379000  1.0
  H  H26  1  0.62958000  0.25631000  0.76323000  1.0
  H  H27  1  0.13403000  0.76316000  0.50688000  1.0
  H  H28  1  0.62721000  0.49287000  0.25621000  1.0
  H  H29  1  0.37043000  0.74369000  0.23678000  1.0
  H  H30  1  0.50972000  0.01336000  0.27258000  1.0
  H  H31  1  0.23747000  0.72725000  0.74086000  1.0
  H  H32  1  0.49650000  0.25931000  0.98699000  1.0
  H  H33  1  0.49029000  0.98664000  0.72742000  1.0
  H  H34  1  0.76253000  0.27275000  0.25914000  1.0
  H  H35  1  0.50350000  0.74070000  0.01301000  1.0
  H  H36  1  0.42739000  0.11037000  0.20197000  1.0
  H  H37  1  0.22571000  0.79793000  0.90846000  1.0
  H  H38  1  0.31732000  0.09173000  0.88999000  1.0
  H  H39  1  0.57261000  0.88962000  0.79802000  1.0
  H  H40  1  0.77429000  0.20207000  0.09154000  1.0
  H  H41  1  0.68268000  0.90827000  0.11001000  1.0
  H  H42  1  0.15122000  0.17654000  0.22969000  1.0
  H  H43  1  0.92169000  0.77040000  0.94686000  1.0
  H  H44  1  0.97498000  0.05326000  0.82359000  1.0
  H  H45  1  0.84877000  0.82345000  0.77031000  1.0
  H  H46  1  0.07830000  0.22960000  0.05314000  1.0
  H  H47  1  0.02502000  0.94674000  0.17641000  1.0
  H  H48  1  0.96559000  0.15210000  0.33040000  1.0
  H  H49  1  0.63536000  0.66969000  0.82168000  1.0
  H  H50  1  0.81386000  0.17841000  0.84791000  1.0
  H  H51  1  0.03441000  0.84789000  0.66960000  1.0
  H  H52  1  0.36464000  0.33031000  0.17832000  1.0
  H  H53  1  0.18614000  0.82158000  0.15209000  1.0
  C  C54  1  0.46569000  0.25385000  0.53507000  1.0
  C  C55  1  0.93049000  0.46481000  0.71873000  1.0
  C  C56  1  0.21220000  0.28116000  0.74607000  1.0
  C  C57  1  0.53431000  0.74615000  0.46492000  1.0
  C  C58  1  0.06951000  0.53519000  0.28126000  1.0
  C  C59  1  0.78780000  0.71884000  0.25393000  1.0
  C  C60  1  0.73074000  0.23112000  0.50866000  1.0
  C  C61  1  0.22197000  0.49144000  0.72246000  1.0
  C  C62  1  0.49999000  0.27754000  0.76891000  1.0
  C  C63  1  0.26926000  0.76888000  0.49134000  1.0
  C  C64  1  0.77803000  0.50856000  0.27754000  1.0
  C  C65  1  0.50002000  0.72246000  0.23109000  1.0
  C  C66  1  0.13175000  0.06859000  0.35825000  1.0
  C  C67  1  0.77371000  0.64170000  0.71035000  1.0
  C  C68  1  0.06341000  0.28976000  0.93148000  1.0
  C  C69  1  0.86826000  0.93141000  0.64175000  1.0
  C  C70  1  0.22629000  0.35830000  0.28965000  1.0
  C  C71  1  0.93659000  0.71024000  0.06852000  1.0
  C  C72  1  0.28528000  0.02883000  0.34054000  1.0
  C  C73  1  0.94505000  0.65936000  0.68835000  1.0
  C  C74  1  0.25667000  0.31179000  0.97133000  1.0
  C  C75  1  0.71473000  0.97117000  0.65946000  1.0
  C  C76  1  0.05494000  0.34065000  0.31165000  1.0
  C  C77  1  0.74333000  0.68821000  0.02868000  1.0
  C  C78  1  0.39072000  0.04425000  0.28411000  1.0
  C  C79  1  0.10693000  0.71576000  0.76022000  1.0
  C  C80  1  0.34664000  0.23994000  0.95601000  1.0
  C  C81  1  0.60929000  0.95575000  0.71589000  1.0
  C  C82  1  0.89306000  0.28424000  0.23978000  1.0
  C  C83  1  0.65336000  0.76006000  0.04399000  1.0
  C  C84  1  0.34397000  0.09768000  0.24487000  1.0
  C  C85  1  0.09937000  0.75505000  0.85287000  1.0
  C  C86  1  0.24653000  0.14729000  0.90259000  1.0
  C  C87  1  0.65604000  0.90232000  0.75513000  1.0
  C  C88  1  0.90062000  0.24495000  0.14714000  1.0
  C  C89  1  0.75347000  0.85271000  0.09741000  1.0
  C  C90  1  0.18963000  0.13553000  0.26095000  1.0
  C  C91  1  0.92886000  0.73907000  0.87460000  1.0
  C  C92  1  0.05439000  0.12551000  0.86460000  1.0
  C  C93  1  0.81038000  0.86447000  0.73905000  1.0
  C  C94  1  0.07114000  0.26093000  0.12540000  1.0
  C  C95  1  0.94561000  0.87449000  0.13540000  1.0
  C  C96  1  0.08506000  0.12159000  0.31773000  1.0
  C  C97  1  0.76752000  0.68230000  0.80387000  1.0
  C  C98  1  0.96381000  0.19624000  0.87848000  1.0
  C  C99  1  0.91494000  0.87840000  0.68227000  1.0
  C  C100  1  0.23248000  0.31770000  0.19613000  1.0
  C  C101  1  0.03619000  0.80376000  0.12152000  1.0
  C  C102  1  0.01281000  0.05530000  0.41847000  1.0
  C  C103  1  0.59450000  0.58148000  0.63683000  1.0
  C  C104  1  0.95768000  0.36323000  0.94465000  1.0
  C  C105  1  0.98719000  0.94470000  0.58153000  1.0
  C  C106  1  0.40550000  0.41852000  0.36317000  1.0
  C  C107  1  0.04232000  0.63676000  0.05535000  1.0
  C  C108  1  0.34125000  0.97081000  0.38049000  1.0
  C  C109  1  0.96114000  0.61948000  0.59041000  1.0
  C  C110  1  0.37079000  0.40970000  0.02927000  1.0
  C  C111  1  0.65875000  0.02919000  0.61951000  1.0
  C  C112  1  0.03886000  0.38052000  0.40959000  1.0
  C  C113  1  0.62921000  0.59030000  0.97073000  1.0
  N  N114  1  0.65231000  0.16696000  0.52660000  1.0
  N  N115  1  0.12550000  0.47340000  0.64033000  1.0
  N  N116  1  0.48559000  0.35961000  0.83303000  1.0
  N  N117  1  0.34770000  0.83304000  0.47340000  1.0
  N  N118  1  0.87450000  0.52660000  0.35967000  1.0
  N  N119  1  0.51441000  0.64039000  0.16697000  1.0
  N  N120  1  0.48280000  0.17984000  0.54426000  1.0
  N  N121  1  0.93834000  0.45558000  0.63551000  1.0
  N  N122  1  0.30318000  0.36436000  0.82008000  1.0
  N  N123  1  0.51720000  0.82015000  0.45574000  1.0
  N  N124  1  0.06166000  0.54442000  0.36449000  1.0
  N  N125  1  0.69682000  0.63564000  0.17992000  1.0
  N  N126  1  0.61783000  0.28760000  0.51322000  1.0
  N  N127  1  0.10457000  0.48682000  0.77438000  1.0
  N  N128  1  0.33066000  0.22559000  0.71239000  1.0
  N  N129  1  0.38216000  0.71240000  0.48678000  1.0
  N  N130  1  0.89543000  0.51319000  0.22562000  1.0
  N  N131  1  0.66934000  0.77441000  0.28761000  1.0
  N  N132  1  0.31759000  0.29215000  0.54938000  1.0
  N  N133  1  0.76816000  0.45048000  0.74275000  1.0
  N  N134  1  0.02580000  0.25712000  0.70771000  1.0
  N  N135  1  0.68241000  0.70784000  0.45062000  1.0
  N  N136  1  0.23183000  0.54953000  0.25725000  1.0
  N  N137  1  0.97420000  0.74288000  0.29229000  1.0
  O  O138  1  0.05703000  0.11654000  0.50516000  1.0
  O  O139  1  0.55207000  0.49479000  0.61138000  1.0
  O  O140  1  0.94083000  0.38866000  0.88336000  1.0
  O  O141  1  0.94297000  0.88346000  0.49484000  1.0
  O  O142  1  0.44793000  0.50521000  0.38862000  1.0
  O  O143  1  0.05917000  0.61134000  0.11663000  1.0
  O  O144  1  0.87183000  0.98633000  0.37749000  1.0
  O  O145  1  0.49442000  0.62244000  0.60884000  1.0
  O  O146  1  0.88545000  0.39121000  0.01353000  1.0
  O  O147  1  0.12817000  0.01367000  0.62252000  1.0
  O  O148  1  0.50558000  0.37756000  0.39116000  1.0
  O  O149  1  0.11455000  0.60879000  0.98646000  1.0
  O  O150  1  0.27475000  0.97329000  0.44812000  1.0
  O  O151  1  0.82690000  0.55194000  0.52523000  1.0
  O  O152  1  0.30187000  0.47484000  0.02673000  1.0
  O  O153  1  0.72526000  0.02671000  0.55188000  1.0
  O  O154  1  0.17310000  0.44805000  0.47477000  1.0
  O  O155  1  0.69813000  0.52516000  0.97328000  1.0
  O  O156  1  0.45204000  0.92091000  0.34621000  1.0
  O  O157  1  0.10631000  0.65374000  0.57484000  1.0
  O  O158  1  0.53154000  0.42528000  0.07913000  1.0
  O  O159  1  0.54796000  0.07909000  0.65379000  1.0
  O  O160  1  0.89368000  0.34627000  0.42516000  1.0
  O  O161  1  0.46846000  0.57472000  0.92087000  1.0
