# generated using pymatgen
data_ZnH4C5NO3
_symmetry_space_group_name_H-M   'P 1'
_cell_length_a   4.99572000
_cell_length_b   5.00737000
_cell_length_c   12.04670000
_cell_angle_alpha   95.47390000
_cell_angle_beta   97.10720000
_cell_angle_gamma   105.86300000
_symmetry_Int_Tables_number   1
_chemical_formula_structural   ZnH4C5NO3
_chemical_formula_sum   'Zn2 H8 C10 N2 O6'
_cell_volume   285.00215218
_cell_formula_units_Z   2
loop_
 _symmetry_equiv_pos_site_id
 _symmetry_equiv_pos_as_xyz
  1  'x, y, z'
loop_
 _atom_site_type_symbol
 _atom_site_label
 _atom_site_symmetry_multiplicity
 _atom_site_fract_x
 _atom_site_fract_y
 _atom_site_fract_z
 _atom_site_occupancy
  Zn  Zn0  1  0.67918000  0.90367000  0.46010000  1.0
  Zn  Zn1  1  0.19758000  0.41928000  0.51290000  1.0
  H  H2  1  0.82131000  0.53317000  0.27995000  1.0
  H  H3  1  0.50677000  0.21850000  0.69575000  1.0
  H  H4  1  0.71958000  0.40419000  0.07148000  1.0
  H  H5  1  0.61788000  0.29837000  0.90318000  1.0
  H  H6  1  0.16302000  0.93261000  0.06400000  1.0
  H  H7  1  0.09369000  0.86382000  0.89473000  1.0
  H  H8  1  0.29208000  0.03823000  0.27297000  1.0
  H  H9  1  0.01735000  0.75482000  0.68775000  1.0
  C  C10  1  0.67940000  0.61824000  0.22743000  1.0
  C  C11  1  0.42225000  0.35839000  0.74508000  1.0
  C  C12  1  0.61792000  0.54615000  0.11103000  1.0
  C  C13  1  0.48076000  0.40712000  0.86207000  1.0
  C  C14  1  0.43088000  0.65785000  0.04641000  1.0
  C  C15  1  0.36649000  0.59220000  0.92211000  1.0
  C  C16  1  0.31177000  0.83871000  0.10696000  1.0
  C  C17  1  0.19258000  0.71663000  0.85746000  1.0
  C  C18  1  0.38297000  0.90135000  0.22352000  1.0
  C  C19  1  0.14579000  0.65922000  0.74052000  1.0
  N  N20  1  0.56555000  0.79460000  0.28332000  1.0
  N  N21  1  0.25827000  0.48249000  0.68525000  1.0
  O  O22  1  0.75941000  0.97722000  0.76518000  1.0
  O  O23  1  0.77278000  0.33597000  0.44797000  1.0
  O  O24  1  0.11085000  0.99990000  0.44784000  1.0
  O  O25  1  0.63724000  0.51168000  0.51002000  1.0
  O  O26  1  0.28939000  0.85865000  0.50869000  1.0
  O  O27  1  0.80297000  0.04126000  0.66633000  1.0
