# generated using pymatgen
data_MnH8C9O8
_symmetry_space_group_name_H-M   'P 1'
_cell_length_a   7.04023000
_cell_length_b   7.07193000
_cell_length_c   12.66480000
_cell_angle_alpha   75.67100000
_cell_angle_beta   88.57410000
_cell_angle_gamma   65.57200000
_symmetry_Int_Tables_number   1
_chemical_formula_structural   MnH8C9O8
_chemical_formula_sum   'Mn2 H16 C18 O16'
_cell_volume   554.09998210
_cell_formula_units_Z   2
loop_
 _symmetry_equiv_pos_site_id
 _symmetry_equiv_pos_as_xyz
  1  'x, y, z'
loop_
 _atom_site_type_symbol
 _atom_site_label
 _atom_site_symmetry_multiplicity
 _atom_site_fract_x
 _atom_site_fract_y
 _atom_site_fract_z
 _atom_site_occupancy
  Mn  Mn0  1  1.00000000  0.50000000  1.00000000  1.0
  Mn  Mn1  1  0.50000000  0.99999000  1.00000000  1.0
  H  H2  1  0.08584000  0.09147000  0.05014000  1.0
  H  H3  1  0.91416000  0.90852000  0.94986000  1.0
  H  H4  1  0.09321000  0.11766000  0.92049000  1.0
  H  H5  1  0.90679000  0.88233000  0.07951000  1.0
  H  H6  1  0.40343000  0.38596000  0.87076000  1.0
  H  H7  1  0.59658000  0.61403000  0.12924000  1.0
  H  H8  1  0.50639000  0.23805000  0.78809000  1.0
  H  H9  1  0.49361000  0.76195000  0.21191000  1.0
  H  H10  1  0.82767000  0.73035000  0.36352000  1.0
  H  H11  1  0.17232000  0.26968000  0.63648000  1.0
  H  H12  1  0.76484000  0.68264000  0.63717000  1.0
  H  H13  1  0.23515000  0.31737000  0.36283000  1.0
  H  H14  1  0.19177000  0.79945000  0.46343000  1.0
  H  H15  1  0.80823000  0.20056000  0.53657000  1.0
  H  H16  1  0.01141000  0.82452000  0.63545000  1.0
  H  H17  1  0.98859000  0.17547000  0.36456000  1.0
  C  C18  1  0.61706000  0.70843000  0.83460000  1.0
  C  C19  1  0.38294000  0.29157000  0.16539000  1.0
  C  C20  1  0.50005000  0.73032000  0.73155000  1.0
  C  C21  1  0.49995000  0.26968000  0.26845000  1.0
  C  C22  1  0.59978000  0.71444000  0.63549000  1.0
  C  C23  1  0.40022000  0.28557000  0.36452000  1.0
  C  C24  1  0.48761000  0.74471000  0.53843000  1.0
  C  C25  1  0.51239000  0.25530000  0.46158000  1.0
  C  C26  1  0.58124000  0.74622000  0.43271000  1.0
  C  C27  1  0.41875000  0.25379000  0.56729000  1.0
  C  C28  1  0.27567000  0.78144000  0.53900000  1.0
  C  C29  1  0.72433000  0.21855000  0.46100000  1.0
  C  C30  1  0.17597000  0.79572000  0.63460000  1.0
  C  C31  1  0.82403000  0.20428000  0.36540000  1.0
  C  C32  1  0.28557000  0.77502000  0.73079000  1.0
  C  C33  1  0.71443000  0.22498000  0.26921000  1.0
  C  C34  1  0.17126000  0.78248000  0.83288000  1.0
  C  C35  1  0.82875000  0.21752000  0.16712000  1.0
  O  O36  1  0.14180000  0.15548000  0.98188000  1.0
  O  O37  1  0.85820000  0.84452000  0.01812000  1.0
  O  O38  1  0.51169000  0.24360000  0.86491000  1.0
  O  O39  1  0.48832000  0.75639000  0.13509000  1.0
  O  O40  1  0.81498000  0.60397000  0.84632000  1.0
  O  O41  1  0.18502000  0.39603000  0.15368000  1.0
  O  O42  1  0.50488000  0.79972000  0.90323000  1.0
  O  O43  1  0.49512000  0.20028000  0.09677000  1.0
  O  O44  1  0.48303000  0.77555000  0.34676000  1.0
  O  O45  1  0.51696000  0.22447000  0.65324000  1.0
  O  O46  1  0.78386000  0.71658000  0.43811000  1.0
  O  O47  1  0.21613000  0.28343000  0.56188000  1.0
  O  O48  1  0.03466000  0.96082000  0.84339000  1.0
  O  O49  1  0.96535000  0.03917000  0.15662000  1.0
  O  O50  1  0.20981000  0.59834000  0.89806000  1.0
  O  O51  1  0.79019000  0.40166000  0.10194000  1.0
