# generated using pymatgen
data_SmPH10C4SO7
_symmetry_space_group_name_H-M   'P 1'
_cell_length_a   7.09279000
_cell_length_b   10.79920000
_cell_length_c   13.08560000
_cell_angle_alpha   90.00000000
_cell_angle_beta   89.99990000
_cell_angle_gamma   104.49000000
_symmetry_Int_Tables_number   1
_chemical_formula_structural   SmPH10C4SO7
_chemical_formula_sum   'Sm4 P4 H40 C16 S4 O28'
_cell_volume   970.42843558
_cell_formula_units_Z   4
loop_
 _symmetry_equiv_pos_site_id
 _symmetry_equiv_pos_as_xyz
  1  'x, y, z'
loop_
 _atom_site_type_symbol
 _atom_site_label
 _atom_site_symmetry_multiplicity
 _atom_site_fract_x
 _atom_site_fract_y
 _atom_site_fract_z
 _atom_site_occupancy
  Sm  Sm0  1  0.24461000  0.49008000  0.42442000  1.0
  Sm  Sm1  1  0.25539000  0.50992000  0.92442000  1.0
  Sm  Sm2  1  0.75539000  0.50992000  0.57558000  1.0
  Sm  Sm3  1  0.74461000  0.49008000  0.07558000  1.0
  P  P4  1  0.28165000  0.59965000  0.15170000  1.0
  P  P5  1  0.21835000  0.40036000  0.65169000  1.0
  P  P6  1  0.71835000  0.40035000  0.84830000  1.0
  P  P7  1  0.78165000  0.59964000  0.34831000  1.0
  H  H8  1  0.27119000  0.27862000  0.29168000  1.0
  H  H9  1  0.22881000  0.72138000  0.79168000  1.0
  H  H10  1  0.72881000  0.72138000  0.70832000  1.0
  H  H11  1  0.77119000  0.27862000  0.20832000  1.0
  H  H12  1  0.47418000  0.29470000  0.34467000  1.0
  H  H13  1  0.02582000  0.70530000  0.84467000  1.0
  H  H14  1  0.52582000  0.70530000  0.65533000  1.0
  H  H15  1  0.97419000  0.29470000  0.15533000  1.0
  H  H16  1  0.32087000  0.78921000  0.25198000  1.0
  H  H17  1  0.17913000  0.21079000  0.75198000  1.0
  H  H18  1  0.67913000  0.21079000  0.74802000  1.0
  H  H19  1  0.82087000  0.78921000  0.24802000  1.0
  H  H20  1  0.52357000  0.79695000  0.17192000  1.0
  H  H21  1  0.97643000  0.20306000  0.67192000  1.0
  H  H22  1  0.47643000  0.20305000  0.82808000  1.0
  H  H23  1  0.02357000  0.79695000  0.32808000  1.0
  H  H24  1  0.32631000  0.83778000  0.01975000  1.0
  H  H25  1  0.17369000  0.16222000  0.51975000  1.0
  H  H26  1  0.67369000  0.16222000  0.98025000  1.0
  H  H27  1  0.82631000  0.83778000  0.48025000  1.0
  H  H28  1  0.12198000  0.82104000  0.09754000  1.0
  H  H29  1  0.37802000  0.17896000  0.59754000  1.0
  H  H30  1  0.87802000  0.17896000  0.90246000  1.0
  H  H31  1  0.62198000  0.82104000  0.40247000  1.0
  H  H32  1  0.28345000  0.01169000  0.20072000  1.0
  H  H33  1  0.21655000  0.98831000  0.70072000  1.0
  H  H34  1  0.71655000  0.98831000  0.79928000  1.0
  H  H35  1  0.78345000  0.01169000  0.29928000  1.0
  H  H36  1  0.50083000  0.03214000  0.13041000  1.0
  H  H37  1  0.99917000  0.96786000  0.63041000  1.0
  H  H38  1  0.49917000  0.96786000  0.86959000  1.0
  H  H39  1  0.00083000  0.03214000  0.36959000  1.0
  H  H40  1  0.10621000  0.03205000  0.03374000  1.0
  H  H41  1  0.39379000  0.96795000  0.53374000  1.0
  H  H42  1  0.89379000  0.96795000  0.96626000  1.0
  H  H43  1  0.60621000  0.03205000  0.46627000  1.0
  H  H44  1  0.33593000  0.07610000  0.97123000  1.0
  H  H45  1  0.16407000  0.92390000  0.47123000  1.0
  H  H46  1  0.66407000  0.92390000  0.02877000  1.0
  H  H47  1  0.83593000  0.07610000  0.52877000  1.0
  C  C48  1  0.36311000  0.77210000  0.17326000  1.0
  C  C49  1  0.13689000  0.22790000  0.67326000  1.0
  C  C50  1  0.63689000  0.22790000  0.82674000  1.0
  C  C51  1  0.86311000  0.77210000  0.32674000  1.0
  C  C52  1  0.28179000  0.85379000  0.09821000  1.0
  C  C53  1  0.21821000  0.14621000  0.59821000  1.0
  C  C54  1  0.71821000  0.14621000  0.90179000  1.0
  C  C55  1  0.78179000  0.85379000  0.40179000  1.0
  C  C56  1  0.34160000  0.99622000  0.12504000  1.0
  C  C57  1  0.15840000  0.00378000  0.62504000  1.0
  C  C58  1  0.65840000  0.00378000  0.87496000  1.0
  C  C59  1  0.84160000  0.99622000  0.37496000  1.0
  C  C60  1  0.26247000  0.07285000  0.04533000  1.0
  C  C61  1  0.23753000  0.92715000  0.54533000  1.0
  C  C62  1  0.73753000  0.92715000  0.95467000  1.0
  C  C63  1  0.76247000  0.07285000  0.45467000  1.0
  S  S64  1  0.27920000  0.23383000  0.08176000  1.0
  S  S65  1  0.22082000  0.76617000  0.58176000  1.0
  S  S66  1  0.72080000  0.76617000  0.91824000  1.0
  S  S67  1  0.77919000  0.23383000  0.41824000  1.0
  O  O68  1  0.24586000  0.53858000  0.25655000  1.0
  O  O69  1  0.25415000  0.46143000  0.75656000  1.0
  O  O70  1  0.75414000  0.46142000  0.74345000  1.0
  O  O71  1  0.74586000  0.53857000  0.24344000  1.0
  O  O72  1  0.09802000  0.57130000  0.08171000  1.0
  O  O73  1  0.40197000  0.42870000  0.58171000  1.0
  O  O74  1  0.90198000  0.42870000  0.91829000  1.0
  O  O75  1  0.59803000  0.57130000  0.41829000  1.0
  O  O76  1  0.43652000  0.55537000  0.08704000  1.0
  O  O77  1  0.06348000  0.44463000  0.58704000  1.0
  O  O78  1  0.56348000  0.44463000  0.91296000  1.0
  O  O79  1  0.93652000  0.55537000  0.41296000  1.0
  O  O80  1  0.16129000  0.22560000  0.17565000  1.0
  O  O81  1  0.33870000  0.77440000  0.67565000  1.0
  O  O82  1  0.83871000  0.77440000  0.82435000  1.0
  O  O83  1  0.66130000  0.22560000  0.32435000  1.0
  O  O84  1  0.48579000  0.29306000  0.10058000  1.0
  O  O85  1  0.01420000  0.70694000  0.60058000  1.0
  O  O86  1  0.51421000  0.70694000  0.89942000  1.0
  O  O87  1  0.98581000  0.29306000  0.39942000  1.0
  O  O88  1  0.19459000  0.29126000  0.99614000  1.0
  O  O89  1  0.30541000  0.70875000  0.49614000  1.0
  O  O90  1  0.80541000  0.70874000  0.00386000  1.0
  O  O91  1  0.69459000  0.29126000  0.50386000  1.0
  O  O92  1  0.34426000  0.31070000  0.35472000  1.0
  O  O93  1  0.15573000  0.68930000  0.85473000  1.0
  O  O94  1  0.65574000  0.68930000  0.64528000  1.0
  O  O95  1  0.84427000  0.31070000  0.14527000  1.0
