# generated using pymatgen
data_Mg3H58C82(NO4)4
_symmetry_space_group_name_H-M   'P 1'
_cell_length_a   8.32480000
_cell_length_b   12.75990000
_cell_length_c   20.89240000
_cell_angle_alpha   73.19780000
_cell_angle_beta   84.68630000
_cell_angle_gamma   76.65240000
_symmetry_Int_Tables_number   1
_chemical_formula_structural   Mg3H58C82(NO4)4
_chemical_formula_sum   'Mg3 H58 C82 N4 O16'
_cell_volume   2066.33566481
_cell_formula_units_Z   1
loop_
 _symmetry_equiv_pos_site_id
 _symmetry_equiv_pos_as_xyz
  1  'x, y, z'
loop_
 _atom_site_type_symbol
 _atom_site_label
 _atom_site_symmetry_multiplicity
 _atom_site_fract_x
 _atom_site_fract_y
 _atom_site_fract_z
 _atom_site_occupancy
  Mg  Mg0  1  0.42724000  0.83273000  0.00226000  1.0
  Mg  Mg1  1  0.57276000  0.16727000  0.99774000  1.0
  Mg  Mg2  1  0.00000000  0.00000000  0.00000000  1.0
  H  H3  1  0.18078000  0.15861000  0.95500000  1.0
  H  H4  1  0.24611000  0.09887000  0.02665000  1.0
  H  H5  1  0.59188000  0.06216000  0.18187000  1.0
  H  H6  1  0.35211000  0.73772000  0.30903000  1.0
  H  H7  1  0.34188000  0.80129000  0.18533000  1.0
  H  H8  1  0.16537000  0.68405000  0.74519000  1.0
  H  H9  1  0.92401000  0.54793000  0.74685000  1.0
  H  H10  1  0.62602000  0.98893000  0.30416000  1.0
  H  H11  1  0.03063000  0.79359000  0.62861000  1.0
  H  H12  1  0.64513000  0.79891000  0.78043000  1.0
  H  H13  1  0.13950000  0.14246000  0.85403000  1.0
  H  H14  1  0.46880000  0.74224000  0.71332000  1.0
  H  H15  1  0.45198000  0.40531000  0.78058000  1.0
  H  H16  1  0.32636000  0.70096000  0.83539000  1.0
  H  H17  1  0.94747000  0.97872000  0.86277000  1.0
  H  H18  1  0.63622000  0.52323000  0.71161000  1.0
  H  H19  1  0.07568000  0.55856000  0.63383000  1.0
  H  H20  1  0.32052000  0.25555000  0.77719000  1.0
  H  H21  1  0.25811000  0.67881000  0.56531000  1.0
  H  H22  1  0.56886000  0.56597000  0.51282000  1.0
  H  H23  1  0.78284000  0.95790000  0.77581000  1.0
  H  H24  1  0.74719000  0.43557000  0.82884000  1.0
  H  H25  1  0.52714000  0.90047000  0.52781000  1.0
  H  H26  1  0.85564000  0.73456000  0.56154000  1.0
  H  H27  1  0.49442000  0.97512000  0.40505000  1.0
  H  H28  1  0.53929000  0.63959000  0.39017000  1.0
  H  H29  1  0.89620000  0.42931000  0.93806000  1.0
  H  H30  1  0.91940000  0.39063000  0.02662000  1.0
  H  H31  1  0.72904000  0.39203000  0.99291000  1.0
  H  H32  1  0.81922000  0.84139000  0.04500000  1.0
  H  H33  1  0.75389000  0.90113000  0.97335000  1.0
  H  H34  1  0.40814000  0.93783000  0.81813000  1.0
  H  H35  1  0.64788000  0.26228000  0.69097000  1.0
  H  H36  1  0.65811000  0.19872000  0.81467000  1.0
  H  H37  1  0.83464000  0.31596000  0.25481000  1.0
  H  H38  1  0.07598000  0.45208000  0.25315000  1.0
  H  H39  1  0.37400000  0.01105000  0.69585000  1.0
  H  H40  1  0.96938000  0.20641000  0.37139000  1.0
  H  H41  1  0.35488000  0.20109000  0.21956000  1.0
  H  H42  1  0.86049000  0.85755000  0.14596000  1.0
  H  H43  1  0.53121000  0.25776000  0.28668000  1.0
  H  H44  1  0.54800000  0.59470000  0.21942000  1.0
  H  H45  1  0.67364000  0.29905000  0.16461000  1.0
  H  H46  1  0.05253000  0.02128000  0.13723000  1.0
  H  H47  1  0.36378000  0.47677000  0.28839000  1.0
  H  H48  1  0.92432000  0.44144000  0.36616000  1.0
  H  H49  1  0.67947000  0.74445000  0.22281000  1.0
  H  H50  1  0.74190000  0.32119000  0.43468000  1.0
  H  H51  1  0.43116000  0.43402000  0.48718000  1.0
  H  H52  1  0.21716000  0.04210000  0.22419000  1.0
  H  H53  1  0.25280000  0.56443000  0.17116000  1.0
  H  H54  1  0.47287000  0.09952000  0.47219000  1.0
  H  H55  1  0.14437000  0.26544000  0.43846000  1.0
  H  H56  1  0.50558000  0.02487000  0.59495000  1.0
  H  H57  1  0.46072000  0.36040000  0.60983000  1.0
  H  H58  1  0.10380000  0.57067000  0.06194000  1.0
  H  H59  1  0.08060000  0.60937000  0.97338000  1.0
  H  H60  1  0.27096000  0.60796000  0.00709000  1.0
  C  C61  1  0.54288000  0.98954000  0.20974000  1.0
  C  C62  1  0.46728000  0.93527000  0.17552000  1.0
  C  C63  1  0.40881000  0.80710000  0.28122000  1.0
  C  C64  1  0.40035000  0.84359000  0.21195000  1.0
  C  C65  1  0.83459000  0.21484000  0.89993000  1.0
  C  C66  1  0.49239000  0.85734000  0.31577000  1.0
  C  C67  1  0.11780000  0.74883000  0.77079000  1.0
  C  C68  1  0.96043000  0.81834000  0.75560000  1.0
  C  C69  1  0.24797000  0.47524000  0.71310000  1.0
  C  C70  1  0.97139000  0.45895000  0.77035000  1.0
  C  C71  1  0.93322000  0.28266000  0.84753000  1.0
  C  C72  1  0.24050000  0.84014000  0.91255000  1.0
  C  C73  1  0.85278000  0.79759000  0.71027000  1.0
  C  C74  1  0.45958000  0.97203000  0.10101000  1.0
  C  C75  1  0.14497000  0.83811000  0.85631000  1.0
  C  C76  1  0.45813000  0.61229000  0.63468000  1.0
  C  C77  1  0.55888000  0.94939000  0.27872000  1.0
  C  C78  1  0.90755000  0.78195000  0.64742000  1.0
  C  C79  1  0.69148000  0.78541000  0.73225000  1.0
  C  C80  1  0.13578000  0.40936000  0.75688000  1.0
  C  C81  1  0.09433000  0.23204000  0.83170000  1.0
  C  C82  1  0.59242000  0.75293000  0.69476000  1.0
  C  C83  1  0.40904000  0.46499000  0.73320000  1.0
  C  C84  1  0.20758000  0.75767000  0.82122000  1.0
  C  C85  1  0.99354000  0.91271000  0.83804000  1.0
  C  C86  1  0.54747000  0.72866000  0.52845000  1.0
  C  C87  1  0.51280000  0.53155000  0.69467000  1.0
  C  C88  1  0.19824000  0.55122000  0.65130000  1.0
  C  C89  1  0.65264000  0.73003000  0.63400000  1.0
  C  C90  1  0.19477000  0.29513000  0.78801000  1.0
  C  C91  1  0.30072000  0.61890000  0.61257000  1.0
  C  C92  1  0.55074000  0.65579000  0.48899000  1.0
  C  C93  1  0.90219000  0.90167000  0.78876000  1.0
  C  C94  1  0.87232000  0.39658000  0.81603000  1.0
  C  C95  1  0.51224000  0.81324000  0.38858000  1.0
  C  C96  1  0.53001000  0.84380000  0.49727000  1.0
  C  C97  1  0.80967000  0.74864000  0.60965000  1.0
  C  C98  1  0.51322000  0.88502000  0.42843000  1.0
  C  C99  1  0.53247000  0.69767000  0.42026000  1.0
  C  C100  1  0.70734000  0.62237000  0.00811000  1.0
  C  C101  1  0.83297000  0.43390000  0.98588000  1.0
  C  C102  1  0.45713000  0.01046000  0.79026000  1.0
  C  C103  1  0.53272000  0.06472000  0.82448000  1.0
  C  C104  1  0.59119000  0.19289000  0.71878000  1.0
  C  C105  1  0.59964000  0.15641000  0.78805000  1.0
  C  C106  1  0.16540000  0.78516000  0.10007000  1.0
  C  C107  1  0.50761000  0.14265000  0.68423000  1.0
  C  C108  1  0.88220000  0.25118000  0.22921000  1.0
  C  C109  1  0.03957000  0.18166000  0.24440000  1.0
  C  C110  1  0.75202000  0.52476000  0.28691000  1.0
  C  C111  1  0.02859000  0.54105000  0.22965000  1.0
  C  C112  1  0.06679000  0.71734000  0.15247000  1.0
  C  C113  1  0.75949000  0.15986000  0.08745000  1.0
  C  C114  1  0.14723000  0.20242000  0.28973000  1.0
  C  C115  1  0.54042000  0.02796000  0.89899000  1.0
  C  C116  1  0.85502000  0.16190000  0.14369000  1.0
  C  C117  1  0.54187000  0.38771000  0.36532000  1.0
  C  C118  1  0.44113000  0.05060000  0.72128000  1.0
  C  C119  1  0.09245000  0.21805000  0.35258000  1.0
  C  C120  1  0.30853000  0.21459000  0.26774000  1.0
  C  C121  1  0.86421000  0.59064000  0.24312000  1.0
  C  C122  1  0.90567000  0.76796000  0.16830000  1.0
  C  C123  1  0.40759000  0.24706000  0.30525000  1.0
  C  C124  1  0.59095000  0.53502000  0.26680000  1.0
  C  C125  1  0.79243000  0.24235000  0.17878000  1.0
  C  C126  1  0.00645000  0.08730000  0.16196000  1.0
  C  C127  1  0.45254000  0.27133000  0.47155000  1.0
  C  C128  1  0.48719000  0.46846000  0.30533000  1.0
  C  C129  1  0.80175000  0.44878000  0.34870000  1.0
  C  C130  1  0.34736000  0.26997000  0.36600000  1.0
  C  C131  1  0.80523000  0.70488000  0.21199000  1.0
  C  C132  1  0.69928000  0.38110000  0.38743000  1.0
  C  C133  1  0.44927000  0.34420000  0.51101000  1.0
  C  C134  1  0.09780000  0.09834000  0.21124000  1.0
  C  C135  1  0.12768000  0.60341000  0.18397000  1.0
  C  C136  1  0.48776000  0.18675000  0.61142000  1.0
  C  C137  1  0.47000000  0.15619000  0.50274000  1.0
  C  C138  1  0.19034000  0.25136000  0.39035000  1.0
  C  C139  1  0.48678000  0.11497000  0.57157000  1.0
  C  C140  1  0.46754000  0.30233000  0.57974000  1.0
  C  C141  1  0.29266000  0.37762000  0.99188000  1.0
  C  C142  1  0.16703000  0.56609000  0.01412000  1.0
  N  N143  1  0.55809000  0.68683000  0.59876000  1.0
  N  N144  1  0.77634000  0.54874000  0.98524000  1.0
  N  N145  1  0.44192000  0.31317000  0.40124000  1.0
  N  N146  1  0.22365000  0.45126000  0.01475000  1.0
  O  O147  1  0.64496000  0.70275000  0.02781000  1.0
  O  O148  1  0.14847000  0.11449000  0.99867000  1.0
  O  O149  1  0.37088000  0.76469000  0.92973000  1.0
  O  O150  1  0.19623000  0.91728000  0.94344000  1.0
  O  O151  1  0.70350000  0.26476000  0.92410000  1.0
  O  O152  1  0.89006000  0.10880000  0.91829000  1.0
  O  O153  1  0.42956000  0.07747000  0.07145000  1.0
  O  O154  1  0.48219000  0.89566000  0.07194000  1.0
  O  O155  1  0.35503000  0.29725000  0.97218000  1.0
  O  O156  1  0.85153000  0.88551000  0.00133000  1.0
  O  O157  1  0.62912000  0.23532000  0.07027000  1.0
  O  O158  1  0.80377000  0.08273000  0.05656000  1.0
  O  O159  1  0.29649000  0.73524000  0.07590000  1.0
  O  O160  1  0.10994000  0.89120000  0.08171000  1.0
  O  O161  1  0.57045000  0.92253000  0.92855000  1.0
  O  O162  1  0.51782000  0.10433000  0.92807000  1.0
