# generated using pymatgen
data_CuSiH16C22N4(OF3)2
_symmetry_space_group_name_H-M   'P 1'
_cell_length_a   8.01081000
_cell_length_b   11.21910000
_cell_length_c   13.72861643
_cell_angle_alpha   91.30809242
_cell_angle_beta   106.94154583
_cell_angle_gamma   110.88220000
_symmetry_Int_Tables_number   1
_chemical_formula_structural   CuSiH16C22N4(OF3)2
_chemical_formula_sum   'Cu2 Si2 H32 C44 N8 O4 F12'
_cell_volume   1091.63714953
_cell_formula_units_Z   2
loop_
 _symmetry_equiv_pos_site_id
 _symmetry_equiv_pos_as_xyz
  1  'x, y, z'
loop_
 _atom_site_type_symbol
 _atom_site_label
 _atom_site_symmetry_multiplicity
 _atom_site_fract_x
 _atom_site_fract_y
 _atom_site_fract_z
 _atom_site_occupancy
  Cu  Cu0  1  0.01147000  0.74984000  0.75005000  1.0
  Cu  Cu1  1  0.98853000  0.25016000  0.24995000  1.0
  Si  Si2  1  0.51334000  0.74991000  0.75007000  1.0
  Si  Si3  1  0.48666000  0.25008000  0.24993000  1.0
  H  H4  1  0.09546000  0.56132000  0.63352000  1.0
  H  H5  1  0.40035000  0.93848000  0.86645000  1.0
  H  H6  1  0.90455000  0.43869000  0.36648000  1.0
  H  H7  1  0.59963000  0.06150000  0.13355000  1.0
  H  H8  1  0.89903000  0.35123000  0.51820000  1.0
  H  H9  1  0.52911000  0.14877000  0.98142000  1.0
  H  H10  1  0.10098000  0.64879000  0.48179000  1.0
  H  H11  1  0.47090000  0.85123000  0.01858000  1.0
  H  H12  1  0.56856000  0.23410000  0.51394000  1.0
  H  H13  1  0.32004000  0.26622000  0.98537000  1.0
  H  H14  1  0.43145000  0.76590000  0.48605000  1.0
  H  H15  1  0.67995000  0.73378000  0.01461000  1.0
  H  H16  1  0.65702000  0.53941000  0.74512000  1.0
  H  H17  1  0.87206000  0.95998000  0.75515000  1.0
  H  H18  1  0.34299000  0.46058000  0.25488000  1.0
  H  H19  1  0.12792000  0.04002000  0.24485000  1.0
  H  H20  1  0.08828000  0.15262000  0.67722000  1.0
  H  H21  1  0.75805000  0.34732000  0.82287000  1.0
  H  H22  1  0.91173000  0.84737000  0.32279000  1.0
  H  H23  1  0.24196000  0.65268000  0.17714000  1.0
  H  H24  1  0.77202000  0.04857000  0.54142000  1.0
  H  H25  1  0.68205000  0.45185000  0.95881000  1.0
  H  H26  1  0.22797000  0.95144000  0.45859000  1.0
  H  H27  1  0.31793000  0.54814000  0.04119000  1.0
  H  H28  1  0.74424000  0.09351000  0.35984000  1.0
  H  H29  1  0.79159000  0.40706000  0.14046000  1.0
  H  H30  1  0.25575000  0.90650000  0.64016000  1.0
  H  H31  1  0.20840000  0.59294000  0.85954000  1.0
  H  H32  1  0.31713000  0.31199000  0.43937000  1.0
  H  H33  1  0.06631000  0.18839000  0.06065000  1.0
  H  H34  1  0.68287000  0.68800000  0.56064000  1.0
  H  H35  1  0.93370000  0.81162000  0.93935000  1.0
  C  C36  1  0.94951000  0.50733000  0.62946000  1.0
  C  C37  1  0.31230000  0.99242000  0.87047000  1.0
  C  C38  1  0.05049000  0.49268000  0.37053000  1.0
  C  C39  1  0.68769000  0.00757000  0.12953000  1.0
  C  C40  1  0.84017000  0.39020000  0.56686000  1.0
  C  C41  1  0.38259000  0.10970000  0.93291000  1.0
  C  C42  1  0.15984000  0.60982000  0.43312000  1.0
  C  C43  1  0.61741000  0.89030000  0.06708000  1.0
  C  C44  1  0.65541000  0.32414000  0.56581000  1.0
  C  C45  1  0.26500000  0.17592000  0.93382000  1.0
  C  C46  1  0.34460000  0.67587000  0.43418000  1.0
  C  C47  1  0.73500000  0.82408000  0.06617000  1.0
  C  C48  1  0.58956000  0.37557000  0.63351000  1.0
  C  C49  1  0.08007000  0.12436000  0.86623000  1.0
  C  C50  1  0.41045000  0.62441000  0.36649000  1.0
  C  C51  1  0.91993000  0.87564000  0.13378000  1.0
  C  C52  1  0.70686000  0.49498000  0.69417000  1.0
  C  C53  1  0.01733000  0.00472000  0.80584000  1.0
  C  C54  1  0.29314000  0.50501000  0.30583000  1.0
  C  C55  1  0.98265000  0.99527000  0.19416000  1.0
  C  C56  1  0.22792000  0.23836000  0.56959000  1.0
  C  C57  1  0.91975000  0.26167000  0.93032000  1.0
  C  C58  1  0.77207000  0.76163000  0.43041000  1.0
  C  C59  1  0.08026000  0.73834000  0.06968000  1.0
  C  C60  1  0.07096000  0.16258000  0.59670000  1.0
  C  C61  1  0.81130000  0.33743000  0.90337000  1.0
  C  C62  1  0.92904000  0.83742000  0.40331000  1.0
  C  C63  1  0.18872000  0.66258000  0.09663000  1.0
  C  C64  1  0.89613000  0.10602000  0.52160000  1.0
  C  C65  1  0.76830000  0.39418000  0.97853000  1.0
  C  C66  1  0.10387000  0.89399000  0.47841000  1.0
  C  C67  1  0.23170000  0.60582000  0.02147000  1.0
  C  C68  1  0.88021000  0.12892000  0.42059000  1.0
  C  C69  1  0.83095000  0.37144000  0.07955000  1.0
  C  C70  1  0.11978000  0.87108000  0.57941000  1.0
  C  C71  1  0.16906000  0.62857000  0.92046000  1.0
  C  C72  1  0.20194000  0.25460000  0.46630000  1.0
  C  C73  1  0.98136000  0.24568000  0.03366000  1.0
  C  C74  1  0.79806000  0.74540000  0.53371000  1.0
  C  C75  1  0.01866000  0.75433000  0.96635000  1.0
  C  C76  1  0.40871000  0.30797000  0.65437000  1.0
  C  C77  1  0.94601000  0.19202000  0.84538000  1.0
  C  C78  1  0.59130000  0.69202000  0.34564000  1.0
  C  C79  1  0.05401000  0.80798000  0.15463000  1.0
  N  N80  1  0.87978000  0.56067000  0.68938000  1.0
  N  N81  1  0.12944000  0.93903000  0.81066000  1.0
  N  N82  1  0.12022000  0.43933000  0.31062000  1.0
  N  N83  1  0.87055000  0.06097000  0.18935000  1.0
  N  N84  1  0.03067000  0.20230000  0.39434000  1.0
  N  N85  1  0.93447000  0.29812000  0.10566000  1.0
  N  N86  1  0.96932000  0.79770000  0.60566000  1.0
  N  N87  1  0.06553000  0.70188000  0.89434000  1.0
  O  O88  1  0.40902000  0.31252000  0.74433000  1.0
  O  O89  1  0.85183000  0.18751000  0.75544000  1.0
  O  O90  1  0.59097000  0.68747000  0.25566000  1.0
  O  O91  1  0.14821000  0.81250000  0.24456000  1.0
  F  F92  1  0.51181000  0.65005000  0.84327000  1.0
  F  F93  1  0.51828000  0.84984000  0.65690000  1.0
  F  F94  1  0.48819000  0.34996000  0.15674000  1.0
  F  F95  1  0.48174000  0.15015000  0.34310000  1.0
  F  F96  1  0.72945000  0.75008000  0.75006000  1.0
  F  F97  1  0.27054000  0.24991000  0.24994000  1.0
  F  F98  1  0.62570000  0.88179000  0.84353000  1.0
  F  F99  1  0.40098000  0.61802000  0.65666000  1.0
  F  F100  1  0.37429000  0.11821000  0.15648000  1.0
  F  F101  1  0.59903000  0.38198000  0.34334000  1.0
  F  F102  1  0.29725000  0.74979000  0.75000000  1.0
  F  F103  1  0.70276000  0.25020000  0.25000000  1.0
