# generated using pymatgen
data_CdH8C8N6ClO4
_symmetry_space_group_name_H-M   'P 1'
_cell_length_a   7.65589000
_cell_length_b   12.29110000
_cell_length_c   15.38280000
_cell_angle_alpha   104.04300000
_cell_angle_beta   89.99820000
_cell_angle_gamma   89.99940000
_symmetry_Int_Tables_number   1
_chemical_formula_structural   CdH8C8N6ClO4
_chemical_formula_sum   'Cd4 H32 C32 N24 Cl4 O16'
_cell_volume   1404.25039358
_cell_formula_units_Z   4
loop_
 _symmetry_equiv_pos_site_id
 _symmetry_equiv_pos_as_xyz
  1  'x, y, z'
loop_
 _atom_site_type_symbol
 _atom_site_label
 _atom_site_symmetry_multiplicity
 _atom_site_fract_x
 _atom_site_fract_y
 _atom_site_fract_z
 _atom_site_occupancy
  Cd  Cd0  1  0.85413000  0.99699000  0.25779000  1.0
  Cd  Cd1  1  0.35413000  0.00302000  0.24222000  1.0
  Cd  Cd2  1  0.14585000  0.00301000  0.74221000  1.0
  Cd  Cd3  1  0.64586000  0.99699000  0.75780000  1.0
  H  H4  1  0.88710000  0.30094000  0.30314000  1.0
  H  H5  1  0.38711000  0.69907000  0.19686000  1.0
  H  H6  1  0.11290000  0.69905000  0.69683000  1.0
  H  H7  1  0.61288000  0.30095000  0.80318000  1.0
  H  H8  1  0.33775000  0.30436000  0.27134000  1.0
  H  H9  1  0.83776000  0.69566000  0.22866000  1.0
  H  H10  1  0.66224000  0.69566000  0.72867000  1.0
  H  H11  1  0.16221000  0.30434000  0.77134000  1.0
  H  H12  1  0.74270000  0.49352000  0.33483000  1.0
  H  H13  1  0.24274000  0.50650000  0.16518000  1.0
  H  H14  1  0.25731000  0.50648000  0.66515000  1.0
  H  H15  1  0.75728000  0.49352000  0.83484000  1.0
  H  H16  1  0.51506000  0.49535000  0.35846000  1.0
  H  H17  1  0.01512000  0.50465000  0.14151000  1.0
  H  H18  1  0.48495000  0.50466000  0.64151000  1.0
  H  H19  1  0.98490000  0.49533000  0.85850000  1.0
  H  H20  1  0.79411000  0.10621000  0.06996000  1.0
  H  H21  1  0.29409000  0.89380000  0.43004000  1.0
  H  H22  1  0.20590000  0.89381000  0.93004000  1.0
  H  H23  1  0.70590000  0.10621000  0.56997000  1.0
  H  H24  1  0.33699000  0.16837000  0.06745000  1.0
  H  H25  1  0.83699000  0.83163000  0.43254000  1.0
  H  H26  1  0.66301000  0.83162000  0.93255000  1.0
  H  H27  1  0.16301000  0.16837000  0.56745000  1.0
  H  H28  1  0.96262000  0.18799000  0.92808000  1.0
  H  H29  1  0.46261000  0.81200000  0.57192000  1.0
  H  H30  1  0.03737000  0.81200000  0.07191000  1.0
  H  H31  1  0.53737000  0.18798000  0.42808000  1.0
  H  H32  1  0.14681000  0.26963000  0.97355000  1.0
  H  H33  1  0.64683000  0.73036000  0.52645000  1.0
  H  H34  1  0.85319000  0.73036000  0.02644000  1.0
  H  H35  1  0.35320000  0.26964000  0.47356000  1.0
  C  C36  1  0.75273000  0.27162000  0.29204000  1.0
  C  C37  1  0.25274000  0.72839000  0.20795000  1.0
  C  C38  1  0.24727000  0.72838000  0.70795000  1.0
  C  C39  1  0.74724000  0.27162000  0.79206000  1.0
  C  C40  1  0.47031000  0.27312000  0.27426000  1.0
  C  C41  1  0.97032000  0.72689000  0.22575000  1.0
  C  C42  1  0.52968000  0.72689000  0.72575000  1.0
  C  C43  1  0.02966000  0.27311000  0.77426000  1.0
  C  C44  1  0.61492000  0.46174000  0.30792000  1.0
  C  C45  1  0.11494000  0.53826000  0.19208000  1.0
  C  C46  1  0.38508000  0.53826000  0.69206000  1.0
  C  C47  1  0.88506000  0.46174000  0.80794000  1.0
  C  C48  1  0.57074000  0.50108000  0.22412000  1.0
  C  C49  1  0.07071000  0.49893000  0.27586000  1.0
  C  C50  1  0.42928000  0.49892000  0.77585000  1.0
  C  C51  1  0.92930000  0.50107000  0.72415000  1.0
  C  C52  1  0.93275000  0.10459000  0.08374000  1.0
  C  C53  1  0.43273000  0.89541000  0.41627000  1.0
  C  C54  1  0.06726000  0.89542000  0.91627000  1.0
  C  C55  1  0.56726000  0.10459000  0.58374000  1.0
  C  C56  1  0.21175000  0.13650000  0.08305000  1.0
  C  C57  1  0.71174000  0.86349000  0.41693000  1.0
  C  C58  1  0.78826000  0.86349000  0.91695000  1.0
  C  C59  1  0.28826000  0.13651000  0.58306000  1.0
  C  C60  1  0.02271000  0.23532000  0.99050000  1.0
  C  C61  1  0.52272000  0.76467000  0.50950000  1.0
  C  C62  1  0.97729000  0.76467000  0.00949000  1.0
  C  C63  1  0.47731000  0.23533000  0.49050000  1.0
  C  C64  1  0.89978000  0.33085000  0.03708000  1.0
  C  C65  1  0.39978000  0.66913000  0.46292000  1.0
  C  C66  1  0.10024000  0.66914000  0.96291000  1.0
  C  C67  1  0.60027000  0.33085000  0.53707000  1.0
  N  N68  1  0.69768000  0.16655000  0.27557000  1.0
  N  N69  1  0.19770000  0.83346000  0.22444000  1.0
  N  N70  1  0.30231000  0.83345000  0.72443000  1.0
  N  N71  1  0.80230000  0.16655000  0.77558000  1.0
  N  N72  1  0.51893000  0.16764000  0.26406000  1.0
  N  N73  1  0.01895000  0.83236000  0.23594000  1.0
  N  N74  1  0.48106000  0.83236000  0.73595000  1.0
  N  N75  1  0.98105000  0.16764000  0.76407000  1.0
  N  N76  1  0.61351000  0.34028000  0.29200000  1.0
  N  N77  1  0.11353000  0.65973000  0.20799000  1.0
  N  N78  1  0.38649000  0.65972000  0.70798000  1.0
  N  N79  1  0.88647000  0.34028000  0.79202000  1.0
  N  N80  1  0.00688000  0.04934000  0.13745000  1.0
  N  N81  1  0.50686000  0.95067000  0.36256000  1.0
  N  N82  1  0.99311000  0.95067000  0.86255000  1.0
  N  N83  1  0.49312000  0.04934000  0.63746000  1.0
  N  N84  1  0.18353000  0.06960000  0.13721000  1.0
  N  N85  1  0.68352000  0.93040000  0.36279000  1.0
  N  N86  1  0.81647000  0.93039000  0.86279000  1.0
  N  N87  1  0.31647000  0.06960000  0.63722000  1.0
  N  N88  1  0.05721000  0.15941000  0.04762000  1.0
  N  N89  1  0.55721000  0.84058000  0.45238000  1.0
  N  N90  1  0.94279000  0.84059000  0.95238000  1.0
  N  N91  1  0.44279000  0.15942000  0.54763000  1.0
  Cl  Cl92  1  0.60924000  0.90760000  0.13609000  1.0
  Cl  Cl93  1  0.10922000  0.09241000  0.36392000  1.0
  Cl  Cl94  1  0.39074000  0.09241000  0.86391000  1.0
  Cl  Cl95  1  0.89076000  0.90759000  0.63609000  1.0
  O  O96  1  0.48579000  0.43832000  0.16102000  1.0
  O  O97  1  0.98573000  0.56169000  0.33897000  1.0
  O  O98  1  0.51423000  0.56168000  0.83896000  1.0
  O  O99  1  0.01427000  0.43830000  0.66105000  1.0
  O  O100  1  0.61142000  0.60064000  0.22212000  1.0
  O  O101  1  0.11140000  0.39936000  0.27787000  1.0
  O  O102  1  0.38859000  0.39935000  0.77786000  1.0
  O  O103  1  0.88860000  0.60064000  0.72213000  1.0
  O  O104  1  0.85679000  0.40079000  0.99320000  1.0
  O  O105  1  0.35685000  0.59919000  0.50681000  1.0
  O  O106  1  0.14317000  0.59920000  0.00680000  1.0
  O  O107  1  0.64320000  0.40076000  0.49317000  1.0
  O  O108  1  0.84819000  0.33555000  0.11610000  1.0
  O  O109  1  0.34821000  0.66445000  0.38392000  1.0
  O  O110  1  0.15181000  0.66446000  0.88390000  1.0
  O  O111  1  0.65183000  0.33555000  0.61607000  1.0
