# generated using pymatgen
data_CaP2H28(C2O)6
_symmetry_space_group_name_H-M   'P 1'
_cell_length_a   5.56824000
_cell_length_b   7.27313000
_cell_length_c   20.76050000
_cell_angle_alpha   96.76700000
_cell_angle_beta   95.12770000
_cell_angle_gamma   90.38480000
_symmetry_Int_Tables_number   1
_chemical_formula_structural   CaP2H28(C2O)6
_chemical_formula_sum   'Ca2 P4 H56 C24 O12'
_cell_volume   831.44482466
_cell_formula_units_Z   2
loop_
 _symmetry_equiv_pos_site_id
 _symmetry_equiv_pos_as_xyz
  1  'x, y, z'
loop_
 _atom_site_type_symbol
 _atom_site_label
 _atom_site_symmetry_multiplicity
 _atom_site_fract_x
 _atom_site_fract_y
 _atom_site_fract_z
 _atom_site_occupancy
  Ca  Ca0  1  0.13165000  0.75112000  0.99995000  1.0
  Ca  Ca1  1  0.86836000  0.24888000  0.00005000  1.0
  P  P2  1  0.29070000  0.10930000  0.90199000  1.0
  P  P3  1  0.70931000  0.89070000  0.09801000  1.0
  P  P4  1  0.64328000  0.60745000  0.90329000  1.0
  P  P5  1  0.35672000  0.39255000  0.09671000  1.0
  H  H6  1  0.26610000  0.42570000  0.90457000  1.0
  H  H7  1  0.73390000  0.57431000  0.09543000  1.0
  H  H8  1  0.66962000  0.92237000  0.90487000  1.0
  H  H9  1  0.33038000  0.07763000  0.09513000  1.0
  H  H10  1  0.39493000  0.97907000  0.79832000  1.0
  H  H11  1  0.60508000  0.02094000  0.20168000  1.0
  H  H12  1  0.23007000  0.82182000  0.83681000  1.0
  H  H13  1  0.76995000  0.17818000  0.16318000  1.0
  H  H14  1  0.84805000  0.99943000  0.80947000  1.0
  H  H15  1  0.15196000  0.00057000  0.19053000  1.0
  H  H16  1  0.01808000  0.14343000  0.76723000  1.0
  H  H17  1  0.98193000  0.85657000  0.23277000  1.0
  H  H18  1  0.13725000  0.86100000  0.69484000  1.0
  H  H19  1  0.86275000  0.13900000  0.30516000  1.0
  H  H20  1  0.96529000  0.72025000  0.73732000  1.0
  H  H21  1  0.03471000  0.27975000  0.26268000  1.0
  H  H22  1  0.58906000  0.88094000  0.70085000  1.0
  H  H23  1  0.41094000  0.11906000  0.29915000  1.0
  H  H24  1  0.75889000  0.02607000  0.65933000  1.0
  H  H25  1  0.24111000  0.97393000  0.34067000  1.0
  H  H26  1  0.89447000  0.74807000  0.58905000  1.0
  H  H27  1  0.10552000  0.25193000  0.41095000  1.0
  H  H28  1  0.72915000  0.60211000  0.63114000  1.0
  H  H29  1  0.27083000  0.39790000  0.36885000  1.0
  H  H30  1  0.34214000  0.75446000  0.59262000  1.0
  H  H31  1  0.65785000  0.24556000  0.40738000  1.0
  H  H32  1  0.51058000  0.89703000  0.54891000  1.0
  H  H33  1  0.48942000  0.10298000  0.45109000  1.0
  H  H34  1  0.49628000  0.65370000  0.52651000  1.0
  H  H35  1  0.50371000  0.34631000  0.47349000  1.0
  H  H36  1  0.84331000  0.48197000  0.81263000  1.0
  H  H37  1  0.15669000  0.51803000  0.18737000  1.0
  H  H38  1  0.65278000  0.31738000  0.83874000  1.0
  H  H39  1  0.34722000  0.68262000  0.16126000  1.0
  H  H40  1  0.48738000  0.63621000  0.76031000  1.0
  H  H41  1  0.51262000  0.36379000  0.23969000  1.0
  H  H42  1  0.28836000  0.49291000  0.79409000  1.0
  H  H43  1  0.71163000  0.50709000  0.20591000  1.0
  H  H44  1  0.45481000  0.21325000  0.72884000  1.0
  H  H45  1  0.54520000  0.78675000  0.27116000  1.0
  H  H46  1  0.62598000  0.36386000  0.68978000  1.0
  H  H47  1  0.37401000  0.63614000  0.31022000  1.0
  H  H48  1  0.07480000  0.36675000  0.69119000  1.0
  H  H49  1  0.92519000  0.63323000  0.30882000  1.0
  H  H50  1  0.24166000  0.51805000  0.65143000  1.0
  H  H51  1  0.75832000  0.48194000  0.34857000  1.0
  H  H52  1  0.38446000  0.24737000  0.57899000  1.0
  H  H53  1  0.61554000  0.75263000  0.42101000  1.0
  H  H54  1  0.22250000  0.09495000  0.61963000  1.0
  H  H55  1  0.77750000  0.90505000  0.38037000  1.0
  H  H56  1  0.98654000  0.15703000  0.51565000  1.0
  H  H57  1  0.01346000  0.84296000  0.48435000  1.0
  H  H58  1  0.99511000  0.39804000  0.54260000  1.0
  H  H59  1  0.00489000  0.60195000  0.45740000  1.0
  H  H60  1  0.83215000  0.24460000  0.58352000  1.0
  H  H61  1  0.16785000  0.75539000  0.41648000  1.0
  C  C62  1  0.23428000  0.96500000  0.82484000  1.0
  C  C63  1  0.76573000  0.03501000  0.17516000  1.0
  C  C64  1  0.00671000  0.00322000  0.78175000  1.0
  C  C65  1  0.99329000  0.99678000  0.21825000  1.0
  C  C66  1  0.97446000  0.85954000  0.72154000  1.0
  C  C67  1  0.02554000  0.14045000  0.27846000  1.0
  C  C68  1  0.75313000  0.88642000  0.67489000  1.0
  C  C69  1  0.24687000  0.11358000  0.32511000  1.0
  C  C70  1  0.73104000  0.74113000  0.61505000  1.0
  C  C71  1  0.26896000  0.25887000  0.38495000  1.0
  C  C72  1  0.50863000  0.76261000  0.56819000  1.0
  C  C73  1  0.49137000  0.23740000  0.43181000  1.0
  C  C74  1  0.66124000  0.46102000  0.82745000  1.0
  C  C75  1  0.33876000  0.53898000  0.17255000  1.0
  C  C76  1  0.46490000  0.49613000  0.77423000  1.0
  C  C77  1  0.53510000  0.50387000  0.22577000  1.0
  C  C78  1  0.45832000  0.35370000  0.71387000  1.0
  C  C79  1  0.54168000  0.64630000  0.28613000  1.0
  C  C80  1  0.23968000  0.37688000  0.66581000  1.0
  C  C81  1  0.76032000  0.62311000  0.33419000  1.0
  C  C82  1  0.22178000  0.23572000  0.60498000  1.0
  C  C83  1  0.77822000  0.76427000  0.39502000  1.0
  C  C84  1  0.99735000  0.25976000  0.55908000  1.0
  C  C85  1  0.00265000  0.74023000  0.44092000  1.0
  O  O86  1  0.56492000  0.12206000  0.92000000  1.0
  O  O87  1  0.43507000  0.87795000  0.08000000  1.0
  O  O88  1  0.17909000  0.30199000  0.88831000  1.0
  O  O89  1  0.82091000  0.69802000  0.11169000  1.0
  O  O90  1  0.15240000  0.03706000  0.95438000  1.0
  O  O91  1  0.84760000  0.96294000  0.04562000  1.0
  O  O92  1  0.37947000  0.62224000  0.91947000  1.0
  O  O93  1  0.62053000  0.37776000  0.08053000  1.0
  O  O94  1  0.74766000  0.80047000  0.88916000  1.0
  O  O95  1  0.25234000  0.19953000  0.11084000  1.0
  O  O96  1  0.81217000  0.53784000  0.95680000  1.0
  O  O97  1  0.18783000  0.46217000  0.04320000  1.0
