# generated using pymatgen
data_H8PbC11(N3O2)2
_symmetry_space_group_name_H-M   'P 1'
_cell_length_a   7.96431000
_cell_length_b   21.45460000
_cell_length_c   22.03890000
_cell_angle_alpha   90.00050000
_cell_angle_beta   90.00010000
_cell_angle_gamma   91.50420000
_symmetry_Int_Tables_number   1
_chemical_formula_structural   H8PbC11(N3O2)2
_chemical_formula_sum   'H64 Pb8 C88 N48 O32'
_cell_volume   3764.51307673
_cell_formula_units_Z   8
loop_
 _symmetry_equiv_pos_site_id
 _symmetry_equiv_pos_as_xyz
  1  'x, y, z'
loop_
 _atom_site_type_symbol
 _atom_site_label
 _atom_site_symmetry_multiplicity
 _atom_site_fract_x
 _atom_site_fract_y
 _atom_site_fract_z
 _atom_site_occupancy
  H  H0  1  0.13970000  0.57056000  0.09421000  1.0
  H  H1  1  0.86030000  0.92943000  0.59422000  1.0
  H  H2  1  0.86030000  0.42943000  0.90578000  1.0
  H  H3  1  0.13970000  0.07057000  0.40579000  1.0
  H  H4  1  0.35445000  0.61093000  0.95143000  1.0
  H  H5  1  0.64555000  0.88907000  0.45144000  1.0
  H  H6  1  0.64556000  0.38907000  0.04857000  1.0
  H  H7  1  0.35444000  0.11093000  0.54857000  1.0
  H  H8  1  0.35814000  0.51069000  0.00005000  1.0
  H  H9  1  0.64187000  0.98931000  0.50006000  1.0
  H  H10  1  0.64187000  0.48931000  0.99995000  1.0
  H  H11  1  0.35813000  0.01069000  0.49995000  1.0
  H  H12  1  0.13501000  0.50775000  0.00241000  1.0
  H  H13  1  0.86500000  0.99225000  0.50241000  1.0
  H  H14  1  0.86500000  0.49224000  0.99759000  1.0
  H  H15  1  0.13501000  0.00775000  0.49759000  1.0
  H  H16  1  0.78925000  0.61366000  0.19072000  1.0
  H  H17  1  0.21075000  0.88634000  0.69072000  1.0
  H  H18  1  0.21076000  0.38634000  0.80927000  1.0
  H  H19  1  0.78925000  0.11366000  0.30928000  1.0
  H  H20  1  0.79829000  0.56964000  0.08518000  1.0
  H  H21  1  0.20172000  0.93035000  0.58518000  1.0
  H  H22  1  0.20172000  0.43036000  0.91482000  1.0
  H  H23  1  0.79828000  0.06965000  0.41482000  1.0
  H  H24  1  0.69983000  0.61059000  0.97878000  1.0
  H  H25  1  0.30017000  0.88940000  0.47878000  1.0
  H  H26  1  0.30017000  0.38940000  0.02122000  1.0
  H  H27  1  0.69983000  0.11060000  0.52122000  1.0
  H  H28  1  0.70628000  0.70078000  0.90561000  1.0
  H  H29  1  0.29372000  0.79922000  0.40561000  1.0
  H  H30  1  0.29373000  0.29922000  0.09439000  1.0
  H  H31  1  0.70627000  0.20078000  0.59439000  1.0
  H  H32  1  0.21318000  0.55989000  0.32501000  1.0
  H  H33  1  0.78680000  0.94011000  0.82501000  1.0
  H  H34  1  0.78682000  0.44012000  0.67499000  1.0
  H  H35  1  0.21319000  0.05989000  0.17499000  1.0
  H  H36  1  0.20330000  0.44918000  0.36403000  1.0
  H  H37  1  0.79667000  0.05082000  0.86403000  1.0
  H  H38  1  0.79669000  0.55082000  0.63597000  1.0
  H  H39  1  0.20332000  0.94918000  0.13597000  1.0
  H  H40  1  0.86178000  0.46391000  0.35377000  1.0
  H  H41  1  0.13819000  0.03609000  0.85377000  1.0
  H  H42  1  0.13820000  0.53610000  0.64623000  1.0
  H  H43  1  0.86181000  0.96391000  0.14624000  1.0
  H  H44  1  0.86724000  0.35222000  0.35923000  1.0
  H  H45  1  0.13274000  0.14778000  0.85923000  1.0
  H  H46  1  0.13275000  0.64778000  0.64077000  1.0
  H  H47  1  0.86726000  0.85222000  0.14077000  1.0
  H  H48  1  0.64150000  0.34892000  0.35915000  1.0
  H  H49  1  0.35849000  0.15107000  0.85916000  1.0
  H  H50  1  0.35849000  0.65108000  0.64085000  1.0
  H  H51  1  0.64151000  0.84893000  0.14084000  1.0
  H  H52  1  0.64237000  0.36090000  0.46732000  1.0
  H  H53  1  0.35762000  0.13910000  0.96732000  1.0
  H  H54  1  0.35763000  0.63910000  0.53268000  1.0
  H  H55  1  0.64238000  0.86090000  0.03268000  1.0
  H  H56  1  0.28958000  0.34177000  0.56970000  1.0
  H  H57  1  0.71042000  0.15823000  0.06970000  1.0
  H  H58  1  0.71043000  0.65825000  0.43030000  1.0
  H  H59  1  0.28958000  0.84176000  0.93030000  1.0
  H  H60  1  0.30134000  0.37623000  0.46058000  1.0
  H  H61  1  0.69866000  0.12377000  0.96059000  1.0
  H  H62  1  0.69867000  0.62378000  0.53942000  1.0
  H  H63  1  0.30134000  0.87622000  0.03942000  1.0
  Pb  Pb64  1  0.49620000  0.67660000  0.29190000  1.0
  Pb  Pb65  1  0.50379000  0.82340000  0.79190000  1.0
  Pb  Pb66  1  0.50379000  0.32340000  0.70810000  1.0
  Pb  Pb67  1  0.49621000  0.17660000  0.20811000  1.0
  Pb  Pb68  1  0.99929000  0.29435000  0.67717000  1.0
  Pb  Pb69  1  0.00071000  0.20566000  0.17717000  1.0
  Pb  Pb70  1  0.00071000  0.70565000  0.32283000  1.0
  Pb  Pb71  1  0.99929000  0.79434000  0.82283000  1.0
  C  C72  1  0.38920000  0.57433000  0.10236000  1.0
  C  C73  1  0.61080000  0.92567000  0.60236000  1.0
  C  C74  1  0.61080000  0.42567000  0.89764000  1.0
  C  C75  1  0.38920000  0.07433000  0.39764000  1.0
  C  C76  1  0.24657000  0.53771000  0.00957000  1.0
  C  C77  1  0.75344000  0.96229000  0.50958000  1.0
  C  C78  1  0.75344000  0.46229000  0.99042000  1.0
  C  C79  1  0.24657000  0.03771000  0.49042000  1.0
  C  C80  1  0.10577000  0.62027000  0.95340000  1.0
  C  C81  1  0.89424000  0.87973000  0.45340000  1.0
  C  C82  1  0.89424000  0.37973000  0.04659000  1.0
  C  C83  1  0.10576000  0.12027000  0.54660000  1.0
  C  C84  1  0.11240000  0.67354000  0.91387000  1.0
  C  C85  1  0.88760000  0.82645000  0.41387000  1.0
  C  C86  1  0.88760000  0.32645000  0.08613000  1.0
  C  C87  1  0.11240000  0.17355000  0.58613000  1.0
  C  C88  1  0.27564000  0.70090000  0.88925000  1.0
  C  C89  1  0.72436000  0.79909000  0.38925000  1.0
  C  C90  1  0.72436000  0.29909000  0.11075000  1.0
  C  C91  1  0.27564000  0.20091000  0.61075000  1.0
  C  C92  1  0.21859000  0.62086000  0.19079000  1.0
  C  C93  1  0.78140000  0.87913000  0.69080000  1.0
  C  C94  1  0.78141000  0.37913000  0.80920000  1.0
  C  C95  1  0.21859000  0.12087000  0.30921000  1.0
  C  C96  1  0.38206000  0.60305000  0.16120000  1.0
  C  C97  1  0.61794000  0.89694000  0.66120000  1.0
  C  C98  1  0.61794000  0.39694000  0.83880000  1.0
  C  C99  1  0.38206000  0.10306000  0.33880000  1.0
  C  C100  1  0.67401000  0.60331000  0.16560000  1.0
  C  C101  1  0.32599000  0.89669000  0.66560000  1.0
  C  C102  1  0.32600000  0.39669000  0.83440000  1.0
  C  C103  1  0.67401000  0.10331000  0.33440000  1.0
  C  C104  1  0.67805000  0.57799000  0.10729000  1.0
  C  C105  1  0.32195000  0.92201000  0.60729000  1.0
  C  C106  1  0.32195000  0.42201000  0.89271000  1.0
  C  C107  1  0.67805000  0.07799000  0.39271000  1.0
  C  C108  1  0.81871000  0.62813000  0.95967000  1.0
  C  C109  1  0.18129000  0.87187000  0.45967000  1.0
  C  C110  1  0.18130000  0.37186000  0.04032000  1.0
  C  C111  1  0.81871000  0.12814000  0.54032000  1.0
  C  C112  1  0.82156000  0.67854000  0.91957000  1.0
  C  C113  1  0.17844000  0.82146000  0.41957000  1.0
  C  C114  1  0.17844000  0.32146000  0.08043000  1.0
  C  C115  1  0.82156000  0.17855000  0.58043000  1.0
  C  C116  1  0.32760000  0.53474000  0.33376000  1.0
  C  C117  1  0.67238000  0.96525000  0.83376000  1.0
  C  C118  1  0.67239000  0.46526000  0.66624000  1.0
  C  C119  1  0.32761000  0.03474000  0.16624000  1.0
  C  C120  1  0.32334000  0.47302000  0.35428000  1.0
  C  C121  1  0.67663000  0.02697000  0.85428000  1.0
  C  C122  1  0.67664000  0.52698000  0.64572000  1.0
  C  C123  1  0.32336000  0.97302000  0.14572000  1.0
  C  C124  1  0.61129000  0.46986000  0.35279000  1.0
  C  C125  1  0.38869000  0.03014000  0.85279000  1.0
  C  C126  1  0.38870000  0.53014000  0.64722000  1.0
  C  C127  1  0.61131000  0.96986000  0.14721000  1.0
  C  C128  1  0.75357000  0.37285000  0.37760000  1.0
  C  C129  1  0.24642000  0.12715000  0.87760000  1.0
  C  C130  1  0.24643000  0.62715000  0.62240000  1.0
  C  C131  1  0.75358000  0.87285000  0.12240000  1.0
  C  C132  1  0.89292000  0.36235000  0.47656000  1.0
  C  C133  1  0.10708000  0.13766000  0.97657000  1.0
  C  C134  1  0.10709000  0.63766000  0.52344000  1.0
  C  C135  1  0.89292000  0.86234000  0.02344000  1.0
  C  C136  1  0.88399000  0.34781000  0.54006000  1.0
  C  C137  1  0.11601000  0.15219000  0.04006000  1.0
  C  C138  1  0.11602000  0.65220000  0.45995000  1.0
  C  C139  1  0.88399000  0.84781000  0.95994000  1.0
  C  C140  1  0.71979000  0.33971000  0.57305000  1.0
  C  C141  1  0.28022000  0.16029000  0.07305000  1.0
  C  C142  1  0.28022000  0.66030000  0.42695000  1.0
  C  C143  1  0.71979000  0.83971000  0.92695000  1.0
  C  C144  1  0.17522000  0.34900000  0.54392000  1.0
  C  C145  1  0.82479000  0.15100000  0.04392000  1.0
  C  C146  1  0.82479000  0.65101000  0.45609000  1.0
  C  C147  1  0.17522000  0.84899000  0.95608000  1.0
  C  C148  1  0.18076000  0.36671000  0.48288000  1.0
  C  C149  1  0.81925000  0.13329000  0.98288000  1.0
  C  C150  1  0.81925000  0.63331000  0.51712000  1.0
  C  C151  1  0.18076000  0.86670000  0.01712000  1.0
  C  C152  1  0.61909000  0.53399000  0.33437000  1.0
  C  C153  1  0.38088000  0.96600000  0.83437000  1.0
  C  C154  1  0.38090000  0.46601000  0.66563000  1.0
  C  C155  1  0.61911000  0.03400000  0.16563000  1.0
  C  C156  1  0.78264000  0.56917000  0.32544000  1.0
  C  C157  1  0.21734000  0.93083000  0.82543000  1.0
  C  C158  1  0.21735000  0.43083000  0.67457000  1.0
  C  C159  1  0.78266000  0.06918000  0.17457000  1.0
  N  N160  1  0.24750000  0.55699000  0.07259000  1.0
  N  N161  1  0.75250000  0.94301000  0.57260000  1.0
  N  N162  1  0.75251000  0.44301000  0.92740000  1.0
  N  N163  1  0.24750000  0.05699000  0.42740000  1.0
  N  N164  1  0.24598000  0.58942000  0.96729000  1.0
  N  N165  1  0.75403000  0.91058000  0.46730000  1.0
  N  N166  1  0.75403000  0.41058000  0.03270000  1.0
  N  N167  1  0.24597000  0.08942000  0.53270000  1.0
  N  N168  1  0.95732000  0.59958000  0.97704000  1.0
  N  N169  1  0.04269000  0.90042000  0.47704000  1.0
  N  N170  1  0.04269000  0.40042000  0.02296000  1.0
  N  N171  1  0.95731000  0.09958000  0.52296000  1.0
  N  N172  1  0.96936000  0.70046000  0.89809000  1.0
  N  N173  1  0.03064000  0.79954000  0.39809000  1.0
  N  N174  1  0.03065000  0.29954000  0.10191000  1.0
  N  N175  1  0.96936000  0.20046000  0.60190000  1.0
  N  N176  1  0.47628000  0.56414000  0.32526000  1.0
  N  N177  1  0.52370000  0.93585000  0.82525000  1.0
  N  N178  1  0.52371000  0.43586000  0.67475000  1.0
  N  N179  1  0.47629000  0.06415000  0.17475000  1.0
  N  N180  1  0.52535000  0.61630000  0.19067000  1.0
  N  N181  1  0.47465000  0.88369000  0.69068000  1.0
  N  N182  1  0.47465000  0.38369000  0.80932000  1.0
  N  N183  1  0.52535000  0.11630000  0.30933000  1.0
  N  N184  1  0.53947000  0.56436000  0.07558000  1.0
  N  N185  1  0.46053000  0.93563000  0.57558000  1.0
  N  N186  1  0.46053000  0.43564000  0.92442000  1.0
  N  N187  1  0.53947000  0.06436000  0.42442000  1.0
  N  N188  1  0.02611000  0.34032000  0.57127000  1.0
  N  N189  1  0.97389000  0.15968000  0.07127000  1.0
  N  N190  1  0.97389000  0.65969000  0.42873000  1.0
  N  N191  1  0.02612000  0.84031000  0.92873000  1.0
  N  N192  1  0.46147000  0.44079000  0.36427000  1.0
  N  N193  1  0.53850000  0.05920000  0.86427000  1.0
  N  N194  1  0.53851000  0.55921000  0.63574000  1.0
  N  N195  1  0.46150000  0.94080000  0.13573000  1.0
  N  N196  1  0.75316000  0.43731000  0.35856000  1.0
  N  N197  1  0.24682000  0.06268000  0.85856000  1.0
  N  N198  1  0.24682000  0.56269000  0.64145000  1.0
  N  N199  1  0.75318000  0.93732000  0.14144000  1.0
  N  N200  1  0.75186000  0.36393000  0.44266000  1.0
  N  N201  1  0.24813000  0.13607000  0.94267000  1.0
  N  N202  1  0.24814000  0.63607000  0.55734000  1.0
  N  N203  1  0.75187000  0.86393000  0.05734000  1.0
  N  N204  1  0.04328000  0.37318000  0.44920000  1.0
  N  N205  1  0.95672000  0.12682000  0.94920000  1.0
  N  N206  1  0.95672000  0.62683000  0.55080000  1.0
  N  N207  1  0.04329000  0.87318000  0.05080000  1.0
  O  O208  1  0.26418000  0.74775000  0.85276000  1.0
  O  O209  1  0.73582000  0.75225000  0.35275000  1.0
  O  O210  1  0.73582000  0.25225000  0.14725000  1.0
  O  O211  1  0.26418000  0.24775000  0.64724000  1.0
  O  O212  1  0.77031000  0.62666000  0.30817000  1.0
  O  O213  1  0.22967000  0.87334000  0.80815000  1.0
  O  O214  1  0.22967000  0.37334000  0.69184000  1.0
  O  O215  1  0.77033000  0.12666000  0.19184000  1.0
  O  O216  1  0.91930000  0.54342000  0.33538000  1.0
  O  O217  1  0.08066000  0.95658000  0.83535000  1.0
  O  O218  1  0.08068000  0.45658000  0.66463000  1.0
  O  O219  1  0.91933000  0.04342000  0.16465000  1.0
  O  O220  1  0.08253000  0.60826000  0.16412000  1.0
  O  O221  1  0.91747000  0.89173000  0.66413000  1.0
  O  O222  1  0.91748000  0.39174000  0.83587000  1.0
  O  O223  1  0.08252000  0.10827000  0.33587000  1.0
  O  O224  1  0.41188000  0.67762000  0.90516000  1.0
  O  O225  1  0.58812000  0.82238000  0.40517000  1.0
  O  O226  1  0.58812000  0.32238000  0.09483000  1.0
  O  O227  1  0.41188000  0.17762000  0.59483000  1.0
  O  O228  1  0.73059000  0.32126000  0.62889000  1.0
  O  O229  1  0.26941000  0.17874000  0.12890000  1.0
  O  O230  1  0.26941000  0.67874000  0.37111000  1.0
  O  O231  1  0.73059000  0.82126000  0.87111000  1.0
  O  O232  1  0.58452000  0.35121000  0.54683000  1.0
  O  O233  1  0.41548000  0.14878000  0.04684000  1.0
  O  O234  1  0.41548000  0.64878000  0.45317000  1.0
  O  O235  1  0.58453000  0.85122000  0.95316000  1.0
  O  O236  1  0.22986000  0.64896000  0.24258000  1.0
  O  O237  1  0.77013000  0.85103000  0.74258000  1.0
  O  O238  1  0.77013000  0.35103000  0.75742000  1.0
  O  O239  1  0.22986000  0.14897000  0.25742000  1.0
