# generated using pymatgen
data_Ag3H29C18N8O7
_symmetry_space_group_name_H-M   'P 1'
_cell_length_a   11.29740000
_cell_length_b   11.66410000
_cell_length_c   11.81940000
_cell_angle_alpha   119.56600000
_cell_angle_beta   90.00000000
_cell_angle_gamma   90.00000000
_symmetry_Int_Tables_number   1
_chemical_formula_structural   Ag3H29C18N8O7
_chemical_formula_sum   'Ag6 H58 C36 N16 O14'
_cell_volume   1354.68563674
_cell_formula_units_Z   2
loop_
 _symmetry_equiv_pos_site_id
 _symmetry_equiv_pos_as_xyz
  1  'x, y, z'
loop_
 _atom_site_type_symbol
 _atom_site_label
 _atom_site_symmetry_multiplicity
 _atom_site_fract_x
 _atom_site_fract_y
 _atom_site_fract_z
 _atom_site_occupancy
  Ag  Ag0  1  0.53300000  0.16459000  0.50291000  1.0
  Ag  Ag1  1  0.03300000  0.83541000  0.49709000  1.0
  Ag  Ag2  1  0.53300000  0.66168000  0.49709000  1.0
  Ag  Ag3  1  0.03300000  0.33832000  0.50291000  1.0
  Ag  Ag4  1  0.69189000  0.18633000  0.00000000  1.0
  Ag  Ag5  1  0.19189000  0.81367000  0.00000000  1.0
  H  H6  1  0.84589000  0.09989000  0.57497000  1.0
  H  H7  1  0.34589000  0.90011000  0.42503000  1.0
  H  H8  1  0.84589000  0.52492000  0.42503000  1.0
  H  H9  1  0.34589000  0.47508000  0.57497000  1.0
  H  H10  1  0.79794000  0.94678000  0.43523000  1.0
  H  H11  1  0.29794000  0.05322000  0.56477000  1.0
  H  H12  1  0.79794000  0.51155000  0.56477000  1.0
  H  H13  1  0.29794000  0.48845000  0.43523000  1.0
  H  H14  1  0.59727000  0.86777000  0.43559000  1.0
  H  H15  1  0.09727000  0.13223000  0.56441000  1.0
  H  H16  1  0.59727000  0.43218000  0.56441000  1.0
  H  H17  1  0.09727000  0.56782000  0.43559000  1.0
  H  H18  1  0.50671000  0.95892000  0.57610000  1.0
  H  H19  1  0.00671000  0.04108000  0.42389000  1.0
  H  H20  1  0.50671000  0.38281000  0.42390000  1.0
  H  H21  1  0.00671000  0.61719000  0.57610000  1.0
  H  H22  1  0.57432000  0.15851000  0.75689000  1.0
  H  H23  1  0.07432000  0.84149000  0.24311000  1.0
  H  H24  1  0.57432000  0.40162000  0.24311000  1.0
  H  H25  1  0.07432000  0.59838000  0.75689000  1.0
  H  H26  1  0.72161000  0.21611000  0.75590000  1.0
  H  H27  1  0.22161000  0.78389000  0.24410000  1.0
  H  H28  1  0.72161000  0.46021000  0.24410000  1.0
  H  H29  1  0.22161000  0.53979000  0.75590000  1.0
  H  H30  1  0.67417000  0.87547000  0.78706000  1.0
  H  H31  1  0.17417000  0.12453000  0.21294000  1.0
  H  H32  1  0.67417000  0.08842000  0.21295000  1.0
  H  H33  1  0.17417000  0.91158000  0.78705000  1.0
  H  H34  1  0.54840000  0.96307000  0.77452000  1.0
  H  H35  1  0.04840000  0.03693000  0.22548000  1.0
  H  H36  1  0.54840000  0.18855000  0.22549000  1.0
  H  H37  1  0.04840000  0.81145000  0.77451000  1.0
  H  H38  1  0.87308000  0.95983000  0.78826000  1.0
  H  H39  1  0.37308000  0.04016000  0.21174000  1.0
  H  H40  1  0.87308000  0.17158000  0.21174000  1.0
  H  H41  1  0.37308000  0.82842000  0.78825000  1.0
  H  H42  1  0.88872000  0.10641000  0.77401000  1.0
  H  H43  1  0.38872000  0.89359000  0.22599000  1.0
  H  H44  1  0.88872000  0.33240000  0.22599000  1.0
  H  H45  1  0.38872000  0.66760000  0.77401000  1.0
  H  H46  1  0.80315000  0.75925000  0.60498000  1.0
  H  H47  1  0.30315000  0.24075000  0.39502000  1.0
  H  H48  1  0.80315000  0.15427000  0.39502000  1.0
  H  H49  1  0.30315000  0.84573000  0.60498000  1.0
  H  H50  1  0.77396000  0.75416000  0.45399000  1.0
  H  H51  1  0.27396000  0.24584000  0.54601000  1.0
  H  H52  1  0.77396000  0.30018000  0.54602000  1.0
  H  H53  1  0.27396000  0.69982000  0.45398000  1.0
  H  H54  1  0.29143000  0.32087000  0.88159000  1.0
  H  H55  1  0.79143000  0.67913000  0.11841000  1.0
  H  H56  1  0.29143000  0.43928000  0.11841000  1.0
  H  H57  1  0.79143000  0.56072000  0.88159000  1.0
  H  H58  1  0.27798000  0.47761000  0.89013000  1.0
  H  H59  1  0.77798000  0.52239000  0.10987000  1.0
  H  H60  1  0.27798000  0.58748000  0.10987000  1.0
  H  H61  1  0.77798000  0.41252000  0.89013000  1.0
  H  H62  1  0.57318000  0.53783000  0.00000000  1.0
  H  H63  1  0.07317000  0.46217000  0.00000000  1.0
  C  C64  1  0.79303000  0.00994000  0.54130000  1.0
  C  C65  1  0.29303000  0.99006000  0.45870000  1.0
  C  C66  1  0.79303000  0.46865000  0.45870000  1.0
  C  C67  1  0.29303000  0.53135000  0.54130000  1.0
  C  C68  1  0.59779000  0.92941000  0.54192000  1.0
  C  C69  1  0.09779000  0.07059000  0.45808000  1.0
  C  C70  1  0.59780000  0.38749000  0.45808000  1.0
  C  C71  1  0.09779000  0.61251000  0.54192000  1.0
  C  C72  1  0.66585000  0.12891000  0.72522000  1.0
  C  C73  1  0.16585000  0.87109000  0.27478000  1.0
  C  C74  1  0.66585000  0.40368000  0.27478000  1.0
  C  C75  1  0.16585000  0.59632000  0.72522000  1.0
  C  C76  1  0.64009000  0.93270000  0.74299000  1.0
  C  C77  1  0.14009000  0.06730000  0.25701000  1.0
  C  C78  1  0.64010000  0.18971000  0.25701000  1.0
  C  C79  1  0.14009000  0.81029000  0.74299000  1.0
  C  C80  1  0.83736000  0.01578000  0.74346000  1.0
  C  C81  1  0.33736000  0.98422000  0.25655000  1.0
  C  C82  1  0.83736000  0.27233000  0.25655000  1.0
  C  C83  1  0.33736000  0.72767000  0.74345000  1.0
  C  C84  1  0.76904000  0.81548000  0.55993000  1.0
  C  C85  1  0.26904000  0.18452000  0.44007000  1.0
  C  C86  1  0.76904000  0.25556000  0.44008000  1.0
  C  C87  1  0.26904000  0.74444000  0.55992000  1.0
  C  C88  1  0.40363000  0.34579000  0.74869000  1.0
  C  C89  1  0.90363000  0.65421000  0.25132000  1.0
  C  C90  1  0.40363000  0.59710000  0.25132000  1.0
  C  C91  1  0.90362000  0.40290000  0.74868000  1.0
  C  C92  1  0.34055000  0.40080000  0.87908000  1.0
  C  C93  1  0.84055000  0.59920000  0.12092000  1.0
  C  C94  1  0.34055000  0.52172000  0.12092000  1.0
  C  C95  1  0.84055000  0.47828000  0.87908000  1.0
  C  C96  1  0.42275000  0.46433000  0.00000000  1.0
  C  C97  1  0.92275000  0.53567000  0.00000000  1.0
  C  C98  1  0.50786000  0.35919000  0.00000000  1.0
  C  C99  1  0.00786000  0.64081000  0.00000000  1.0
  N  N100  1  0.66929000  0.04822000  0.58229000  1.0
  N  N101  1  0.16929000  0.95178000  0.41771000  1.0
  N  N102  1  0.66929000  0.46593000  0.41771000  1.0
  N  N103  1  0.16929000  0.53407000  0.58229000  1.0
  N  N104  1  0.71284000  0.05356000  0.78774000  1.0
  N  N105  1  0.21284000  0.94644000  0.21226000  1.0
  N  N106  1  0.71284000  0.26582000  0.21226000  1.0
  N  N107  1  0.21284000  0.73417000  0.78774000  1.0
  N  N108  1  0.64353000  0.84985000  0.59966000  1.0
  N  N109  1  0.14353000  0.15015000  0.40034000  1.0
  N  N110  1  0.64353000  0.25019000  0.40034000  1.0
  N  N111  1  0.14353000  0.74981000  0.59966000  1.0
  N  N112  1  0.84235000  0.93388000  0.60094000  1.0
  N  N113  1  0.34235000  0.06612000  0.39905000  1.0
  N  N114  1  0.84235000  0.33293000  0.39906000  1.0
  N  N115  1  0.34235000  0.66707000  0.60094000  1.0
  O  O116  1  0.46731000  0.25839000  0.00000000  1.0
  O  O117  1  0.96731000  0.74161000  0.00000000  1.0
  O  O118  1  0.61826000  0.38510000  0.00000000  1.0
  O  O119  1  0.11826000  0.61490000  0.00000000  1.0
  O  O120  1  0.42440000  0.41913000  0.70028000  1.0
  O  O121  1  0.92440000  0.58087000  0.29972000  1.0
  O  O122  1  0.42440000  0.71885000  0.29972000  1.0
  O  O123  1  0.92440000  0.28115000  0.70028000  1.0
  O  O124  1  0.42968000  0.22190000  0.69192000  1.0
  O  O125  1  0.92969000  0.77810000  0.30808000  1.0
  O  O126  1  0.42969000  0.52998000  0.30808000  1.0
  O  O127  1  0.92968000  0.47002000  0.69192000  1.0
  O  O128  1  0.49111000  0.56693000  0.00000000  1.0
  O  O129  1  0.99111000  0.43307000  0.00000000  1.0
