# generated using pymatgen
data_AgH16C22N6O2F3
_symmetry_space_group_name_H-M   'P 1'
_cell_length_a   10.09630000
_cell_length_b   10.99260000
_cell_length_c   11.26600000
_cell_angle_alpha   64.35500000
_cell_angle_beta   77.28130000
_cell_angle_gamma   72.87020000
_symmetry_Int_Tables_number   1
_chemical_formula_structural   AgH16C22N6O2F3
_chemical_formula_sum   'Ag2 H32 C44 N12 O4 F6'
_cell_volume   1070.92896683
_cell_formula_units_Z   2
loop_
 _symmetry_equiv_pos_site_id
 _symmetry_equiv_pos_as_xyz
  1  'x, y, z'
loop_
 _atom_site_type_symbol
 _atom_site_label
 _atom_site_symmetry_multiplicity
 _atom_site_fract_x
 _atom_site_fract_y
 _atom_site_fract_z
 _atom_site_occupancy
  Ag  Ag0  1  0.51035000  0.40972000  0.16751000  1.0
  Ag  Ag1  1  0.48965000  0.59028000  0.83249000  1.0
  H  H2  1  0.05331000  0.04475000  0.68107000  1.0
  H  H3  1  0.94669000  0.95525000  0.31893000  1.0
  H  H4  1  0.11874000  0.36154000  0.26180000  1.0
  H  H5  1  0.88127000  0.63846000  0.73820000  1.0
  H  H6  1  0.00964000  0.25386000  0.38063000  1.0
  H  H7  1  0.99036000  0.74614000  0.61936000  1.0
  H  H8  1  0.83153000  0.35710000  0.54100000  1.0
  H  H9  1  0.16847000  0.64290000  0.45900000  1.0
  H  H10  1  0.18577000  0.52531000  0.31056000  1.0
  H  H11  1  0.81423000  0.47469000  0.68944000  1.0
  H  H12  1  0.08330000  0.62819000  0.09550000  1.0
  H  H13  1  0.91670000  0.37180000  0.90450000  1.0
  H  H14  1  0.19213000  0.91201000  0.35693000  1.0
  H  H15  1  0.80787000  0.08799000  0.64307000  1.0
  H  H16  1  0.61985000  0.70237000  0.94168000  1.0
  H  H17  1  0.38015000  0.29763000  0.05832000  1.0
  H  H18  1  0.77319000  0.86759000  0.81897000  1.0
  H  H19  1  0.22681000  0.13241000  0.18103000  1.0
  H  H20  1  0.99930000  0.83325000  0.89428000  1.0
  H  H21  1  0.00070000  0.16674000  0.10572000  1.0
  H  H22  1  0.32453000  0.00081000  0.78266000  1.0
  H  H23  1  0.67546000  0.99919000  0.21733000  1.0
  H  H24  1  0.47133000  0.43936000  0.45012000  1.0
  H  H25  1  0.52867000  0.56064000  0.54988000  1.0
  H  H26  1  0.30646000  0.89049000  0.64563000  1.0
  H  H27  1  0.69354000  0.10951000  0.35437000  1.0
  H  H28  1  0.35678000  0.89126000  0.48431000  1.0
  H  H29  1  0.64321000  0.10875000  0.51569000  1.0
  H  H30  1  0.38745000  0.15811000  0.85602000  1.0
  H  H31  1  0.61255000  0.84189000  0.14398000  1.0
  H  H32  1  0.46131000  0.37067000  0.69575000  1.0
  H  H33  1  0.53869000  0.62933000  0.30425000  1.0
  C  C34  1  0.89634000  0.55125000  0.12985000  1.0
  C  C35  1  0.10366000  0.44875000  0.87015000  1.0
  C  C36  1  0.03043000  0.02441000  0.60197000  1.0
  C  C37  1  0.96957000  0.97559000  0.39803000  1.0
  C  C38  1  0.01939000  0.36150000  0.32538000  1.0
  C  C39  1  0.98062000  0.63850000  0.67462000  1.0
  C  C40  1  0.76718000  0.57048000  0.08779000  1.0
  C  C41  1  0.23282000  0.42953000  0.91221000  1.0
  C  C42  1  0.13889000  0.97528000  0.52115000  1.0
  C  C43  1  0.86111000  0.02472000  0.47884000  1.0
  C  C44  1  0.35619000  0.13850000  0.57443000  1.0
  C  C45  1  0.64381000  0.86150000  0.42557000  1.0
  C  C46  1  0.90566000  0.41970000  0.52294000  1.0
  C  C47  1  0.09434000  0.58030000  0.47706000  1.0
  C  C48  1  0.32674000  0.72987000  0.03661000  1.0
  C  C49  1  0.67326000  0.27013000  0.96340000  1.0
  C  C50  1  0.01028000  0.43237000  0.41653000  1.0
  C  C51  1  0.98973000  0.56763000  0.58346000  1.0
  C  C52  1  0.10452000  0.51333000  0.39387000  1.0
  C  C53  1  0.89548000  0.48667000  0.60613000  1.0
  C  C54  1  0.98367000  0.64434000  0.06247000  1.0
  C  C55  1  0.01633000  0.35566000  0.93753000  1.0
  C  C56  1  0.10760000  0.95110000  0.41937000  1.0
  C  C57  1  0.89239000  0.04890000  0.58063000  1.0
  C  C58  1  0.71991000  0.68563000  0.97472000  1.0
  C  C59  1  0.28009000  0.31437000  0.02528000  1.0
  C  C60  1  0.80626000  0.77767000  0.90762000  1.0
  C  C61  1  0.19374000  0.22233000  0.09238000  1.0
  C  C62  1  0.93571000  0.75749000  0.95066000  1.0
  C  C63  1  0.06429000  0.24250000  0.04933000  1.0
  C  C64  1  0.39801000  0.26021000  0.48119000  1.0
  C  C65  1  0.60200000  0.73979000  0.51881000  1.0
  C  C66  1  0.35128000  0.09764000  0.71130000  1.0
  C  C67  1  0.64872000  0.90236000  0.28870000  1.0
  C  C68  1  0.24131000  0.85495000  0.07306000  1.0
  C  C69  1  0.75869000  0.14505000  0.92694000  1.0
  C  C70  1  0.43705000  0.34688000  0.52264000  1.0
  C  C71  1  0.56295000  0.65312000  0.47736000  1.0
  C  C72  1  0.28879000  0.95000000  0.54101000  1.0
  C  C73  1  0.71121000  0.05000000  0.45899000  1.0
  C  C74  1  0.38911000  0.18499000  0.75067000  1.0
  C  C75  1  0.61089000  0.81501000  0.24933000  1.0
  C  C76  1  0.43166000  0.30736000  0.65807000  1.0
  C  C77  1  0.56834000  0.69264000  0.34193000  1.0
  N  N78  1  0.90760000  0.42946000  0.23924000  1.0
  N  N79  1  0.09240000  0.57053000  0.76076000  1.0
  N  N80  1  0.70958000  0.46048000  0.17487000  1.0
  N  N81  1  0.29042000  0.53952000  0.82513000  1.0
  N  N82  1  0.33398000  0.07887000  0.49820000  1.0
  N  N83  1  0.66601000  0.92113000  0.50180000  1.0
  N  N84  1  0.39824000  0.26567000  0.35655000  1.0
  N  N85  1  0.60176000  0.73434000  0.64345000  1.0
  N  N86  1  0.79455000  0.37662000  0.26533000  1.0
  N  N87  1  0.20546000  0.62338000  0.73467000  1.0
  N  N88  1  0.35961000  0.15668000  0.36780000  1.0
  N  N89  1  0.64039000  0.84333000  0.63220000  1.0
  O  O90  1  0.32976000  0.61167000  0.12815000  1.0
  O  O91  1  0.67024000  0.38833000  0.87186000  1.0
  O  O92  1  0.38376000  0.76566000  0.91921000  1.0
  O  O93  1  0.61624000  0.23433000  0.08080000  1.0
  F  F94  1  0.32969000  0.92713000  0.07596000  1.0
  F  F95  1  0.67031000  0.07287000  0.92404000  1.0
  F  F96  1  0.15106000  0.94529000  0.98215000  1.0
  F  F97  1  0.84894000  0.05470000  0.01785000  1.0
  F  F98  1  0.16432000  0.81762000  0.19356000  1.0
  F  F99  1  0.83568000  0.18238000  0.80644000  1.0
