# generated using pymatgen
data_K2H8C4S9O
_symmetry_space_group_name_H-M   'P 1'
_cell_length_a   8.89131000
_cell_length_b   9.77691000
_cell_length_c   18.53160000
_cell_angle_alpha   90.00010000
_cell_angle_beta   90.00010000
_cell_angle_gamma   90.00000000
_symmetry_Int_Tables_number   1
_chemical_formula_structural   K2H8C4S9O
_chemical_formula_sum   'K8 H32 C16 S36 O4'
_cell_volume   1610.94341995
_cell_formula_units_Z   4
loop_
 _symmetry_equiv_pos_site_id
 _symmetry_equiv_pos_as_xyz
  1  'x, y, z'
loop_
 _atom_site_type_symbol
 _atom_site_label
 _atom_site_symmetry_multiplicity
 _atom_site_fract_x
 _atom_site_fract_y
 _atom_site_fract_z
 _atom_site_occupancy
  K  K0  1  0.27464000  0.43055000  0.25000000  1.0
  K  K1  1  0.72536000  0.56945000  0.75000000  1.0
  K  K2  1  0.22536000  0.43055000  0.75000000  1.0
  K  K3  1  0.77464000  0.56945000  0.25000000  1.0
  K  K4  1  0.25000000  0.49156000  0.50000000  1.0
  K  K5  1  0.75000000  0.50844000  0.00000000  1.0
  K  K6  1  0.75000000  0.50844000  0.50000000  1.0
  K  K7  1  0.25000000  0.49156000  0.00000000  1.0
  H  H8  1  0.13311000  0.18279000  0.35806000  1.0
  H  H9  1  0.86689000  0.81721000  0.85806000  1.0
  H  H10  1  0.36689000  0.18278000  0.64194000  1.0
  H  H11  1  0.63311000  0.81721000  0.14194000  1.0
  H  H12  1  0.86689000  0.81721000  0.64194000  1.0
  H  H13  1  0.13311000  0.18279000  0.14194000  1.0
  H  H14  1  0.63311000  0.81722000  0.35806000  1.0
  H  H15  1  0.36689000  0.18279000  0.85806000  1.0
  H  H16  1  0.14580000  0.01259000  0.32351000  1.0
  H  H17  1  0.85420000  0.98741000  0.82351000  1.0
  H  H18  1  0.35420000  0.01258000  0.67649000  1.0
  H  H19  1  0.64580000  0.98741000  0.17649000  1.0
  H  H20  1  0.85420000  0.98741000  0.67649000  1.0
  H  H21  1  0.14580000  0.01259000  0.17649000  1.0
  H  H22  1  0.64580000  0.98742000  0.32351000  1.0
  H  H23  1  0.35420000  0.01259000  0.82351000  1.0
  H  H24  1  0.88127000  0.20737000  0.31297000  1.0
  H  H25  1  0.11873000  0.79263000  0.81297000  1.0
  H  H26  1  0.61873000  0.20736000  0.68703000  1.0
  H  H27  1  0.38127000  0.79263000  0.18703000  1.0
  H  H28  1  0.11873000  0.79263000  0.68703000  1.0
  H  H29  1  0.88127000  0.20737000  0.18703000  1.0
  H  H30  1  0.38127000  0.79264000  0.31297000  1.0
  H  H31  1  0.61873000  0.20737000  0.81297000  1.0
  H  H32  1  0.88265000  0.02580000  0.31401000  1.0
  H  H33  1  0.11735000  0.97420000  0.81401000  1.0
  H  H34  1  0.61735000  0.02580000  0.68599000  1.0
  H  H35  1  0.38265000  0.97420000  0.18599000  1.0
  H  H36  1  0.11735000  0.97420000  0.68599000  1.0
  H  H37  1  0.88265000  0.02580000  0.18599000  1.0
  H  H38  1  0.38265000  0.97420000  0.31401000  1.0
  H  H39  1  0.61735000  0.02580000  0.81401000  1.0
  C  C40  1  0.10555000  0.11713000  0.31192000  1.0
  C  C41  1  0.89445000  0.88287000  0.81192000  1.0
  C  C42  1  0.39446000  0.11712000  0.68808000  1.0
  C  C43  1  0.60554000  0.88287000  0.18808000  1.0
  C  C44  1  0.89445000  0.88287000  0.68808000  1.0
  C  C45  1  0.10555000  0.11713000  0.18808000  1.0
  C  C46  1  0.60554000  0.88288000  0.31192000  1.0
  C  C47  1  0.39445000  0.11713000  0.81192000  1.0
  C  C48  1  0.93851000  0.11633000  0.29179000  1.0
  C  C49  1  0.06149000  0.88367000  0.79179000  1.0
  C  C50  1  0.56149000  0.11632000  0.70821000  1.0
  C  C51  1  0.43851000  0.88367000  0.20821000  1.0
  C  C52  1  0.06149000  0.88367000  0.70821000  1.0
  C  C53  1  0.93851000  0.11633000  0.20821000  1.0
  C  C54  1  0.43851000  0.88368000  0.29179000  1.0
  C  C55  1  0.56149000  0.11633000  0.79179000  1.0
  S  S56  1  0.50751000  0.52871000  0.37331000  1.0
  S  S57  1  0.49249000  0.47129000  0.87331000  1.0
  S  S58  1  0.99249000  0.52871000  0.62669000  1.0
  S  S59  1  0.00751000  0.47129000  0.12669000  1.0
  S  S60  1  0.49249000  0.47128000  0.62668000  1.0
  S  S61  1  0.50751000  0.52871000  0.12669000  1.0
  S  S62  1  0.00751000  0.47129000  0.37331000  1.0
  S  S63  1  0.99249000  0.52871000  0.87331000  1.0
  S  S64  1  0.55980000  0.32747000  0.35410000  1.0
  S  S65  1  0.44020000  0.67253000  0.85410000  1.0
  S  S66  1  0.94020000  0.32747000  0.64590000  1.0
  S  S67  1  0.05980000  0.67253000  0.14590000  1.0
  S  S68  1  0.44020000  0.67253000  0.64590000  1.0
  S  S69  1  0.55980000  0.32747000  0.14590000  1.0
  S  S70  1  0.05979000  0.67253000  0.35410000  1.0
  S  S71  1  0.94021000  0.32747000  0.85409000  1.0
  S  S72  1  0.44831000  0.20109000  0.42433000  1.0
  S  S73  1  0.55169000  0.79891000  0.92433000  1.0
  S  S74  1  0.05169000  0.20109000  0.57567000  1.0
  S  S75  1  0.94831000  0.79891000  0.07567000  1.0
  S  S76  1  0.55169000  0.79891000  0.57567000  1.0
  S  S77  1  0.44831000  0.20109000  0.07567000  1.0
  S  S78  1  0.94831000  0.79891000  0.42433000  1.0
  S  S79  1  0.05169000  0.20109000  0.92433000  1.0
  S  S80  1  0.57095000  0.18906000  0.52072000  1.0
  S  S81  1  0.42905000  0.81094000  0.02072000  1.0
  S  S82  1  0.92905000  0.18906000  0.47928000  1.0
  S  S83  1  0.07095000  0.81094000  0.97928000  1.0
  S  S84  1  0.42905000  0.81094000  0.47928000  1.0
  S  S85  1  0.57095000  0.18906000  0.97928000  1.0
  S  S86  1  0.07095000  0.81094000  0.52072000  1.0
  S  S87  1  0.92905000  0.18906000  0.02072000  1.0
  S  S88  1  0.75000000  0.06115000  0.50000000  1.0
  S  S89  1  0.25000000  0.93885000  0.00000000  1.0
  S  S90  1  0.25000000  0.93885000  0.50000000  1.0
  S  S91  1  0.75000000  0.06115000  0.00000000  1.0
  O  O92  1  0.18382000  0.17091000  0.25000000  1.0
  O  O93  1  0.81618000  0.82909000  0.75000000  1.0
  O  O94  1  0.31618000  0.17091000  0.75000000  1.0
  O  O95  1  0.68382000  0.82909000  0.25000000  1.0
