# generated using pymatgen
data_ZnH24C21(NO2)2
_symmetry_space_group_name_H-M   'P 1'
_cell_length_a   10.04630000
_cell_length_b   10.81710000
_cell_length_c   11.89760000
_cell_angle_alpha   98.74000000
_cell_angle_beta   90.45560000
_cell_angle_gamma   108.36070000
_symmetry_Int_Tables_number   1
_chemical_formula_structural   ZnH24C21(NO2)2
_chemical_formula_sum   'Zn2 H48 C42 N4 O8'
_cell_volume   1210.71562423
_cell_formula_units_Z   2
loop_
 _symmetry_equiv_pos_site_id
 _symmetry_equiv_pos_as_xyz
  1  'x, y, z'
loop_
 _atom_site_type_symbol
 _atom_site_label
 _atom_site_symmetry_multiplicity
 _atom_site_fract_x
 _atom_site_fract_y
 _atom_site_fract_z
 _atom_site_occupancy
  Zn  Zn0  1  0.29616000  0.08879000  0.50941000  1.0
  Zn  Zn1  1  0.70385000  0.91121000  0.49059000  1.0
  H  H2  1  0.99871000  0.30611000  0.42351000  1.0
  H  H3  1  0.00130000  0.69390000  0.57650000  1.0
  H  H4  1  0.10741000  0.34377000  0.23418000  1.0
  H  H5  1  0.89260000  0.65623000  0.76583000  1.0
  H  H6  1  0.05805000  0.47674000  0.30818000  1.0
  H  H7  1  0.94196000  0.52326000  0.69182000  1.0
  H  H8  1  0.35611000  0.45704000  0.29722000  1.0
  H  H9  1  0.64390000  0.54297000  0.70278000  1.0
  H  H10  1  0.29242000  0.56304000  0.23003000  1.0
  H  H11  1  0.70758000  0.43696000  0.76997000  1.0
  H  H12  1  0.25056000  0.67458000  0.42232000  1.0
  H  H13  1  0.74945000  0.32543000  0.57767000  1.0
  H  H14  1  0.38938000  0.49183000  0.51286000  1.0
  H  H15  1  0.61063000  0.50818000  0.48715000  1.0
  H  H16  1  0.34894000  0.62318000  0.59617000  1.0
  H  H17  1  0.65106000  0.37683000  0.40383000  1.0
  H  H18  1  0.09616000  0.51815000  0.54078000  1.0
  H  H19  1  0.90385000  0.48185000  0.45922000  1.0
  H  H20  1  0.16160000  0.40543000  0.59889000  1.0
  H  H21  1  0.83840000  0.59458000  0.40111000  1.0
  H  H22  1  0.33698000  0.85250000  0.59913000  1.0
  H  H23  1  0.66301000  0.14747000  0.40087000  1.0
  H  H24  1  0.26897000  0.74178000  0.76775000  1.0
  H  H25  1  0.73101000  0.25820000  0.23225000  1.0
  H  H26  1  0.05170000  0.02236000  0.87766000  1.0
  H  H27  1  0.94829000  0.97763000  0.12233000  1.0
  H  H28  1  0.13515000  0.12604000  0.70649000  1.0
  H  H29  1  0.86485000  0.87395000  0.29349000  1.0
  H  H30  1  0.04224000  0.85468000  0.42900000  1.0
  H  H31  1  0.95777000  0.14532000  0.57100000  1.0
  H  H32  1  0.96204000  0.68711000  0.25510000  1.0
  H  H33  1  0.03796000  0.31289000  0.74490000  1.0
  H  H34  1  0.37920000  0.83169000  0.13531000  1.0
  H  H35  1  0.62081000  0.16832000  0.86469000  1.0
  H  H36  1  0.44221000  0.99736000  0.31291000  1.0
  H  H37  1  0.55779000  0.00264000  0.68709000  1.0
  H  H38  1  0.14280000  0.89181000  0.01851000  1.0
  H  H39  1  0.85719000  0.10820000  0.98148000  1.0
  H  H40  1  0.99277000  0.77865000  0.94130000  1.0
  H  H41  1  0.00722000  0.22136000  0.05870000  1.0
  H  H42  1  0.27786000  0.73135000  0.96137000  1.0
  H  H43  1  0.72213000  0.26866000  0.03863000  1.0
  H  H44  1  0.12397000  0.61774000  0.88906000  1.0
  H  H45  1  0.87602000  0.38226000  0.11094000  1.0
  H  H46  1  0.99978000  0.60495000  0.06808000  1.0
  H  H47  1  0.00022000  0.39505000  0.93193000  1.0
  H  H48  1  0.15482000  0.56281000  0.07827000  1.0
  H  H49  1  0.84518000  0.43719000  0.92172000  1.0
  C  C50  1  0.11215000  0.35526000  0.41683000  1.0
  C  C51  1  0.88785000  0.64474000  0.58318000  1.0
  C  C52  1  0.13299000  0.42102000  0.30983000  1.0
  C  C53  1  0.86701000  0.57898000  0.69017000  1.0
  C  C54  1  0.28268000  0.51425000  0.30555000  1.0
  C  C55  1  0.71732000  0.48576000  0.69445000  1.0
  C  C56  1  0.32530000  0.61789000  0.41318000  1.0
  C  C57  1  0.67470000  0.38212000  0.58682000  1.0
  C  C58  1  0.31568000  0.54912000  0.51849000  1.0
  C  C59  1  0.68432000  0.45089000  0.48151000  1.0
  C  C60  1  0.16634000  0.45771000  0.52605000  1.0
  C  C61  1  0.83366000  0.54230000  0.47395000  1.0
  C  C62  1  0.17925000  0.24508000  0.41092000  1.0
  C  C63  1  0.82076000  0.75493000  0.58908000  1.0
  C  C64  1  0.47063000  0.71808000  0.41112000  1.0
  C  C65  1  0.52938000  0.28193000  0.58888000  1.0
  C  C66  1  0.27336000  0.88712000  0.66316000  1.0
  C  C67  1  0.72663000  0.11286000  0.33683000  1.0
  C  C68  1  0.23508000  0.82606000  0.75829000  1.0
  C  C69  1  0.76490000  0.17392000  0.24171000  1.0
  C  C70  1  0.15433000  0.87295000  0.83892000  1.0
  C  C71  1  0.84565000  0.12705000  0.16108000  1.0
  C  C72  1  0.11600000  0.98203000  0.81885000  1.0
  C  C73  1  0.88400000  0.01797000  0.18115000  1.0
  C  C74  1  0.15996000  0.03952000  0.72350000  1.0
  C  C75  1  0.84003000  0.96047000  0.27649000  1.0
  C  C76  1  0.11483000  0.84714000  0.36224000  1.0
  C  C77  1  0.88517000  0.15285000  0.63776000  1.0
  C  C78  1  0.07013000  0.75359000  0.26419000  1.0
  C  C79  1  0.92988000  0.24640000  0.73581000  1.0
  C  C80  1  0.16287000  0.74576000  0.17849000  1.0
  C  C81  1  0.83713000  0.25424000  0.82151000  1.0
  C  C82  1  0.30033000  0.83375000  0.19727000  1.0
  C  C83  1  0.69967000  0.16625000  0.80273000  1.0
  C  C84  1  0.33731000  0.92576000  0.29653000  1.0
  C  C85  1  0.66269000  0.07424000  0.70347000  1.0
  C  C86  1  0.10881000  0.81247000  0.94398000  1.0
  C  C87  1  0.89117000  0.18753000  0.05602000  1.0
  C  C88  1  0.16237000  0.69902000  0.96129000  1.0
  C  C89  1  0.83762000  0.30098000  0.03871000  1.0
  C  C90  1  0.11513000  0.64572000  0.07160000  1.0
  C  C91  1  0.88487000  0.35428000  0.92840000  1.0
  N  N92  1  0.23691000  0.99270000  0.64630000  1.0
  N  N93  1  0.76308000  0.00728000  0.35370000  1.0
  N  N94  1  0.24614000  0.93300000  0.37746000  1.0
  N  N95  1  0.75386000  0.06700000  0.62254000  1.0
  O  O96  1  0.16200000  0.18676000  0.50123000  1.0
  O  O97  1  0.83802000  0.81325000  0.49877000  1.0
  O  O98  1  0.24386000  0.21568000  0.32773000  1.0
  O  O99  1  0.75614000  0.78432000  0.67227000  1.0
  O  O100  1  0.55379000  0.70423000  0.33679000  1.0
  O  O101  1  0.44621000  0.29577000  0.66321000  1.0
  O  O102  1  0.50152000  0.81860000  0.49498000  1.0
  O  O103  1  0.49848000  0.18140000  0.50503000  1.0
