# generated using pymatgen
data_Zn4H36C48O13
_symmetry_space_group_name_H-M   'P 1'
_cell_length_a   21.47650000
_cell_length_b   23.70350000
_cell_length_c   24.80090000
_cell_angle_alpha   91.98160000
_cell_angle_beta   113.32900000
_cell_angle_gamma   116.56400000
_symmetry_Int_Tables_number   1
_chemical_formula_structural   Zn4H36C48O13
_chemical_formula_sum   'Zn8 H72 C96 O26'
_cell_volume   10019.05225090
_cell_formula_units_Z   2
loop_
 _symmetry_equiv_pos_site_id
 _symmetry_equiv_pos_as_xyz
  1  'x, y, z'
loop_
 _atom_site_type_symbol
 _atom_site_label
 _atom_site_symmetry_multiplicity
 _atom_site_fract_x
 _atom_site_fract_y
 _atom_site_fract_z
 _atom_site_occupancy
  Zn  Zn0  1  0.89625000  0.90334000  0.04022000  1.0
  Zn  Zn1  1  0.92576000  0.02969000  0.98893000  1.0
  Zn  Zn2  1  0.80142000  0.97595000  0.04079000  1.0
  Zn  Zn3  1  0.76340000  0.89651000  0.91355000  1.0
  Zn  Zn4  1  0.77235000  0.50211000  0.45831000  1.0
  Zn  Zn5  1  0.74168000  0.36874000  0.49267000  1.0
  Zn  Zn6  1  0.90336000  0.50104000  0.57963000  1.0
  Zn  Zn7  1  0.87256000  0.43992000  0.44749000  1.0
  H  H8  1  0.14156000  0.02626000  0.02500000  1.0
  H  H9  1  0.13918000  0.97073000  0.07181000  1.0
  H  H10  1  0.25480000  0.02033000  0.16308000  1.0
  H  H11  1  0.35734000  0.11282000  0.25315000  1.0
  H  H12  1  0.24716000  0.22577000  0.18240000  1.0
  H  H13  1  0.14727000  0.13447000  0.09103000  1.0
  H  H14  1  0.37194000  0.30689000  0.23253000  1.0
  H  H15  1  0.46732000  0.39821000  0.32500000  1.0
  H  H16  1  0.48140000  0.26176000  0.43247000  1.0
  H  H17  1  0.38331000  0.17007000  0.34075000  1.0
  H  H18  1  0.53426000  0.43578000  0.43633000  1.0
  H  H19  1  0.53380000  0.37866000  0.48138000  1.0
  H  H20  1  0.85166000  0.94319000  0.22216000  1.0
  H  H21  1  0.94728000  0.95961000  0.23756000  1.0
  H  H22  1  0.96340000  0.86015000  0.21331000  1.0
  H  H23  1  0.92984000  0.74980000  0.22837000  1.0
  H  H24  1  0.72306000  0.72781000  0.23524000  1.0
  H  H25  1  0.75832000  0.83908000  0.22216000  1.0
  H  H26  1  0.75691000  0.67286000  0.30342000  1.0
  H  H27  1  0.72606000  0.56445000  0.32233000  1.0
  H  H28  1  0.82104000  0.53290000  0.20835000  1.0
  H  H29  1  0.84870000  0.64015000  0.18696000  1.0
  H  H30  1  0.69066000  0.44091000  0.25715000  1.0
  H  H31  1  0.78041000  0.45406000  0.25986000  1.0
  H  H32  1  0.68596000  0.68339000  0.90070000  1.0
  H  H33  1  0.77609000  0.69189000  0.95614000  1.0
  H  H34  1  0.86198000  0.68179000  0.92348000  1.0
  H  H35  1  0.89948000  0.67128000  0.84307000  1.0
  H  H36  1  0.72619000  0.71404000  0.72279000  1.0
  H  H37  1  0.68753000  0.72270000  0.80284000  1.0
  H  H38  1  0.72359000  0.64557000  0.65379000  1.0
  H  H39  1  0.76608000  0.64575000  0.57463000  1.0
  H  H40  1  0.00473000  0.72874000  0.71308000  1.0
  H  H41  1  0.96296000  0.73099000  0.79234000  1.0
  H  H42  1  0.88889000  0.70827000  0.55387000  1.0
  H  H43  1  0.97838000  0.71620000  0.60970000  1.0
  H  H44  1  0.86516000  0.18702000  0.01102000  1.0
  H  H45  1  0.96270000  0.22081000  0.06730000  1.0
  H  H46  1  0.99399000  0.27890000  0.16243000  1.0
  H  H47  1  0.95854000  0.29867000  0.24157000  1.0
  H  H48  1  0.72424000  0.13666000  0.13411000  1.0
  H  H49  1  0.75884000  0.11913000  0.05419000  1.0
  H  H50  1  0.69643000  0.19431000  0.18263000  1.0
  H  H51  1  0.65919000  0.19641000  0.26456000  1.0
  H  H52  1  0.89690000  0.26451000  0.39808000  1.0
  H  H53  1  0.93371000  0.25989000  0.31632000  1.0
  H  H54  1  0.68771000  0.19678000  0.36930000  1.0
  H  H55  1  0.77957000  0.20940000  0.42230000  1.0
  H  H56  1  0.81330000  0.94948000  0.75931000  1.0
  H  H57  1  0.91608000  0.00294000  0.80497000  1.0
  H  H58  1  0.92637000  0.11622000  0.87127000  1.0
  H  H59  1  0.91262000  0.20990000  0.84164000  1.0
  H  H60  1  0.75479000  0.09383000  0.65692000  1.0
  H  H61  1  0.76853000  0.00002000  0.68674000  1.0
  H  H62  1  0.82631000  0.19869000  0.64444000  1.0
  H  H63  1  0.81099000  0.29148000  0.61469000  1.0
  H  H64  1  0.80954000  0.34130000  0.78265000  1.0
  H  H65  1  0.82169000  0.24670000  0.81127000  1.0
  H  H66  1  0.74011000  0.36979000  0.67094000  1.0
  H  H67  1  0.84082000  0.42409000  0.72131000  1.0
  H  H68  1  0.57785000  0.95687000  0.88300000  1.0
  H  H69  1  0.55605000  0.92597000  0.94100000  1.0
  H  H70  1  0.43938000  0.82704000  0.91175000  1.0
  H  H71  1  0.32347000  0.72752000  0.83445000  1.0
  H  H72  1  0.43064000  0.76328000  0.71534000  1.0
  H  H73  1  0.54511000  0.86375000  0.79203000  1.0
  H  H74  1  0.30368000  0.71900000  0.64576000  1.0
  H  H75  1  0.19339000  0.61791000  0.56712000  1.0
  H  H76  1  0.16174000  0.52272000  0.70632000  1.0
  H  H77  1  0.27434000  0.62265000  0.78520000  1.0
  H  H78  1  0.11800000  0.49570000  0.54435000  1.0
  H  H79  1  0.09921000  0.45812000  0.60102000  1.0
  C  C80  1  0.04916000  0.99561000  0.04873000  1.0
  C  C81  1  0.13297000  0.01371000  0.06486000  1.0
  C  C82  1  0.19380000  0.07080000  0.12037000  1.0
  C  C83  1  0.25323000  0.06567000  0.16703000  1.0
  C  C84  1  0.31075000  0.11770000  0.21815000  1.0
  C  C85  1  0.31028000  0.17658000  0.22487000  1.0
  C  C86  1  0.25028000  0.18127000  0.17791000  1.0
  C  C87  1  0.19346000  0.12969000  0.12648000  1.0
  C  C88  1  0.36970000  0.23137000  0.27960000  1.0
  C  C89  1  0.39449000  0.29646000  0.27647000  1.0
  C  C90  1  0.44854000  0.34800000  0.32851000  1.0
  C  C91  1  0.47987000  0.33625000  0.38534000  1.0
  C  C92  1  0.45653000  0.27159000  0.38865000  1.0
  C  C93  1  0.40225000  0.22008000  0.33675000  1.0
  C  C94  1  0.54026000  0.39243000  0.44117000  1.0
  C  C95  1  0.62298000  0.41019000  0.45343000  1.0
  C  C96  1  0.86744000  0.92893000  0.14386000  1.0
  C  C97  1  0.88412000  0.92550000  0.20901000  1.0
  C  C98  1  0.86375000  0.85774000  0.21739000  1.0
  C  C99  1  0.91082000  0.83126000  0.21843000  1.0
  C  C100  1  0.89126000  0.76873000  0.22613000  1.0
  C  C101  1  0.82402000  0.73036000  0.23312000  1.0
  C  C102  1  0.77658000  0.75690000  0.23130000  1.0
  C  C103  1  0.79618000  0.81953000  0.22357000  1.0
  C  C104  1  0.80503000  0.66498000  0.24362000  1.0
  C  C105  1  0.76967000  0.64184000  0.28129000  1.0
  C  C106  1  0.75277000  0.58089000  0.29247000  1.0
  C  C107  1  0.77160000  0.54088000  0.26698000  1.0
  C  C108  1  0.80662000  0.56352000  0.22922000  1.0
  C  C109  1  0.82273000  0.62432000  0.21747000  1.0
  C  C110  1  0.75456000  0.47452000  0.27894000  1.0
  C  C111  1  0.78477000  0.47648000  0.34615000  1.0
  C  C112  1  0.77936000  0.78186000  0.94254000  1.0
  C  C113  1  0.75002000  0.71009000  0.91850000  1.0
  C  C114  1  0.77144000  0.70213000  0.86859000  1.0
  C  C115  1  0.83167000  0.68844000  0.87921000  1.0
  C  C116  1  0.85332000  0.68316000  0.83399000  1.0
  C  C117  1  0.81579000  0.69195000  0.77672000  1.0
  C  C118  1  0.75522000  0.70557000  0.76638000  1.0
  C  C119  1  0.73337000  0.71053000  0.81141000  1.0
  C  C120  1  0.84014000  0.68877000  0.72920000  1.0
  C  C121  1  0.78565000  0.66490000  0.66714000  1.0
  C  C122  1  0.80952000  0.66472000  0.62250000  1.0
  C  C123  1  0.88868000  0.68817000  0.63827000  1.0
  C  C124  1  0.94293000  0.71069000  0.69993000  1.0
  C  C125  1  0.91918000  0.71124000  0.74462000  1.0
  C  C126  1  0.91416000  0.68764000  0.58955000  1.0
  C  C127  1  0.88769000  0.61807000  0.56048000  1.0
  C  C128  1  0.89373000  0.11678000  0.04385000  1.0
  C  C129  1  0.90215000  0.18414000  0.05573000  1.0
  C  C130  1  0.87921000  0.19746000  0.10263000  1.0
  C  C131  1  0.93436000  0.24774000  0.15592000  1.0
  C  C132  1  0.91450000  0.25859000  0.20087000  1.0
  C  C133  1  0.83868000  0.21880000  0.19425000  1.0
  C  C134  1  0.78311000  0.16922000  0.14003000  1.0
  C  C135  1  0.80274000  0.15902000  0.09498000  1.0
  C  C136  1  0.81775000  0.22601000  0.24309000  1.0
  C  C137  1  0.74065000  0.20897000  0.22983000  1.0
  C  C138  1  0.71972000  0.21050000  0.27612000  1.0
  C  C139  1  0.77502000  0.22941000  0.33723000  1.0
  C  C140  1  0.85258000  0.24866000  0.35073000  1.0
  C  C141  1  0.87356000  0.24692000  0.30461000  1.0
  C  C142  1  0.75110000  0.22879000  0.38666000  1.0
  C  C143  1  0.77295000  0.29548000  0.41954000  1.0
  C  C144  1  0.85086000  0.97957000  0.85448000  1.0
  C  C145  1  0.85753000  0.99319000  0.79706000  1.0
  C  C146  1  0.84854000  0.05127000  0.78107000  1.0
  C  C147  1  0.88838000  0.11095000  0.82425000  1.0
  C  C148  1  0.88007000  0.16360000  0.80751000  1.0
  C  C149  1  0.83259000  0.15900000  0.74714000  1.0
  C  C150  1  0.79313000  0.09925000  0.70400000  1.0
  C  C151  1  0.80066000  0.04627000  0.72089000  1.0
  C  C152  1  0.82474000  0.21534000  0.72986000  1.0
  C  C153  1  0.82148000  0.22934000  0.67463000  1.0
  C  C154  1  0.81396000  0.28248000  0.65817000  1.0
  C  C155  1  0.80961000  0.32368000  0.69663000  1.0
  C  C156  1  0.81324000  0.31003000  0.75205000  1.0
  C  C157  1  0.82059000  0.25694000  0.76843000  1.0
  C  C158  1  0.80031000  0.38186000  0.68158000  1.0
  C  C159  1  0.81216000  0.40191000  0.62749000  1.0
  C  C160  1  0.64739000  0.91852000  0.93262000  1.0
  C  C161  1  0.56829000  0.91545000  0.90410000  1.0
  C  C162  1  0.50011000  0.85314000  0.85721000  1.0
  C  C163  1  0.43747000  0.81315000  0.86845000  1.0
  C  C164  1  0.37228000  0.75662000  0.82497000  1.0
  C  C165  1  0.36763000  0.73780000  0.76856000  1.0
  C  C166  1  0.43145000  0.77756000  0.75800000  1.0
  C  C167  1  0.49626000  0.83419000  0.80127000  1.0
  C  C168  1  0.29850000  0.67839000  0.72164000  1.0
  C  C169  1  0.27370000  0.67571000  0.65946000  1.0
  C  C170  1  0.21109000  0.61886000  0.61510000  1.0
  C  C171  1  0.17056000  0.56267000  0.63111000  1.0
  C  C172  1  0.19316000  0.56569000  0.69288000  1.0
  C  C173  1  0.25614000  0.62240000  0.73736000  1.0
  C  C174  1  0.10533000  0.50077000  0.58238000  1.0
  C  C175  1  0.02476000  0.49491000  0.55651000  1.0
  O  O176  1  0.84608000  0.95077000  0.99561000  1.0
  O  O177  1  0.02939000  0.03753000  0.03067000  1.0
  O  O178  1  0.00563000  0.94043000  0.05423000  1.0
  O  O179  1  0.63967000  0.36491000  0.46094000  1.0
  O  O180  1  0.66826000  0.46853000  0.45487000  1.0
  O  O181  1  0.82130000  0.95040000  0.11749000  1.0
  O  O182  1  0.90148000  0.91061000  0.12147000  1.0
  O  O183  1  0.84169000  0.46584000  0.37081000  1.0
  O  O184  1  0.75000000  0.48855000  0.37246000  1.0
  O  O185  1  0.74217000  0.80629000  0.90755000  1.0
  O  O186  1  0.83899000  0.81140000  0.99462000  1.0
  O  O187  1  0.92115000  0.59039000  0.59387000  1.0
  O  O188  1  0.83331000  0.59328000  0.50567000  1.0
  O  O189  1  0.85057000  0.07227000  0.06067000  1.0
  O  O190  1  0.93036000  0.11083000  0.01605000  1.0
  O  O191  1  0.83162000  0.34522000  0.42103000  1.0
  O  O192  1  0.73035000  0.29472000  0.44406000  1.0
  O  O193  1  0.78940000  0.92888000  0.84872000  1.0
  O  O194  1  0.90807000  0.02070000  0.90414000  1.0
  O  O195  1  0.87022000  0.45786000  0.63771000  1.0
  O  O196  1  0.76209000  0.36088000  0.57594000  1.0
  O  O197  1  0.66601000  0.89683000  0.89739000  1.0
  O  O198  1  0.68943000  0.94497000  0.98965000  1.0
  O  O199  1  0.00256000  0.50497000  0.59460000  1.0
  O  O200  1  0.98587000  0.47891000  0.49863000  1.0
  O  O201  1  0.82371000  0.45285000  0.49531000  1.0
