# generated using pymatgen
data_EuH19C21NO8
_symmetry_space_group_name_H-M   'P 1'
_cell_length_a   12.18340000
_cell_length_b   12.18210000
_cell_length_c   18.32760000
_cell_angle_alpha   107.49900000
_cell_angle_beta   102.56900000
_cell_angle_gamma   102.72700000
_symmetry_Int_Tables_number   1
_chemical_formula_structural   EuH19C21NO8
_chemical_formula_sum   'Eu4 H76 C84 N4 O32'
_cell_volume   2409.86879318
_cell_formula_units_Z   4
loop_
 _symmetry_equiv_pos_site_id
 _symmetry_equiv_pos_as_xyz
  1  'x, y, z'
loop_
 _atom_site_type_symbol
 _atom_site_label
 _atom_site_symmetry_multiplicity
 _atom_site_fract_x
 _atom_site_fract_y
 _atom_site_fract_z
 _atom_site_occupancy
  Eu  Eu0  1  0.15988000  0.58799000  0.98909000  1.0
  Eu  Eu1  1  0.59889000  0.67081000  0.51090000  1.0
  Eu  Eu2  1  0.84012000  0.41201000  0.01091000  1.0
  Eu  Eu3  1  0.40112000  0.32919000  0.48910000  1.0
  H  H4  1  0.00176000  0.62139000  0.85019000  1.0
  H  H5  1  0.77123000  0.65160000  0.64978000  1.0
  H  H6  1  0.99824000  0.37861000  0.14981000  1.0
  H  H7  1  0.22877000  0.34840000  0.35022000  1.0
  H  H8  1  0.90791000  0.55846000  0.88759000  1.0
  H  H9  1  0.67087000  0.52035000  0.61243000  1.0
  H  H10  1  0.09209000  0.44154000  0.11241000  1.0
  H  H11  1  0.32913000  0.47966000  0.38758000  1.0
  H  H12  1  0.27566000  0.43896000  0.21289000  1.0
  H  H13  1  0.22606000  0.56276000  0.28710000  1.0
  H  H14  1  0.72434000  0.56104000  0.78711000  1.0
  H  H15  1  0.77394000  0.43724000  0.71290000  1.0
  H  H16  1  0.40661000  0.35963000  0.29362000  1.0
  H  H17  1  0.06600000  0.61300000  0.20637000  1.0
  H  H18  1  0.59339000  0.64037000  0.70638000  1.0
  H  H19  1  0.93400000  0.38700000  0.79363000  1.0
  H  H20  1  0.61202000  0.33528000  0.12905000  1.0
  H  H21  1  0.20625000  0.98302000  0.37095000  1.0
  H  H22  1  0.38798000  0.66472000  0.87095000  1.0
  H  H23  1  0.79375000  0.01698000  0.62905000  1.0
  H  H24  1  0.47570000  0.40625000  0.04539000  1.0
  H  H25  1  0.36086000  0.93034000  0.45461000  1.0
  H  H26  1  0.52430000  0.59375000  0.95461000  1.0
  H  H27  1  0.63914000  0.06966000  0.54539000  1.0
  H  H28  1  0.60061000  0.16144000  0.15807000  1.0
  H  H29  1  0.00338000  0.94255000  0.34193000  1.0
  H  H30  1  0.39939000  0.83856000  0.84193000  1.0
  H  H31  1  0.99662000  0.05745000  0.65807000  1.0
  H  H32  1  0.71938000  0.06594000  0.23001000  1.0
  H  H33  1  0.83593000  0.98937000  0.26999000  1.0
  H  H34  1  0.28062000  0.93406000  0.76998000  1.0
  H  H35  1  0.16407000  0.01063000  0.73001000  1.0
  H  H36  1  0.78220000  0.14190000  0.38078000  1.0
  H  H37  1  0.76112000  0.90142000  0.11923000  1.0
  H  H38  1  0.21780000  0.85809000  0.61922000  1.0
  H  H39  1  0.23888000  0.09858000  0.88077000  1.0
  H  H40  1  0.72511000  0.31560000  0.45583000  1.0
  H  H41  1  0.85976000  0.76929000  0.04417000  1.0
  H  H42  1  0.27489000  0.68440000  0.54417000  1.0
  H  H43  1  0.14024000  0.23071000  0.95583000  1.0
  H  H44  1  0.30418000  0.41387000  0.88182000  1.0
  H  H45  1  0.53203000  0.92236000  0.61818000  1.0
  H  H46  1  0.69582000  0.58612000  0.11818000  1.0
  H  H47  1  0.46797000  0.07764000  0.38182000  1.0
  H  H48  1  0.37288000  0.30683000  0.79804000  1.0
  H  H49  1  0.50879000  0.07485000  0.70197000  1.0
  H  H50  1  0.62713000  0.69317000  0.20196000  1.0
  H  H51  1  0.49121000  0.92515000  0.29803000  1.0
  H  H52  1  0.38078000  0.36153000  0.71802000  1.0
  H  H53  1  0.64348000  0.16277000  0.78199000  1.0
  H  H54  1  0.61922000  0.63847000  0.28198000  1.0
  H  H55  1  0.35652000  0.83723000  0.21801000  1.0
  H  H56  1  0.27517000  0.22088000  0.69823000  1.0
  H  H57  1  0.52264000  0.07692000  0.80176000  1.0
  H  H58  1  0.72484000  0.77911000  0.30177000  1.0
  H  H59  1  0.47736000  0.92307000  0.19823000  1.0
  H  H60  1  0.10482000  0.44415000  0.71750000  1.0
  H  H61  1  0.72662000  0.88730000  0.78249000  1.0
  H  H62  1  0.89517000  0.55584000  0.28250000  1.0
  H  H63  1  0.27338000  0.11271000  0.21751000  1.0
  H  H64  1  0.09200000  0.29387000  0.65571000  1.0
  H  H65  1  0.63816000  0.93629000  0.84429000  1.0
  H  H66  1  0.90800000  0.70613000  0.34429000  1.0
  H  H67  1  0.36184000  0.06371000  0.15571000  1.0
  H  H68  1  0.20392000  0.41927000  0.65831000  1.0
  H  H69  1  0.76096000  0.04559000  0.84168000  1.0
  H  H70  1  0.79608000  0.58073000  0.34169000  1.0
  H  H71  1  0.23904000  0.95441000  0.15832000  1.0
  H  H72  1  0.28438000  0.96757000  0.94728000  1.0
  H  H73  1  0.02028000  0.83708000  0.55273000  1.0
  H  H74  1  0.71562000  0.03243000  0.05273000  1.0
  H  H75  1  0.97972000  0.16292000  0.44728000  1.0
  H  H76  1  0.56555000  0.85079000  0.05201000  1.0
  H  H77  1  0.79882000  0.01358000  0.44800000  1.0
  H  H78  1  0.43445000  0.14921000  0.94800000  1.0
  H  H79  1  0.20118000  0.98643000  0.55200000  1.0
  C  C80  1  0.28840000  0.47494000  0.07615000  1.0
  C  C81  1  0.39876000  0.71224000  0.42384000  1.0
  C  C82  1  0.71160000  0.52506000  0.92385000  1.0
  C  C83  1  0.60124000  0.28776000  0.57616000  1.0
  C  C84  1  0.36687000  0.42735000  0.12416000  1.0
  C  C85  1  0.30319000  0.74272000  0.37584000  1.0
  C  C86  1  0.63313000  0.57265000  0.87584000  1.0
  C  C87  1  0.69681000  0.25728000  0.62416000  1.0
  C  C88  1  0.34899000  0.41493000  0.19460000  1.0
  C  C89  1  0.22032000  0.65440000  0.30540000  1.0
  C  C90  1  0.65100000  0.58507000  0.80540000  1.0
  C  C91  1  0.77968000  0.34560000  0.69460000  1.0
  C  C92  1  0.42356000  0.37281000  0.24043000  1.0
  C  C93  1  0.13238000  0.68314000  0.25956000  1.0
  C  C94  1  0.57644000  0.62719000  0.75957000  1.0
  C  C95  1  0.86762000  0.31686000  0.74044000  1.0
  C  C96  1  0.51955000  0.34396000  0.21763000  1.0
  C  C97  1  0.12634000  0.80195000  0.28237000  1.0
  C  C98  1  0.48045000  0.65604000  0.78237000  1.0
  C  C99  1  0.87366000  0.19805000  0.71763000  1.0
  C  C100  1  0.53691000  0.35598000  0.14667000  1.0
  C  C101  1  0.20931000  0.89028000  0.35333000  1.0
  C  C102  1  0.46309000  0.64402000  0.85333000  1.0
  C  C103  1  0.79069000  0.10972000  0.64667000  1.0
  C  C104  1  0.46127000  0.39644000  0.10006000  1.0
  C  C105  1  0.29637000  0.86123000  0.39993000  1.0
  C  C106  1  0.53873000  0.60356000  0.89994000  1.0
  C  C107  1  0.70363000  0.13878000  0.60007000  1.0
  C  C108  1  0.59685000  0.29543000  0.26473000  1.0
  C  C109  1  0.03071000  0.83215000  0.23527000  1.0
  C  C110  1  0.40315000  0.70457000  0.73527000  1.0
  C  C111  1  0.96929000  0.16785000  0.76473000  1.0
  C  C112  1  0.63005000  0.19723000  0.22347000  1.0
  C  C113  1  0.97377000  0.90660000  0.27653000  1.0
  C  C114  1  0.36995000  0.80277000  0.77653000  1.0
  C  C115  1  0.02623000  0.09340000  0.72347000  1.0
  C  C116  1  0.69644000  0.14259000  0.26436000  1.0
  C  C117  1  0.87824000  0.93209000  0.23565000  1.0
  C  C118  1  0.30356000  0.85741000  0.73564000  1.0
  C  C119  1  0.12176000  0.06791000  0.76435000  1.0
  C  C120  1  0.73077000  0.18455000  0.34813000  1.0
  C  C121  1  0.83642000  0.88264000  0.15187000  1.0
  C  C122  1  0.26923000  0.81545000  0.65187000  1.0
  C  C123  1  0.16358000  0.11736000  0.84813000  1.0
  C  C124  1  0.69858000  0.28189000  0.39041000  1.0
  C  C125  1  0.89148000  0.80819000  0.10959000  1.0
  C  C126  1  0.30142000  0.71811000  0.60959000  1.0
  C  C127  1  0.10852000  0.19181000  0.89041000  1.0
  C  C128  1  0.63308000  0.33838000  0.34953000  1.0
  C  C129  1  0.98886000  0.78357000  0.15047000  1.0
  C  C130  1  0.36692000  0.66162000  0.65047000  1.0
  C  C131  1  0.01114000  0.21642000  0.84953000  1.0
  C  C132  1  0.61068000  0.44837000  0.39946000  1.0
  C  C133  1  0.04890000  0.71125000  0.10053000  1.0
  C  C134  1  0.38932000  0.55163000  0.60054000  1.0
  C  C135  1  0.95110000  0.28875000  0.89947000  1.0
  C  C136  1  0.23881000  0.42813000  0.83664000  1.0
  C  C137  1  0.59149000  0.90219000  0.66335000  1.0
  C  C138  1  0.76118000  0.57186000  0.16336000  1.0
  C  C139  1  0.40851000  0.09781000  0.33664000  1.0
  C  C140  1  0.32140000  0.31247000  0.74294000  1.0
  C  C141  1  0.56952000  0.07846000  0.75707000  1.0
  C  C142  1  0.67860000  0.68752000  0.25706000  1.0
  C  C143  1  0.43047000  0.92154000  0.24293000  1.0
  C  C144  1  0.15394000  0.38411000  0.69389000  1.0
  C  C145  1  0.69021000  0.96004000  0.80611000  1.0
  C  C146  1  0.84606000  0.61589000  0.30611000  1.0
  C  C147  1  0.30979000  0.03996000  0.19389000  1.0
  C  C148  1  0.32870000  0.79115000  0.99685000  1.0
  C  C149  1  0.79430000  0.83186000  0.50315000  1.0
  C  C150  1  0.67130000  0.20886000  0.00315000  1.0
  C  C151  1  0.20570000  0.16814000  0.49685000  1.0
  C  C152  1  0.41737000  0.90040000  0.00011000  1.0
  C  C153  1  0.90030000  0.91727000  0.49990000  1.0
  C  C154  1  0.58263000  0.09960000  0.99990000  1.0
  C  C155  1  0.09970000  0.08273000  0.50010000  1.0
  C  C156  1  0.37917000  0.98355000  0.97043000  1.0
  C  C157  1  0.01311000  0.90873000  0.52957000  1.0
  C  C158  1  0.62083000  0.01645000  0.02958000  1.0
  C  C159  1  0.98689000  0.09127000  0.47043000  1.0
  C  C160  1  0.53848000  0.91730000  0.02976000  1.0
  C  C161  1  0.88755000  0.00873000  0.47024000  1.0
  C  C162  1  0.46153000  0.08271000  0.97024000  1.0
  C  C163  1  0.11245000  0.99127000  0.52976000  1.0
  N  N164  1  0.23602000  0.37519000  0.76111000  1.0
  N  N165  1  0.61406000  0.97490000  0.73888000  1.0
  N  N166  1  0.76398000  0.62481000  0.23889000  1.0
  N  N167  1  0.38594000  0.02510000  0.26112000  1.0
  O  O168  1  0.29583000  0.47150000  0.00746000  1.0
  O  O169  1  0.46400000  0.78835000  0.49254000  1.0
  O  O170  1  0.70417000  0.52850000  0.99254000  1.0
  O  O171  1  0.53600000  0.21165000  0.50745000  1.0
  O  O172  1  0.21419000  0.52173000  0.10498000  1.0
  O  O173  1  0.41673000  0.60920000  0.39500000  1.0
  O  O174  1  0.78581000  0.47827000  0.89502000  1.0
  O  O175  1  0.58327000  0.39080000  0.60500000  1.0
  O  O176  1  0.65345000  0.55022000  0.39584000  1.0
  O  O177  1  0.15435000  0.75766000  0.10412000  1.0
  O  O178  1  0.34655000  0.44978000  0.60416000  1.0
  O  O179  1  0.84565000  0.24234000  0.89587000  1.0
  O  O180  1  0.55257000  0.43923000  0.44943000  1.0
  O  O181  1  0.98981000  0.60315000  0.05057000  1.0
  O  O182  1  0.44743000  0.56077000  0.55057000  1.0
  O  O183  1  0.01019000  0.39685000  0.94942000  1.0
  O  O184  1  0.17316000  0.49090000  0.85746000  1.0
  O  O185  1  0.63348000  0.81573000  0.64253000  1.0
  O  O186  1  0.82684000  0.50909000  0.14254000  1.0
  O  O187  1  0.36652000  0.18427000  0.35747000  1.0
  O  O188  1  0.36137000  0.72714000  0.03620000  1.0
  O  O189  1  0.69096000  0.82523000  0.46382000  1.0
  O  O190  1  0.63863000  0.27286000  0.96380000  1.0
  O  O191  1  0.30904000  0.17477000  0.53618000  1.0
  O  O192  1  0.22191000  0.76270000  0.95306000  1.0
  O  O193  1  0.80963000  0.76883000  0.54692000  1.0
  O  O194  1  0.77809000  0.23730000  0.04694000  1.0
  O  O195  1  0.19037000  0.23118000  0.45308000  1.0
  O  O196  1  0.99145000  0.60686000  0.89782000  1.0
  O  O197  1  0.70901000  0.59365000  0.60217000  1.0
  O  O198  1  0.00855000  0.39314000  0.10218000  1.0
  O  O199  1  0.29099000  0.40635000  0.39783000  1.0
