# generated using pymatgen
data_Yb2H36C51(NO5)3
_symmetry_space_group_name_H-M   'P 1'
_cell_length_a   14.04500000
_cell_length_b   15.03550000
_cell_length_c   21.86420000
_cell_angle_alpha   90.00010000
_cell_angle_beta   90.00010000
_cell_angle_gamma   75.45100000
_symmetry_Int_Tables_number   1
_chemical_formula_structural   Yb2H36C51(NO5)3
_chemical_formula_sum   'Yb8 H144 C204 N12 O60'
_cell_volume   4469.08461731
_cell_formula_units_Z   4
loop_
 _symmetry_equiv_pos_site_id
 _symmetry_equiv_pos_as_xyz
  1  'x, y, z'
loop_
 _atom_site_type_symbol
 _atom_site_label
 _atom_site_symmetry_multiplicity
 _atom_site_fract_x
 _atom_site_fract_y
 _atom_site_fract_z
 _atom_site_occupancy
  Yb  Yb0  1  0.48818000  0.93741000  0.27750000  1.0
  Yb  Yb1  1  0.01182000  0.56259000  0.77750000  1.0
  Yb  Yb2  1  0.51182000  0.06259000  0.72250000  1.0
  Yb  Yb3  1  0.98818000  0.43741000  0.22250000  1.0
  Yb  Yb4  1  0.31367000  0.32352000  0.25646000  1.0
  Yb  Yb5  1  0.18633000  0.17648000  0.75646000  1.0
  Yb  Yb6  1  0.68633000  0.67648000  0.74354000  1.0
  Yb  Yb7  1  0.81367000  0.82352000  0.24354000  1.0
  H  H8  1  0.22822000  0.80905000  0.20984000  1.0
  H  H9  1  0.27178000  0.69095000  0.70984000  1.0
  H  H10  1  0.77178000  0.19095000  0.79016000  1.0
  H  H11  1  0.72822000  0.30905000  0.29016000  1.0
  H  H12  1  0.12702000  0.69551000  0.20369000  1.0
  H  H13  1  0.37298000  0.80449000  0.70369000  1.0
  H  H14  1  0.87298000  0.30449000  0.79631000  1.0
  H  H15  1  0.62702000  0.19551000  0.29631000  1.0
  H  H16  1  0.42437000  0.72678000  0.39076000  1.0
  H  H17  1  0.07563000  0.77322000  0.89076000  1.0
  H  H18  1  0.57563000  0.27322000  0.60924000  1.0
  H  H19  1  0.92437000  0.22678000  0.10924000  1.0
  H  H20  1  0.44286000  0.60356000  0.46822000  1.0
  H  H21  1  0.05714000  0.89644000  0.96822000  1.0
  H  H22  1  0.55714000  0.39644000  0.53178000  1.0
  H  H23  1  0.94286000  0.10356000  0.03178000  1.0
  H  H24  1  0.34512000  0.48612000  0.45923000  1.0
  H  H25  1  0.15488000  0.01388000  0.95923000  1.0
  H  H26  1  0.65488000  0.51388000  0.54077000  1.0
  H  H27  1  0.84513000  0.98612000  0.04077000  1.0
  H  H28  1  0.23469000  0.48933000  0.37176000  1.0
  H  H29  1  0.26531000  0.01067000  0.87176000  1.0
  H  H30  1  0.76531000  0.51067000  0.62824000  1.0
  H  H31  1  0.73470000  0.98933000  0.12824000  1.0
  H  H32  1  0.55102000  0.74598000  0.54316000  1.0
  H  H33  1  0.94899000  0.75402000  0.04316000  1.0
  H  H34  1  0.44898000  0.25402000  0.45684000  1.0
  H  H35  1  0.05102000  0.24598000  0.95684000  1.0
  H  H36  1  0.55110000  0.79162000  0.43293000  1.0
  H  H37  1  0.94890000  0.70838000  0.93293000  1.0
  H  H38  1  0.44890000  0.20838000  0.56707000  1.0
  H  H39  1  0.05110000  0.29162000  0.06707000  1.0
  H  H40  1  0.83301000  0.82266000  0.62923000  1.0
  H  H41  1  0.66700000  0.67734000  0.12923000  1.0
  H  H42  1  0.16700000  0.17734000  0.37077000  1.0
  H  H43  1  0.33300000  0.32266000  0.87077000  1.0
  H  H44  1  0.96388000  0.89057000  0.58954000  1.0
  H  H45  1  0.53612000  0.60943000  0.08954000  1.0
  H  H46  1  0.03612000  0.10943000  0.41046000  1.0
  H  H47  1  0.46388000  0.39056000  0.91046000  1.0
  H  H48  1  0.96913000  0.92788000  0.47849000  1.0
  H  H49  1  0.53087000  0.57212000  0.97849000  1.0
  H  H50  1  0.03087000  0.07212000  0.52151000  1.0
  H  H51  1  0.46913000  0.42788000  0.02151000  1.0
  H  H52  1  0.84454000  0.89759000  0.40780000  1.0
  H  H53  1  0.65546000  0.60241000  0.90780000  1.0
  H  H54  1  0.15546000  0.10241000  0.59221000  1.0
  H  H55  1  0.34454000  0.39759000  0.09221000  1.0
  H  H56  1  0.41407000  0.56905000  0.18643000  1.0
  H  H57  1  0.08593000  0.93095000  0.68643000  1.0
  H  H58  1  0.58593000  0.43095000  0.81357000  1.0
  H  H59  1  0.91407000  0.06905000  0.31357000  1.0
  H  H60  1  0.49472000  0.70004000  0.18503000  1.0
  H  H61  1  0.00528000  0.79996000  0.68503000  1.0
  H  H62  1  0.50528000  0.29996000  0.81497000  1.0
  H  H63  1  0.99472000  0.20004000  0.31497000  1.0
  H  H64  1  0.55092000  0.38802000  0.36038000  1.0
  H  H65  1  0.94908000  0.11198000  0.86038000  1.0
  H  H66  1  0.44908000  0.61198000  0.63962000  1.0
  H  H67  1  0.05092000  0.88802000  0.13962000  1.0
  H  H68  1  0.67372000  0.39913000  0.43953000  1.0
  H  H69  1  0.82627000  0.10087000  0.93953000  1.0
  H  H70  1  0.32628000  0.60087000  0.56047000  1.0
  H  H71  1  0.17372000  0.89913000  0.06047000  1.0
  H  H72  1  0.75414000  0.52959000  0.43785000  1.0
  H  H73  1  0.74586000  0.97041000  0.93785000  1.0
  H  H74  1  0.24586000  0.47041000  0.56215000  1.0
  H  H75  1  0.25414000  0.02959000  0.06215000  1.0
  H  H76  1  0.71612000  0.64499000  0.35549000  1.0
  H  H77  1  0.78388000  0.85501000  0.85549000  1.0
  H  H78  1  0.28388000  0.35501000  0.64451000  1.0
  H  H79  1  0.21612000  0.14499000  0.14451000  1.0
  H  H80  1  0.40628000  0.09643000  0.16660000  1.0
  H  H81  1  0.09372000  0.40357000  0.66660000  1.0
  H  H82  1  0.59372000  0.90357000  0.83340000  1.0
  H  H83  1  0.90628000  0.59643000  0.33333333  1.0
  H  H84  1  0.40877000  0.12912000  0.05746000  1.0
  H  H85  1  0.09122000  0.37088000  0.55746000  1.0
  H  H86  1  0.59123000  0.87088000  0.94254000  1.0
  H  H87  1  0.90877000  0.62912000  0.44254000  1.0
  H  H88  1  0.57865000  0.84733000  0.03244000  1.0
  H  H89  1  0.92135000  0.65267000  0.53244000  1.0
  H  H90  1  0.42135000  0.15267000  0.96756000  1.0
  H  H91  1  0.07864000  0.34733000  0.46756000  1.0
  H  H92  1  0.56609000  0.82731000  0.14281000  1.0
  H  H93  1  0.93391000  0.67269000  0.64281000  1.0
  H  H94  1  0.43391000  0.17269000  0.85719000  1.0
  H  H95  1  0.06609000  0.32731000  0.35719000  1.0
  H  H96  1  0.29711000  0.09972000  0.25667000  1.0
  H  H97  1  0.20289000  0.40028000  0.75667000  1.0
  H  H98  1  0.70289000  0.90028000  0.74333000  1.0
  H  H99  1  0.79711000  0.59972000  0.24333000  1.0
  H  H100  1  0.30326000  0.99731000  0.23355000  1.0
  H  H101  1  0.19674000  0.50269000  0.73355000  1.0
  H  H102  1  0.69674000  0.00269000  0.76645000  1.0
  H  H103  1  0.80326000  0.49731000  0.26645000  1.0
  H  H104  1  0.51244000  0.03308000  0.38872000  1.0
  H  H105  1  0.98756000  0.46692000  0.88872000  1.0
  H  H106  1  0.48756000  0.96692000  0.61128000  1.0
  H  H107  1  0.01244000  0.53308000  0.11128000  1.0
  H  H108  1  0.42677000  0.10097000  0.35179000  1.0
  H  H109  1  0.07323000  0.39903000  0.85179000  1.0
  H  H110  1  0.57323000  0.89903000  0.64821000  1.0
  H  H111  1  0.92677000  0.60097000  0.14821000  1.0
  H  H112  1  0.48317000  0.24054000  0.17547000  1.0
  H  H113  1  0.01682000  0.25946000  0.67547000  1.0
  H  H114  1  0.51682000  0.75946000  0.82453000  1.0
  H  H115  1  0.98318000  0.74054000  0.32453000  1.0
  H  H116  1  0.48815000  0.17064000  0.23219000  1.0
  H  H117  1  0.01185000  0.32936000  0.73219000  1.0
  H  H118  1  0.51185000  0.82936000  0.76781000  1.0
  H  H119  1  0.98815000  0.67064000  0.26781000  1.0
  H  H120  1  0.94549000  0.11847000  0.67667000  1.0
  H  H121  1  0.55451000  0.38152000  0.17667000  1.0
  H  H122  1  0.05451000  0.88153000  0.32333000  1.0
  H  H123  1  0.44549000  0.61847000  0.82333000  1.0
  H  H124  1  0.83059000  0.05520000  0.61404000  1.0
  H  H125  1  0.66941000  0.44480000  0.11404000  1.0
  H  H126  1  0.16941000  0.94480000  0.38596000  1.0
  H  H127  1  0.33059000  0.55520000  0.88596000  1.0
  H  H128  1  0.81395000  0.28104000  0.48875000  1.0
  H  H129  1  0.68605000  0.21896000  0.98875000  1.0
  H  H130  1  0.18605000  0.71896000  0.51125000  1.0
  H  H131  1  0.31395000  0.78104000  0.01125000  1.0
  H  H132  1  0.92778000  0.33555000  0.55766000  1.0
  H  H133  1  0.57222000  0.16445000  0.05766000  1.0
  H  H134  1  0.07222000  0.66445000  0.44234000  1.0
  H  H135  1  0.42778000  0.83555000  0.94234000  1.0
  H  H136  1  0.67309000  0.09481000  0.36205000  1.0
  H  H137  1  0.82691000  0.40519000  0.86205000  1.0
  H  H138  1  0.32691000  0.90519000  0.63795000  1.0
  H  H139  1  0.17309000  0.59482000  0.13795000  1.0
  H  H140  1  0.79319000  0.16005000  0.41893000  1.0
  H  H141  1  0.70681000  0.33995000  0.91893000  1.0
  H  H142  1  0.20681000  0.83995000  0.58107000  1.0
  H  H143  1  0.29319000  0.66005000  0.08107000  1.0
  H  H144  1  0.66881000  0.08227000  0.58588000  1.0
  H  H145  1  0.83119000  0.41773000  0.08588000  1.0
  H  H146  1  0.33119000  0.91773000  0.41412000  1.0
  H  H147  1  0.16881000  0.58227000  0.91412000  1.0
  H  H148  1  0.55482000  0.02273000  0.52256000  1.0
  H  H149  1  0.94518000  0.47727000  0.02256000  1.0
  H  H150  1  0.44518000  0.97727000  0.47745000  1.0
  H  H151  1  0.05482000  0.52273000  0.97744000  1.0
  C  C152  1  0.30633000  0.75055000  0.28992000  1.0
  C  C153  1  0.19367000  0.74945000  0.78992000  1.0
  C  C154  1  0.69367000  0.24945000  0.71008000  1.0
  C  C155  1  0.80633000  0.25055000  0.21008000  1.0
  C  C156  1  0.23744000  0.75458000  0.24386000  1.0
  C  C157  1  0.26256000  0.74542000  0.74386000  1.0
  C  C158  1  0.76256000  0.24542000  0.75614000  1.0
  C  C159  1  0.73744000  0.25458000  0.25614000  1.0
  C  C160  1  0.18182000  0.68938000  0.23974000  1.0
  C  C161  1  0.31818000  0.81062000  0.73974000  1.0
  C  C162  1  0.81818000  0.31062000  0.76026000  1.0
  C  C163  1  0.68182000  0.18938000  0.26026000  1.0
  C  C164  1  0.19811000  0.61541000  0.27968000  1.0
  C  C165  1  0.30189000  0.88459000  0.77969000  1.0
  C  C166  1  0.80189000  0.38459000  0.72031000  1.0
  C  C167  1  0.69811000  0.11541000  0.22031000  1.0
  C  C168  1  0.26391000  0.61117000  0.33024000  1.0
  C  C169  1  0.23609000  0.88883000  0.83024000  1.0
  C  C170  1  0.73609000  0.38883000  0.66976000  1.0
  C  C171  1  0.76391000  0.11117000  0.16976000  1.0
  C  C172  1  0.31816000  0.68072000  0.33613000  1.0
  C  C173  1  0.18184000  0.81928000  0.83613000  1.0
  C  C174  1  0.68184000  0.31928000  0.66387000  1.0
  C  C175  1  0.81816000  0.18072000  0.16387000  1.0
  C  C176  1  0.38279000  0.67511000  0.38681000  1.0
  C  C177  1  0.11721000  0.82489000  0.88681000  1.0
  C  C178  1  0.61721000  0.32489000  0.61319000  1.0
  C  C179  1  0.88279000  0.17511000  0.11320000  1.0
  C  C180  1  0.39207000  0.60662000  0.43004000  1.0
  C  C181  1  0.10793000  0.89338000  0.93004000  1.0
  C  C182  1  0.60793000  0.39338000  0.56996000  1.0
  C  C183  1  0.89207000  0.10662000  0.06996000  1.0
  C  C184  1  0.33720000  0.54026000  0.42498000  1.0
  C  C185  1  0.16280000  0.95974000  0.92498000  1.0
  C  C186  1  0.66280000  0.45974000  0.57502000  1.0
  C  C187  1  0.83720000  0.04026000  0.07502000  1.0
  C  C188  1  0.27478000  0.54229000  0.37605000  1.0
  C  C189  1  0.22522000  0.95771000  0.87605000  1.0
  C  C190  1  0.72522000  0.45771000  0.62395000  1.0
  C  C191  1  0.77478000  0.04229000  0.12395000  1.0
  C  C192  1  0.36578000  0.82043000  0.28592000  1.0
  C  C193  1  0.13422000  0.67958000  0.78592000  1.0
  C  C194  1  0.63422000  0.17958000  0.71408000  1.0
  C  C195  1  0.86578000  0.32042000  0.21408000  1.0
  C  C196  1  0.14962000  0.53977000  0.26485000  1.0
  C  C197  1  0.35038000  0.96023000  0.76485000  1.0
  C  C198  1  0.85038000  0.46023000  0.73515000  1.0
  C  C199  1  0.64962000  0.03977000  0.23515000  1.0
  C  C200  1  0.68604000  0.78165000  0.56324000  1.0
  C  C201  1  0.81396000  0.71835000  0.06324000  1.0
  C  C202  1  0.31396000  0.21835000  0.43676000  1.0
  C  C203  1  0.18604000  0.28165000  0.93676000  1.0
  C  C204  1  0.61072000  0.77258000  0.52498000  1.0
  C  C205  1  0.88928000  0.72742000  0.02498000  1.0
  C  C206  1  0.38928000  0.22742000  0.47502000  1.0
  C  C207  1  0.11072000  0.27258000  0.97502000  1.0
  C  C208  1  0.61122000  0.79729000  0.46297000  1.0
  C  C209  1  0.88878000  0.70271000  0.96297000  1.0
  C  C210  1  0.38878000  0.20271000  0.53703000  1.0
  C  C211  1  0.11122000  0.29729000  0.03703000  1.0
  C  C212  1  0.68775000  0.82896000  0.43882000  1.0
  C  C213  1  0.81225000  0.67104000  0.93882000  1.0
  C  C214  1  0.31225000  0.17104000  0.56118000  1.0
  C  C215  1  0.18775000  0.32896000  0.06118000  1.0
  C  C216  1  0.76565000  0.84171000  0.47732000  1.0
  C  C217  1  0.73435000  0.65828000  0.97732000  1.0
  C  C218  1  0.23435000  0.15829000  0.52268000  1.0
  C  C219  1  0.26565000  0.34172000  0.02268000  1.0
  C  C220  1  0.76342000  0.81901000  0.54109000  1.0
  C  C221  1  0.73658000  0.68098000  0.04109000  1.0
  C  C222  1  0.23658000  0.18098000  0.45892000  1.0
  C  C223  1  0.26342000  0.31902000  0.95891000  1.0
  C  C224  1  0.83628000  0.83769000  0.58065000  1.0
  C  C225  1  0.66372000  0.66231000  0.08065000  1.0
  C  C226  1  0.16372000  0.16231000  0.41935000  1.0
  C  C227  1  0.33628000  0.33769000  0.91935000  1.0
  C  C228  1  0.90889000  0.87602000  0.55852000  1.0
  C  C229  1  0.59112000  0.62398000  0.05852000  1.0
  C  C230  1  0.09111000  0.12398000  0.44148000  1.0
  C  C231  1  0.40889000  0.37602000  0.94148000  1.0
  C  C232  1  0.91154000  0.89759000  0.49579000  1.0
  C  C233  1  0.58847000  0.60241000  0.99579000  1.0
  C  C234  1  0.08846000  0.10241000  0.50421000  1.0
  C  C235  1  0.41153000  0.39759000  0.00421000  1.0
  C  C236  1  0.84183000  0.88090000  0.45607000  1.0
  C  C237  1  0.65817000  0.61910000  0.95607000  1.0
  C  C238  1  0.15817000  0.11910000  0.54393000  1.0
  C  C239  1  0.34183000  0.38090000  0.04393000  1.0
  C  C240  1  0.68617000  0.74878000  0.62774000  1.0
  C  C241  1  0.81383000  0.75122000  0.12774000  1.0
  C  C242  1  0.31383000  0.25122000  0.37226000  1.0
  C  C243  1  0.18617000  0.24878000  0.87226000  1.0
  C  C244  1  0.68359000  0.85093000  0.37192000  1.0
  C  C245  1  0.81640000  0.64908000  0.87192000  1.0
  C  C246  1  0.31641000  0.14907000  0.62808000  1.0
  C  C247  1  0.18360000  0.35092000  0.12808000  1.0
  C  C248  1  0.49220000  0.50565000  0.26482000  1.0
  C  C249  1  0.00780000  0.99435000  0.76482000  1.0
  C  C250  1  0.50780000  0.49435000  0.73518000  1.0
  C  C251  1  0.99220000  0.00565000  0.23518000  1.0
  C  C252  1  0.47001000  0.57306000  0.22008000  1.0
  C  C253  1  0.02999000  0.92694000  0.72008000  1.0
  C  C254  1  0.52999000  0.42694000  0.77992000  1.0
  C  C255  1  0.97001000  0.07306000  0.27992000  1.0
  C  C256  1  0.51583000  0.64558000  0.21897000  1.0
  C  C257  1  0.98417000  0.85442000  0.71897000  1.0
  C  C258  1  0.48417000  0.35442000  0.78103000  1.0
  C  C259  1  0.01583000  0.14558000  0.28103000  1.0
  C  C260  1  0.58784000  0.64938000  0.26140000  1.0
  C  C261  1  0.91216000  0.85062000  0.76140000  1.0
  C  C262  1  0.41216000  0.35062000  0.73860000  1.0
  C  C263  1  0.08784000  0.14938000  0.23860000  1.0
  C  C264  1  0.61259000  0.58235000  0.30903000  1.0
  C  C265  1  0.88741000  0.91765000  0.80903000  1.0
  C  C266  1  0.38741000  0.41765000  0.69097000  1.0
  C  C267  1  0.11259000  0.08235000  0.19097000  1.0
  C  C268  1  0.56362000  0.50882000  0.31102000  1.0
  C  C269  1  0.93638000  0.99119000  0.81102000  1.0
  C  C270  1  0.43638000  0.49119000  0.68898000  1.0
  C  C271  1  0.06362000  0.00882000  0.18898000  1.0
  C  C272  1  0.58857000  0.44292000  0.35886000  1.0
  C  C273  1  0.91143000  0.05708000  0.85886000  1.0
  C  C274  1  0.41143000  0.55708000  0.64114000  1.0
  C  C275  1  0.08857000  0.94292000  0.14114000  1.0
  C  C276  1  0.65628000  0.45014000  0.40304000  1.0
  C  C277  1  0.84372000  0.04986000  0.90304000  1.0
  C  C278  1  0.34372000  0.54986000  0.59696000  1.0
  C  C279  1  0.15628000  0.95014000  0.09696000  1.0
  C  C280  1  0.70185000  0.52376000  0.40216000  1.0
  C  C281  1  0.79815000  0.97624000  0.90216000  1.0
  C  C282  1  0.29815000  0.47624000  0.59784000  1.0
  C  C283  1  0.20185000  0.02376000  0.09784000  1.0
  C  C284  1  0.68069000  0.58833000  0.35607000  1.0
  C  C285  1  0.81930000  0.91167000  0.85607000  1.0
  C  C286  1  0.31931000  0.41167000  0.64393000  1.0
  C  C287  1  0.18070000  0.08833000  0.14393000  1.0
  C  C288  1  0.43402000  0.43512000  0.26194000  1.0
  C  C289  1  0.06598000  0.06489000  0.76194000  1.0
  C  C290  1  0.56598000  0.56489000  0.73806000  1.0
  C  C291  1  0.93402000  0.93511000  0.23806000  1.0
  C  C292  1  0.63869000  0.72447000  0.25284000  1.0
  C  C293  1  0.86131000  0.77553000  0.75284000  1.0
  C  C294  1  0.36131000  0.27553000  0.74716000  1.0
  C  C295  1  0.13869000  0.22446000  0.24716000  1.0
  C  C296  1  0.44326000  0.04226000  0.13551000  1.0
  C  C297  1  0.05674000  0.45774000  0.63551000  1.0
  C  C298  1  0.55674000  0.95774000  0.86449000  1.0
  C  C299  1  0.94326000  0.54226000  0.36449000  1.0
  C  C300  1  0.44585000  0.06048000  0.07335000  1.0
  C  C301  1  0.05415000  0.43952000  0.57335000  1.0
  C  C302  1  0.55415000  0.93952000  0.92665000  1.0
  C  C303  1  0.94585000  0.56048000  0.42665000  1.0
  C  C304  1  0.49594000  0.99143000  0.03313000  1.0
  C  C305  1  0.00406000  0.50857000  0.53313000  1.0
  C  C306  1  0.50406000  0.00857000  0.96687000  1.0
  C  C307  1  0.99594000  0.49143000  0.46687000  1.0
  C  C308  1  0.53819000  0.90545000  0.05940000  1.0
  C  C309  1  0.96181000  0.59455000  0.55940000  1.0
  C  C310  1  0.46181000  0.09455000  0.94060000  1.0
  C  C311  1  0.03819000  0.40545000  0.44060000  1.0
  C  C312  1  0.53141000  0.89301000  0.12211000  1.0
  C  C313  1  0.96859000  0.60699000  0.62211000  1.0
  C  C314  1  0.46859000  0.10699000  0.87789000  1.0
  C  C315  1  0.03141000  0.39301000  0.37789000  1.0
  C  C316  1  0.91423000  0.15302000  0.63494000  1.0
  C  C317  1  0.58577000  0.34698000  0.13494000  1.0
  C  C318  1  0.08577000  0.84698000  0.36506000  1.0
  C  C319  1  0.41423000  0.65302000  0.86506000  1.0
  C  C320  1  0.85009000  0.11767000  0.59963000  1.0
  C  C321  1  0.64991000  0.38233000  0.09963000  1.0
  C  C322  1  0.14991000  0.88233000  0.40037000  1.0
  C  C323  1  0.35009000  0.61767000  0.90037000  1.0
  C  C324  1  0.81190000  0.16248000  0.54539000  1.0
  C  C325  1  0.68810000  0.33752000  0.04539000  1.0
  C  C326  1  0.18810000  0.83752000  0.45461000  1.0
  C  C327  1  0.31189000  0.66248000  0.95461000  1.0
  C  C328  1  0.84193000  0.24180000  0.52969000  1.0
  C  C329  1  0.65807000  0.25820000  0.02969000  1.0
  C  C330  1  0.15807000  0.75820000  0.47031000  1.0
  C  C331  1  0.34193000  0.74180000  0.97031000  1.0
  C  C332  1  0.90557000  0.27278000  0.56834000  1.0
  C  C333  1  0.59443000  0.22721000  0.06833000  1.0
  C  C334  1  0.09443000  0.72722000  0.43166000  1.0
  C  C335  1  0.40557000  0.77278000  0.93167000  1.0
  C  C336  1  0.67344000  0.09487000  0.41190000  1.0
  C  C337  1  0.82656000  0.40513000  0.91190000  1.0
  C  C338  1  0.32655000  0.90513000  0.58810000  1.0
  C  C339  1  0.17344000  0.59487000  0.08810000  1.0
  C  C340  1  0.74081000  0.13111000  0.44394000  1.0
  C  C341  1  0.75919000  0.36889000  0.94394000  1.0
  C  C342  1  0.25918000  0.86889000  0.55606000  1.0
  C  C343  1  0.24081000  0.63111000  0.05606000  1.0
  C  C344  1  0.74192000  0.12701000  0.50806000  1.0
  C  C345  1  0.75808000  0.37299000  0.00806000  1.0
  C  C346  1  0.25808000  0.87299000  0.49194000  1.0
  C  C347  1  0.24192000  0.62701000  0.99194000  1.0
  C  C348  1  0.67402000  0.08600000  0.53633000  1.0
  C  C349  1  0.82598000  0.41399000  0.03633000  1.0
  C  C350  1  0.32598000  0.91399000  0.46367000  1.0
  C  C351  1  0.17402000  0.58601000  0.96367000  1.0
  C  C352  1  0.60837000  0.05343000  0.50043000  1.0
  C  C353  1  0.89163000  0.44657000  0.00043000  1.0
  C  C354  1  0.39163000  0.94657000  0.49957000  1.0
  C  C355  1  0.10837000  0.55343000  0.99957000  1.0
  N  N356  1  0.48618000  0.96007000  0.16063000  1.0
  N  N357  1  0.01382000  0.53993000  0.66063000  1.0
  N  N358  1  0.51382000  0.03993000  0.83936000  1.0
  N  N359  1  0.98618000  0.46007000  0.33936000  1.0
  N  N360  1  0.94207000  0.22950000  0.62024000  1.0
  N  N361  1  0.55793000  0.27050000  0.12024000  1.0
  N  N362  1  0.05793000  0.77050000  0.37976000  1.0
  N  N363  1  0.44207000  0.72950000  0.87976000  1.0
  N  N364  1  0.60680000  0.05767000  0.43906000  1.0
  N  N365  1  0.89320000  0.44233000  0.93906000  1.0
  N  N366  1  0.39320000  0.94233000  0.56094000  1.0
  N  N367  1  0.10680000  0.55767000  0.06094000  1.0
  O  O368  1  0.41112000  0.84239000  0.33224000  1.0
  O  O369  1  0.08888000  0.65761000  0.83224000  1.0
  O  O370  1  0.58888000  0.15761000  0.66776000  1.0
  O  O371  1  0.91112000  0.34239000  0.16776000  1.0
  O  O372  1  0.37153000  0.85849000  0.23415000  1.0
  O  O373  1  0.12847000  0.64151000  0.73415000  1.0
  O  O374  1  0.62847000  0.14151000  0.76585000  1.0
  O  O375  1  0.87153000  0.35849000  0.26585000  1.0
  O  O376  1  0.05990000  0.56170000  0.24649000  1.0
  O  O377  1  0.44010000  0.93831000  0.74649000  1.0
  O  O378  1  0.94010000  0.43831000  0.75351000  1.0
  O  O379  1  0.55990000  0.06170000  0.25350000  1.0
  O  O380  1  0.19870000  0.45697000  0.26804000  1.0
  O  O381  1  0.30129000  0.04304000  0.76804000  1.0
  O  O382  1  0.80130000  0.54303000  0.73196000  1.0
  O  O383  1  0.69871000  0.95697000  0.23196000  1.0
  O  O384  1  0.75153000  0.67828000  0.64446000  1.0
  O  O385  1  0.74847000  0.82172000  0.14446000  1.0
  O  O386  1  0.24847000  0.32172000  0.35554000  1.0
  O  O387  1  0.25153000  0.17828000  0.85554000  1.0
  O  O388  1  0.61960000  0.79025000  0.66530000  1.0
  O  O389  1  0.88041000  0.70975000  0.16530000  1.0
  O  O390  1  0.38040000  0.20975000  0.33470000  1.0
  O  O391  1  0.11960000  0.29025000  0.83470000  1.0
  O  O392  1  0.76275000  0.82863000  0.34122000  1.0
  O  O393  1  0.73726000  0.67137000  0.84122000  1.0
  O  O394  1  0.23725000  0.17137000  0.65878000  1.0
  O  O395  1  0.26274000  0.32863000  0.15878000  1.0
  O  O396  1  0.59958000  0.88879000  0.35025000  1.0
  O  O397  1  0.90042000  0.61120000  0.85025000  1.0
  O  O398  1  0.40042000  0.11120000  0.64975000  1.0
  O  O399  1  0.09958000  0.38879000  0.14975000  1.0
  O  O400  1  0.38872000  0.42808000  0.21199000  1.0
  O  O401  1  0.11128000  0.07192000  0.71199000  1.0
  O  O402  1  0.61128000  0.57192000  0.78801000  1.0
  O  O403  1  0.88872000  0.92808000  0.28801000  1.0
  O  O404  1  0.42675000  0.38413000  0.30765000  1.0
  O  O405  1  0.07325000  0.11587000  0.80765000  1.0
  O  O406  1  0.57325000  0.61587000  0.69235000  1.0
  O  O407  1  0.92675000  0.88413000  0.19235000  1.0
  O  O408  1  0.58751000  0.80498000  0.24263000  1.0
  O  O409  1  0.91249000  0.69502000  0.74263000  1.0
  O  O410  1  0.41249000  0.19502000  0.75737000  1.0
  O  O411  1  0.08751000  0.30498000  0.25737000  1.0
  O  O412  1  0.73302000  0.70397000  0.25253000  1.0
  O  O413  1  0.76698000  0.79603000  0.75253000  1.0
  O  O414  1  0.26698000  0.29603000  0.74747000  1.0
  O  O415  1  0.23302000  0.20397000  0.24747000  1.0
  O  O416  1  0.33521000  0.03361000  0.25987000  1.0
  O  O417  1  0.16479000  0.46639000  0.75987000  1.0
  O  O418  1  0.66479000  0.96639000  0.74013000  1.0
  O  O419  1  0.83521000  0.53361000  0.24013000  1.0
  O  O420  1  0.45540000  0.03430000  0.36076000  1.0
  O  O421  1  0.04460000  0.46570000  0.86076000  1.0
  O  O422  1  0.54460000  0.96570000  0.63924000  1.0
  O  O423  1  0.95540000  0.53430000  0.13924000  1.0
  O  O424  1  0.44536000  0.22553000  0.21203000  1.0
  O  O425  1  0.05464000  0.27447000  0.71203000  1.0
  O  O426  1  0.55464000  0.77447000  0.78797000  1.0
  O  O427  1  0.94536000  0.72553000  0.28797000  1.0
