# generated using pymatgen
data_CdH14C22(NO)4
_symmetry_space_group_name_H-M   'P 1'
_cell_length_a   7.95433000
_cell_length_b   18.82130000
_cell_length_c   19.08540000
_cell_angle_alpha   90.00040000
_cell_angle_beta   90.00020000
_cell_angle_gamma   79.65400000
_symmetry_Int_Tables_number   1
_chemical_formula_structural   CdH14C22(NO)4
_chemical_formula_sum   'Cd4 H56 C88 N16 O16'
_cell_volume   2810.83488586
_cell_formula_units_Z   4
loop_
 _symmetry_equiv_pos_site_id
 _symmetry_equiv_pos_as_xyz
  1  'x, y, z'
loop_
 _atom_site_type_symbol
 _atom_site_label
 _atom_site_symmetry_multiplicity
 _atom_site_fract_x
 _atom_site_fract_y
 _atom_site_fract_z
 _atom_site_occupancy
  Cd  Cd0  1  0.69925000  0.99469000  0.93959000  1.0
  Cd  Cd1  1  0.30075000  0.50531000  0.43959000  1.0
  Cd  Cd2  1  0.30072000  0.00531000  0.06041000  1.0
  Cd  Cd3  1  0.69925000  0.49469000  0.56041000  1.0
  H  H4  1  0.14225000  0.29618000  0.56722000  1.0
  H  H5  1  0.85774000  0.20382000  0.06722000  1.0
  H  H6  1  0.85775000  0.70382000  0.43277000  1.0
  H  H7  1  0.14225000  0.79619000  0.93277000  1.0
  H  H8  1  0.19616000  0.19981000  0.65948000  1.0
  H  H9  1  0.80383000  0.30019000  0.15948000  1.0
  H  H10  1  0.80383000  0.80019000  0.34052000  1.0
  H  H11  1  0.19615000  0.69982000  0.84051000  1.0
  H  H12  1  0.52116000  0.39787000  0.66805000  1.0
  H  H13  1  0.47886000  0.10211000  0.16806000  1.0
  H  H14  1  0.47884000  0.60212000  0.33195000  1.0
  H  H15  1  0.52115000  0.89788000  0.83194000  1.0
  H  H16  1  0.30476000  0.11020000  0.72574000  1.0
  H  H17  1  0.69524000  0.38980000  0.22574000  1.0
  H  H18  1  0.69525000  0.88980000  0.27426000  1.0
  H  H19  1  0.30475000  0.61020000  0.77426000  1.0
  H  H20  1  0.41111000  0.02171000  0.81878000  1.0
  H  H21  1  0.58888000  0.47829000  0.31878000  1.0
  H  H22  1  0.58890000  0.97829000  0.18122000  1.0
  H  H23  1  0.41112000  0.52170000  0.68122000  1.0
  H  H24  1  0.69502000  0.16019000  0.91117000  1.0
  H  H25  1  0.30499000  0.33981000  0.41117000  1.0
  H  H26  1  0.30499000  0.83981000  0.08883000  1.0
  H  H27  1  0.69502000  0.66018000  0.58884000  1.0
  H  H28  1  0.60114000  0.25567000  0.82095000  1.0
  H  H29  1  0.39887000  0.24432000  0.32096000  1.0
  H  H30  1  0.39885000  0.74433000  0.17905000  1.0
  H  H31  1  0.60114000  0.75567000  0.67905000  1.0
  H  H32  1  0.83147000  0.56430000  0.21631000  1.0
  H  H33  1  0.16853000  0.93570000  0.71630000  1.0
  H  H34  1  0.16854000  0.43569000  0.78369000  1.0
  H  H35  1  0.83146000  0.06431000  0.28369000  1.0
  H  H36  1  0.74217000  0.65865000  0.12345000  1.0
  H  H37  1  0.25784000  0.84135000  0.62345000  1.0
  H  H38  1  0.25783000  0.34135000  0.87655000  1.0
  H  H39  1  0.74216000  0.15865000  0.37654000  1.0
  H  H40  1  0.22575000  0.68113000  0.27615000  1.0
  H  H41  1  0.77424000  0.81888000  0.77614000  1.0
  H  H42  1  0.77426000  0.31887000  0.72384000  1.0
  H  H43  1  0.22575000  0.18113000  0.22386000  1.0
  H  H44  1  0.76697000  0.72044000  0.02407000  1.0
  H  H45  1  0.23301000  0.77956000  0.52407000  1.0
  H  H46  1  0.23302000  0.27956000  0.97593000  1.0
  H  H47  1  0.76697000  0.22044000  0.47593000  1.0
  H  H48  1  0.69057000  0.82752000  0.94596000  1.0
  H  H49  1  0.30942000  0.67248000  0.44596000  1.0
  H  H50  1  0.30942000  0.17248000  0.05404000  1.0
  H  H51  1  0.69057000  0.32752000  0.55404000  1.0
  H  H52  1  0.91337000  0.95664000  0.08102000  1.0
  H  H53  1  0.08665000  0.54336000  0.58102000  1.0
  H  H54  1  0.08663000  0.04336000  0.91898000  1.0
  H  H55  1  0.91336000  0.45664000  0.41899000  1.0
  H  H56  1  0.00505000  0.85480000  0.16259000  1.0
  H  H57  1  0.99496000  0.64519000  0.66259000  1.0
  H  H58  1  0.99495000  0.14520000  0.83741000  1.0
  H  H59  1  0.00505000  0.35480000  0.33741000  1.0
  C  C60  1  0.31453000  0.41056000  0.55392000  1.0
  C  C61  1  0.68547000  0.08943000  0.05392000  1.0
  C  C62  1  0.68548000  0.58944000  0.44608000  1.0
  C  C63  1  0.31453000  0.91057000  0.94608000  1.0
  C  C64  1  0.32943000  0.35405000  0.60977000  1.0
  C  C65  1  0.67058000  0.14595000  0.10977000  1.0
  C  C66  1  0.67058000  0.64595000  0.39023000  1.0
  C  C67  1  0.32943000  0.85405000  0.89023000  1.0
  C  C68  1  0.23668000  0.29757000  0.60842000  1.0
  C  C69  1  0.76332000  0.20243000  0.10843000  1.0
  C  C70  1  0.76332000  0.70243000  0.39158000  1.0
  C  C71  1  0.23668000  0.79757000  0.89157000  1.0
  C  C72  1  0.26794000  0.24398000  0.65966000  1.0
  C  C73  1  0.73207000  0.25602000  0.15966000  1.0
  C  C74  1  0.73206000  0.75602000  0.34034000  1.0
  C  C75  1  0.26793000  0.74398000  0.84034000  1.0
  C  C76  1  0.39233000  0.24788000  0.71113000  1.0
  C  C77  1  0.60768000  0.25211000  0.21113000  1.0
  C  C78  1  0.60767000  0.75212000  0.28887000  1.0
  C  C79  1  0.39232000  0.74789000  0.78887000  1.0
  C  C80  1  0.44584000  0.35494000  0.66477000  1.0
  C  C81  1  0.55417000  0.14506000  0.16478000  1.0
  C  C82  1  0.55416000  0.64506000  0.33523000  1.0
  C  C83  1  0.44584000  0.85494000  0.83523000  1.0
  C  C84  1  0.44341000  0.19178000  0.76549000  1.0
  C  C85  1  0.55660000  0.30821000  0.26550000  1.0
  C  C86  1  0.55659000  0.80822000  0.23451000  1.0
  C  C87  1  0.44341000  0.69179000  0.73451000  1.0
  C  C88  1  0.39089000  0.12451000  0.76554000  1.0
  C  C89  1  0.60910000  0.37549000  0.26554000  1.0
  C  C90  1  0.60911000  0.87549000  0.23446000  1.0
  C  C91  1  0.39089000  0.62451000  0.73446000  1.0
  C  C92  1  0.45052000  0.07424000  0.81732000  1.0
  C  C93  1  0.54947000  0.42576000  0.31733000  1.0
  C  C94  1  0.54948000  0.92576000  0.18268000  1.0
  C  C95  1  0.45052000  0.57424000  0.68268000  1.0
  C  C96  1  0.60747000  0.15201000  0.86916000  1.0
  C  C97  1  0.39254000  0.34799000  0.36916000  1.0
  C  C98  1  0.39254000  0.84799000  0.13084000  1.0
  C  C99  1  0.60747000  0.65200000  0.63084000  1.0
  C  C100  1  0.55400000  0.20495000  0.81945000  1.0
  C  C101  1  0.44601000  0.29505000  0.31946000  1.0
  C  C102  1  0.44600000  0.79505000  0.18054000  1.0
  C  C103  1  0.55399000  0.70495000  0.68054000  1.0
  C  C104  1  0.08954000  0.56280000  0.31237000  1.0
  C  C105  1  0.91046000  0.93721000  0.81236000  1.0
  C  C106  1  0.91048000  0.43720000  0.68763000  1.0
  C  C107  1  0.08954000  0.06280000  0.18763000  1.0
  C  C108  1  0.03475000  0.61566000  0.25356000  1.0
  C  C109  1  0.96525000  0.88435000  0.75355000  1.0
  C  C110  1  0.96526000  0.38434000  0.74644000  1.0
  C  C111  1  0.03475000  0.11566000  0.24644000  1.0
  C  C112  1  0.89916000  0.60927000  0.20892000  1.0
  C  C113  1  0.10084000  0.89074000  0.70891000  1.0
  C  C114  1  0.10085000  0.39073000  0.79108000  1.0
  C  C115  1  0.89916000  0.10927000  0.29108000  1.0
  C  C116  1  0.85131000  0.66130000  0.15726000  1.0
  C  C117  1  0.14869000  0.83870000  0.65726000  1.0
  C  C118  1  0.14869000  0.33869000  0.84274000  1.0
  C  C119  1  0.85131000  0.16130000  0.34274000  1.0
  C  C120  1  0.94033000  0.71907000  0.15165000  1.0
  C  C121  1  0.05967000  0.78093000  0.65165000  1.0
  C  C122  1  0.05968000  0.28092000  0.84835000  1.0
  C  C123  1  0.94032000  0.21908000  0.34835000  1.0
  C  C124  1  0.11743000  0.67475000  0.24325000  1.0
  C  C125  1  0.88257000  0.82526000  0.74324000  1.0
  C  C126  1  0.88258000  0.32524000  0.75675000  1.0
  C  C127  1  0.11743000  0.17475000  0.25676000  1.0
  C  C128  1  0.89222000  0.77883000  0.10101000  1.0
  C  C129  1  0.10778000  0.72117000  0.60100000  1.0
  C  C130  1  0.10778000  0.22117000  0.89899000  1.0
  C  C131  1  0.89222000  0.27883000  0.39900000  1.0
  C  C132  1  0.80219000  0.77173000  0.03882000  1.0
  C  C133  1  0.19779000  0.72827000  0.53882000  1.0
  C  C134  1  0.19779000  0.22827000  0.96118000  1.0
  C  C135  1  0.80219000  0.27173000  0.46118000  1.0
  C  C136  1  0.75882000  0.83114000  0.99500000  1.0
  C  C137  1  0.24117000  0.66886000  0.49500000  1.0
  C  C138  1  0.24117000  0.16886000  0.00500000  1.0
  C  C139  1  0.75882000  0.33114000  0.50500000  1.0
  C  C140  1  0.88431000  0.90350000  0.06928000  1.0
  C  C141  1  0.11571000  0.59650000  0.56928000  1.0
  C  C142  1  0.11569000  0.09650000  0.93072000  1.0
  C  C143  1  0.88430000  0.40350000  0.43072000  1.0
  C  C144  1  0.93493000  0.84649000  0.11521000  1.0
  C  C145  1  0.06507000  0.65351000  0.61521000  1.0
  C  C146  1  0.06506000  0.15351000  0.88479000  1.0
  C  C147  1  0.93493000  0.34649000  0.38480000  1.0
  N  N148  1  0.47698000  0.30386000  0.71369000  1.0
  N  N149  1  0.52303000  0.19613000  0.21370000  1.0
  N  N150  1  0.52301000  0.69614000  0.28631000  1.0
  N  N151  1  0.47697000  0.80386000  0.78630000  1.0
  N  N152  1  0.55762000  0.08727000  0.86832000  1.0
  N  N153  1  0.44238000  0.41273000  0.36832000  1.0
  N  N154  1  0.44238000  0.91273000  0.13168000  1.0
  N  N155  1  0.55762000  0.58726000  0.63169000  1.0
  N  N156  1  0.07230000  0.72523000  0.19433000  1.0
  N  N157  1  0.92769000  0.77477000  0.69432000  1.0
  N  N158  1  0.92770000  0.27477000  0.80567000  1.0
  N  N159  1  0.07231000  0.22523000  0.30568000  1.0
  N  N160  1  0.79734000  0.89614000  0.01020000  1.0
  N  N161  1  0.20267000  0.60386000  0.51020000  1.0
  N  N162  1  0.20266000  0.10386000  0.98980000  1.0
  N  N163  1  0.79733000  0.39614000  0.48981000  1.0
  O  O164  1  0.42224000  0.45351000  0.55387000  1.0
  O  O165  1  0.57776000  0.04649000  0.05387000  1.0
  O  O166  1  0.57779000  0.54648000  0.44613000  1.0
  O  O167  1  0.42223000  0.95351000  0.94613000  1.0
  O  O168  1  0.19900000  0.41331000  0.50742000  1.0
  O  O169  1  0.80099000  0.08669000  0.00742000  1.0
  O  O170  1  0.80098000  0.58670000  0.49259000  1.0
  O  O171  1  0.19901000  0.91331000  0.99258000  1.0
  O  O172  1  0.22156000  0.57521000  0.34655000  1.0
  O  O173  1  0.77845000  0.92480000  0.84654000  1.0
  O  O174  1  0.77847000  0.42479000  0.65345000  1.0
  O  O175  1  0.22154000  0.07521000  0.15345000  1.0
  O  O176  1  0.00776000  0.51325000  0.32461000  1.0
  O  O177  1  0.99223000  0.98677000  0.82459000  1.0
  O  O178  1  0.99225000  0.48675000  0.67539000  1.0
  O  O179  1  0.00778000  0.01324000  0.17540000  1.0
