# generated using pymatgen
data_CdH7C7(NO)5
_symmetry_space_group_name_H-M   'P 1'
_cell_length_a   5.44224000
_cell_length_b   10.12440000
_cell_length_c   10.56330000
_cell_angle_alpha   101.73200000
_cell_angle_beta   99.21100000
_cell_angle_gamma   104.23000000
_symmetry_Int_Tables_number   1
_chemical_formula_structural   CdH7C7(NO)5
_chemical_formula_sum   'Cd2 H14 C14 N10 O10'
_cell_volume   538.68785181
_cell_formula_units_Z   2
loop_
 _symmetry_equiv_pos_site_id
 _symmetry_equiv_pos_as_xyz
  1  'x, y, z'
loop_
 _atom_site_type_symbol
 _atom_site_label
 _atom_site_symmetry_multiplicity
 _atom_site_fract_x
 _atom_site_fract_y
 _atom_site_fract_z
 _atom_site_occupancy
  Cd  Cd0  1  0.69594000  0.38612000  0.72500000  1.0
  Cd  Cd1  1  0.30407000  0.61386000  0.27501000  1.0
  H  H2  1  0.32474000  0.28669000  0.91462000  1.0
  H  H3  1  0.67528000  0.71331000  0.08541000  1.0
  H  H4  1  0.99590000  0.86338000  0.97145000  1.0
  H  H5  1  0.00412000  0.13663000  0.02857000  1.0
  H  H6  1  0.10074000  0.73868000  0.86783000  1.0
  H  H7  1  0.89921000  0.26132000  0.13217000  1.0
  H  H8  1  0.51430000  0.73496000  0.74208000  1.0
  H  H9  1  0.48567000  0.26503000  0.25790000  1.0
  H  H10  1  0.81088000  0.83436000  0.60320000  1.0
  H  H11  1  0.18907000  0.16564000  0.39677000  1.0
  H  H12  1  0.00803000  0.29427000  0.56088000  1.0
  H  H13  1  0.99204000  0.70574000  0.43913000  1.0
  H  H14  1  0.80949000  0.16057000  0.58616000  1.0
  H  H15  1  0.19056000  0.83944000  0.41384000  1.0
  C  C16  1  0.89070000  0.53328000  0.01851000  1.0
  C  C17  1  0.10934000  0.46676000  0.98150000  1.0
  C  C18  1  0.36469000  0.44360000  0.48487000  1.0
  C  C19  1  0.63534000  0.55638000  0.51513000  1.0
  C  C20  1  0.35472000  0.18531000  0.87502000  1.0
  C  C21  1  0.64528000  0.81469000  0.12500000  1.0
  C  C22  1  0.55007000  0.05657000  0.74638000  1.0
  C  C23  1  0.44989000  0.94342000  0.25361000  1.0
  C  C24  1  0.43768000  0.93716000  0.78875000  1.0
  C  C25  1  0.56229000  0.06283000  0.21125000  1.0
  C  C26  1  0.26193000  0.94677000  0.87303000  1.0
  C  C27  1  0.73807000  0.05323000  0.12697000  1.0
  C  C28  1  0.70374000  0.89307000  0.65879000  1.0
  C  C29  1  0.29622000  0.10693000  0.34119000  1.0
  N  N30  1  0.23317000  0.07679000  0.91747000  1.0
  N  N31  1  0.76684000  0.92321000  0.08254000  1.0
  N  N32  1  0.50730000  0.18298000  0.78726000  1.0
  N  N33  1  0.49267000  0.81702000  0.21274000  1.0
  N  N34  1  0.12582000  0.84048000  0.91465000  1.0
  N  N35  1  0.87417000  0.15951000  0.08536000  1.0
  N  N36  1  0.54337000  0.83487000  0.73183000  1.0
  N  N37  1  0.45660000  0.16512000  0.26816000  1.0
  N  N38  1  0.71185000  0.02637000  0.66433000  1.0
  N  N39  1  0.28809000  0.97362000  0.33565000  1.0
  O  O40  1  0.72419000  0.54239000  0.92393000  1.0
  O  O41  1  0.27582000  0.45764000  0.07605000  1.0
  O  O42  1  0.89538000  0.57543000  0.14046000  1.0
  O  O43  1  0.10467000  0.42461000  0.85952000  1.0
  O  O44  1  0.32151000  0.37722000  0.57310000  1.0
  O  O45  1  0.67854000  0.62272000  0.42690000  1.0
  O  O46  1  0.20833000  0.42330000  0.37597000  1.0
  O  O47  1  0.79169000  0.57670000  0.62406000  1.0
  O  O48  1  0.82038000  0.24901000  0.55554000  1.0
  O  O49  1  0.17968000  0.75101000  0.44447000  1.0
