# generated using pymatgen
data_KH5(C2O3)2
_symmetry_space_group_name_H-M   'P 1'
_cell_length_a   7.61383000
_cell_length_b   7.72518000
_cell_length_c   11.17260000
_cell_angle_alpha   89.99970000
_cell_angle_beta   77.63600000
_cell_angle_gamma   89.99960000
_symmetry_Int_Tables_number   1
_chemical_formula_structural   KH5(C2O3)2
_chemical_formula_sum   'K4 H20 C16 O24'
_cell_volume   641.91097391
_cell_formula_units_Z   4
loop_
 _symmetry_equiv_pos_site_id
 _symmetry_equiv_pos_as_xyz
  1  'x, y, z'
loop_
 _atom_site_type_symbol
 _atom_site_label
 _atom_site_symmetry_multiplicity
 _atom_site_fract_x
 _atom_site_fract_y
 _atom_site_fract_z
 _atom_site_occupancy
  K  K0  1  0.77369000  0.92567000  0.47236000  1.0
  K  K1  1  0.22631000  0.42566000  0.02764000  1.0
  K  K2  1  0.22632000  0.07433000  0.52764000  1.0
  K  K3  1  0.77370000  0.57434000  0.97236000  1.0
  H  H4  1  0.71898000  0.57876000  0.64616000  1.0
  H  H5  1  0.28102000  0.07875000  0.85384000  1.0
  H  H6  1  0.28102000  0.42124000  0.35383000  1.0
  H  H7  1  0.71898000  0.92125000  0.14616000  1.0
  H  H8  1  0.30395000  0.56361000  0.54844000  1.0
  H  H9  1  0.69605000  0.06360000  0.95156000  1.0
  H  H10  1  0.69605000  0.43639000  0.45156000  1.0
  H  H11  1  0.30395000  0.93639000  0.04844000  1.0
  H  H12  1  0.30005000  0.79722000  0.69401000  1.0
  H  H13  1  0.69995000  0.29721000  0.80599000  1.0
  H  H14  1  0.69995000  0.20279000  0.30599000  1.0
  H  H15  1  0.30005000  0.70279000  0.19401000  1.0
  H  H16  1  0.11813000  0.78482000  0.86095000  1.0
  H  H17  1  0.88187000  0.28482000  0.63905000  1.0
  H  H18  1  0.88188000  0.21518000  0.13905000  1.0
  H  H19  1  0.11813000  0.71519000  0.36095000  1.0
  H  H20  1  0.13461000  0.35380000  0.75185000  1.0
  H  H21  1  0.86539000  0.85380000  0.74815000  1.0
  H  H22  1  0.86539000  0.64620000  0.24815000  1.0
  H  H23  1  0.13461000  0.14620000  0.25185000  1.0
  C  C24  1  0.02693000  0.61588000  0.63026000  1.0
  C  C25  1  0.97307000  0.11589000  0.86974000  1.0
  C  C26  1  0.97307000  0.38412000  0.36974000  1.0
  C  C27  1  0.02693000  0.88411000  0.13026000  1.0
  C  C28  1  0.21398000  0.54892000  0.63907000  1.0
  C  C29  1  0.78602000  0.04892000  0.86093000  1.0
  C  C30  1  0.78602000  0.45108000  0.36093000  1.0
  C  C31  1  0.21398000  0.95108000  0.13907000  1.0
  C  C32  1  0.28418000  0.66496000  0.73107000  1.0
  C  C33  1  0.71581000  0.16496000  0.76893000  1.0
  C  C34  1  0.71582000  0.33504000  0.26893000  1.0
  C  C35  1  0.28419000  0.83504000  0.23107000  1.0
  C  C36  1  0.47074000  0.60547000  0.74276000  1.0
  C  C37  1  0.52926000  0.10546000  0.75724000  1.0
  C  C38  1  0.52926000  0.39453000  0.25723000  1.0
  C  C39  1  0.47074000  0.89453000  0.24276000  1.0
  O  O40  1  0.89729000  0.50657000  0.64567000  1.0
  O  O41  1  0.10271000  0.00658000  0.85433000  1.0
  O  O42  1  0.10271000  0.49343000  0.35433000  1.0
  O  O43  1  0.89729000  0.99343000  0.14567000  1.0
  O  O44  1  0.00949000  0.77565000  0.61187000  1.0
  O  O45  1  0.99050000  0.27565000  0.88813000  1.0
  O  O46  1  0.99051000  0.22435000  0.38813000  1.0
  O  O47  1  0.00949000  0.72435000  0.11187000  1.0
  O  O48  1  0.21592000  0.37148000  0.67049000  1.0
  O  O49  1  0.78408000  0.87148000  0.82951000  1.0
  O  O50  1  0.78408000  0.62853000  0.32951000  1.0
  O  O51  1  0.21592000  0.12852000  0.17049000  1.0
  O  O52  1  0.16142000  0.66345000  0.84636000  1.0
  O  O53  1  0.83857000  0.16345000  0.65364000  1.0
  O  O54  1  0.83858000  0.33655000  0.15363000  1.0
  O  O55  1  0.16143000  0.83655000  0.34637000  1.0
  O  O56  1  0.50389000  0.54652000  0.83829000  1.0
  O  O57  1  0.49611000  0.04650000  0.66171000  1.0
  O  O58  1  0.49611000  0.45348000  0.16170000  1.0
  O  O59  1  0.50389000  0.95349000  0.33829000  1.0
  O  O60  1  0.59071000  0.62407000  0.63873000  1.0
  O  O61  1  0.40929000  0.12407000  0.86127000  1.0
  O  O62  1  0.40929000  0.37593000  0.36127000  1.0
  O  O63  1  0.59071000  0.87593000  0.13873000  1.0
