# generated using pymatgen
data_CdH26C30SN2O7
_symmetry_space_group_name_H-M   'P 1'
_cell_length_a   7.93400000
_cell_length_b   12.19340000
_cell_length_c   14.74010000
_cell_angle_alpha   78.35050000
_cell_angle_beta   81.70320000
_cell_angle_gamma   74.35910000
_symmetry_Int_Tables_number   1
_chemical_formula_structural   CdH26C30SN2O7
_chemical_formula_sum   'Cd2 H52 C60 S2 N4 O14'
_cell_volume   1338.78459096
_cell_formula_units_Z   2
loop_
 _symmetry_equiv_pos_site_id
 _symmetry_equiv_pos_as_xyz
  1  'x, y, z'
loop_
 _atom_site_type_symbol
 _atom_site_label
 _atom_site_symmetry_multiplicity
 _atom_site_fract_x
 _atom_site_fract_y
 _atom_site_fract_z
 _atom_site_occupancy
  Cd  Cd0  1  0.27016000  0.08521000  0.00909000  1.0
  Cd  Cd1  1  0.72984000  0.91479000  0.99092000  1.0
  H  H2  1  0.35666000  0.25322000  0.13873000  1.0
  H  H3  1  0.64334000  0.74678000  0.86128000  1.0
  H  H4  1  0.14670000  0.64143000  0.83223000  1.0
  H  H5  1  0.85329000  0.35857000  0.16777000  1.0
  H  H6  1  0.06406000  0.57011000  0.70693000  1.0
  H  H7  1  0.93595000  0.42989000  0.29306000  1.0
  H  H8  1  0.07602000  0.07544000  0.82717000  1.0
  H  H9  1  0.92398000  0.92457000  0.17283000  1.0
  H  H10  1  0.47612000  0.50073000  0.14320000  1.0
  H  H11  1  0.52388000  0.49927000  0.85679000  1.0
  H  H12  1  0.38125000  0.39477000  0.21766000  1.0
  H  H13  1  0.61875000  0.60523000  0.78234000  1.0
  H  H14  1  0.25332000  0.53831000  0.18709000  1.0
  H  H15  1  0.74668000  0.46170000  0.81291000  1.0
  H  H16  1  0.26757000  0.66323000  0.05470000  1.0
  H  H17  1  0.73242000  0.33677000  0.94530000  1.0
  H  H18  1  0.11076000  0.69519000  0.97246000  1.0
  H  H19  1  0.88923000  0.30481000  0.02755000  1.0
  H  H20  1  0.33588000  0.66886000  0.93479000  1.0
  H  H21  1  0.66411000  0.33114000  0.06521000  1.0
  H  H22  1  0.02877000  0.37090000  0.56001000  1.0
  H  H23  1  0.97123000  0.62910000  0.43999000  1.0
  H  H24  1  0.09445000  0.48332000  0.59376000  1.0
  H  H25  1  0.90555000  0.51668000  0.40624000  1.0
  H  H26  1  0.87324000  0.47389000  0.61831000  1.0
  H  H27  1  0.12676000  0.52612000  0.38169000  1.0
  H  H28  1  0.86148000  0.22295000  0.63196000  1.0
  H  H29  1  0.13852000  0.77705000  0.36804000  1.0
  H  H30  1  0.99034000  0.08690000  0.68121000  1.0
  H  H31  1  0.00966000  0.91310000  0.31879000  1.0
  H  H32  1  0.08560000  0.17771000  0.59000000  1.0
  H  H33  1  0.91440000  0.82229000  0.41000000  1.0
  H  H34  1  0.71542000  0.10823000  0.19018000  1.0
  H  H35  1  0.28459000  0.89177000  0.80982000  1.0
  H  H36  1  0.45508000  0.17283000  0.30019000  1.0
  H  H37  1  0.54492000  0.82717000  0.69980000  1.0
  H  H38  1  0.78541000  0.27180000  0.46214000  1.0
  H  H39  1  0.21459000  0.72819000  0.53786000  1.0
  H  H40  1  0.04767000  0.19899000  0.35537000  1.0
  H  H41  1  0.95234000  0.80100000  0.64463000  1.0
  H  H42  1  0.43619000  0.07756000  0.57778000  1.0
  H  H43  1  0.56381000  0.92244000  0.42222000  1.0
  H  H44  1  0.50665000  0.01929000  0.74434000  1.0
  H  H45  1  0.49335000  0.98071000  0.25565000  1.0
  H  H46  1  0.56880000  0.35821000  0.74344000  1.0
  H  H47  1  0.43120000  0.64178000  0.25656000  1.0
  H  H48  1  0.49603000  0.41978000  0.57858000  1.0
  H  H49  1  0.50397000  0.58022000  0.42142000  1.0
  H  H50  1  0.13541000  0.91480000  0.93453000  1.0
  H  H51  1  0.86459000  0.08520000  0.06547000  1.0
  H  H52  1  0.26372000  0.86466000  0.01873000  1.0
  H  H53  1  0.73627000  0.13534000  0.98127000  1.0
  C  C54  1  0.31379000  0.31854000  0.07874000  1.0
  C  C55  1  0.68620000  0.68147000  0.92126000  1.0
  C  C56  1  0.30511000  0.43579000  0.07791000  1.0
  C  C57  1  0.69488000  0.56421000  0.92209000  1.0
  C  C58  1  0.25077000  0.51596000  0.99899000  1.0
  C  C59  1  0.74923000  0.48404000  0.00101000  1.0
  C  C60  1  0.20398000  0.47510000  0.92452000  1.0
  C  C61  1  0.79601000  0.52490000  0.07548000  1.0
  C  C62  1  0.15019000  0.55021000  0.84029000  1.0
  C  C63  1  0.84980000  0.44978000  0.15971000  1.0
  C  C64  1  0.10406000  0.50995000  0.76987000  1.0
  C  C65  1  0.89594000  0.49005000  0.23013000  1.0
  C  C66  1  0.10213000  0.39135000  0.77824000  1.0
  C  C67  1  0.89786000  0.60865000  0.22176000  1.0
  C  C68  1  0.05296000  0.34700000  0.70638000  1.0
  C  C69  1  0.94704000  0.65300000  0.29362000  1.0
  C  C70  1  0.04398000  0.23166000  0.72381000  1.0
  C  C71  1  0.95601000  0.76834000  0.27619000  1.0
  C  C72  1  0.08657000  0.16476000  0.81097000  1.0
  C  C73  1  0.91344000  0.83524000  0.18903000  1.0
  C  C74  1  0.15049000  0.31481000  0.86191000  1.0
  C  C75  1  0.84951000  0.68519000  0.13809000  1.0
  C  C76  1  0.20983000  0.35598000  0.93410000  1.0
  C  C77  1  0.79017000  0.64402000  0.06590000  1.0
  C  C78  1  0.35647000  0.46882000  0.16089000  1.0
  C  C79  1  0.64354000  0.53118000  0.83911000  1.0
  C  C80  1  0.24052000  0.64162000  0.99083000  1.0
  C  C81  1  0.75948000  0.35838000  0.00917000  1.0
  C  C82  1  0.01067000  0.42249000  0.61508000  1.0
  C  C83  1  0.98933000  0.57751000  0.38492000  1.0
  C  C84  1  0.99275000  0.17677000  0.65308000  1.0
  C  C85  1  0.00725000  0.82323000  0.34692000  1.0
  C  C86  1  0.05919000  0.11864000  0.19762000  1.0
  C  C87  1  0.94082000  0.88135000  0.80238000  1.0
  C  C88  1  0.89866000  0.15048000  0.26543000  1.0
  C  C89  1  0.10134000  0.84951000  0.73457000  1.0
  C  C90  1  0.73222000  0.14207000  0.25041000  1.0
  C  C91  1  0.26779000  0.85793000  0.74959000  1.0
  C  C92  1  0.58496000  0.17957000  0.31109000  1.0
  C  C93  1  0.41504000  0.82044000  0.68891000  1.0
  C  C94  1  0.60548000  0.22816000  0.38562000  1.0
  C  C95  1  0.39452000  0.77184000  0.61437000  1.0
  C  C96  1  0.77091000  0.23495000  0.40306000  1.0
  C  C97  1  0.22910000  0.76505000  0.59694000  1.0
  C  C98  1  0.91732000  0.19456000  0.34346000  1.0
  C  C99  1  0.08269000  0.80544000  0.65654000  1.0
  C  C100  1  0.46296000  0.25167000  0.56943000  1.0
  C  C101  1  0.53705000  0.74834000  0.43057000  1.0
  C  C102  1  0.46491000  0.13872000  0.61434000  1.0
  C  C103  1  0.53509000  0.86128000  0.38566000  1.0
  C  C104  1  0.50187000  0.10641000  0.70684000  1.0
  C  C105  1  0.49813000  0.89359000  0.29316000  1.0
  C  C106  1  0.53982000  0.18544000  0.75303000  1.0
  C  C107  1  0.46017000  0.81457000  0.24697000  1.0
  C  C108  1  0.53826000  0.29792000  0.70674000  1.0
  C  C109  1  0.46173000  0.70208000  0.29327000  1.0
  C  C110  1  0.49880000  0.33213000  0.61462000  1.0
  C  C111  1  0.50120000  0.66787000  0.38538000  1.0
  C  C112  1  0.58967000  0.14786000  0.85112000  1.0
  C  C113  1  0.41033000  0.85214000  0.14888000  1.0
  S  S114  1  0.41298000  0.29487000  0.45197000  1.0
  S  S115  1  0.58702000  0.70514000  0.54803000  1.0
  N  N116  1  0.26752000  0.27946000  0.01048000  1.0
  N  N117  1  0.73247000  0.72053000  0.98952000  1.0
  N  N118  1  0.14052000  0.20327000  0.87694000  1.0
  N  N119  1  0.85949000  0.79672000  0.12306000  1.0
  O  O120  1  0.03326000  0.08993000  0.12137000  1.0
  O  O121  1  0.96674000  0.91006000  0.87864000  1.0
  O  O122  1  0.20471000  0.12404000  0.21654000  1.0
  O  O123  1  0.79529000  0.87596000  0.78345000  1.0
  O  O124  1  0.27000000  0.24742000  0.43920000  1.0
  O  O125  1  0.73001000  0.75259000  0.56080000  1.0
  O  O126  1  0.39298000  0.41927000  0.42782000  1.0
  O  O127  1  0.60703000  0.58073000  0.57218000  1.0
  O  O128  1  0.53723000  0.06037000  0.90003000  1.0
  O  O129  1  0.46277000  0.93963000  0.09997000  1.0
  O  O130  1  0.68075000  0.20261000  0.87851000  1.0
  O  O131  1  0.31924000  0.79738000  0.12149000  1.0
  O  O132  1  0.24087000  0.92225000  0.95961000  1.0
  O  O133  1  0.75912000  0.07775000  0.04039000  1.0
