# generated using pymatgen
data_CdH11C6N(ClO)2
_symmetry_space_group_name_H-M   'P 1'
_cell_length_a   6.86727000
_cell_length_b   9.78967000
_cell_length_c   13.49780000
_cell_angle_alpha   89.99990000
_cell_angle_beta   90.00000000
_cell_angle_gamma   89.99990000
_symmetry_Int_Tables_number   1
_chemical_formula_structural   CdH11C6N(ClO)2
_chemical_formula_sum   'Cd4 H44 C24 N4 Cl8 O8'
_cell_volume   907.43424358
_cell_formula_units_Z   4
loop_
 _symmetry_equiv_pos_site_id
 _symmetry_equiv_pos_as_xyz
  1  'x, y, z'
loop_
 _atom_site_type_symbol
 _atom_site_label
 _atom_site_symmetry_multiplicity
 _atom_site_fract_x
 _atom_site_fract_y
 _atom_site_fract_z
 _atom_site_occupancy
  Cd  Cd0  1  0.16085000  0.23839000  0.02371000  1.0
  Cd  Cd1  1  0.66085000  0.26161000  0.97629000  1.0
  Cd  Cd2  1  0.83915000  0.73839000  0.47629000  1.0
  Cd  Cd3  1  0.33915000  0.76161000  0.52371000  1.0
  H  H4  1  0.97886000  0.12871000  0.24722000  1.0
  H  H5  1  0.47886000  0.37129000  0.75278000  1.0
  H  H6  1  0.02114000  0.62871000  0.25278000  1.0
  H  H7  1  0.52114000  0.87129000  0.74722000  1.0
  H  H8  1  0.79349000  0.21920000  0.20084000  1.0
  H  H9  1  0.29349000  0.28080000  0.79916000  1.0
  H  H10  1  0.20651000  0.71920000  0.29916000  1.0
  H  H11  1  0.70651000  0.78080000  0.70084000  1.0
  H  H12  1  0.39391000  0.04721000  0.32869000  1.0
  H  H13  1  0.89391000  0.45279000  0.67131000  1.0
  H  H14  1  0.60609000  0.54721000  0.17131000  1.0
  H  H15  1  0.10609000  0.95279000  0.82869000  1.0
  H  H16  1  0.53402000  0.18515000  0.45340000  1.0
  H  H17  1  0.03402000  0.31485000  0.54660000  1.0
  H  H18  1  0.46598000  0.68515000  0.04660000  1.0
  H  H19  1  0.96598000  0.81485000  0.95340000  1.0
  H  H20  1  0.36560000  0.29140000  0.39067000  1.0
  H  H21  1  0.86560000  0.20860000  0.60933000  1.0
  H  H22  1  0.63440000  0.79140000  0.10933000  1.0
  H  H23  1  0.13440000  0.70860000  0.89067000  1.0
  H  H24  1  0.68435000  0.41171000  0.42635000  1.0
  H  H25  1  0.18435000  0.08829000  0.57366000  1.0
  H  H26  1  0.31565000  0.91171000  0.07366000  1.0
  H  H27  1  0.81565000  0.58829000  0.92635000  1.0
  H  H28  1  0.63694000  0.40327000  0.29802000  1.0
  H  H29  1  0.13694000  0.09673000  0.70198000  1.0
  H  H30  1  0.36306000  0.90327000  0.20198000  1.0
  H  H31  1  0.86306000  0.59673000  0.79802000  1.0
  H  H32  1  0.97833000  0.34171000  0.32560000  1.0
  H  H33  1  0.47833000  0.15829000  0.67440000  1.0
  H  H34  1  0.02167000  0.84171000  0.17440000  1.0
  H  H35  1  0.52167000  0.65829000  0.82560000  1.0
  H  H36  1  0.91105000  0.21184000  0.41184000  1.0
  H  H37  1  0.41105000  0.28816000  0.58816000  1.0
  H  H38  1  0.08895000  0.71184000  0.08816000  1.0
  H  H39  1  0.58896000  0.78816000  0.91184000  1.0
  H  H40  1  0.73979000  0.00780000  0.35336000  1.0
  H  H41  1  0.23979000  0.49221000  0.64664000  1.0
  H  H42  1  0.26020000  0.50780000  0.14664000  1.0
  H  H43  1  0.76021000  0.99220000  0.85336000  1.0
  H  H44  1  0.69390000  0.99110000  0.22330000  1.0
  H  H45  1  0.19391000  0.50891000  0.77670000  1.0
  H  H46  1  0.30610000  0.49109000  0.27670000  1.0
  H  H47  1  0.80610000  0.00891000  0.72330000  1.0
  C  C48  1  0.41331000  0.18462000  0.20500000  1.0
  C  C49  1  0.91331000  0.31538000  0.79500000  1.0
  C  C50  1  0.58669000  0.68461000  0.29500000  1.0
  C  C51  1  0.08669000  0.81538000  0.70500000  1.0
  C  C52  1  0.49331000  0.12726000  0.30219000  1.0
  C  C53  1  0.99331000  0.37274000  0.69781000  1.0
  C  C54  1  0.50669000  0.62726000  0.19781000  1.0
  C  C55  1  0.00669000  0.87274000  0.80219000  1.0
  C  C56  1  0.50623000  0.23854000  0.38309000  1.0
  C  C57  1  0.00623000  0.26146000  0.61691000  1.0
  C  C58  1  0.49377000  0.73854000  0.11691000  1.0
  C  C59  1  0.99377000  0.76146000  0.88309000  1.0
  C  C60  1  0.66965000  0.34106000  0.36363000  1.0
  C  C61  1  0.16965000  0.15894000  0.63637000  1.0
  C  C62  1  0.33035000  0.84106000  0.13637000  1.0
  C  C63  1  0.83035000  0.65894000  0.86363000  1.0
  C  C64  1  0.86326000  0.26980000  0.34660000  1.0
  C  C65  1  0.36326000  0.23020000  0.65340000  1.0
  C  C66  1  0.13674000  0.76980000  0.15340000  1.0
  C  C67  1  0.63674000  0.73020000  0.84660000  1.0
  C  C68  1  0.69376000  0.06181000  0.28627000  1.0
  C  C69  1  0.19376000  0.43819000  0.71373000  1.0
  C  C70  1  0.30624000  0.56181000  0.21373000  1.0
  C  C71  1  0.80624000  0.93819000  0.78627000  1.0
  N  N72  1  0.84303000  0.16889000  0.26412000  1.0
  N  N73  1  0.34303000  0.33111000  0.73588000  1.0
  N  N74  1  0.15697000  0.66889000  0.23588000  1.0
  N  N75  1  0.65697000  0.83111000  0.76412000  1.0
  Cl  Cl76  1  0.38110000  0.44429000  0.96288000  1.0
  Cl  Cl77  1  0.88110000  0.05572000  0.03712000  1.0
  Cl  Cl78  1  0.61890000  0.94429000  0.53712000  1.0
  Cl  Cl79  1  0.11890000  0.55571000  0.46288000  1.0
  Cl  Cl80  1  0.39982000  0.07919000  0.92131000  1.0
  Cl  Cl81  1  0.89982000  0.42081000  0.07869000  1.0
  Cl  Cl82  1  0.60018000  0.57919000  0.57869000  1.0
  Cl  Cl83  1  0.10018000  0.92081000  0.42131000  1.0
  O  O84  1  0.23016000  0.17657000  0.18783000  1.0
  O  O85  1  0.73016000  0.32343000  0.81217000  1.0
  O  O86  1  0.76984000  0.67657000  0.31216000  1.0
  O  O87  1  0.26984000  0.82343000  0.68783000  1.0
  O  O88  1  0.53386000  0.23931000  0.14600000  1.0
  O  O89  1  0.03387000  0.26069000  0.85400000  1.0
  O  O90  1  0.46613000  0.73931000  0.35400000  1.0
  O  O91  1  0.96613000  0.76069000  0.64600000  1.0
