# generated using pymatgen
data_NdH27C22(NO5)2
_symmetry_space_group_name_H-M   'P 1'
_cell_length_a   9.30319000
_cell_length_b   11.90810000
_cell_length_c   12.85340000
_cell_angle_alpha   84.44800000
_cell_angle_beta   70.43420000
_cell_angle_gamma   68.54670000
_symmetry_Int_Tables_number   1
_chemical_formula_structural   NdH27C22(NO5)2
_chemical_formula_sum   'Nd2 H54 C44 N4 O20'
_cell_volume   1248.22278522
_cell_formula_units_Z   2
loop_
 _symmetry_equiv_pos_site_id
 _symmetry_equiv_pos_as_xyz
  1  'x, y, z'
loop_
 _atom_site_type_symbol
 _atom_site_label
 _atom_site_symmetry_multiplicity
 _atom_site_fract_x
 _atom_site_fract_y
 _atom_site_fract_z
 _atom_site_occupancy
  Nd  Nd0  1  0.84818000  0.89293000  0.52200000  1.0
  Nd  Nd1  1  0.15182000  0.10707000  0.47800000  1.0
  H  H2  1  0.88085000  0.27266000  0.32580000  1.0
  H  H3  1  0.11914000  0.72734000  0.67421000  1.0
  H  H4  1  0.64337000  0.19783000  0.25262000  1.0
  H  H5  1  0.35663000  0.80216000  0.74738000  1.0
  H  H6  1  0.78326000  0.40387000  0.18233000  1.0
  H  H7  1  0.21674000  0.59613000  0.81767000  1.0
  H  H8  1  0.59117000  0.40610000  0.17858000  1.0
  H  H9  1  0.40882000  0.59390000  0.82142000  1.0
  H  H10  1  0.77399000  0.30985000  0.08640000  1.0
  H  H11  1  0.22601000  0.69015000  0.91360000  1.0
  H  H12  1  0.28697000  0.57770000  0.24632000  1.0
  H  H13  1  0.71304000  0.42230000  0.75368000  1.0
  H  H14  1  0.28119000  0.82244000  0.14112000  1.0
  H  H15  1  0.71881000  0.17756000  0.85888000  1.0
  H  H16  1  0.57557000  0.68012000  0.06194000  1.0
  H  H17  1  0.42443000  0.31988000  0.93806000  1.0
  H  H18  1  0.46360000  0.68827000  0.97429000  1.0
  H  H19  1  0.53640000  0.31173000  0.02571000  1.0
  H  H20  1  0.50450000  0.55941000  0.06023000  1.0
  H  H21  1  0.49550000  0.44059000  0.93977000  1.0
  H  H22  1  0.75233000  0.60682000  0.89568000  1.0
  H  H23  1  0.24767000  0.39318000  0.10432000  1.0
  H  H24  1  0.05456000  0.53741000  0.68809000  1.0
  H  H25  1  0.94544000  0.46259000  0.31191000  1.0
  H  H26  1  0.96777000  0.41765000  0.91653000  1.0
  H  H27  1  0.03222000  0.58235000  0.08347000  1.0
  H  H28  1  0.16928000  0.40997000  0.83520000  1.0
  H  H29  1  0.83072000  0.59003000  0.16480000  1.0
  H  H30  1  0.06974000  0.33550000  0.78782000  1.0
  H  H31  1  0.93026000  0.66450000  0.21218000  1.0
  H  H32  1  0.50142000  0.18135000  0.64082000  1.0
  H  H33  1  0.49858000  0.81865000  0.35919000  1.0
  H  H34  1  0.63127000  0.33665000  0.59722000  1.0
  H  H35  1  0.36873000  0.66335000  0.40279000  1.0
  H  H36  1  0.74064000  0.45781000  0.55118000  1.0
  H  H37  1  0.25936000  0.54219000  0.44882000  1.0
  H  H38  1  0.84931000  0.62366000  0.50420000  1.0
  H  H39  1  0.15069000  0.37634000  0.49580000  1.0
  H  H40  1  0.46784000  0.92492000  0.61057000  1.0
  H  H41  1  0.53216000  0.07508000  0.38943000  1.0
  H  H42  1  0.56846000  0.87518000  0.69799000  1.0
  H  H43  1  0.43154000  0.12482000  0.30201000  1.0
  H  H44  1  0.82549000  0.06191000  0.69625000  1.0
  H  H45  1  0.17451000  0.93809000  0.30375000  1.0
  H  H46  1  0.64999000  0.04527000  0.74941000  1.0
  H  H47  1  0.35001000  0.95473000  0.25059000  1.0
  H  H48  1  0.68947000  0.90068000  0.26123000  1.0
  H  H49  1  0.31053000  0.09932000  0.73877000  1.0
  H  H50  1  0.93006000  0.95920000  0.19306000  1.0
  H  H51  1  0.06994000  0.04081000  0.80693000  1.0
  H  H52  1  0.88716000  0.97426000  0.86500000  1.0
  H  H53  1  0.11284000  0.02574000  0.13500000  1.0
  H  H54  1  0.64676000  0.91268000  0.94786000  1.0
  H  H55  1  0.35324000  0.08732000  0.05214000  1.0
  C  C56  1  0.80044000  0.12546000  0.40250000  1.0
  C  C57  1  0.19956000  0.87453000  0.59750000  1.0
  C  C58  1  0.80224000  0.22392000  0.32427000  1.0
  C  C59  1  0.19777000  0.77608000  0.67573000  1.0
  C  C60  1  0.71788000  0.25051000  0.25278000  1.0
  C  C61  1  0.28212000  0.74948000  0.74722000  1.0
  C  C62  1  0.71751000  0.34827000  0.17147000  1.0
  C  C63  1  0.28248000  0.65172000  0.82853000  1.0
  C  C64  1  0.11364000  0.74876000  0.33022000  1.0
  C  C65  1  0.88636000  0.25124000  0.66977000  1.0
  C  C66  1  0.24773000  0.67536000  0.23629000  1.0
  C  C67  1  0.75227000  0.32464000  0.76371000  1.0
  C  C68  1  0.32519000  0.72426000  0.14673000  1.0
  C  C69  1  0.67481000  0.27574000  0.85327000  1.0
  C  C70  1  0.47369000  0.65749000  0.05594000  1.0
  C  C71  1  0.52631000  0.34251000  0.94405000  1.0
  C  C72  1  0.76393000  0.71813000  0.74898000  1.0
  C  C73  1  0.23607000  0.28187000  0.25102000  1.0
  C  C74  1  0.83239000  0.61309000  0.81280000  1.0
  C  C75  1  0.16761000  0.38691000  0.18720000  1.0
  C  C76  1  0.98020000  0.52740000  0.77228000  1.0
  C  C77  1  0.01979000  0.47260000  0.22772000  1.0
  C  C78  1  0.04911000  0.41781000  0.83184000  1.0
  C  C79  1  0.95089000  0.58219000  0.16816000  1.0
  C  C80  1  0.45644000  0.26319000  0.59794000  1.0
  C  C81  1  0.54356000  0.73681000  0.40207000  1.0
  C  C82  1  0.52500000  0.35119000  0.57266000  1.0
  C  C83  1  0.47500000  0.64882000  0.42735000  1.0
  C  C84  1  0.46214000  0.45401000  0.51512000  1.0
  C  C85  1  0.53786000  0.54599000  0.48488000  1.0
  C  C86  1  0.67652000  0.53647000  0.51181000  1.0
  C  C87  1  0.32348000  0.46353000  0.48819000  1.0
  C  C88  1  0.74223000  0.62623000  0.48583000  1.0
  C  C89  1  0.25777000  0.37377000  0.51418000  1.0
  C  C90  1  0.73695000  0.92057000  0.17490000  1.0
  C  C91  1  0.26305000  0.07943000  0.82510000  1.0
  C  C92  1  0.87122000  0.95497000  0.13401000  1.0
  C  C93  1  0.12878000  0.04503000  0.86599000  1.0
  C  C94  1  0.93013000  0.97978000  0.02167000  1.0
  C  C95  1  0.06987000  0.02022000  0.97832000  1.0
  C  C96  1  0.84788000  0.96213000  0.95382000  1.0
  C  C97  1  0.15212000  0.03787000  0.04617000  1.0
  C  C98  1  0.71360000  0.92757000  0.99707000  1.0
  C  C99  1  0.28640000  0.07243000  0.00293000  1.0
  N  N100  1  0.32530000  0.27384000  0.56733000  1.0
  N  N101  1  0.67470000  0.72616000  0.43267000  1.0
  N  N102  1  0.65594000  0.90929000  0.10773000  1.0
  N  N103  1  0.34406000  0.09071000  0.89227000  1.0
  O  O104  1  0.70662000  0.06538000  0.41577000  1.0
  O  O105  1  0.29339000  0.93462000  0.58423000  1.0
  O  O106  1  0.89894000  0.09769000  0.45936000  1.0
  O  O107  1  0.10106000  0.90231000  0.54065000  1.0
  O  O108  1  0.04747000  0.86422000  0.32323000  1.0
  O  O109  1  0.95253000  0.13578000  0.67677000  1.0
  O  O110  1  0.06758000  0.69694000  0.42038000  1.0
  O  O111  1  0.93242000  0.30306000  0.57962000  1.0
  O  O112  1  0.85754000  0.73471000  0.65392000  1.0
  O  O113  1  0.14246000  0.26529000  0.34608000  1.0
  O  O114  1  0.61500000  0.78476000  0.79179000  1.0
  O  O115  1  0.38499000  0.21524000  0.20821000  1.0
  O  O116  1  0.26414000  0.18766000  0.59141000  1.0
  O  O117  1  0.73586000  0.81234000  0.40859000  1.0
  O  O118  1  0.56194000  0.92594000  0.62993000  1.0
  O  O119  1  0.43805000  0.07407000  0.37007000  1.0
  O  O120  1  0.76170000  0.01079000  0.69493000  1.0
  O  O121  1  0.23830000  0.98921000  0.30507000  1.0
  O  O122  1  0.52715000  0.87800000  0.14779000  1.0
  O  O123  1  0.47285000  0.12201000  0.85221000  1.0
