# generated using pymatgen
data_ZnH34C31(NO)4
_symmetry_space_group_name_H-M   'P 1'
_cell_length_a   8.77078000
_cell_length_b   14.53870000
_cell_length_c   24.66090000
_cell_angle_alpha   90.00000000
_cell_angle_beta   89.99980000
_cell_angle_gamma   89.99980000
_symmetry_Int_Tables_number   1
_chemical_formula_structural   ZnH34C31(NO)4
_chemical_formula_sum   'Zn4 H136 C124 N16 O16'
_cell_volume   3144.65289245
_cell_formula_units_Z   4
loop_
 _symmetry_equiv_pos_site_id
 _symmetry_equiv_pos_as_xyz
  1  'x, y, z'
loop_
 _atom_site_type_symbol
 _atom_site_label
 _atom_site_symmetry_multiplicity
 _atom_site_fract_x
 _atom_site_fract_y
 _atom_site_fract_z
 _atom_site_occupancy
  Zn  Zn0  1  0.46830000  0.75000000  0.96142000  1.0
  Zn  Zn1  1  0.53170000  0.25000000  0.03859000  1.0
  Zn  Zn2  1  0.46830000  0.25000000  0.53858000  1.0
  Zn  Zn3  1  0.53170000  0.75000000  0.46142000  1.0
  H  H4  1  0.16449000  0.75000000  0.09321000  1.0
  H  H5  1  0.83550000  0.25000000  0.90679000  1.0
  H  H6  1  0.16450000  0.25000000  0.40679000  1.0
  H  H7  1  0.83551000  0.75000000  0.59321000  1.0
  H  H8  1  0.58787000  0.74999000  0.18025000  1.0
  H  H9  1  0.41213000  0.25000000  0.81975000  1.0
  H  H10  1  0.58787000  0.25000000  0.31975000  1.0
  H  H11  1  0.41213000  0.75000000  0.68025000  1.0
  H  H12  1  0.44990000  0.75000000  0.26944000  1.0
  H  H13  1  0.55010000  0.25000000  0.73056000  1.0
  H  H14  1  0.44990000  0.25000000  0.23056000  1.0
  H  H15  1  0.55010000  0.75000000  0.76944000  1.0
  H  H16  1  0.24600000  0.75000000  0.34936000  1.0
  H  H17  1  0.75399000  0.25000000  0.65065000  1.0
  H  H18  1  0.24601000  0.25000000  0.15065000  1.0
  H  H19  1  0.75399000  0.75000000  0.84935000  1.0
  H  H20  1  0.01166000  0.75000000  0.40765000  1.0
  H  H21  1  0.98833000  0.25000000  0.59235000  1.0
  H  H22  1  0.01167000  0.25000000  0.09235000  1.0
  H  H23  1  0.98833000  0.75000000  0.90765000  1.0
  H  H24  1  0.72398000  0.75000000  0.26698000  1.0
  H  H25  1  0.27601000  0.25000000  0.73302000  1.0
  H  H26  1  0.72399000  0.25000000  0.23302000  1.0
  H  H27  1  0.27601000  0.75000000  0.76698000  1.0
  H  H28  1  0.77791000  0.66449000  0.17547000  1.0
  H  H29  1  0.22209000  0.16449000  0.82453000  1.0
  H  H30  1  0.77792000  0.33551000  0.32453000  1.0
  H  H31  1  0.22209000  0.83551000  0.67547000  1.0
  H  H32  1  0.22208000  0.33551000  0.82453000  1.0
  H  H33  1  0.77792000  0.83551000  0.17547000  1.0
  H  H34  1  0.22209000  0.66449000  0.67547000  1.0
  H  H35  1  0.77792000  0.16449000  0.32453000  1.0
  H  H36  1  0.90473000  0.66850000  0.12069000  1.0
  H  H37  1  0.09528000  0.16850000  0.87931000  1.0
  H  H38  1  0.90472000  0.33150000  0.37931000  1.0
  H  H39  1  0.09527000  0.83149000  0.62069000  1.0
  H  H40  1  0.09528000  0.33149000  0.87931000  1.0
  H  H41  1  0.90473000  0.83149000  0.12069000  1.0
  H  H42  1  0.09527000  0.66851000  0.62069000  1.0
  H  H43  1  0.90473000  0.16850000  0.37931000  1.0
  H  H44  1  0.08687000  0.56601000  0.16940000  1.0
  H  H45  1  0.91313000  0.06601000  0.83060000  1.0
  H  H46  1  0.08688000  0.43399000  0.33060000  1.0
  H  H47  1  0.91313000  0.93399000  0.66940000  1.0
  H  H48  1  0.91312000  0.43399000  0.83060000  1.0
  H  H49  1  0.08688000  0.93399000  0.16940000  1.0
  H  H50  1  0.91313000  0.56601000  0.66940000  1.0
  H  H51  1  0.08688000  0.06601000  0.33060000  1.0
  H  H52  1  0.97551000  0.57148000  0.22851000  1.0
  H  H53  1  0.02449000  0.07148000  0.77149000  1.0
  H  H54  1  0.97551000  0.42853000  0.27149000  1.0
  H  H55  1  0.02450000  0.92853000  0.72851000  1.0
  H  H56  1  0.02449000  0.42852000  0.77149000  1.0
  H  H57  1  0.97551000  0.92852000  0.22851000  1.0
  H  H58  1  0.02449000  0.57148000  0.72851000  1.0
  H  H59  1  0.97551000  0.07148000  0.27149000  1.0
  H  H60  1  0.92796000  0.42445000  0.17792000  1.0
  H  H61  1  0.07205000  0.92445000  0.82208000  1.0
  H  H62  1  0.92795000  0.57555000  0.32208000  1.0
  H  H63  1  0.07205000  0.07555000  0.67792000  1.0
  H  H64  1  0.07205000  0.57555000  0.82208000  1.0
  H  H65  1  0.92796000  0.07555000  0.17792000  1.0
  H  H66  1  0.07205000  0.42445000  0.67792000  1.0
  H  H67  1  0.92796000  0.92445000  0.32208000  1.0
  H  H68  1  0.86851000  0.48726000  0.12042000  1.0
  H  H69  1  0.13149000  0.98726000  0.87958000  1.0
  H  H70  1  0.86851000  0.51274000  0.37958000  1.0
  H  H71  1  0.13149000  0.01274000  0.62042000  1.0
  H  H72  1  0.13149000  0.51274000  0.87958000  1.0
  H  H73  1  0.86851000  0.01274000  0.12042000  1.0
  H  H74  1  0.13149000  0.48726000  0.62042000  1.0
  H  H75  1  0.86851000  0.98726000  0.37958000  1.0
  H  H76  1  0.75899000  0.49143000  0.18076000  1.0
  H  H77  1  0.24101000  0.99143000  0.81924000  1.0
  H  H78  1  0.75899000  0.50857000  0.31924000  1.0
  H  H79  1  0.24102000  0.00857000  0.68076000  1.0
  H  H80  1  0.24101000  0.50857000  0.81924000  1.0
  H  H81  1  0.75899000  0.00857000  0.18076000  1.0
  H  H82  1  0.24101000  0.49143000  0.68076000  1.0
  H  H83  1  0.75899000  0.99143000  0.31924000  1.0
  H  H84  1  0.69396000  0.06304000  0.89502000  1.0
  H  H85  1  0.30603000  0.56304000  0.10498000  1.0
  H  H86  1  0.69395000  0.93697000  0.60498000  1.0
  H  H87  1  0.30604000  0.43697000  0.39502000  1.0
  H  H88  1  0.30603000  0.93696000  0.10498000  1.0
  H  H89  1  0.69396000  0.43697000  0.89502000  1.0
  H  H90  1  0.30603000  0.06303000  0.39502000  1.0
  H  H91  1  0.69396000  0.56304000  0.60498000  1.0
  H  H92  1  0.53341000  0.90234000  0.86811000  1.0
  H  H93  1  0.46659000  0.40235000  0.13189000  1.0
  H  H94  1  0.53339000  0.09766000  0.63189000  1.0
  H  H95  1  0.46660000  0.59766000  0.36811000  1.0
  H  H96  1  0.46660000  0.09766000  0.13189000  1.0
  H  H97  1  0.53340000  0.59766000  0.86811000  1.0
  H  H98  1  0.46659000  0.90234000  0.36811000  1.0
  H  H99  1  0.53340000  0.40235000  0.63189000  1.0
  H  H100  1  0.66885000  0.88649000  0.03190000  1.0
  H  H101  1  0.33115000  0.38649000  0.96810000  1.0
  H  H102  1  0.66886000  0.11351000  0.46810000  1.0
  H  H103  1  0.33115000  0.61351000  0.53190000  1.0
  H  H104  1  0.33115000  0.11350000  0.96810000  1.0
  H  H105  1  0.66885000  0.61351000  0.03190000  1.0
  H  H106  1  0.33115000  0.88650000  0.53190000  1.0
  H  H107  1  0.66886000  0.38649000  0.46810000  1.0
  H  H108  1  0.77244000  0.04979000  0.04627000  1.0
  H  H109  1  0.22756000  0.54979000  0.95373000  1.0
  H  H110  1  0.77245000  0.95021000  0.45373000  1.0
  H  H111  1  0.22756000  0.45021000  0.54627000  1.0
  H  H112  1  0.22756000  0.95021000  0.95373000  1.0
  H  H113  1  0.77244000  0.45021000  0.04627000  1.0
  H  H114  1  0.22756000  0.04979000  0.54627000  1.0
  H  H115  1  0.77244000  0.54979000  0.45373000  1.0
  H  H116  1  0.76194000  0.12932000  0.99218000  1.0
  H  H117  1  0.23805000  0.62932000  0.00782000  1.0
  H  H118  1  0.76194000  0.87068000  0.50782000  1.0
  H  H119  1  0.23806000  0.37068000  0.49218000  1.0
  H  H120  1  0.23806000  0.87068000  0.00782000  1.0
  H  H121  1  0.76194000  0.37068000  0.99218000  1.0
  H  H122  1  0.23806000  0.12932000  0.49218000  1.0
  H  H123  1  0.76194000  0.62932000  0.50782000  1.0
  H  H124  1  0.99430000  0.06303000  0.94985000  1.0
  H  H125  1  0.00569000  0.56303000  0.05015000  1.0
  H  H126  1  0.99431000  0.93697000  0.55016000  1.0
  H  H127  1  0.00570000  0.43697000  0.44984000  1.0
  H  H128  1  0.00570000  0.93697000  0.05016000  1.0
  H  H129  1  0.99430000  0.43697000  0.94984000  1.0
  H  H130  1  0.00570000  0.06303000  0.44985000  1.0
  H  H131  1  0.99431000  0.56303000  0.55015000  1.0
  H  H132  1  0.02852000  0.10074000  0.01682000  1.0
  H  H133  1  0.97148000  0.60074000  0.98318000  1.0
  H  H134  1  0.02852000  0.89926000  0.48319000  1.0
  H  H135  1  0.97148000  0.39926000  0.51682000  1.0
  H  H136  1  0.97148000  0.89926000  0.98319000  1.0
  H  H137  1  0.02852000  0.39926000  0.01681000  1.0
  H  H138  1  0.97148000  0.10074000  0.51682000  1.0
  H  H139  1  0.02852000  0.60074000  0.48318000  1.0
  C  C140  1  0.22472000  0.75000000  0.13191000  1.0
  C  C141  1  0.77528000  0.25000000  0.86809000  1.0
  C  C142  1  0.22472000  0.25000000  0.36809000  1.0
  C  C143  1  0.77528000  0.75000000  0.63191000  1.0
  C  C144  1  0.38511000  0.74999000  0.13204000  1.0
  C  C145  1  0.61488000  0.25000000  0.86796000  1.0
  C  C146  1  0.38511000  0.25000000  0.36796000  1.0
  C  C147  1  0.61489000  0.75000000  0.63204000  1.0
  C  C148  1  0.46383000  0.74999000  0.18168000  1.0
  C  C149  1  0.53617000  0.25000000  0.81832000  1.0
  C  C150  1  0.46383000  0.25000000  0.31831000  1.0
  C  C151  1  0.53617000  0.75000000  0.68169000  1.0
  C  C152  1  0.38673000  0.74999000  0.23121000  1.0
  C  C153  1  0.61326000  0.25000000  0.76879000  1.0
  C  C154  1  0.38673000  0.25000000  0.26878000  1.0
  C  C155  1  0.61326000  0.75000000  0.73122000  1.0
  C  C156  1  0.13266000  0.75000000  0.33109000  1.0
  C  C157  1  0.86733000  0.25000000  0.66891000  1.0
  C  C158  1  0.13267000  0.25000000  0.16891000  1.0
  C  C159  1  0.86733000  0.75000000  0.83109000  1.0
  C  C160  1  0.00231000  0.75000000  0.36357000  1.0
  C  C161  1  0.99768000  0.25000000  0.63643000  1.0
  C  C162  1  0.00232000  0.25000000  0.13643000  1.0
  C  C163  1  0.99768000  0.75000000  0.86357000  1.0
  C  C164  1  0.85580000  0.75000000  0.34032000  1.0
  C  C165  1  0.14420000  0.25000000  0.65967000  1.0
  C  C166  1  0.85580000  0.25000000  0.15967000  1.0
  C  C167  1  0.14420000  0.75000000  0.84033000  1.0
  C  C168  1  0.83892000  0.75000000  0.28374000  1.0
  C  C169  1  0.16107000  0.25000000  0.71626000  1.0
  C  C170  1  0.83893000  0.25000000  0.21626000  1.0
  C  C171  1  0.16107000  0.75000000  0.78374000  1.0
  C  C172  1  0.97586000  0.75000000  0.18962000  1.0
  C  C173  1  0.02414000  0.25000000  0.81038000  1.0
  C  C174  1  0.97586000  0.25000000  0.31038000  1.0
  C  C175  1  0.02414000  0.75000000  0.68962000  1.0
  C  C176  1  0.14704000  0.75000000  0.18076000  1.0
  C  C177  1  0.85296000  0.25000000  0.81924000  1.0
  C  C178  1  0.14704000  0.25000000  0.31924000  1.0
  C  C179  1  0.85296000  0.75000000  0.68076000  1.0
  C  C180  1  0.22694000  0.75000000  0.23055000  1.0
  C  C181  1  0.77305000  0.25000000  0.76945000  1.0
  C  C182  1  0.22695000  0.25000000  0.26945000  1.0
  C  C183  1  0.77305000  0.75000000  0.73055000  1.0
  C  C184  1  0.11480000  0.75000000  0.27460000  1.0
  C  C185  1  0.88520000  0.25000000  0.72540000  1.0
  C  C186  1  0.11480000  0.25000000  0.22540000  1.0
  C  C187  1  0.88520000  0.75000000  0.77460000  1.0
  C  C188  1  0.96746000  0.75000000  0.25120000  1.0
  C  C189  1  0.03254000  0.25000000  0.74880000  1.0
  C  C190  1  0.96746000  0.25000000  0.24880000  1.0
  C  C191  1  0.03254000  0.75000000  0.75120000  1.0
  C  C192  1  0.47055000  0.75000000  0.07920000  1.0
  C  C193  1  0.52944000  0.25000000  0.92080000  1.0
  C  C194  1  0.47055000  0.25000000  0.42080000  1.0
  C  C195  1  0.52945000  0.75000000  0.57920000  1.0
  C  C196  1  0.71565000  0.75000000  0.37467000  1.0
  C  C197  1  0.28434000  0.25000000  0.62532000  1.0
  C  C198  1  0.71566000  0.25000000  0.12532000  1.0
  C  C199  1  0.28434000  0.75000000  0.87468000  1.0
  C  C200  1  0.90010000  0.66314000  0.16525000  1.0
  C  C201  1  0.09990000  0.16314000  0.83475000  1.0
  C  C202  1  0.90010000  0.33686000  0.33475000  1.0
  C  C203  1  0.09990000  0.83686000  0.66525000  1.0
  C  C204  1  0.09990000  0.33686000  0.83475000  1.0
  C  C205  1  0.90010000  0.83686000  0.16525000  1.0
  C  C206  1  0.09990000  0.66314000  0.66525000  1.0
  C  C207  1  0.90010000  0.16314000  0.33475000  1.0
  C  C208  1  0.96856000  0.57204000  0.18396000  1.0
  C  C209  1  0.03145000  0.07204000  0.81604000  1.0
  C  C210  1  0.96856000  0.42796000  0.31604000  1.0
  C  C211  1  0.03145000  0.92796000  0.68396000  1.0
  C  C212  1  0.03144000  0.42796000  0.81604000  1.0
  C  C213  1  0.96856000  0.92796000  0.18396000  1.0
  C  C214  1  0.03145000  0.57204000  0.68396000  1.0
  C  C215  1  0.96856000  0.07204000  0.31604000  1.0
  C  C216  1  0.87624000  0.48937000  0.16491000  1.0
  C  C217  1  0.12376000  0.98937000  0.83509000  1.0
  C  C218  1  0.87624000  0.51063000  0.33509000  1.0
  C  C219  1  0.12377000  0.01063000  0.66491000  1.0
  C  C220  1  0.12376000  0.51063000  0.83509000  1.0
  C  C221  1  0.87624000  0.01063000  0.16491000  1.0
  C  C222  1  0.12376000  0.48937000  0.66491000  1.0
  C  C223  1  0.87624000  0.98938000  0.33509000  1.0
  C  C224  1  0.66496000  0.00257000  0.91859000  1.0
  C  C225  1  0.33504000  0.50257000  0.08141000  1.0
  C  C226  1  0.66495000  0.99743000  0.58141000  1.0
  C  C227  1  0.33504000  0.49743000  0.41859000  1.0
  C  C228  1  0.33504000  0.99743000  0.08141000  1.0
  C  C229  1  0.66496000  0.49743000  0.91859000  1.0
  C  C230  1  0.33504000  0.00257000  0.41859000  1.0
  C  C231  1  0.66497000  0.50257000  0.58141000  1.0
  C  C232  1  0.58590000  0.92392000  0.90583000  1.0
  C  C233  1  0.41410000  0.42392000  0.09417000  1.0
  C  C234  1  0.58589000  0.07608000  0.59417000  1.0
  C  C235  1  0.41411000  0.57608000  0.40583000  1.0
  C  C236  1  0.41410000  0.07608000  0.09417000  1.0
  C  C237  1  0.58590000  0.57608000  0.90583000  1.0
  C  C238  1  0.41410000  0.92392000  0.40583000  1.0
  C  C239  1  0.58590000  0.42392000  0.59418000  1.0
  C  C240  1  0.65348000  0.91277000  0.99100000  1.0
  C  C241  1  0.34652000  0.41277000  0.00900000  1.0
  C  C242  1  0.65348000  0.08723000  0.50900000  1.0
  C  C243  1  0.34652000  0.58723000  0.49100000  1.0
  C  C244  1  0.34652000  0.08723000  0.00900000  1.0
  C  C245  1  0.65348000  0.58723000  0.99100000  1.0
  C  C246  1  0.34652000  0.91277000  0.49100000  1.0
  C  C247  1  0.65348000  0.41277000  0.50901000  1.0
  C  C248  1  0.79924000  0.05980000  0.00319000  1.0
  C  C249  1  0.20075000  0.55980000  0.99681000  1.0
  C  C250  1  0.79925000  0.94020000  0.49681000  1.0
  C  C251  1  0.20076000  0.44020000  0.50319000  1.0
  C  C252  1  0.20075000  0.94020000  0.99681000  1.0
  C  C253  1  0.79924000  0.44020000  0.00319000  1.0
  C  C254  1  0.20076000  0.05980000  0.50319000  1.0
  C  C255  1  0.79925000  0.55980000  0.49681000  1.0
  C  C256  1  0.96976000  0.04772000  0.99274000  1.0
  C  C257  1  0.03023000  0.54772000  0.00726000  1.0
  C  C258  1  0.96977000  0.95228000  0.50726000  1.0
  C  C259  1  0.03024000  0.45228000  0.49274000  1.0
  C  C260  1  0.03023000  0.95228000  0.00726000  1.0
  C  C261  1  0.96976000  0.45228000  0.99274000  1.0
  C  C262  1  0.03023000  0.04772000  0.49274000  1.0
  C  C263  1  0.96977000  0.54772000  0.50726000  1.0
  N  N264  1  0.57976000  0.86858000  0.95140000  1.0
  N  N265  1  0.42024000  0.36858000  0.04859000  1.0
  N  N266  1  0.57976000  0.13142000  0.54860000  1.0
  N  N267  1  0.42024000  0.63142000  0.45140000  1.0
  N  N268  1  0.42024000  0.13142000  0.04860000  1.0
  N  N269  1  0.57976000  0.63142000  0.95140000  1.0
  N  N270  1  0.42024000  0.86858000  0.45140000  1.0
  N  N271  1  0.57977000  0.36858000  0.54860000  1.0
  N  N272  1  0.70626000  0.99443000  0.97252000  1.0
  N  N273  1  0.29373000  0.49443000  0.02747000  1.0
  N  N274  1  0.70626000  0.00557000  0.52748000  1.0
  N  N275  1  0.29374000  0.50557000  0.47252000  1.0
  N  N276  1  0.29374000  0.00557000  0.02748000  1.0
  N  N277  1  0.70626000  0.50557000  0.97252000  1.0
  N  N278  1  0.29374000  0.99443000  0.47252000  1.0
  N  N279  1  0.70627000  0.49443000  0.52748000  1.0
  O  O280  1  0.38323000  0.75000000  0.03648000  1.0
  O  O281  1  0.61677000  0.25000000  0.96352000  1.0
  O  O282  1  0.38323000  0.25000000  0.46352000  1.0
  O  O283  1  0.61677000  0.75000000  0.53648000  1.0
  O  O284  1  0.61337000  0.75000000  0.07801000  1.0
  O  O285  1  0.38663000  0.25000000  0.92199000  1.0
  O  O286  1  0.61337000  0.25000000  0.42199000  1.0
  O  O287  1  0.38663000  0.75000000  0.57801000  1.0
  O  O288  1  0.73683000  0.75000000  0.42678000  1.0
  O  O289  1  0.26316000  0.25000000  0.57322000  1.0
  O  O290  1  0.73684000  0.25000000  0.07322000  1.0
  O  O291  1  0.26316000  0.75000000  0.92678000  1.0
  O  O292  1  0.58512000  0.75000000  0.35331000  1.0
  O  O293  1  0.41488000  0.25001000  0.64669000  1.0
  O  O294  1  0.58513000  0.24999000  0.14669000  1.0
  O  O295  1  0.41488000  0.75000000  0.85331000  1.0
