# generated using pymatgen
data_CdH20C14(NO2)4
_symmetry_space_group_name_H-M   'P 1'
_cell_length_a   7.25560000
_cell_length_b   9.09141000
_cell_length_c   13.35970000
_cell_angle_alpha   90.00000000
_cell_angle_beta   90.00010000
_cell_angle_gamma   96.36930000
_symmetry_Int_Tables_number   1
_chemical_formula_structural   CdH20C14(NO2)4
_chemical_formula_sum   'Cd2 H40 C28 N8 O16'
_cell_volume   875.81482681
_cell_formula_units_Z   2
loop_
 _symmetry_equiv_pos_site_id
 _symmetry_equiv_pos_as_xyz
  1  'x, y, z'
loop_
 _atom_site_type_symbol
 _atom_site_label
 _atom_site_symmetry_multiplicity
 _atom_site_fract_x
 _atom_site_fract_y
 _atom_site_fract_z
 _atom_site_occupancy
  Cd  Cd0  1  0.50000000  0.50000000  0.50000000  1.0
  Cd  Cd1  1  0.00000000  0.50000000  0.00000000  1.0
  H  H2  1  0.73101000  0.66293000  0.34182000  1.0
  H  H3  1  0.76899000  0.33708000  0.84182000  1.0
  H  H4  1  0.26899000  0.33707000  0.65818000  1.0
  H  H5  1  0.23101000  0.66293000  0.15818000  1.0
  H  H6  1  0.88023000  0.60160000  0.41335000  1.0
  H  H7  1  0.61977000  0.39840000  0.91335000  1.0
  H  H8  1  0.11977000  0.39840000  0.58665000  1.0
  H  H9  1  0.38023000  0.60160000  0.08665000  1.0
  H  H10  1  0.53789000  0.51050000  0.73543000  1.0
  H  H11  1  0.96211000  0.48951000  0.23543000  1.0
  H  H12  1  0.46211000  0.48951000  0.26456000  1.0
  H  H13  1  0.03790000  0.51049000  0.76457000  1.0
  H  H14  1  0.55887000  0.68921000  0.87530000  1.0
  H  H15  1  0.94113000  0.31079000  0.37530000  1.0
  H  H16  1  0.44112000  0.31079000  0.12470000  1.0
  H  H17  1  0.05888000  0.68921000  0.62470000  1.0
  H  H18  1  0.56206000  0.04008000  0.65648000  1.0
  H  H19  1  0.93794000  0.95992000  0.15648000  1.0
  H  H20  1  0.43794000  0.95992000  0.34352000  1.0
  H  H21  1  0.06207000  0.04008000  0.84352000  1.0
  H  H22  1  0.54324000  0.84378000  0.52367000  1.0
  H  H23  1  0.95676000  0.15622000  0.02367000  1.0
  H  H24  1  0.45676000  0.15622000  0.47633000  1.0
  H  H25  1  0.04325000  0.84378000  0.97633000  1.0
  H  H26  1  0.69772000  0.06554000  0.85678000  1.0
  H  H27  1  0.80227000  0.93446000  0.35678000  1.0
  H  H28  1  0.30228000  0.93446000  0.14322000  1.0
  H  H29  1  0.19772000  0.06554000  0.64322000  1.0
  H  H30  1  0.46260000  0.07395000  0.83655000  1.0
  H  H31  1  0.03739000  0.92605000  0.33655000  1.0
  H  H32  1  0.53740000  0.92605000  0.16345000  1.0
  H  H33  1  0.96261000  0.07395000  0.66345000  1.0
  H  H34  1  0.40167000  0.85222000  0.96286000  1.0
  H  H35  1  0.09832000  0.14778000  0.46286000  1.0
  H  H36  1  0.59832000  0.14778000  0.03714000  1.0
  H  H37  1  0.90168000  0.85222000  0.53714000  1.0
  H  H38  1  0.63845000  0.88447000  0.99277000  1.0
  H  H39  1  0.86155000  0.11553000  0.49278000  1.0
  H  H40  1  0.36155000  0.11552000  0.00723000  1.0
  H  H41  1  0.13845000  0.88448000  0.50723000  1.0
  C  C42  1  0.54629000  0.62904000  0.72069000  1.0
  C  C43  1  0.95370000  0.37096000  0.22069000  1.0
  C  C44  1  0.45370000  0.37096000  0.27931000  1.0
  C  C45  1  0.04630000  0.62904000  0.77931000  1.0
  C  C46  1  0.55711000  0.73050000  0.79885000  1.0
  C  C47  1  0.94289000  0.26949000  0.29886000  1.0
  C  C48  1  0.44289000  0.26950000  0.20115000  1.0
  C  C49  1  0.05712000  0.73050000  0.70115000  1.0
  C  C50  1  0.56088000  0.88168000  0.77806000  1.0
  C  C51  1  0.93912000  0.11832000  0.27807000  1.0
  C  C52  1  0.43912000  0.11832000  0.22193000  1.0
  C  C53  1  0.06088000  0.88168000  0.72193000  1.0
  C  C54  1  0.55816000  0.92339000  0.67684000  1.0
  C  C55  1  0.94184000  0.07661000  0.17684000  1.0
  C  C56  1  0.44184000  0.07661000  0.32316000  1.0
  C  C57  1  0.05815000  0.92339000  0.82316000  1.0
  C  C58  1  0.54811000  0.81582000  0.60289000  1.0
  C  C59  1  0.95189000  0.18418000  0.10289000  1.0
  C  C60  1  0.45189000  0.18419000  0.39711000  1.0
  C  C61  1  0.04811000  0.81581000  0.89711000  1.0
  C  C62  1  0.56246000  0.99693000  0.85845000  1.0
  C  C63  1  0.93753000  0.00307000  0.35845000  1.0
  C  C64  1  0.43754000  0.00307000  0.14156000  1.0
  C  C65  1  0.06246000  0.99693000  0.64155000  1.0
  C  C66  1  0.52049000  0.93867000  0.96403000  1.0
  C  C67  1  0.97950000  0.06132000  0.46403000  1.0
  C  C68  1  0.47951000  0.06132000  0.03598000  1.0
  C  C69  1  0.02050000  0.93868000  0.53597000  1.0
  N  N70  1  0.54068000  0.67018000  0.62411000  1.0
  N  N71  1  0.95932000  0.32982000  0.12411000  1.0
  N  N72  1  0.45932000  0.32982000  0.37589000  1.0
  N  N73  1  0.04069000  0.67018000  0.87590000  1.0
  N  N74  1  0.21609000  0.65827000  0.36698000  1.0
  N  N75  1  0.28391000  0.34173000  0.86698000  1.0
  N  N76  1  0.78391000  0.34173000  0.63301000  1.0
  N  N77  1  0.71609000  0.65827000  0.13301000  1.0
  O  O78  1  0.38589000  0.69324000  0.39006000  1.0
  O  O79  1  0.11411000  0.30676000  0.89006000  1.0
  O  O80  1  0.61411000  0.30676000  0.60994000  1.0
  O  O81  1  0.88589000  0.69324000  0.10994000  1.0
  O  O82  1  0.11487000  0.57192000  0.42423000  1.0
  O  O83  1  0.38513000  0.42808000  0.92423000  1.0
  O  O84  1  0.88513000  0.42808000  0.57577000  1.0
  O  O85  1  0.61487000  0.57191000  0.07577000  1.0
  O  O86  1  0.15025000  0.70930000  0.28857000  1.0
  O  O87  1  0.34975000  0.29070000  0.78857000  1.0
  O  O88  1  0.84975000  0.29070000  0.71143000  1.0
  O  O89  1  0.65025000  0.70930000  0.21143000  1.0
  O  O90  1  0.75249000  0.63066000  0.41064000  1.0
  O  O91  1  0.74751000  0.36934000  0.91064000  1.0
  O  O92  1  0.24751000  0.36934000  0.58936000  1.0
  O  O93  1  0.25249000  0.63066000  0.08936000  1.0
