# generated using pymatgen
data_ErH35C39N6O7
_symmetry_space_group_name_H-M   'P 1'
_cell_length_a   9.83087000
_cell_length_b   9.83381000
_cell_length_c   22.39470000
_cell_angle_alpha   94.69680000
_cell_angle_beta   100.35400000
_cell_angle_gamma   113.82900000
_symmetry_Int_Tables_number   1
_chemical_formula_structural   ErH35C39N6O7
_chemical_formula_sum   'Er2 H70 C78 N12 O14'
_cell_volume   1919.27272801
_cell_formula_units_Z   2
loop_
 _symmetry_equiv_pos_site_id
 _symmetry_equiv_pos_as_xyz
  1  'x, y, z'
loop_
 _atom_site_type_symbol
 _atom_site_label
 _atom_site_symmetry_multiplicity
 _atom_site_fract_x
 _atom_site_fract_y
 _atom_site_fract_z
 _atom_site_occupancy
  Er  Er0  1  0.81501000  0.44395000  0.51438000  1.0
  Er  Er1  1  0.57041000  0.69923000  0.01443000  1.0
  H  H2  1  0.02240000  0.02963000  0.47068000  1.0
  H  H3  1  0.94145000  0.44833000  0.97043000  1.0
  H  H4  1  0.16985000  0.14840000  0.53448000  1.0
  H  H5  1  0.88615000  0.36436000  0.03412000  1.0
  H  H6  1  0.13938000  0.22196000  0.46548000  1.0
  H  H7  1  0.74378000  0.32617000  0.96509000  1.0
  H  H8  1  0.90347000  0.01000000  0.56791000  1.0
  H  H9  1  0.05831000  0.66446000  0.06754000  1.0
  H  H10  1  0.74051000  0.85726000  0.60629000  1.0
  H  H11  1  0.24935000  0.86562000  0.10651000  1.0
  H  H12  1  0.58890000  0.71409000  0.67459000  1.0
  H  H13  1  0.46044000  0.08529000  0.17502000  1.0
  H  H14  1  0.48975000  0.08853000  0.72885000  1.0
  H  H15  1  0.13953000  0.23856000  0.22869000  1.0
  H  H16  1  0.64236000  0.23183000  0.65768000  1.0
  H  H17  1  0.92540000  0.01475000  0.15743000  1.0
  H  H18  1  0.26525000  0.88626000  0.73992000  1.0
  H  H19  1  0.35320000  0.47430000  0.23978000  1.0
  H  H20  1  0.19084000  0.70691000  0.82926000  1.0
  H  H21  1  0.62213000  0.63860000  0.32898000  1.0
  H  H22  1  0.57607000  0.69037000  0.77790000  1.0
  H  H23  1  0.58738000  0.20190000  0.27827000  1.0
  H  H24  1  0.74336000  0.83469000  0.41973000  1.0
  H  H25  1  0.08556000  0.67717000  0.91962000  1.0
  H  H26  1  0.65122000  0.89406000  0.47144000  1.0
  H  H27  1  0.07751000  0.82073000  0.97132000  1.0
  H  H28  1  0.53881000  0.75627000  0.40497000  1.0
  H  H29  1  0.14931000  0.86696000  0.90497000  1.0
  H  H30  1  0.45929000  0.67583000  0.51353000  1.0
  H  H31  1  0.33811000  0.05471000  0.01363000  1.0
  H  H32  1  0.27498000  0.57939000  0.55472000  1.0
  H  H33  1  0.47476000  0.27912000  0.05523000  1.0
  H  H34  1  0.13031000  0.52806000  0.63447000  1.0
  H  H35  1  0.60614000  0.50377000  0.13483000  1.0
  H  H36  1  0.36241000  0.26462000  0.70635000  1.0
  H  H37  1  0.94274000  0.34470000  0.20626000  1.0
  H  H38  1  0.51630000  0.32719000  0.62646000  1.0
  H  H39  1  0.80035000  0.11091000  0.12640000  1.0
  H  H40  1  0.95220000  0.39074000  0.67926000  1.0
  H  H41  1  0.78952000  0.72733000  0.17921000  1.0
  H  H42  1  0.87411000  0.32310000  0.78985000  1.0
  H  H43  1  0.96812000  0.91615000  0.28972000  1.0
  H  H44  1  0.30436000  0.32550000  0.79513000  1.0
  H  H45  1  0.96958000  0.49079000  0.29527000  1.0
  H  H46  1  0.35703000  0.85176000  0.55055000  1.0
  H  H47  1  0.19770000  0.19347000  0.05015000  1.0
  H  H48  1  0.30576000  0.00263000  0.56476000  1.0
  H  H49  1  0.06127000  0.25911000  0.06456000  1.0
  H  H50  1  0.23971000  0.88679000  0.48990000  1.0
  H  H51  1  0.10213000  0.25066000  0.98967000  1.0
  H  H52  1  0.15293000  0.93491000  0.63526000  1.0
  H  H53  1  0.19955000  0.48257000  0.13502000  1.0
  H  H54  1  0.05990000  0.00471000  0.70359000  1.0
  H  H55  1  0.19900000  0.64258000  0.20394000  1.0
  H  H56  1  0.00699000  0.06224000  0.80242000  1.0
  H  H57  1  0.24059000  0.79420000  0.30282000  1.0
  H  H58  1  0.77476000  0.58452000  0.80592000  1.0
  H  H59  1  0.72133000  0.03152000  0.30559000  1.0
  H  H60  1  0.82349000  0.52983000  0.70409000  1.0
  H  H61  1  0.67391000  0.88093000  0.20373000  1.0
  H  H62  1  0.95226000  0.10778000  0.88218000  1.0
  H  H63  1  0.27457000  0.92982000  0.38221000  1.0
  H  H64  1  0.80903000  0.06478000  0.98028000  1.0
  H  H65  1  0.41583000  0.17133000  0.48020000  1.0
  H  H66  1  0.71249000  0.63906000  0.88535000  1.0
  H  H67  1  0.74669000  0.17227000  0.38535000  1.0
  H  H68  1  0.79306000  0.46179000  0.37785000  1.0
  H  H69  1  0.41609000  0.58460000  0.87786000  1.0
  H  H70  1  0.96039000  0.55716000  0.42148000  1.0
  H  H71  1  0.36435000  0.46093000  0.92152000  1.0
  C  C72  1  0.08278000  0.14652000  0.49563000  1.0
  C  C73  1  0.84934000  0.41283000  0.99532000  1.0
  C  C74  1  0.97302000  0.19695000  0.51943000  1.0
  C  C75  1  0.82270000  0.54634000  0.01920000  1.0
  C  C76  1  0.88754000  0.11006000  0.55840000  1.0
  C  C77  1  0.94866000  0.67079000  0.05814000  1.0
  C  C78  1  0.78938000  0.15096000  0.58622000  1.0
  C  C79  1  0.93538000  0.79645000  0.08610000  1.0
  C  C80  1  0.70202000  0.05627000  0.62749000  1.0
  C  C81  1  0.07113000  0.92510000  0.12744000  1.0
  C  C82  1  0.68780000  0.91048000  0.63316000  1.0
  C  C83  1  0.22268000  0.94506000  0.13328000  1.0
  C  C84  1  0.60177000  0.82844000  0.67177000  1.0
  C  C85  1  0.34316000  0.06957000  0.17202000  1.0
  C  C86  1  0.52969000  0.89239000  0.70581000  1.0
  C  C87  1  0.31308000  0.17569000  0.20595000  1.0
  C  C88  1  0.54323000  0.03809000  0.70101000  1.0
  C  C89  1  0.16246000  0.15734000  0.20094000  1.0
  C  C90  1  0.62839000  0.11790000  0.66206000  1.0
  C  C91  1  0.04384000  0.03327000  0.16192000  1.0
  C  C92  1  0.31950000  0.82194000  0.76241000  1.0
  C  C93  1  0.44004000  0.44265000  0.26240000  1.0
  C  C94  1  0.28381000  0.73180000  0.80621000  1.0
  C  C95  1  0.57415000  0.52242000  0.30610000  1.0
  C  C96  1  0.48065000  0.71696000  0.78114000  1.0
  C  C97  1  0.56378000  0.30039000  0.28138000  1.0
  C  C98  1  0.64512000  0.79715000  0.44103000  1.0
  C  C99  1  0.14429000  0.79662000  0.94098000  1.0
  C  C100  1  0.64496000  0.67274000  0.47661000  1.0
  C  C101  1  0.30418000  0.83221000  0.97665000  1.0
  C  C102  1  0.53229000  0.61791000  0.51088000  1.0
  C  C103  1  0.39321000  0.97890000  0.01105000  1.0
  C  C104  1  0.51542000  0.49746000  0.54307000  1.0
  C  C105  1  0.54574000  0.02765000  0.04334000  1.0
  C  C106  1  0.41187000  0.46126000  0.58674000  1.0
  C  C107  1  0.62574000  0.17492000  0.08696000  1.0
  C  C108  1  0.30042000  0.51515000  0.58888000  1.0
  C  C109  1  0.57364000  0.28822000  0.08922000  1.0
  C  C110  1  0.21564000  0.48421000  0.63367000  1.0
  C  C111  1  0.64941000  0.41784000  0.13396000  1.0
  C  C112  1  0.23886000  0.39588000  0.67688000  1.0
  C  C113  1  0.78138000  0.43824000  0.17699000  1.0
  C  C114  1  0.34684000  0.33754000  0.67424000  1.0
  C  C115  1  0.83741000  0.32791000  0.17427000  1.0
  C  C116  1  0.43206000  0.37103000  0.62982000  1.0
  C  C117  1  0.75951000  0.19822000  0.12988000  1.0
  C  C118  1  0.01302000  0.36894000  0.72003000  1.0
  C  C119  1  0.85192000  0.70732000  0.22000000  1.0
  C  C120  1  0.97703000  0.33483000  0.77513000  1.0
  C  C121  1  0.94129000  0.79845000  0.27505000  1.0
  C  C122  1  0.19535000  0.32944000  0.77937000  1.0
  C  C123  1  0.95014000  0.58413000  0.27946000  1.0
  C  C124  1  0.26409000  0.88765000  0.53969000  1.0
  C  C125  1  0.15115000  0.27576000  0.03945000  1.0
  C  C126  1  0.12396000  0.77717000  0.55671000  1.0
  C  C127  1  0.27886000  0.43279000  0.05657000  1.0
  C  C128  1  0.08414000  0.82018000  0.61050000  1.0
  C  C129  1  0.28976000  0.52641000  0.11038000  1.0
  C  C130  1  0.97292000  0.71715000  0.63616000  1.0
  C  C131  1  0.41887000  0.66284000  0.13619000  1.0
  C  C132  1  0.94785000  0.76162000  0.69711000  1.0
  C  C133  1  0.43543000  0.74897000  0.19710000  1.0
  C  C134  1  0.99933000  0.91132000  0.72596000  1.0
  C  C135  1  0.31477000  0.72590000  0.22613000  1.0
  C  C136  1  0.96886000  0.94469000  0.78226000  1.0
  C  C137  1  0.33783000  0.81252000  0.28247000  1.0
  C  C138  1  0.88645000  0.82792000  0.81130000  1.0
  C  C139  1  0.48356000  0.92438000  0.31136000  1.0
  C  C140  1  0.83664000  0.67740000  0.78368000  1.0
  C  C141  1  0.60625000  0.94707000  0.28352000  1.0
  C  C142  1  0.86544000  0.64591000  0.72694000  1.0
  C  C143  1  0.58089000  0.86161000  0.22675000  1.0
  C  C144  1  0.88211000  0.00567000  0.89726000  1.0
  C  C145  1  0.39181000  0.01493000  0.39727000  1.0
  C  C146  1  0.81111000  0.98319000  0.94531000  1.0
  C  C147  1  0.46237000  0.13411000  0.44525000  1.0
  C  C148  1  0.75896000  0.76045000  0.89796000  1.0
  C  C149  1  0.63787000  0.13853000  0.39796000  1.0
  N  N150  1  0.44554000  0.81186000  0.74657000  1.0
  N  N151  1  0.43424000  0.30069000  0.24674000  1.0
  N  N152  1  0.38597000  0.66830000  0.81787000  1.0
  N  N153  1  0.64931000  0.43199000  0.31794000  1.0
  N  N154  1  0.15319000  0.36438000  0.72269000  1.0
  N  N155  1  0.85877000  0.56976000  0.22273000  1.0
  N  N156  1  0.09150000  0.31085000  0.81206000  1.0
  N  N157  1  0.00178000  0.72077000  0.31206000  1.0
  N  N158  1  0.84819000  0.86225000  0.86687000  1.0
  N  N159  1  0.50486000  0.01832000  0.36689000  1.0
  N  N160  1  0.73400000  0.83003000  0.94500000  1.0
  N  N161  1  0.61525000  0.21070000  0.44493000  1.0
  O  O162  1  0.96481000  0.31497000  0.50312000  1.0
  O  O163  1  0.68826000  0.53812000  0.00302000  1.0
  O  O164  1  0.76985000  0.27058000  0.57977000  1.0
  O  O165  1  0.80909000  0.80914000  0.07975000  1.0
  O  O166  1  0.74804000  0.62635000  0.47426000  1.0
  O  O167  1  0.34811000  0.72672000  0.97431000  1.0
  O  O168  1  0.58964000  0.41702000  0.53965000  1.0
  O  O169  1  0.62264000  0.94987000  0.03999000  1.0
  O  O170  1  0.05303000  0.64780000  0.52215000  1.0
  O  O171  1  0.37378000  0.46906000  0.02205000  1.0
  O  O172  1  0.89179000  0.57870000  0.61121000  1.0
  O  O173  1  0.53256000  0.71857000  0.11128000  1.0
  O  O174  1  0.87226000  0.45915000  0.41327000  1.0
  O  O175  1  0.45411000  0.54096000  0.91333000  1.0
