# generated using pymatgen
data_FeNiH16(C11N4)2
_symmetry_space_group_name_H-M   'P 1'
_cell_length_a   8.92735000
_cell_length_b   9.48251000
_cell_length_c   11.82270000
_cell_angle_alpha   89.99970000
_cell_angle_beta   89.99990000
_cell_angle_gamma   79.87400000
_symmetry_Int_Tables_number   1
_chemical_formula_structural   FeNiH16(C11N4)2
_chemical_formula_sum   'Fe2 Ni2 H32 C44 N16'
_cell_volume   985.24562063
_cell_formula_units_Z   2
loop_
 _symmetry_equiv_pos_site_id
 _symmetry_equiv_pos_as_xyz
  1  'x, y, z'
loop_
 _atom_site_type_symbol
 _atom_site_label
 _atom_site_symmetry_multiplicity
 _atom_site_fract_x
 _atom_site_fract_y
 _atom_site_fract_z
 _atom_site_occupancy
  Fe  Fe0  1  0.00000000  0.50000000  0.00000000  1.0
  Fe  Fe1  1  0.00000000  0.00000000  0.50000000  1.0
  Ni  Ni2  1  0.00000000  0.00000000  0.00000000  1.0
  Ni  Ni3  1  0.00000000  0.50000000  0.50000000  1.0
  H  H4  1  0.52610000  0.50075000  0.29608000  1.0
  H  H5  1  0.47391000  0.99926000  0.79608000  1.0
  H  H6  1  0.47390000  0.49925000  0.70392000  1.0
  H  H7  1  0.52609000  0.00074000  0.20392000  1.0
  H  H8  1  0.05057000  0.65077000  0.22715000  1.0
  H  H9  1  0.94943000  0.84922000  0.72715000  1.0
  H  H10  1  0.94943000  0.34922000  0.77285000  1.0
  H  H11  1  0.05057000  0.15077000  0.27285000  1.0
  H  H12  1  0.27515000  0.65146000  0.34846000  1.0
  H  H13  1  0.72485000  0.84854000  0.84846000  1.0
  H  H14  1  0.72485000  0.34854000  0.65154000  1.0
  H  H15  1  0.27515000  0.15146000  0.15154000  1.0
  H  H16  1  0.66943000  0.17989000  0.97851000  1.0
  H  H17  1  0.33057000  0.32012000  0.47852000  1.0
  H  H18  1  0.33057000  0.82011000  0.02149000  1.0
  H  H19  1  0.66943000  0.67988000  0.52148000  1.0
  H  H20  1  0.44048000  0.22169000  0.85309000  1.0
  H  H21  1  0.55952000  0.27831000  0.35309000  1.0
  H  H22  1  0.55952000  0.77831000  0.14691000  1.0
  H  H23  1  0.44048000  0.72169000  0.64691000  1.0
  H  H24  1  0.66981000  0.31329000  0.15899000  1.0
  H  H25  1  0.33019000  0.18672000  0.65900000  1.0
  H  H26  1  0.33019000  0.68670000  0.84101000  1.0
  H  H27  1  0.66981000  0.81328000  0.34100000  1.0
  H  H28  1  0.14875000  0.30727000  0.86481000  1.0
  H  H29  1  0.85125000  0.19273000  0.36481000  1.0
  H  H30  1  0.85125000  0.69273000  0.13519000  1.0
  H  H31  1  0.14875000  0.80727000  0.63519000  1.0
  H  H32  1  0.18853000  0.46750000  0.83497000  1.0
  H  H33  1  0.81147000  0.03250000  0.33497000  1.0
  H  H34  1  0.81147000  0.53250000  0.16503000  1.0
  H  H35  1  0.18853000  0.96750000  0.66503000  1.0
  C  C36  1  0.11634000  0.04062000  0.88001000  1.0
  C  C37  1  0.88367000  0.45937000  0.38001000  1.0
  C  C38  1  0.88367000  0.95938000  0.11999000  1.0
  C  C39  1  0.11633000  0.54063000  0.61999000  1.0
  C  C40  1  0.30132000  0.43147000  0.07560000  1.0
  C  C41  1  0.69868000  0.06854000  0.57560000  1.0
  C  C42  1  0.69868000  0.56854000  0.92440000  1.0
  C  C43  1  0.30132000  0.93146000  0.42440000  1.0
  C  C44  1  0.43445000  0.41808000  0.14416000  1.0
  C  C45  1  0.56555000  0.08192000  0.64416000  1.0
  C  C46  1  0.56556000  0.58192000  0.85584000  1.0
  C  C47  1  0.43444000  0.91808000  0.35584000  1.0
  C  C48  1  0.42485000  0.50175000  0.24425000  1.0
  C  C49  1  0.57515000  0.99825000  0.74425000  1.0
  C  C50  1  0.57515000  0.49825000  0.75575000  1.0
  C  C51  1  0.42484000  0.00175000  0.25575000  1.0
  C  C52  1  0.15910000  0.58658000  0.20299000  1.0
  C  C53  1  0.84090000  0.91341000  0.70299000  1.0
  C  C54  1  0.84090000  0.41341000  0.79701000  1.0
  C  C55  1  0.15910000  0.08659000  0.29701000  1.0
  C  C56  1  0.28766000  0.58571000  0.27244000  1.0
  C  C57  1  0.71234000  0.91429000  0.77244000  1.0
  C  C58  1  0.71234000  0.41429000  0.72756000  1.0
  C  C59  1  0.28766000  0.08571000  0.22756000  1.0
  C  C60  1  0.30688000  0.36410000  0.96914000  1.0
  C  C61  1  0.69311000  0.13590000  0.46914000  1.0
  C  C62  1  0.69312000  0.63590000  0.03086000  1.0
  C  C63  1  0.30689000  0.86410000  0.53086000  1.0
  C  C64  1  0.56689000  0.25177000  0.00604000  1.0
  C  C65  1  0.43310000  0.24824000  0.50604000  1.0
  C  C66  1  0.43311000  0.74823000  0.99396000  1.0
  C  C67  1  0.56689000  0.75176000  0.49396000  1.0
  C  C68  1  0.43730000  0.27351000  0.93529000  1.0
  C  C69  1  0.56270000  0.22650000  0.43529000  1.0
  C  C70  1  0.56270000  0.72649000  0.06471000  1.0
  C  C71  1  0.43730000  0.77350000  0.56471000  1.0
  C  C72  1  0.56741000  0.32469000  0.10715000  1.0
  C  C73  1  0.43259000  0.17532000  0.60716000  1.0
  C  C74  1  0.43259000  0.67531000  0.89285000  1.0
  C  C75  1  0.56741000  0.82468000  0.39284000  1.0
  C  C76  1  0.01706000  0.81027000  0.96177000  1.0
  C  C77  1  0.98294000  0.68973000  0.46176000  1.0
  C  C78  1  0.98294000  0.18973000  0.03823000  1.0
  C  C79  1  0.01706000  0.31027000  0.53824000  1.0
  N  N80  1  0.18864000  0.07211000  0.80375000  1.0
  N  N81  1  0.81137000  0.42789000  0.30375000  1.0
  N  N82  1  0.81137000  0.92789000  0.19625000  1.0
  N  N83  1  0.18863000  0.57212000  0.69625000  1.0
  N  N84  1  0.16371000  0.51124000  0.10748000  1.0
  N  N85  1  0.83629000  0.98876000  0.60748000  1.0
  N  N86  1  0.83629000  0.48876000  0.89252000  1.0
  N  N87  1  0.16371000  0.01124000  0.39252000  1.0
  N  N88  1  0.17092000  0.40004000  0.90124000  1.0
  N  N89  1  0.82907000  0.09996000  0.40124000  1.0
  N  N90  1  0.82908000  0.59996000  0.09876000  1.0
  N  N91  1  0.17092000  0.90004000  0.59876000  1.0
  N  N92  1  0.01843000  0.68643000  0.95449000  1.0
  N  N93  1  0.98158000  0.81358000  0.45449000  1.0
  N  N94  1  0.98158000  0.31357000  0.04550000  1.0
  N  N95  1  0.01842000  0.18642000  0.54551000  1.0
