# generated using pymatgen
data_ZnH6(C3N2)2
_symmetry_space_group_name_H-M   'P 1'
_cell_length_a   14.60372572
_cell_length_b   14.60360000
_cell_length_c   14.60360000
_cell_angle_alpha   109.47100000
_cell_angle_beta   109.47162622
_cell_angle_gamma   109.47162622
_symmetry_Int_Tables_number   1
_chemical_formula_structural   ZnH6(C3N2)2
_chemical_formula_sum   'Zn6 H36 C36 N24'
_cell_volume   2397.49919290
_cell_formula_units_Z   6
loop_
 _symmetry_equiv_pos_site_id
 _symmetry_equiv_pos_as_xyz
  1  'x, y, z'
loop_
 _atom_site_type_symbol
 _atom_site_label
 _atom_site_symmetry_multiplicity
 _atom_site_fract_x
 _atom_site_fract_y
 _atom_site_fract_z
 _atom_site_occupancy
  Zn  Zn0  1  0.75000000  0.50000000  0.25000000  1.0
  Zn  Zn1  1  0.25000000  0.50000000  0.75000000  1.0
  Zn  Zn2  1  0.25000000  0.75000000  0.50000000  1.0
  Zn  Zn3  1  0.75000000  0.25000000  0.50000000  1.0
  Zn  Zn4  1  0.50000000  0.75000000  0.25000000  1.0
  Zn  Zn5  1  0.50000000  0.25000000  0.75000000  1.0
  H  H6  1  0.66189000  0.54635000  0.42953000  1.0
  H  H7  1  0.11683000  0.23237000  0.57048000  1.0
  H  H8  1  0.88318000  0.45365000  0.11554000  1.0
  H  H9  1  0.33811000  0.76763000  0.88446000  1.0
  H  H10  1  0.11554000  0.88318000  0.45365000  1.0
  H  H11  1  0.88446000  0.33811000  0.76764000  1.0
  H  H12  1  0.42953000  0.66189000  0.54635000  1.0
  H  H13  1  0.57048000  0.11683000  0.23237000  1.0
  H  H14  1  0.23237000  0.57048000  0.11683000  1.0
  H  H15  1  0.54635000  0.42953000  0.66189000  1.0
  H  H16  1  0.76764000  0.88446000  0.33811000  1.0
  H  H17  1  0.45365000  0.11554000  0.88318000  1.0
  H  H18  1  0.23237000  0.11683000  0.57048000  1.0
  H  H19  1  0.54635000  0.66189000  0.42953000  1.0
  H  H20  1  0.76764000  0.33811000  0.88446000  1.0
  H  H21  1  0.45365000  0.88318000  0.11554000  1.0
  H  H22  1  0.66189000  0.42953000  0.54635000  1.0
  H  H23  1  0.11683000  0.57048000  0.23237000  1.0
  H  H24  1  0.88318000  0.11554000  0.45365000  1.0
  H  H25  1  0.33811000  0.88446000  0.76764000  1.0
  H  H26  1  0.11554000  0.45365000  0.88318000  1.0
  H  H27  1  0.88446000  0.76764000  0.33811000  1.0
  H  H28  1  0.42953000  0.54635000  0.66189000  1.0
  H  H29  1  0.57048000  0.23237000  0.11683000  1.0
  H  H30  1  0.79963000  0.34230000  0.34231000  1.0
  H  H31  1  1.00000000  0.45732000  0.65770000  1.0
  H  H32  1  1.00000000  0.65770000  0.45732000  1.0
  H  H33  1  0.20037000  0.54267000  0.54267000  1.0
  H  H34  1  0.45732000  1.00000000  0.65769000  1.0
  H  H35  1  0.54268000  0.20038000  0.54268000  1.0
  H  H36  1  0.34230000  0.79963000  0.34230000  1.0
  H  H37  1  0.65770000  1.00000000  0.45733000  1.0
  H  H38  1  0.45732000  0.65769000  1.00000000  1.0
  H  H39  1  0.34230000  0.34230000  0.79963000  1.0
  H  H40  1  0.54267000  0.54267000  0.20037000  1.0
  H  H41  1  0.65770000  0.45733000  1.00000000  1.0
  C  C42  1  0.68934000  0.48566000  0.42788000  1.0
  C  C43  1  0.05778000  0.26146000  0.57212000  1.0
  C  C44  1  0.94222000  0.51434000  0.20368000  1.0
  C  C45  1  0.31066000  0.73853000  0.79632000  1.0
  C  C46  1  0.20367000  0.94221000  0.51433000  1.0
  C  C47  1  0.79632000  0.31066000  0.73853000  1.0
  C  C48  1  0.42788000  0.68934000  0.48567000  1.0
  C  C49  1  0.57212000  0.05778000  0.26146000  1.0
  C  C50  1  0.26146000  0.57212000  0.05778000  1.0
  C  C51  1  0.48566000  0.42787000  0.68934000  1.0
  C  C52  1  0.73854000  0.79633000  0.31067000  1.0
  C  C53  1  0.51434000  0.20367000  0.94222000  1.0
  C  C54  1  0.26146000  0.05778000  0.57212000  1.0
  C  C55  1  0.48566000  0.68934000  0.42787000  1.0
  C  C56  1  0.73854000  0.31067000  0.79633000  1.0
  C  C57  1  0.51434000  0.94222000  0.20368000  1.0
  C  C58  1  0.68934000  0.42788000  0.48566000  1.0
  C  C59  1  0.05778000  0.57212000  0.26146000  1.0
  C  C60  1  0.94221000  0.20367000  0.51433000  1.0
  C  C61  1  0.31066000  0.79632000  0.73853000  1.0
  C  C62  1  0.20367000  0.51433000  0.94221000  1.0
  C  C63  1  0.79632000  0.73853000  0.31066000  1.0
  C  C64  1  0.42787000  0.48566000  0.68933000  1.0
  C  C65  1  0.57212000  0.26146000  0.05778000  1.0
  C  C66  1  0.76064000  0.38104000  0.38104000  1.0
  C  C67  1  0.00000000  0.37960000  0.61896000  1.0
  C  C68  1  1.00000000  0.61896000  0.37960000  1.0
  C  C69  1  0.23936000  0.62040000  0.62040000  1.0
  C  C70  1  0.37960000  0.00000000  0.61896000  1.0
  C  C71  1  0.62040000  0.23936000  0.62040000  1.0
  C  C72  1  0.38104000  0.76064000  0.38104000  1.0
  C  C73  1  0.61896000  1.00000000  0.37960000  1.0
  C  C74  1  0.37960000  0.61896000  0.00000000  1.0
  C  C75  1  0.38104000  0.38104000  0.76064000  1.0
  C  C76  1  0.62040000  0.62040000  0.23936000  1.0
  C  C77  1  0.61896000  0.37960000  0.00000000  1.0
  N  N78  1  0.73456000  0.45537000  0.36155000  1.0
  N  N79  1  0.09383000  0.37302000  0.63846000  1.0
  N  N80  1  0.90617000  0.54463000  0.27918000  1.0
  N  N81  1  0.26545000  0.62699000  0.72082000  1.0
  N  N82  1  0.27919000  0.90618000  0.54464000  1.0
  N  N83  1  0.72081000  0.26544000  0.62698000  1.0
  N  N84  1  0.36154000  0.73455000  0.45537000  1.0
  N  N85  1  0.63846000  0.09383000  0.37301000  1.0
  N  N86  1  0.37301000  0.63846000  0.09382000  1.0
  N  N87  1  0.45537000  0.36154000  0.73456000  1.0
  N  N88  1  0.62699000  0.72082000  0.26545000  1.0
  N  N89  1  0.54463000  0.27918000  0.90617000  1.0
  N  N90  1  0.37301000  0.09382000  0.63846000  1.0
  N  N91  1  0.45537000  0.73456000  0.36154000  1.0
  N  N92  1  0.62699000  0.26545000  0.72082000  1.0
  N  N93  1  0.54463000  0.90617000  0.27918000  1.0
  N  N94  1  0.73456000  0.36155000  0.45537000  1.0
  N  N95  1  0.09383000  0.63846000  0.37302000  1.0
  N  N96  1  0.90617000  0.27918000  0.54463000  1.0
  N  N97  1  0.26545000  0.72082000  0.62699000  1.0
  N  N98  1  0.27919000  0.54464000  0.90618000  1.0
  N  N99  1  0.72081000  0.62698000  0.26544000  1.0
  N  N100  1  0.36154000  0.45537000  0.73455000  1.0
  N  N101  1  0.63846000  0.37301000  0.09383000  1.0
