# generated using pymatgen
data_SbH6C5BrCl3
_symmetry_space_group_name_H-M   'P 1'
_cell_length_a   7.60800000
_cell_length_b   8.12785000
_cell_length_c   16.14900000
_cell_angle_alpha   89.99840000
_cell_angle_beta   89.99870000
_cell_angle_gamma   73.29900000
_symmetry_Int_Tables_number   1
_chemical_formula_structural   SbH6C5BrCl3
_chemical_formula_sum   'Sb4 H24 C20 Br4 Cl12'
_cell_volume   956.47709998
_cell_formula_units_Z   4
loop_
 _symmetry_equiv_pos_site_id
 _symmetry_equiv_pos_as_xyz
  1  'x, y, z'
loop_
 _atom_site_type_symbol
 _atom_site_label
 _atom_site_symmetry_multiplicity
 _atom_site_fract_x
 _atom_site_fract_y
 _atom_site_fract_z
 _atom_site_occupancy
  Sb  Sb0  1  0.31841000  0.21923000  0.41964000  1.0
  Sb  Sb1  1  0.68158000  0.28077000  0.91964000  1.0
  Sb  Sb2  1  0.68158000  0.78069000  0.58036000  1.0
  Sb  Sb3  1  0.31841000  0.71932000  0.08036000  1.0
  H  H4  1  0.69434000  0.68126000  0.30537000  1.0
  H  H5  1  0.30568000  0.81875000  0.80537000  1.0
  H  H6  1  0.30563000  0.31870000  0.69462000  1.0
  H  H7  1  0.69437000  0.18129000  0.19462000  1.0
  H  H8  1  0.87381000  0.51356000  0.25793000  1.0
  H  H9  1  0.12621000  0.98643000  0.75792000  1.0
  H  H10  1  0.12617000  0.48639000  0.74208000  1.0
  H  H11  1  0.87382000  0.01359000  0.24208000  1.0
  H  H12  1  0.80412000  0.29523000  0.34822000  1.0
  H  H13  1  0.19589000  0.20476000  0.84821000  1.0
  H  H14  1  0.19588000  0.70473000  0.65180000  1.0
  H  H15  1  0.80409000  0.79527000  0.15179000  1.0
  H  H16  1  0.60540000  0.41243000  0.29351000  1.0
  H  H17  1  0.39460000  0.08757000  0.79349000  1.0
  H  H18  1  0.39458000  0.58752000  0.70651000  1.0
  H  H19  1  0.60539000  0.91251000  0.20650000  1.0
  H  H20  1  0.38393000  0.67943000  0.37607000  1.0
  H  H21  1  0.61610000  0.82059000  0.87606000  1.0
  H  H22  1  0.61604000  0.32052000  0.62395000  1.0
  H  H23  1  0.38392000  0.17946000  0.12394000  1.0
  H  H24  1  0.78210000  0.25437000  0.49122000  1.0
  H  H25  1  0.21787000  0.24561000  0.99121000  1.0
  H  H26  1  0.21788000  0.74558000  0.50879000  1.0
  H  H27  1  0.78213000  0.75444000  0.00878000  1.0
  C  C28  1  0.79218000  0.55432000  0.31409000  1.0
  C  C29  1  0.20787000  0.94567000  0.81408000  1.0
  C  C30  1  0.20781000  0.44565000  0.68592000  1.0
  C  C31  1  0.79217000  0.05436000  0.18591000  1.0
  C  C32  1  0.70152000  0.42122000  0.34339000  1.0
  C  C33  1  0.29848000  0.07879000  0.84337000  1.0
  C  C34  1  0.29847000  0.57875000  0.65662000  1.0
  C  C35  1  0.70153000  0.92125000  0.15661000  1.0
  C  C36  1  0.59718000  0.46264000  0.42375000  1.0
  C  C37  1  0.40284000  0.03736000  0.92373000  1.0
  C  C38  1  0.40282000  0.53731000  0.57627000  1.0
  C  C39  1  0.59719000  0.96269000  0.07625000  1.0
  C  C40  1  0.43631000  0.60035000  0.43014000  1.0
  C  C41  1  0.56370000  0.89966000  0.93012000  1.0
  C  C42  1  0.56368000  0.39960000  0.56988000  1.0
  C  C43  1  0.43632000  0.10039000  0.06987000  1.0
  C  C44  1  0.65882000  0.36320000  0.49491000  1.0
  C  C45  1  0.34117000  0.13678000  0.99489000  1.0
  C  C46  1  0.34115000  0.63678000  0.50510000  1.0
  C  C47  1  0.65885000  0.86321000  0.00509000  1.0
  Br  Br48  1  0.96857000  0.59476000  0.39625000  1.0
  Br  Br49  1  0.03145000  0.90522000  0.89625000  1.0
  Br  Br50  1  0.03140000  0.40521000  0.60375000  1.0
  Br  Br51  1  0.96860000  0.09479000  0.10375000  1.0
  Cl  Cl52  1  0.30901000  0.28898000  0.27493000  1.0
  Cl  Cl53  1  0.69101000  0.21103000  0.77493000  1.0
  Cl  Cl54  1  0.69097000  0.71101000  0.72507000  1.0
  Cl  Cl55  1  0.30901000  0.78899000  0.22507000  1.0
  Cl  Cl56  1  0.11092000  0.04813000  0.40513000  1.0
  Cl  Cl57  1  0.88908000  0.45187000  0.90513000  1.0
  Cl  Cl58  1  0.88908000  0.95181000  0.59487000  1.0
  Cl  Cl59  1  0.11092000  0.54819000  0.09487000  1.0
  Cl  Cl60  1  0.59856000  0.98346000  0.39893000  1.0
  Cl  Cl61  1  0.40145000  0.51654000  0.89893000  1.0
  Cl  Cl62  1  0.40144000  0.01651000  0.60106000  1.0
  Cl  Cl63  1  0.59855000  0.48350000  0.10106000  1.0
