# generated using pymatgen
data_CdH6C12N2(O2F)2
_symmetry_space_group_name_H-M   'P 1'
_cell_length_a   8.93925000
_cell_length_b   8.93926000
_cell_length_c   9.14023000
_cell_angle_alpha   69.51720000
_cell_angle_beta   69.51700000
_cell_angle_gamma   61.44830000
_symmetry_Int_Tables_number   1
_chemical_formula_structural   CdH6C12N2(O2F)2
_chemical_formula_sum   'Cd2 H12 C24 N4 O8 F4'
_cell_volume   586.01128892
_cell_formula_units_Z   2
loop_
 _symmetry_equiv_pos_site_id
 _symmetry_equiv_pos_as_xyz
  1  'x, y, z'
loop_
 _atom_site_type_symbol
 _atom_site_label
 _atom_site_symmetry_multiplicity
 _atom_site_fract_x
 _atom_site_fract_y
 _atom_site_fract_z
 _atom_site_occupancy
  Cd  Cd0  1  0.88073000  0.11927000  0.75000000  1.0
  Cd  Cd1  1  0.11927000  0.88073000  0.25000000  1.0
  H  H2  1  0.18537000  0.25402000  0.03439000  1.0
  H  H3  1  0.74598000  0.81463000  0.46561000  1.0
  H  H4  1  0.81463000  0.74598000  0.96561000  1.0
  H  H5  1  0.25402000  0.18536000  0.53439000  1.0
  H  H6  1  0.28341000  0.71511000  0.92535000  1.0
  H  H7  1  0.28490000  0.71658000  0.57465000  1.0
  H  H8  1  0.71659000  0.28490000  0.07465000  1.0
  H  H9  1  0.71510000  0.28341000  0.42535000  1.0
  H  H10  1  0.04380000  0.54230000  0.38981000  1.0
  H  H11  1  0.45769000  0.95620000  0.11019000  1.0
  H  H12  1  0.95620000  0.45769000  0.61019000  1.0
  H  H13  1  0.54231000  0.04380000  0.88981000  1.0
  C  C14  1  0.02818000  0.25655000  0.35089000  1.0
  C  C15  1  0.74345000  0.97182000  0.14911000  1.0
  C  C16  1  0.97182000  0.74345000  0.64912000  1.0
  C  C17  1  0.25655000  0.02818000  0.85089000  1.0
  C  C18  1  0.10544000  0.38113000  0.22857000  1.0
  C  C19  1  0.61887000  0.89457000  0.27143000  1.0
  C  C20  1  0.89456000  0.61887000  0.77143000  1.0
  C  C21  1  0.38113000  0.10543000  0.72857000  1.0
  C  C22  1  0.18007000  0.36083000  0.07067000  1.0
  C  C23  1  0.63917000  0.81993000  0.42933000  1.0
  C  C24  1  0.81993000  0.63918000  0.92932000  1.0
  C  C25  1  0.36083000  0.18006000  0.57068000  1.0
  C  C26  1  0.24552000  0.48126000  0.96461000  1.0
  C  C27  1  0.51874000  0.75448000  0.53539000  1.0
  C  C28  1  0.75448000  0.51874000  0.03539000  1.0
  C  C29  1  0.48126000  0.24552000  0.46461000  1.0
  C  C30  1  0.23674000  0.61814000  0.01121000  1.0
  C  C31  1  0.38186000  0.76326000  0.48879000  1.0
  C  C32  1  0.76326000  0.38186000  0.98879000  1.0
  C  C33  1  0.61814000  0.23674000  0.51121000  1.0
  C  C34  1  0.10054000  0.52045000  0.26910000  1.0
  C  C35  1  0.47955000  0.89946000  0.23090000  1.0
  C  C36  1  0.89946000  0.47955000  0.73090000  1.0
  C  C37  1  0.52045000  0.10054000  0.76910000  1.0
  N  N38  1  0.16399000  0.63642000  0.16326000  1.0
  N  N39  1  0.36358000  0.83601000  0.33674000  1.0
  N  N40  1  0.83601000  0.36358000  0.83674000  1.0
  N  N41  1  0.63642000  0.16399000  0.66326000  1.0
  O  O42  1  0.98718000  0.26728000  0.49644000  1.0
  O  O43  1  0.73272000  0.01282000  0.00355000  1.0
  O  O44  1  0.01282000  0.73272000  0.50355000  1.0
  O  O45  1  0.26728000  0.98718000  0.99645000  1.0
  O  O46  1  0.00593000  0.15665000  0.29919000  1.0
  O  O47  1  0.84335000  0.99407000  0.20081000  1.0
  O  O48  1  0.99407000  0.84335000  0.70081000  1.0
  O  O49  1  0.15665000  0.00594000  0.79919000  1.0
  F  F50  1  0.31737000  0.46903000  0.80882000  1.0
  F  F51  1  0.53097000  0.68263000  0.69118000  1.0
  F  F52  1  0.68263000  0.53097000  0.19118000  1.0
  F  F53  1  0.46903000  0.31737000  0.30882000  1.0
