# generated using pymatgen
data_ZnH30C35(NO3)2
_symmetry_space_group_name_H-M   'P 1'
_cell_length_a   9.06807000
_cell_length_b   11.57290000
_cell_length_c   15.68500000
_cell_angle_alpha   96.56450000
_cell_angle_beta   100.49000000
_cell_angle_gamma   106.34500000
_symmetry_Int_Tables_number   1
_chemical_formula_structural   ZnH30C35(NO3)2
_chemical_formula_sum   'Zn2 H60 C70 N4 O12'
_cell_volume   1529.02472718
_cell_formula_units_Z   2
loop_
 _symmetry_equiv_pos_site_id
 _symmetry_equiv_pos_as_xyz
  1  'x, y, z'
loop_
 _atom_site_type_symbol
 _atom_site_label
 _atom_site_symmetry_multiplicity
 _atom_site_fract_x
 _atom_site_fract_y
 _atom_site_fract_z
 _atom_site_occupancy
  Zn  Zn0  1  0.56197000  0.49362000  0.31748000  1.0
  Zn  Zn1  1  0.43802000  0.50638000  0.68252000  1.0
  H  H2  1  0.61326000  0.32876000  0.44381000  1.0
  H  H3  1  0.38674000  0.67124000  0.55619000  1.0
  H  H4  1  0.12499000  0.08220000  0.23312000  1.0
  H  H5  1  0.87501000  0.91780000  0.76689000  1.0
  H  H6  1  0.93250000  0.90872000  0.50862000  1.0
  H  H7  1  0.06750000  0.09128000  0.49139000  1.0
  H  H8  1  0.36702000  0.57392000  0.16890000  1.0
  H  H9  1  0.63298000  0.42609000  0.83110000  1.0
  H  H10  1  0.51027000  0.24807000  0.00326000  1.0
  H  H11  1  0.48973000  0.75193000  0.99674000  1.0
  H  H12  1  0.15730000  0.67731000  0.15892000  1.0
  H  H13  1  0.84270000  0.32269000  0.84107000  1.0
  H  H14  1  0.48312000  0.11713000  0.46653000  1.0
  H  H15  1  0.51689000  0.88287000  0.53347000  1.0
  H  H16  1  0.17481000  0.94980000  0.42107000  1.0
  H  H17  1  0.82518000  0.05020000  0.57893000  1.0
  H  H18  1  0.31188000  0.90633000  0.37011000  1.0
  H  H19  1  0.68812000  0.09367000  0.62990000  1.0
  H  H20  1  0.17303000  0.22844000  0.05632000  1.0
  H  H21  1  0.82697000  0.77156000  0.94368000  1.0
  H  H22  1  0.19569000  0.35011000  0.99490000  1.0
  H  H23  1  0.80431000  0.64989000  0.00510000  1.0
  H  H24  1  0.16835000  0.65946000  0.43329000  1.0
  H  H25  1  0.83165000  0.34055000  0.56671000  1.0
  H  H26  1  0.97676000  0.73635000  0.35346000  1.0
  H  H27  1  0.02324000  0.26365000  0.64654000  1.0
  H  H28  1  0.92203000  0.69162000  0.23829000  1.0
  H  H29  1  0.07797000  0.30839000  0.76171000  1.0
  H  H30  1  0.09381000  0.38393000  0.11052000  1.0
  H  H31  1  0.90619000  0.61607000  0.88948000  1.0
  H  H32  1  0.12513000  0.87792000  0.22023000  1.0
  H  H33  1  0.87488000  0.12209000  0.77978000  1.0
  H  H34  1  0.98614000  0.91272000  0.27551000  1.0
  H  H35  1  0.01386000  0.08728000  0.72449000  1.0
  H  H36  1  0.39092000  0.22285000  0.75506000  1.0
  H  H37  1  0.60909000  0.77715000  0.24494000  1.0
  H  H38  1  0.17497000  0.00017000  0.62761000  1.0
  H  H39  1  0.82503000  0.99983000  0.37239000  1.0
  H  H40  1  0.67456000  0.16036000  0.91952000  1.0
  H  H41  1  0.32544000  0.83964000  0.08048000  1.0
  H  H42  1  0.37689000  0.55623000  0.43217000  1.0
  H  H43  1  0.62311000  0.44377000  0.56783000  1.0
  H  H44  1  0.16638000  0.63638000  0.67266000  1.0
  H  H45  1  0.83362000  0.36362000  0.32734000  1.0
  H  H46  1  0.92317000  0.54894000  0.55197000  1.0
  H  H47  1  0.07683000  0.45106000  0.44803000  1.0
  H  H48  1  0.41542000  0.03244000  0.68834000  1.0
  H  H49  1  0.58458000  0.96756000  0.31166000  1.0
  H  H50  1  0.52149000  0.99365000  0.78191000  1.0
  H  H51  1  0.47851000  0.00635000  0.21809000  1.0
  H  H52  1  0.27002000  0.29537000  0.22167000  1.0
  H  H53  1  0.72998000  0.70462000  0.77833000  1.0
  H  H54  1  0.29612000  0.33796000  0.86489000  1.0
  H  H55  1  0.70388000  0.66204000  0.13511000  1.0
  H  H56  1  0.13485000  0.01143000  0.97340000  1.0
  H  H57  1  0.86515000  0.98858000  0.02660000  1.0
  H  H58  1  0.92737000  0.46476000  0.19428000  1.0
  H  H59  1  0.07263000  0.53524000  0.80572000  1.0
  H  H60  1  0.24168000  0.89877000  0.86818000  1.0
  H  H61  1  0.75832000  0.10123000  0.13182000  1.0
  C  C62  1  0.91177000  0.72396000  0.52314000  1.0
  C  C63  1  0.08823000  0.27604000  0.47686000  1.0
  C  C64  1  0.70853000  0.36325000  0.10400000  1.0
  C  C65  1  0.29148000  0.63675000  0.89600000  1.0
  C  C66  1  0.29307000  0.08000000  0.35066000  1.0
  C  C67  1  0.70693000  0.92000000  0.64934000  1.0
  C  C68  1  0.50355000  0.27060000  0.39991000  1.0
  C  C69  1  0.49645000  0.72941000  0.60009000  1.0
  C  C70  1  0.23267000  0.13290000  0.28189000  1.0
  C  C71  1  0.76733000  0.86710000  0.71811000  1.0
  C  C72  1  0.98533000  0.85038000  0.54530000  1.0
  C  C73  1  0.01467000  0.14962000  0.45470000  1.0
  C  C74  1  0.32032000  0.59642000  0.22582000  1.0
  C  C75  1  0.67968000  0.40358000  0.77417000  1.0
  C  C76  1  0.14615000  0.67790000  0.29612000  1.0
  C  C77  1  0.85385000  0.32210000  0.70388000  1.0
  C  C78  1  0.32722000  0.05446000  0.80642000  1.0
  C  C79  1  0.67278000  0.94554000  0.19358000  1.0
  C  C80  1  0.18663000  0.82278000  0.65743000  1.0
  C  C81  1  0.81338000  0.17722000  0.34257000  1.0
  C  C82  1  0.20819000  0.18242000  0.92617000  1.0
  C  C83  1  0.79181000  0.81758000  0.07383000  1.0
  C  C84  1  0.61006000  0.41154000  0.15669000  1.0
  C  C85  1  0.38995000  0.58846000  0.84331000  1.0
  C  C86  1  0.63798000  0.27723000  0.02605000  1.0
  C  C87  1  0.36202000  0.72277000  0.97395000  1.0
  C  C88  1  0.20400000  0.65327000  0.22114000  1.0
  C  C89  1  0.79600000  0.34673000  0.77886000  1.0
  C  C90  1  0.43087000  0.15276000  0.41119000  1.0
  C  C91  1  0.56912000  0.84724000  0.58881000  1.0
  C  C92  1  0.76940000  0.67340000  0.44884000  1.0
  C  C93  1  0.23060000  0.32660000  0.55116000  1.0
  C  C94  1  0.21796000  0.95000000  0.35966000  1.0
  C  C95  1  0.78204000  0.05000000  0.64034000  1.0
  C  C96  1  0.89409000  0.26649000  0.00909000  1.0
  C  C97  1  0.10591000  0.73351000  0.99091000  1.0
  C  C98  1  0.14496000  0.25067000  0.99007000  1.0
  C  C99  1  0.85504000  0.74933000  0.00993000  1.0
  C  C100  1  0.21036000  0.64313000  0.37346000  1.0
  C  C101  1  0.78964000  0.35688000  0.62654000  1.0
  C  C102  1  0.02225000  0.74060000  0.29335000  1.0
  C  C103  1  0.97775000  0.25940000  0.70665000  1.0
  C  C104  1  0.96630000  0.35289000  0.08658000  1.0
  C  C105  1  0.03370000  0.64711000  0.91342000  1.0
  C  C106  1  0.08486000  0.87442000  0.28234000  1.0
  C  C107  1  0.91514000  0.12559000  0.71766000  1.0
  C  C108  1  0.33972000  0.17742000  0.80488000  1.0
  C  C109  1  0.66028000  0.82257000  0.19512000  1.0
  C  C110  1  0.12160000  0.90115000  0.61191000  1.0
  C  C111  1  0.87839000  0.09885000  0.38809000  1.0
  C  C112  1  0.72915000  0.22874000  0.97919000  1.0
  C  C113  1  0.27085000  0.77126000  0.02081000  1.0
  C  C114  1  0.32630000  0.58644000  0.37346000  1.0
  C  C115  1  0.67371000  0.41357000  0.62654000  1.0
  C  C116  1  0.11398000  0.69546000  0.63635000  1.0
  C  C117  1  0.88602000  0.30454000  0.36365000  1.0
  C  C118  1  0.97850000  0.64736000  0.56972000  1.0
  C  C119  1  0.02150000  0.35264000  0.43028000  1.0
  C  C120  1  0.40276000  0.98923000  0.74684000  1.0
  C  C121  1  0.59724000  0.01077000  0.25316000  1.0
  C  C122  1  0.31147000  0.25198000  0.27523000  1.0
  C  C123  1  0.68853000  0.74802000  0.72477000  1.0
  C  C124  1  0.28277000  0.24133000  0.86537000  1.0
  C  C125  1  0.71723000  0.75867000  0.13463000  1.0
  C  C126  1  0.19217000  0.05823000  0.92592000  1.0
  C  C127  1  0.80783000  0.94177000  0.07408000  1.0
  C  C128  1  0.87272000  0.39937000  0.13331000  1.0
  C  C129  1  0.12728000  0.60063000  0.86669000  1.0
  C  C130  1  0.25200000  0.99473000  0.86699000  1.0
  C  C131  1  0.74800000  0.00527000  0.13301000  1.0
  N  N132  1  0.44549000  0.31970000  0.33278000  1.0
  N  N133  1  0.55451000  0.68030000  0.66722000  1.0
  N  N134  1  0.38102000  0.56409000  0.30110000  1.0
  N  N135  1  0.61898000  0.43591000  0.69890000  1.0
  O  O136  1  0.97473000  0.21449000  0.95873000  1.0
  O  O137  1  0.02527000  0.78551000  0.04126000  1.0
  O  O138  1  0.68965000  0.48330000  0.23154000  1.0
  O  O139  1  0.31035000  0.51670000  0.76846000  1.0
  O  O140  1  0.70452000  0.55462000  0.43547000  1.0
  O  O141  1  0.29548000  0.44538000  0.56453000  1.0
  O  O142  1  0.72179000  0.74239000  0.40227000  1.0
  O  O143  1  0.27821000  0.25761000  0.59773000  1.0
  O  O144  1  0.46351000  0.38293000  0.13050000  1.0
  O  O145  1  0.53649000  0.61707000  0.86950000  1.0
  O  O146  1  0.32227000  0.86054000  0.72175000  1.0
  O  O147  1  0.67773000  0.13946000  0.27825000  1.0
