# generated using pymatgen
data_HgH22C37Br2N2(ClO2)2
_symmetry_space_group_name_H-M   'P 1'
_cell_length_a   8.92760000
_cell_length_b   15.91820000
_cell_length_c   17.09110000
_cell_angle_alpha   114.95600000
_cell_angle_beta   91.29670000
_cell_angle_gamma   91.80860000
_symmetry_Int_Tables_number   1
_chemical_formula_structural   HgH22C37Br2N2(ClO2)2
_chemical_formula_sum   'Hg2 H44 C74 Br4 N4 Cl4 O8'
_cell_volume   2199.23386245
_cell_formula_units_Z   2
loop_
 _symmetry_equiv_pos_site_id
 _symmetry_equiv_pos_as_xyz
  1  'x, y, z'
loop_
 _atom_site_type_symbol
 _atom_site_label
 _atom_site_symmetry_multiplicity
 _atom_site_fract_x
 _atom_site_fract_y
 _atom_site_fract_z
 _atom_site_occupancy
  Hg  Hg0  1  0.00340000  0.23373000  0.47857000  1.0
  Hg  Hg1  1  0.99660000  0.76627000  0.52143000  1.0
  H  H2  1  0.12183000  0.44227000  0.50574000  1.0
  H  H3  1  0.87818000  0.55773000  0.49426000  1.0
  H  H4  1  0.27000000  0.58523000  0.60628000  1.0
  H  H5  1  0.73002000  0.41477000  0.39372000  1.0
  H  H6  1  0.42461000  0.57749000  0.72931000  1.0
  H  H7  1  0.57541000  0.42251000  0.27069000  1.0
  H  H8  1  0.26314000  0.29245000  0.63898000  1.0
  H  H9  1  0.73686000  0.70756000  0.36102000  1.0
  H  H10  1  0.38962000  0.39057000  0.91642000  1.0
  H  H11  1  0.61038000  0.60943000  0.08358000  1.0
  H  H12  1  0.53502000  0.35512000  0.02357000  1.0
  H  H13  1  0.46498000  0.64487000  0.97643000  1.0
  H  H14  1  0.85118000  0.21133000  0.83043000  1.0
  H  H15  1  0.14881000  0.78867000  0.16956000  1.0
  H  H16  1  0.71122000  0.25293000  0.72497000  1.0
  H  H17  1  0.28877000  0.74707000  0.27503000  1.0
  H  H18  1  0.74161000  0.46204000  0.10108000  1.0
  H  H19  1  0.25840000  0.53796000  0.89893000  1.0
  H  H20  1  0.20957000  0.55280000  0.13117000  1.0
  H  H21  1  0.79042000  0.44720000  0.86883000  1.0
  H  H22  1  0.28348000  0.39066000  0.05393000  1.0
  H  H23  1  0.71652000  0.60933000  0.94607000  1.0
  H  H24  1  0.29961000  0.20838000  0.96848000  1.0
  H  H25  1  0.70039000  0.79162000  0.03153000  1.0
  H  H26  1  0.25736000  0.03695000  0.89303000  1.0
  H  H27  1  0.74265000  0.96305000  0.10698000  1.0
  H  H28  1  0.77777000  0.06540000  0.91361000  1.0
  H  H29  1  0.22223000  0.93460000  0.08638000  1.0
  H  H30  1  0.85107000  0.31866000  0.17780000  1.0
  H  H31  1  0.14893000  0.68133000  0.82220000  1.0
  H  H32  1  0.71173000  0.26269000  0.27245000  1.0
  H  H33  1  0.28826000  0.73731000  0.72755000  1.0
  H  H34  1  0.40033000  0.10464000  0.06109000  1.0
  H  H35  1  0.59967000  0.89537000  0.93891000  1.0
  H  H36  1  0.54389000  0.15557000  0.96533000  1.0
  H  H37  1  0.45610000  0.84443000  0.03467000  1.0
  H  H38  1  0.42919000  0.91787000  0.24701000  1.0
  H  H39  1  0.57082000  0.08213000  0.75299000  1.0
  H  H40  1  0.25976000  0.19188000  0.33023000  1.0
  H  H41  1  0.74023000  0.80812000  0.66977000  1.0
  H  H42  1  0.11970000  0.02950000  0.45339000  1.0
  H  H43  1  0.88031000  0.97050000  0.54661000  1.0
  H  H44  1  0.27422000  0.89887000  0.36163000  1.0
  H  H45  1  0.72579000  0.10113000  0.63837000  1.0
  C  C46  1  0.19067000  0.44286000  0.55967000  1.0
  C  C47  1  0.80934000  0.55714000  0.44032000  1.0
  C  C48  1  0.27462000  0.52165000  0.61536000  1.0
  C  C49  1  0.72540000  0.47835000  0.38464000  1.0
  C  C50  1  0.35913000  0.51740000  0.68293000  1.0
  C  C51  1  0.64088000  0.48259000  0.31707000  1.0
  C  C52  1  0.35839000  0.43390000  0.69172000  1.0
  C  C53  1  0.64161000  0.56610000  0.30828000  1.0
  C  C54  1  0.27033000  0.35805000  0.63314000  1.0
  C  C55  1  0.72966000  0.64195000  0.36686000  1.0
  C  C56  1  0.44698000  0.42944000  0.76425000  1.0
  C  C57  1  0.55303000  0.57057000  0.23576000  1.0
  C  C58  1  0.54298000  0.32277000  0.81492000  1.0
  C  C59  1  0.45702000  0.67723000  0.18508000  1.0
  C  C60  1  0.49146000  0.35206000  0.89833000  1.0
  C  C61  1  0.50854000  0.64794000  0.10167000  1.0
  C  C62  1  0.57270000  0.33075000  0.95762000  1.0
  C  C63  1  0.42730000  0.66924000  0.04238000  1.0
  C  C64  1  0.70280000  0.27977000  0.93419000  1.0
  C  C65  1  0.29720000  0.72023000  0.06581000  1.0
  C  C66  1  0.75012000  0.25041000  0.84969000  1.0
  C  C67  1  0.24987000  0.74959000  0.15031000  1.0
  C  C68  1  0.67129000  0.27242000  0.78988000  1.0
  C  C69  1  0.32870000  0.72757000  0.21012000  1.0
  C  C70  1  0.79916000  0.26684000  0.00327000  1.0
  C  C71  1  0.20083000  0.73317000  0.99672000  1.0
  C  C72  1  0.90142000  0.35481000  0.04640000  1.0
  C  C73  1  0.09857000  0.64519000  0.95359000  1.0
  C  C74  1  0.85898000  0.44562000  0.09047000  1.0
  C  C75  1  0.14102000  0.55438000  0.90953000  1.0
  C  C76  1  0.97257000  0.51548000  0.12045000  1.0
  C  C77  1  0.02743000  0.48452000  0.87955000  1.0
  C  C78  1  0.12411000  0.49669000  0.10722000  1.0
  C  C79  1  0.87589000  0.50331000  0.89278000  1.0
  C  C80  1  0.16505000  0.40504000  0.06297000  1.0
  C  C81  1  0.83494000  0.59495000  0.93702000  1.0
  C  C82  1  0.05345000  0.33388000  0.03211000  1.0
  C  C83  1  0.94654000  0.66612000  0.96789000  1.0
  C  C84  1  0.06240000  0.23353000  0.98362000  1.0
  C  C85  1  0.93759000  0.76648000  0.01638000  1.0
  C  C86  1  0.18573000  0.17779000  0.95633000  1.0
  C  C87  1  0.81426000  0.82221000  0.04368000  1.0
  C  C88  1  0.16245000  0.08153000  0.91395000  1.0
  C  C89  1  0.83756000  0.91847000  0.08606000  1.0
  C  C90  1  0.01593000  0.04281000  0.89959000  1.0
  C  C91  1  0.98407000  0.95720000  0.10041000  1.0
  C  C92  1  0.89067000  0.09721000  0.92482000  1.0
  C  C93  1  0.10932000  0.90279000  0.07518000  1.0
  C  C94  1  0.91581000  0.19281000  0.96632000  1.0
  C  C95  1  0.08418000  0.80719000  0.03367000  1.0
  C  C96  1  0.70575000  0.24247000  0.06520000  1.0
  C  C97  1  0.29425000  0.75753000  0.93479000  1.0
  C  C98  1  0.75196000  0.27228000  0.15189000  1.0
  C  C99  1  0.24805000  0.72771000  0.84810000  1.0
  C  C100  1  0.67365000  0.24201000  0.20561000  1.0
  C  C101  1  0.32635000  0.75799000  0.79439000  1.0
  C  C102  1  0.54778000  0.18265000  0.17221000  1.0
  C  C103  1  0.45221000  0.81735000  0.82779000  1.0
  C  C104  1  0.49910000  0.15129000  0.08623000  1.0
  C  C105  1  0.50090000  0.84872000  0.91377000  1.0
  C  C106  1  0.57962000  0.18125000  0.03313000  1.0
  C  C107  1  0.42038000  0.81874000  0.96687000  1.0
  C  C108  1  0.44952000  0.06820000  0.21502000  1.0
  C  C109  1  0.55047000  0.93181000  0.78499000  1.0
  C  C110  1  0.35897000  0.05697000  0.28189000  1.0
  C  C111  1  0.64103000  0.94303000  0.71811000  1.0
  C  C112  1  0.36139000  0.97315000  0.28993000  1.0
  C  C113  1  0.63862000  0.02685000  0.71007000  1.0
  C  C114  1  0.26815000  0.12643000  0.33585000  1.0
  C  C115  1  0.73185000  0.87357000  0.66416000  1.0
  C  C116  1  0.18914000  0.03510000  0.40388000  1.0
  C  C117  1  0.81087000  0.96490000  0.59612000  1.0
  C  C118  1  0.27607000  0.96248000  0.35246000  1.0
  C  C119  1  0.72395000  0.03752000  0.64754000  1.0
  Br  Br120  1  0.91753000  0.64080000  0.18205000  1.0
  Br  Br121  1  0.08246000  0.35919000  0.81796000  1.0
  Br  Br122  1  0.98679000  0.91111000  0.84529000  1.0
  Br  Br123  1  0.01321000  0.08890000  0.15472000  1.0
  N  N124  1  0.18822000  0.36302000  0.56888000  1.0
  N  N125  1  0.81178000  0.63699000  0.43112000  1.0
  N  N126  1  0.18500000  0.11512000  0.39519000  1.0
  N  N127  1  0.81501000  0.88487000  0.60481000  1.0
  Cl  Cl128  1  0.95379000  0.17271000  0.58128000  1.0
  Cl  Cl129  1  0.04621000  0.82730000  0.41872000  1.0
  Cl  Cl130  1  0.95837000  0.29808000  0.37742000  1.0
  Cl  Cl131  1  0.04163000  0.70192000  0.62258000  1.0
  O  O132  1  0.49927000  0.49693000  0.82675000  1.0
  O  O133  1  0.50073000  0.50307000  0.17324000  1.0
  O  O134  1  0.46390000  0.33952000  0.75127000  1.0
  O  O135  1  0.53609000  0.66048000  0.24873000  1.0
  O  O136  1  0.46662000  0.15932000  0.23041000  1.0
  O  O137  1  0.53337000  0.84068000  0.76959000  1.0
  O  O138  1  0.50292000  0.00418000  0.15481000  1.0
  O  O139  1  0.49709000  0.99582000  0.84520000  1.0
