# generated using pymatgen
data_Cd2H45C69N13O12
_symmetry_space_group_name_H-M   'P 1'
_cell_length_a   13.05450000
_cell_length_b   14.63892559
_cell_length_c   22.50100000
_cell_angle_alpha   89.29722903
_cell_angle_beta   73.16740000
_cell_angle_gamma   63.56023122
_symmetry_Int_Tables_number   1
_chemical_formula_structural   Cd2H45C69N13O12
_chemical_formula_sum   'Cd4 H90 C138 N26 O24'
_cell_volume   3650.98529053
_cell_formula_units_Z   2
loop_
 _symmetry_equiv_pos_site_id
 _symmetry_equiv_pos_as_xyz
  1  'x, y, z'
loop_
 _atom_site_type_symbol
 _atom_site_label
 _atom_site_symmetry_multiplicity
 _atom_site_fract_x
 _atom_site_fract_y
 _atom_site_fract_z
 _atom_site_occupancy
  Cd  Cd0  1  0.72246000  0.77979000  0.31657000  1.0
  Cd  Cd1  1  0.31962000  0.72009000  0.18305000  1.0
  Cd  Cd2  1  0.27758000  0.22018000  0.68341000  1.0
  Cd  Cd3  1  0.68037000  0.27989000  0.81694000  1.0
  H  H4  1  0.56455000  0.01725000  0.35609000  1.0
  H  H5  1  0.43836000  0.48255000  0.14385000  1.0
  H  H6  1  0.43545000  0.98268000  0.64391000  1.0
  H  H7  1  0.56162000  0.51745000  0.85615000  1.0
  H  H8  1  0.39714000  0.17141000  0.33526000  1.0
  H  H9  1  0.40438000  0.32833000  0.16475000  1.0
  H  H10  1  0.60285000  0.82853000  0.66475000  1.0
  H  H11  1  0.59565000  0.67164000  0.83526000  1.0
  H  H12  1  0.34079000  0.96187000  0.23028000  1.0
  H  H13  1  0.03364000  0.53767000  0.26922000  1.0
  H  H14  1  0.65922000  0.03808000  0.76970000  1.0
  H  H15  1  0.96638000  0.46226000  0.73078000  1.0
  H  H16  1  0.51632000  0.81812000  0.25039000  1.0
  H  H17  1  0.08554000  0.68153000  0.24926000  1.0
  H  H18  1  0.48372000  0.18183000  0.74957000  1.0
  H  H19  1  0.91442000  0.31843000  0.75073000  1.0
  H  H20  1  0.14297000  0.09678000  0.27658000  1.0
  H  H21  1  0.01696000  0.40285000  0.22304000  1.0
  H  H22  1  0.85701000  0.90319000  0.72343000  1.0
  H  H23  1  0.98305000  0.59712000  0.77699000  1.0
  H  H24  1  0.94457000  0.15822000  0.32585000  1.0
  H  H25  1  0.92832000  0.34147000  0.17389000  1.0
  H  H26  1  0.05540000  0.84178000  0.67418000  1.0
  H  H27  1  0.07170000  0.65852000  0.82614000  1.0
  H  H28  1  0.75414000  0.15977000  0.32675000  1.0
  H  H29  1  0.74059000  0.33919000  0.17318000  1.0
  H  H30  1  0.24581000  0.84025000  0.67327000  1.0
  H  H31  1  0.25941000  0.66082000  0.82685000  1.0
  H  H32  1  0.44689000  0.80718000  0.36798000  1.0
  H  H33  1  0.12161000  0.69352000  0.13233000  1.0
  H  H34  1  0.55313000  0.19283000  0.63202000  1.0
  H  H35  1  0.87838000  0.30648000  0.86766000  1.0
  H  H36  1  0.31665000  0.75848000  0.45010000  1.0
  H  H37  1  0.02434000  0.74236000  0.05035000  1.0
  H  H38  1  0.68333000  0.24160000  0.54992000  1.0
  H  H39  1  0.97564000  0.25765000  0.94965000  1.0
  H  H40  1  0.62089000  0.59385000  0.51685000  1.0
  H  H41  1  0.23127000  0.90646000  0.98312000  1.0
  H  H42  1  0.37911000  0.40619000  0.48316000  1.0
  H  H43  1  0.76868000  0.09357000  0.01687000  1.0
  H  H44  1  0.73622000  0.65822000  0.43483000  1.0
  H  H45  1  0.32944000  0.84194000  0.06501000  1.0
  H  H46  1  0.26380000  0.34178000  0.56516000  1.0
  H  H47  1  0.67054000  0.15807000  0.93498000  1.0
  H  H48  1  0.23438000  0.68404000  0.50649000  1.0
  H  H49  1  0.92446000  0.81606000  0.99366000  1.0
  H  H50  1  0.76559000  0.31606000  0.49353000  1.0
  H  H51  1  0.07551000  0.18396000  0.00633000  1.0
  H  H52  1  0.22377000  0.52468000  0.66787000  1.0
  H  H53  1  0.91557000  0.97565000  0.83233000  1.0
  H  H54  1  0.77624000  0.47536000  0.33213000  1.0
  H  H55  1  0.08441000  0.02438000  0.16766000  1.0
  H  H56  1  0.73134000  0.35012000  0.68016000  1.0
  H  H57  1  0.26321000  0.14834000  0.81995000  1.0
  H  H58  1  0.26866000  0.64988000  0.31984000  1.0
  H  H59  1  0.73678000  0.85169000  0.18006000  1.0
  H  H60  1  0.62434000  0.46184000  0.61045000  1.0
  H  H61  1  0.19747000  0.03687000  0.88949000  1.0
  H  H62  1  0.37566000  0.53819000  0.38956000  1.0
  H  H63  1  0.80250000  0.96317000  0.11052000  1.0
  H  H64  1  0.29154000  0.49422000  0.74188000  1.0
  H  H65  1  0.02651000  0.00682000  0.75833000  1.0
  H  H66  1  0.70846000  0.50581000  0.25812000  1.0
  H  H67  1  0.97350000  0.99318000  0.24167000  1.0
  H  H68  1  0.41003000  0.38125000  0.80507000  1.0
  H  H69  1  0.09593000  0.11959000  0.69531000  1.0
  H  H70  1  0.58996000  0.61875000  0.19492000  1.0
  H  H71  1  0.90408000  0.88041000  0.30468000  1.0
  H  H72  1  0.03222000  0.76703000  0.55566000  1.0
  H  H73  1  0.85466000  0.73300000  0.94429000  1.0
  H  H74  1  0.96775000  0.23303000  0.44434000  1.0
  H  H75  1  0.14536000  0.26701000  0.05569000  1.0
  H  H76  1  0.83553000  0.78191000  0.55847000  1.0
  H  H77  1  0.67603000  0.71768000  0.94140000  1.0
  H  H78  1  0.16448000  0.21810000  0.44151000  1.0
  H  H79  1  0.32398000  0.28232000  0.05859000  1.0
  H  H80  1  0.92842000  0.48692000  0.62601000  1.0
  H  H81  1  0.54061000  0.01307000  0.87440000  1.0
  H  H82  1  0.07166000  0.51308000  0.37398000  1.0
  H  H83  1  0.45934000  0.98695000  0.12562000  1.0
  H  H84  1  0.12191000  0.47447000  0.62621000  1.0
  H  H85  1  0.72170000  0.02588000  0.87418000  1.0
  H  H86  1  0.87813000  0.52559000  0.37380000  1.0
  H  H87  1  0.27825000  0.97415000  0.12582000  1.0
  H  H88  1  0.56437000  0.65645000  0.61712000  1.0
  H  H89  1  0.33786000  0.84291000  0.88295000  1.0
  H  H90  1  0.43569000  0.34345000  0.38288000  1.0
  H  H91  1  0.66214000  0.15707000  0.11706000  1.0
  H  H92  1  0.44927000  0.24959000  0.25001000  1.0
  H  H93  1  0.55079000  0.75033000  0.74999000  1.0
  C  C94  1  0.51356000  0.00900000  0.32752000  1.0
  C  C95  1  0.35059000  0.49079000  0.17236000  1.0
  C  C96  1  0.48645000  0.99094000  0.67247000  1.0
  C  C97  1  0.64940000  0.50919000  0.82764000  1.0
  C  C98  1  0.42063000  0.09431000  0.31581000  1.0
  C  C99  1  0.33132000  0.40541000  0.18410000  1.0
  C  C100  1  0.57937000  0.90563000  0.68419000  1.0
  C  C101  1  0.66870000  0.59456000  0.81592000  1.0
  C  C102  1  0.35669000  0.07958000  0.27961000  1.0
  C  C103  1  0.21650000  0.42003000  0.22012000  1.0
  C  C104  1  0.64333000  0.92036000  0.72038000  1.0
  C  C105  1  0.78351000  0.57993000  0.77990000  1.0
  C  C106  1  0.38875000  0.97831000  0.25750000  1.0
  C  C107  1  0.12520000  0.52131000  0.24210000  1.0
  C  C108  1  0.61126000  0.02164000  0.74249000  1.0
  C  C109  1  0.87481000  0.47864000  0.75791000  1.0
  C  C110  1  0.48527000  0.89740000  0.26968000  1.0
  C  C111  1  0.15300000  0.60226000  0.23000000  1.0
  C  C112  1  0.51476000  0.10254000  0.73030000  1.0
  C  C113  1  0.84698000  0.39770000  0.77000000  1.0
  C  C114  1  0.25958000  0.16841000  0.26430000  1.0
  C  C115  1  0.19280000  0.33120000  0.23542000  1.0
  C  C116  1  0.74042000  0.83155000  0.73571000  1.0
  C  C117  1  0.80723000  0.66875000  0.76459000  1.0
  C  C118  1  0.15394000  0.16509000  0.26481000  1.0
  C  C119  1  0.08435000  0.33455000  0.23486000  1.0
  C  C120  1  0.84606000  0.83487000  0.73521000  1.0
  C  C121  1  0.91566000  0.66542000  0.76517000  1.0
  C  C122  1  0.06338000  0.24984000  0.24982000  1.0
  C  C123  1  0.93662000  0.75013000  0.75020000  1.0
  C  C124  1  0.95047000  0.24983000  0.24986000  1.0
  C  C125  1  0.04953000  0.75016000  0.75017000  1.0
  C  C126  1  0.90009000  0.19828000  0.29240000  1.0
  C  C127  1  0.89078000  0.30125000  0.20737000  1.0
  C  C128  1  0.09990000  0.80172000  0.70763000  1.0
  C  C129  1  0.10922000  0.69875000  0.79265000  1.0
  C  C130  1  0.79313000  0.19887000  0.29302000  1.0
  C  C131  1  0.78518000  0.30025000  0.20686000  1.0
  C  C132  1  0.20685000  0.80114000  0.70700000  1.0
  C  C133  1  0.21482000  0.69976000  0.79316000  1.0
  C  C134  1  0.73406000  0.24944000  0.24996000  1.0
  C  C135  1  0.26594000  0.75057000  0.75006000  1.0
  C  C136  1  0.62545000  0.24930000  0.24998000  1.0
  C  C137  1  0.37457000  0.75068000  0.75002000  1.0
  C  C138  1  0.53220000  0.24944000  0.25000000  1.0
  C  C139  1  0.46785000  0.75050000  0.75000000  1.0
  C  C140  1  0.48228000  0.76067000  0.40228000  1.0
  C  C141  1  0.14489000  0.73988000  0.09794000  1.0
  C  C142  1  0.51773000  0.23935000  0.59772000  1.0
  C  C143  1  0.85509000  0.26013000  0.90205000  1.0
  C  C144  1  0.40966000  0.73220000  0.44861000  1.0
  C  C145  1  0.08989000  0.76841000  0.05168000  1.0
  C  C146  1  0.59033000  0.26786000  0.55140000  1.0
  C  C147  1  0.91009000  0.23160000  0.94831000  1.0
  C  C148  1  0.45769000  0.67045000  0.49156000  1.0
  C  C149  1  0.11923000  0.82996000  0.00861000  1.0
  C  C150  1  0.54231000  0.32961000  0.50845000  1.0
  C  C151  1  0.88074000  0.17006000  0.99139000  1.0
  C  C152  1  0.57811000  0.64264000  0.48554000  1.0
  C  C153  1  0.20606000  0.85767000  0.01447000  1.0
  C  C154  1  0.42190000  0.35739000  0.51446000  1.0
  C  C155  1  0.79391000  0.14235000  0.98553000  1.0
  C  C156  1  0.64344000  0.67695000  0.43913000  1.0
  C  C157  1  0.25953000  0.82330000  0.06081000  1.0
  C  C158  1  0.35658000  0.32306000  0.56086000  1.0
  C  C159  1  0.74044000  0.17672000  0.93918000  1.0
  C  C160  1  0.38730000  0.63378000  0.54097000  1.0
  C  C161  1  0.06147000  0.86650000  0.95922000  1.0
  C  C162  1  0.61269000  0.36629000  0.45905000  1.0
  C  C163  1  0.93849000  0.13353000  0.04078000  1.0
  C  C164  1  0.27348000  0.64715000  0.54233000  1.0
  C  C165  1  0.96237000  0.85310000  0.95787000  1.0
  C  C166  1  0.72650000  0.35293000  0.45769000  1.0
  C  C167  1  0.03761000  0.14692000  0.04213000  1.0
  C  C168  1  0.21108000  0.60891000  0.58862000  1.0
  C  C169  1  0.90794000  0.89139000  0.91160000  1.0
  C  C170  1  0.78892000  0.39115000  0.41139000  1.0
  C  C171  1  0.09205000  0.10863000  0.08839000  1.0
  C  C172  1  0.26802000  0.55722000  0.63171000  1.0
  C  C173  1  0.95626000  0.94307000  0.86847000  1.0
  C  C174  1  0.73197000  0.44284000  0.36830000  1.0
  C  C175  1  0.04373000  0.05696000  0.13152000  1.0
  C  C176  1  0.38246000  0.54606000  0.62711000  1.0
  C  C177  1  0.05508000  0.95407000  0.87301000  1.0
  C  C178  1  0.61753000  0.45400000  0.37290000  1.0
  C  C179  1  0.94490000  0.04596000  0.12699000  1.0
  C  C180  1  0.63362000  0.38358000  0.69187000  1.0
  C  C181  1  0.21010000  0.11542000  0.80822000  1.0
  C  C182  1  0.36637000  0.61643000  0.30813000  1.0
  C  C183  1  0.78989000  0.88460000  0.19178000  1.0
  C  C184  1  0.57392000  0.44544000  0.65321000  1.0
  C  C185  1  0.17325000  0.05366000  0.84678000  1.0
  C  C186  1  0.42608000  0.55458000  0.34679000  1.0
  C  C187  1  0.82674000  0.94637000  0.15322000  1.0
  C  C188  1  0.44829000  0.48560000  0.66929000  1.0
  C  C189  1  0.10301000  0.01428000  0.83079000  1.0
  C  C190  1  0.55170000  0.51444000  0.33072000  1.0
  C  C191  1  0.89698000  0.98574000  0.16921000  1.0
  C  C192  1  0.38910000  0.46239000  0.72530000  1.0
  C  C193  1  0.07631000  0.03804000  0.77488000  1.0
  C  C194  1  0.61090000  0.53764000  0.27470000  1.0
  C  C195  1  0.92369000  0.96197000  0.22512000  1.0
  C  C196  1  0.45522000  0.39988000  0.76146000  1.0
  C  C197  1  0.11651000  0.10041000  0.73880000  1.0
  C  C198  1  0.54477000  0.60013000  0.23853000  1.0
  C  C199  1  0.88350000  0.89959000  0.26120000  1.0
  C  C200  1  0.09263000  0.61922000  0.59034000  1.0
  C  C201  1  0.80159000  0.88100000  0.90985000  1.0
  C  C202  1  0.90737000  0.38084000  0.40966000  1.0
  C  C203  1  0.19839000  0.11902000  0.09014000  1.0
  C  C204  1  0.01025000  0.70511000  0.57107000  1.0
  C  C205  1  0.78609000  0.79492000  0.92898000  1.0
  C  C206  1  0.98973000  0.29494000  0.42893000  1.0
  C  C207  1  0.21392000  0.20509000  0.07100000  1.0
  C  C208  1  0.89847000  0.71446000  0.57315000  1.0
  C  C209  1  0.68589000  0.78534000  0.92685000  1.0
  C  C210  1  0.10153000  0.28556000  0.42684000  1.0
  C  C211  1  0.31410000  0.21467000  0.07313000  1.0
  C  C212  1  0.86691000  0.63639000  0.59377000  1.0
  C  C213  1  0.59672000  0.86343000  0.90639000  1.0
  C  C214  1  0.13311000  0.36362000  0.40622000  1.0
  C  C215  1  0.40326000  0.13658000  0.09361000  1.0
  C  C216  1  0.95068000  0.54879000  0.61132000  1.0
  C  C217  1  0.61019000  0.95122000  0.88898000  1.0
  C  C218  1  0.04936000  0.45123000  0.38868000  1.0
  C  C219  1  0.38978000  0.04880000  0.11102000  1.0
  C  C220  1  0.06047000  0.54165000  0.61068000  1.0
  C  C221  1  0.71211000  0.95857000  0.88960000  1.0
  C  C222  1  0.93955000  0.45840000  0.38931000  1.0
  C  C223  1  0.28786000  0.04145000  0.11039000  1.0
  C  C224  1  0.75137000  0.64532000  0.59977000  1.0
  C  C225  1  0.49618000  0.85432000  0.90041000  1.0
  C  C226  1  0.24867000  0.35465000  0.40022000  1.0
  C  C227  1  0.50380000  0.14568000  0.09960000  1.0
  C  C228  1  0.65185000  0.65161000  0.60892000  1.0
  C  C229  1  0.41213000  0.84790000  0.89131000  1.0
  C  C230  1  0.34820000  0.34832000  0.39108000  1.0
  C  C231  1  0.58787000  0.15208000  0.10871000  1.0
  N  N232  1  0.54691000  0.91210000  0.30414000  1.0
  N  N233  1  0.26374000  0.58768000  0.19563000  1.0
  N  N234  1  0.45312000  0.08784000  0.69584000  1.0
  N  N235  1  0.73624000  0.41230000  0.80436000  1.0
  N  N236  1  0.27971000  0.24980000  0.24989000  1.0
  N  N237  1  0.72031000  0.75014000  0.75012000  1.0
  N  N238  1  0.59769000  0.73378000  0.39705000  1.0
  N  N239  1  0.22856000  0.76651000  0.10294000  1.0
  N  N240  1  0.40234000  0.26621000  0.60294000  1.0
  N  N241  1  0.77143000  0.23349000  0.89705000  1.0
  N  N242  1  0.44056000  0.58442000  0.58289000  1.0
  N  N243  1  0.10734000  0.91574000  0.91723000  1.0
  N  N244  1  0.55943000  0.41564000  0.41712000  1.0
  N  N245  1  0.89263000  0.08429000  0.08277000  1.0
  N  N246  1  0.57596000  0.35999000  0.74507000  1.0
  N  N247  1  0.18169000  0.13963000  0.75515000  1.0
  N  N248  1  0.42403000  0.64001000  0.25492000  1.0
  N  N249  1  0.81832000  0.86037000  0.24485000  1.0
  N  N250  1  0.82445000  0.80875000  0.40724000  1.0
  N  N251  1  0.54127000  0.69142000  0.09265000  1.0
  N  N252  1  0.17556000  0.19124000  0.59275000  1.0
  N  N253  1  0.45873000  0.30856000  0.90735000  1.0
  N  N254  1  0.81690000  0.60849000  0.21841000  1.0
  N  N255  1  0.14467000  0.89140000  0.28131000  1.0
  N  N256  1  0.18315000  0.39148000  0.78156000  1.0
  N  N257  1  0.85534000  0.10857000  0.71868000  1.0
  O  O258  1  0.87203000  0.72411000  0.36893000  1.0
  O  O259  1  0.46598000  0.77622000  0.13075000  1.0
  O  O260  1  0.12799000  0.27589000  0.63105000  1.0
  O  O261  1  0.53403000  0.22376000  0.86925000  1.0
  O  O262  1  0.72877000  0.88383000  0.40166000  1.0
  O  O263  1  0.51486000  0.61639000  0.09829000  1.0
  O  O264  1  0.27123000  0.11616000  0.59833000  1.0
  O  O265  1  0.48510000  0.38361000  0.90170000  1.0
  O  O266  1  0.87030000  0.81548000  0.44686000  1.0
  O  O267  1  0.63367000  0.68437000  0.05316000  1.0
  O  O268  1  0.12970000  0.18451000  0.55314000  1.0
  O  O269  1  0.36633000  0.31559000  0.94684000  1.0
  O  O270  1  0.83769000  0.60257000  0.27177000  1.0
  O  O271  1  0.21238000  0.89735000  0.22780000  1.0
  O  O272  1  0.16231000  0.39743000  0.72821000  1.0
  O  O273  1  0.78762000  0.10263000  0.77219000  1.0
  O  O274  1  0.73892000  0.69445000  0.21024000  1.0
  O  O275  1  0.14427000  0.80552000  0.28955000  1.0
  O  O276  1  0.26118000  0.30551000  0.78970000  1.0
  O  O277  1  0.85574000  0.19445000  0.71044000  1.0
  O  O278  1  0.87117000  0.53134000  0.17789000  1.0
  O  O279  1  0.08199000  0.96850000  0.32190000  1.0
  O  O280  1  0.12889000  0.46859000  0.82211000  1.0
  O  O281  1  0.91804000  0.03147000  0.67810000  1.0
