# generated using pymatgen
data_UH38C33(N6O7)2
_symmetry_space_group_name_H-M   'P 1'
_cell_length_a   11.80860000
_cell_length_b   11.93460000
_cell_length_c   17.44430000
_cell_angle_alpha   104.31700000
_cell_angle_beta   95.96470000
_cell_angle_gamma   116.11200000
_symmetry_Int_Tables_number   1
_chemical_formula_structural   UH38C33(N6O7)2
_chemical_formula_sum   'U2 H76 C66 N24 O28'
_cell_volume   2074.02564745
_cell_formula_units_Z   2
loop_
 _symmetry_equiv_pos_site_id
 _symmetry_equiv_pos_as_xyz
  1  'x, y, z'
loop_
 _atom_site_type_symbol
 _atom_site_label
 _atom_site_symmetry_multiplicity
 _atom_site_fract_x
 _atom_site_fract_y
 _atom_site_fract_z
 _atom_site_occupancy
  U  U0  1  0.65235000  0.63613000  0.91472000  1.0
  U  U1  1  0.34764000  0.36386000  0.08527000  1.0
  H  H2  1  0.84566000  0.36948000  0.70716000  1.0
  H  H3  1  0.15435000  0.63053000  0.29284000  1.0
  H  H4  1  0.73560000  0.14863000  0.89260000  1.0
  H  H5  1  0.26440000  0.85136000  0.10740000  1.0
  H  H6  1  0.63022000  0.03827000  0.93672000  1.0
  H  H7  1  0.36978000  0.96174000  0.06329000  1.0
  H  H8  1  0.60572000  0.29311000  0.09898000  1.0
  H  H9  1  0.39429000  0.70689000  0.90102000  1.0
  H  H10  1  0.55595000  0.12328000  0.05719000  1.0
  H  H11  1  0.44406000  0.87672000  0.94281000  1.0
  H  H12  1  0.73139000  0.22902000  0.18623000  1.0
  H  H13  1  0.26861000  0.77099000  0.81377000  1.0
  H  H14  1  0.88489000  0.15707000  0.13151000  1.0
  H  H15  1  0.11511000  0.84293000  0.86849000  1.0
  H  H16  1  0.72084000  0.04081000  0.08031000  1.0
  H  H17  1  0.27916000  0.95918000  0.91969000  1.0
  H  H18  1  0.02977000  0.31003000  0.06791000  1.0
  H  H19  1  0.97023000  0.68996000  0.93209000  1.0
  H  H20  1  0.97189000  0.31028000  0.97051000  1.0
  H  H21  1  0.02810000  0.68972000  0.02949000  1.0
  H  H22  1  0.98658000  0.49966000  0.07878000  1.0
  H  H23  1  0.01342000  0.50033000  0.92122000  1.0
  H  H24  1  0.81141000  0.39479000  0.95030000  1.0
  H  H25  1  0.18859000  0.60521000  0.04970000  1.0
  H  H26  1  0.76043000  0.45684000  0.03479000  1.0
  H  H27  1  0.23957000  0.54316000  0.96521000  1.0
  H  H28  1  0.83924000  0.45538000  0.17338000  1.0
  H  H29  1  0.16077000  0.54463000  0.82662000  1.0
  H  H30  1  0.95374000  0.40069000  0.18999000  1.0
  H  H31  1  0.04627000  0.59931000  0.81001000  1.0
  H  H32  1  0.90478000  0.07724000  0.91258000  1.0
  H  H33  1  0.09522000  0.92277000  0.08741000  1.0
  H  H34  1  0.96812000  0.08186000  0.00959000  1.0
  H  H35  1  0.03187000  0.91814000  0.99040000  1.0
  H  H36  1  0.56473000  0.19715000  0.86638000  1.0
  H  H37  1  0.43528000  0.80285000  0.13361000  1.0
  H  H38  1  0.46434000  0.13674000  0.93247000  1.0
  H  H39  1  0.53567000  0.86326000  0.06753000  1.0
  H  H40  1  0.67962000  0.34195000  0.77939000  1.0
  H  H41  1  0.32038000  0.65805000  0.22060000  1.0
  H  H42  1  0.07805000  0.05330000  0.87046000  1.0
  H  H43  1  0.92194000  0.94669000  0.12954000  1.0
  H  H44  1  0.92624000  0.81956000  0.80249000  1.0
  H  H45  1  0.07376000  0.18044000  0.19751000  1.0
  H  H46  1  0.70646000  0.68194000  0.71263000  1.0
  H  H47  1  0.29353000  0.31807000  0.28737000  1.0
  H  H48  1  0.64518000  0.77003000  0.66571000  1.0
  H  H49  1  0.35481000  0.22997000  0.33429000  1.0
  H  H50  1  0.09098000  0.69918000  0.66749000  1.0
  H  H51  1  0.90901000  0.30082000  0.33251000  1.0
  H  H52  1  0.95425000  0.64052000  0.71270000  1.0
  H  H53  1  0.04575000  0.35949000  0.28730000  1.0
  H  H54  1  0.73358000  0.50610000  0.60561000  1.0
  H  H55  1  0.26642000  0.49391000  0.39439000  1.0
  H  H56  1  0.67832000  0.41309000  0.45783000  1.0
  H  H57  1  0.32169000  0.58691000  0.54218000  1.0
  H  H58  1  0.50870000  0.57347000  0.37842000  1.0
  H  H59  1  0.49130000  0.42652000  0.62158000  1.0
  H  H60  1  0.54034000  0.43664000  0.34343000  1.0
  H  H61  1  0.45966000  0.56335000  0.65657000  1.0
  H  H62  1  0.80087000  0.41385000  0.35074000  1.0
  H  H63  1  0.19913000  0.58615000  0.64927000  1.0
  H  H64  1  0.97194000  0.53243000  0.38716000  1.0
  H  H65  1  0.02806000  0.46758000  0.61284000  1.0
  H  H66  1  0.67386000  0.45551000  0.24801000  1.0
  H  H67  1  0.32615000  0.54449000  0.75199000  1.0
  H  H68  1  0.73414000  0.58388000  0.15522000  1.0
  H  H69  1  0.26586000  0.41612000  0.84478000  1.0
  H  H70  1  0.70756000  0.77844000  0.13416000  1.0
  H  H71  1  0.29244000  0.22156000  0.86584000  1.0
  H  H72  1  0.64186000  0.84470000  0.21184000  1.0
  H  H73  1  0.35813000  0.15529000  0.78817000  1.0
  H  H74  1  0.08114000  0.77012000  0.19872000  1.0
  H  H75  1  0.91886000  0.22989000  0.80129000  1.0
  H  H76  1  0.93534000  0.73181000  0.12811000  1.0
  H  H77  1  0.06467000  0.26819000  0.87189000  1.0
  C  C78  1  0.83103000  0.15565000  0.00876000  1.0
  C  C79  1  0.16897000  0.84435000  0.99124000  1.0
  C  C80  1  0.71220000  0.13848000  0.95100000  1.0
  C  C81  1  0.28779000  0.86152000  0.04899000  1.0
  C  C82  1  0.67162000  0.24157000  0.98979000  1.0
  C  C83  1  0.32838000  0.75843000  0.01021000  1.0
  C  C84  1  0.63814000  0.22309000  0.07043000  1.0
  C  C85  1  0.36186000  0.77691000  0.92957000  1.0
  C  C86  1  0.75676000  0.24276000  0.12896000  1.0
  C  C87  1  0.24324000  0.75724000  0.87104000  1.0
  C  C88  1  0.79821000  0.14132000  0.09019000  1.0
  C  C89  1  0.20179000  0.85867000  0.90980000  1.0
  C  C90  1  0.94394000  0.29674000  0.02720000  1.0
  C  C91  1  0.05607000  0.70327000  0.97280000  1.0
  C  C92  1  0.90483000  0.39969000  0.06632000  1.0
  C  C93  1  0.09517000  0.60031000  0.93368000  1.0
  C  C94  1  0.78710000  0.38088000  0.00783000  1.0
  C  C95  1  0.21290000  0.61912000  0.99217000  1.0
  C  C96  1  0.86877000  0.38236000  0.14611000  1.0
  C  C97  1  0.13124000  0.61764000  0.85388000  1.0
  C  C98  1  0.87757000  0.05955000  0.96864000  1.0
  C  C99  1  0.12243000  0.94045000  0.03135000  1.0
  C  C100  1  0.78997000  0.91318000  0.94591000  1.0
  C  C101  1  0.21002000  0.08680000  0.05409000  1.0
  C  C102  1  0.55246000  0.22014000  0.92894000  1.0
  C  C103  1  0.44754000  0.77985000  0.07106000  1.0
  C  C104  1  0.53553000  0.34117000  0.94812000  1.0
  C  C105  1  0.46448000  0.65883000  0.05188000  1.0
  C  C106  1  0.74735000  0.43974000  0.77668000  1.0
  C  C107  1  0.25267000  0.56026000  0.22332000  1.0
  C  C108  1  0.84432000  0.98788000  0.73255000  1.0
  C  C109  1  0.15568000  0.01211000  0.26745000  1.0
  C  C110  1  0.04732000  0.02616000  0.80355000  1.0
  C  C111  1  0.95267000  0.97383000  0.19645000  1.0
  C  C112  1  0.95638000  0.87493000  0.75975000  1.0
  C  C113  1  0.04362000  0.12507000  0.24024000  1.0
  C  C114  1  0.15847000  0.93841000  0.72536000  1.0
  C  C115  1  0.84152000  0.06159000  0.27464000  1.0
  C  C116  1  0.72338000  0.74414000  0.67309000  1.0
  C  C117  1  0.27662000  0.25585000  0.32691000  1.0
  C  C118  1  0.99999000  0.69977000  0.67457000  1.0
  C  C119  1  0.00001000  0.30024000  0.32543000  1.0
  C  C120  1  0.63934000  0.65822000  0.52331000  1.0
  C  C121  1  0.36066000  0.34179000  0.47669000  1.0
  C  C122  1  0.77404000  0.58155000  0.57577000  1.0
  C  C123  1  0.22595000  0.41845000  0.42423000  1.0
  C  C124  1  0.73318000  0.52202000  0.48037000  1.0
  C  C125  1  0.26682000  0.47798000  0.51963000  1.0
  C  C126  1  0.96215000  0.62837000  0.52513000  1.0
  C  C127  1  0.03785000  0.37164000  0.47487000  1.0
  C  C128  1  0.58441000  0.54380000  0.37475000  1.0
  C  C129  1  0.41559000  0.45619000  0.62525000  1.0
  C  C130  1  0.87304000  0.51950000  0.37856000  1.0
  C  C131  1  0.12696000  0.48050000  0.62144000  1.0
  C  C132  1  0.63851000  0.69877000  0.29573000  1.0
  C  C133  1  0.36149000  0.30123000  0.70428000  1.0
  C  C134  1  0.73560000  0.56259000  0.27966000  1.0
  C  C135  1  0.26441000  0.43741000  0.72035000  1.0
  C  C136  1  0.77216000  0.64458000  0.22041000  1.0
  C  C137  1  0.22784000  0.35542000  0.77960000  1.0
  C  C138  1  0.96238000  0.66927000  0.29757000  1.0
  C  C139  1  0.03763000  0.33074000  0.70244000  1.0
  C  C140  1  0.72051000  0.82232000  0.20006000  1.0
  C  C141  1  0.27948000  0.17768000  0.79994000  1.0
  C  C142  1  0.99214000  0.77894000  0.19205000  1.0
  C  C143  1  0.00786000  0.22105000  0.80795000  1.0
  N  N144  1  0.96674000  0.08229000  0.78359000  1.0
  N  N145  1  0.03325000  0.91771000  0.21641000  1.0
  N  N146  1  0.84286000  0.86735000  0.71253000  1.0
  N  N147  1  0.15713000  0.13265000  0.28746000  1.0
  N  N148  1  0.03508000  0.83538000  0.71426000  1.0
  N  N149  1  0.96492000  0.16462000  0.28574000  1.0
  N  N150  1  0.15962000  0.05391000  0.76920000  1.0
  N  N151  1  0.84038000  0.94609000  0.23080000  1.0
  N  N152  1  0.72026000  0.67128000  0.59265000  1.0
  N  N153  1  0.27974000  0.32872000  0.40735000  1.0
  N  N154  1  0.65198000  0.57602000  0.45715000  1.0
  N  N155  1  0.34801000  0.42398000  0.54285000  1.0
  N  N156  1  0.85726000  0.56963000  0.45806000  1.0
  N  N157  1  0.14274000  0.43038000  0.54195000  1.0
  N  N158  1  0.91437000  0.64056000  0.59411000  1.0
  N  N159  1  0.08563000  0.35944000  0.40589000  1.0
  N  N160  1  0.66466000  0.61339000  0.32674000  1.0
  N  N161  1  0.33534000  0.38661000  0.67326000  1.0
  N  N162  1  0.71380000  0.72804000  0.23999000  1.0
  N  N163  1  0.28620000  0.27196000  0.76001000  1.0
  N  N164  1  0.91379000  0.70900000  0.24069000  1.0
  N  N165  1  0.08621000  0.29099000  0.75932000  1.0
  N  N166  1  0.86098000  0.58884000  0.32350000  1.0
  N  N167  1  0.13903000  0.41117000  0.67651000  1.0
  O  O168  1  0.53968000  0.60804000  0.82429000  1.0
  O  O169  1  0.46032000  0.39197000  0.17571000  1.0
  O  O170  1  0.76572000  0.66715000  0.00611000  1.0
  O  O171  1  0.23429000  0.33286000  0.99389000  1.0
  O  O172  1  0.82233000  0.83425000  0.90067000  1.0
  O  O173  1  0.17767000  0.16574000  0.09932000  1.0
  O  O174  1  0.68766000  0.86220000  0.97147000  1.0
  O  O175  1  0.31236000  0.13780000  0.02852000  1.0
  O  O176  1  0.49940000  0.37412000  0.01271000  1.0
  O  O177  1  0.50061000  0.62590000  0.98729000  1.0
  O  O178  1  0.56274000  0.41088000  0.90120000  1.0
  O  O179  1  0.43726000  0.58913000  0.09880000  1.0
  O  O180  1  0.74836000  0.54237000  0.81673000  1.0
  O  O181  1  0.25164000  0.45763000  0.18327000  1.0
  O  O182  1  0.82640000  0.44713000  0.72904000  1.0
  O  O183  1  0.17360000  0.55287000  0.27096000  1.0
  O  O184  1  0.75495000  0.00909000  0.71282000  1.0
  O  O185  1  0.24504000  0.99091000  0.28717000  1.0
  O  O186  1  0.25048000  0.92967000  0.70378000  1.0
  O  O187  1  0.74951000  0.07032000  0.29623000  1.0
  O  O188  1  0.56645000  0.70616000  0.52150000  1.0
  O  O189  1  0.43354000  0.29384000  0.47850000  1.0
  O  O190  1  0.07559000  0.65998000  0.52349000  1.0
  O  O191  1  0.92440000  0.34003000  0.47652000  1.0
  O  O192  1  0.56086000  0.73750000  0.31247000  1.0
  O  O193  1  0.43914000  0.26249000  0.68753000  1.0
  O  O194  1  0.07897000  0.69986000  0.31947000  1.0
  O  O195  1  0.92104000  0.30015000  0.68054000  1.0
