# generated using pymatgen
data_Ag2H18C20SN4O5
_symmetry_space_group_name_H-M   'P 1'
_cell_length_a   7.39315000
_cell_length_b   10.28260000
_cell_length_c   15.30350000
_cell_angle_alpha   104.60900000
_cell_angle_beta   100.29600000
_cell_angle_gamma   94.36290000
_symmetry_Int_Tables_number   1
_chemical_formula_structural   Ag2H18C20SN4O5
_chemical_formula_sum   'Ag4 H36 C40 S2 N8 O10'
_cell_volume   1098.63943978
_cell_formula_units_Z   2
loop_
 _symmetry_equiv_pos_site_id
 _symmetry_equiv_pos_as_xyz
  1  'x, y, z'
loop_
 _atom_site_type_symbol
 _atom_site_label
 _atom_site_symmetry_multiplicity
 _atom_site_fract_x
 _atom_site_fract_y
 _atom_site_fract_z
 _atom_site_occupancy
  Ag  Ag0  1  0.91227000  0.60489000  0.13763000  1.0
  Ag  Ag1  1  0.08770000  0.39512000  0.86236000  1.0
  Ag  Ag2  1  0.56039000  0.98092000  0.84043000  1.0
  Ag  Ag3  1  0.43960000  0.01908000  0.15958000  1.0
  H  H4  1  0.59200000  0.68745000  0.75231000  1.0
  H  H5  1  0.40801000  0.31256000  0.24770000  1.0
  H  H6  1  0.82745000  0.78500000  0.89754000  1.0
  H  H7  1  0.17252000  0.21500000  0.10246000  1.0
  H  H8  1  0.14371000  0.14213000  0.26820000  1.0
  H  H9  1  0.85626000  0.85786000  0.73181000  1.0
  H  H10  1  0.14174000  0.21816000  0.55223000  1.0
  H  H11  1  0.85826000  0.78183000  0.44776000  1.0
  H  H12  1  0.36019000  0.89406000  0.44129000  1.0
  H  H13  1  0.63980000  0.10592000  0.55870000  1.0
  H  H14  1  0.32623000  0.37495000  0.69667000  1.0
  H  H15  1  0.67375000  0.62503000  0.30332000  1.0
  H  H16  1  0.11694000  0.96486000  0.53669000  1.0
  H  H17  1  0.88308000  0.03512000  0.46332000  1.0
  H  H18  1  0.33764000  0.12597000  0.41325000  1.0
  H  H19  1  0.66234000  0.87402000  0.58676000  1.0
  H  H20  1  0.84586000  0.11937000  0.19343000  1.0
  H  H21  1  0.15416000  0.88064000  0.80657000  1.0
  H  H22  1  0.17444000  0.69118000  0.32223000  1.0
  H  H23  1  0.82555000  0.30880000  0.67777000  1.0
  H  H24  1  0.65868000  0.13482000  0.04778000  1.0
  H  H25  1  0.34130000  0.86518000  0.95223000  1.0
  H  H26  1  0.28215000  0.88468000  0.66518000  1.0
  H  H27  1  0.71785000  0.11530000  0.33482000  1.0
  H  H28  1  0.02639000  0.75626000  0.03703000  1.0
  H  H29  1  0.97360000  0.24374000  0.96297000  1.0
  H  H30  1  0.83591000  0.58874000  0.92306000  1.0
  H  H31  1  0.16409000  0.41124000  0.07692000  1.0
  H  H32  1  0.62647000  0.35249000  0.07579000  1.0
  H  H33  1  0.37353000  0.64753000  0.92422000  1.0
  H  H34  1  0.42886000  0.19597000  0.93324000  1.0
  H  H35  1  0.57115000  0.80403000  0.06676000  1.0
  H  H36  1  0.64672000  0.44782000  0.77814000  1.0
  H  H37  1  0.35327000  0.55216000  0.22186000  1.0
  H  H38  1  0.37193000  0.70167000  0.75003000  1.0
  H  H39  1  0.62808000  0.29833000  0.24998000  1.0
  C  C40  1  0.82911000  0.85411000  0.96465000  1.0
  C  C41  1  0.17088000  0.14590000  0.03536000  1.0
  C  C42  1  0.06218000  0.92326000  0.21622000  1.0
  C  C43  1  0.93783000  0.07674000  0.78378000  1.0
  C  C44  1  0.15597000  0.04281000  0.28082000  1.0
  C  C45  1  0.84404000  0.95718000  0.71918000  1.0
  C  C46  1  0.94557000  0.93120000  0.12916000  1.0
  C  C47  1  0.05445000  0.06882000  0.87084000  1.0
  C  C48  1  0.21449000  0.17739000  0.60594000  1.0
  C  C49  1  0.78549000  0.82259000  0.39405000  1.0
  C  C50  1  0.27636000  0.90664000  0.37851000  1.0
  C  C51  1  0.72366000  0.09335000  0.62148000  1.0
  C  C52  1  0.32146000  0.26584000  0.68614000  1.0
  C  C53  1  0.67853000  0.73415000  0.31385000  1.0
  C  C54  1  0.41307000  0.21297000  0.75534000  1.0
  C  C55  1  0.58692000  0.78703000  0.24465000  1.0
  C  C56  1  0.19967000  0.03854000  0.59740000  1.0
  C  C57  1  0.80033000  0.96145000  0.40261000  1.0
  C  C58  1  0.26412000  0.03380000  0.36299000  1.0
  C  C59  1  0.73590000  0.96620000  0.63701000  1.0
  C  C60  1  0.84198000  0.03959000  0.13027000  1.0
  C  C61  1  0.15804000  0.96042000  0.86974000  1.0
  C  C62  1  0.17811000  0.79271000  0.31208000  1.0
  C  C63  1  0.82188000  0.20728000  0.68792000  1.0
  C  C64  1  0.73550000  0.04899000  0.04818000  1.0
  C  C65  1  0.26450000  0.95102000  0.95183000  1.0
  C  C66  1  0.29359000  0.99252000  0.66864000  1.0
  C  C67  1  0.70643000  0.00747000  0.33136000  1.0
  C  C68  1  0.93911000  0.83757000  0.04389000  1.0
  C  C69  1  0.06090000  0.16244000  0.95611000  1.0
  C  C70  1  0.74316000  0.50212000  0.92442000  1.0
  C  C71  1  0.25684000  0.49787000  0.07557000  1.0
  C  C72  1  0.62785000  0.36861000  0.00819000  1.0
  C  C73  1  0.37216000  0.63139000  0.99181000  1.0
  C  C74  1  0.52069000  0.28038000  0.92809000  1.0
  C  C75  1  0.47931000  0.71962000  0.07191000  1.0
  C  C76  1  0.63601000  0.42061000  0.84161000  1.0
  C  C77  1  0.36398000  0.57939000  0.15839000  1.0
  C  C78  1  0.52421000  0.30481000  0.84215000  1.0
  C  C79  1  0.47578000  0.69518000  0.15785000  1.0
  S  S80  1  0.99260000  0.38274000  0.25062000  1.0
  S  S81  1  0.00741000  0.61728000  0.74938000  1.0
  N  N82  1  0.72708000  0.95792000  0.96670000  1.0
  N  N83  1  0.27293000  0.04209000  0.03331000  1.0
  N  N84  1  0.07317000  0.80017000  0.23225000  1.0
  N  N85  1  0.92682000  0.19983000  0.76775000  1.0
  N  N86  1  0.40012000  0.07746000  0.74559000  1.0
  N  N87  1  0.59990000  0.92254000  0.25441000  1.0
  N  N88  1  0.74011000  0.47762000  0.00679000  1.0
  N  N89  1  0.25990000  0.52238000  0.99320000  1.0
  O  O90  1  0.50146000  0.73056000  0.78675000  1.0
  O  O91  1  0.49854000  0.26945000  0.21326000  1.0
  O  O92  1  0.18828000  0.36329000  0.28442000  1.0
  O  O93  1  0.81174000  0.63676000  0.71559000  1.0
  O  O94  1  0.96644000  0.52959000  0.28063000  1.0
  O  O95  1  0.03352000  0.47043000  0.71937000  1.0
  O  O96  1  0.86415000  0.30209000  0.28896000  1.0
  O  O97  1  0.13587000  0.69792000  0.71104000  1.0
  O  O98  1  0.94617000  0.33713000  0.14726000  1.0
  O  O99  1  0.05386000  0.66289000  0.85274000  1.0
