# generated using pymatgen
data_CaH6C3(NO)4
_symmetry_space_group_name_H-M   'P 1'
_cell_length_a   7.96516000
_cell_length_b   8.70586000
_cell_length_c   11.01220000
_cell_angle_alpha   90.00040000
_cell_angle_beta   90.00030000
_cell_angle_gamma   89.99930000
_symmetry_Int_Tables_number   1
_chemical_formula_structural   CaH6C3(NO)4
_chemical_formula_sum   'Ca4 H24 C12 N16 O16'
_cell_volume   763.62523766
_cell_formula_units_Z   4
loop_
 _symmetry_equiv_pos_site_id
 _symmetry_equiv_pos_as_xyz
  1  'x, y, z'
loop_
 _atom_site_type_symbol
 _atom_site_label
 _atom_site_symmetry_multiplicity
 _atom_site_fract_x
 _atom_site_fract_y
 _atom_site_fract_z
 _atom_site_occupancy
  Ca  Ca0  1  0.25000000  0.96109000  0.70567000  1.0
  Ca  Ca1  1  0.75000000  0.53890000  0.20567000  1.0
  Ca  Ca2  1  0.25000000  0.46109000  0.79433000  1.0
  Ca  Ca3  1  0.75000000  0.03891000  0.29433000  1.0
  H  H4  1  0.61632000  0.92060000  0.76129000  1.0
  H  H5  1  0.38369000  0.57940000  0.26129000  1.0
  H  H6  1  0.88369000  0.42061000  0.73871000  1.0
  H  H7  1  0.11631000  0.07939000  0.23871000  1.0
  H  H8  1  0.38370000  0.07940000  0.23871000  1.0
  H  H9  1  0.61630000  0.42061000  0.73871000  1.0
  H  H10  1  0.11630000  0.57939000  0.26129000  1.0
  H  H11  1  0.88370000  0.92061000  0.76129000  1.0
  H  H12  1  0.61154000  0.96378000  0.62129000  1.0
  H  H13  1  0.38847000  0.53622000  0.12129000  1.0
  H  H14  1  0.88846000  0.46380000  0.87871000  1.0
  H  H15  1  0.11154000  0.03619000  0.37871000  1.0
  H  H16  1  0.38847000  0.03623000  0.37872000  1.0
  H  H17  1  0.61153000  0.46377000  0.87871000  1.0
  H  H18  1  0.11153000  0.53621000  0.12129000  1.0
  H  H19  1  0.88847000  0.96379000  0.62129000  1.0
  H  H20  1  0.35914000  0.31956000  0.38519000  1.0
  H  H21  1  0.64085000  0.18044000  0.88519000  1.0
  H  H22  1  0.14085000  0.81956000  0.11481000  1.0
  H  H23  1  0.85915000  0.68044000  0.61481000  1.0
  H  H24  1  0.64086000  0.68044000  0.61481000  1.0
  H  H25  1  0.35914000  0.81955000  0.11481000  1.0
  H  H26  1  0.85914000  0.18045000  0.88519000  1.0
  H  H27  1  0.14084000  0.31955000  0.38519000  1.0
  C  C28  1  0.25001000  0.22242000  0.54270000  1.0
  C  C29  1  0.74999000  0.27758000  0.04270000  1.0
  C  C30  1  0.25000000  0.72243000  0.95730000  1.0
  C  C31  1  0.75001000  0.77758000  0.45731000  1.0
  C  C32  1  0.24999000  0.34342000  0.44393000  1.0
  C  C33  1  0.74999000  0.15658000  0.94393000  1.0
  C  C34  1  0.25000000  0.84342000  0.05606000  1.0
  C  C35  1  0.75000000  0.65658000  0.55606000  1.0
  C  C36  1  0.24999000  0.50951000  0.47641000  1.0
  C  C37  1  0.75000000  0.99049000  0.97641000  1.0
  C  C38  1  0.25000000  0.00952000  0.02359000  1.0
  C  C39  1  0.75001000  0.49048000  0.52359000  1.0
  N  N40  1  0.25000000  0.57645000  0.58601000  1.0
  N  N41  1  0.74999000  0.92356000  0.08601000  1.0
  N  N42  1  0.25001000  0.07645000  0.91399000  1.0
  N  N43  1  0.75000000  0.42355000  0.41399000  1.0
  N  N44  1  0.24999000  0.73017000  0.56259000  1.0
  N  N45  1  0.75001000  0.76984000  0.06258000  1.0
  N  N46  1  0.25001000  0.23017000  0.93742000  1.0
  N  N47  1  0.75000000  0.26983000  0.43741000  1.0
  N  N48  1  0.24998000  0.75441000  0.44515000  1.0
  N  N49  1  0.75002000  0.74559000  0.94515000  1.0
  N  N50  1  0.25000000  0.25442000  0.05486000  1.0
  N  N51  1  0.75000000  0.24558000  0.55485000  1.0
  N  N52  1  0.24998000  0.61753000  0.38824000  1.0
  N  N53  1  0.75002000  0.88246000  0.88823000  1.0
  N  N54  1  0.25000000  0.11754000  0.11177000  1.0
  N  N55  1  0.75000000  0.38246000  0.61177000  1.0
  O  O56  1  0.25002000  0.08251000  0.50601000  1.0
  O  O57  1  0.74998000  0.41750000  0.00600000  1.0
  O  O58  1  0.25000000  0.58250000  0.99399000  1.0
  O  O59  1  0.75001000  0.91750000  0.49399000  1.0
  O  O60  1  0.25000000  0.25422000  0.65501000  1.0
  O  O61  1  0.75000000  0.24577000  0.15498000  1.0
  O  O62  1  0.25000000  0.75423000  0.84500000  1.0
  O  O63  1  0.75000000  0.74578000  0.34500000  1.0
  O  O64  1  0.54068000  0.95483000  0.69461000  1.0
  O  O65  1  0.45931000  0.54518000  0.19462000  1.0
  O  O66  1  0.95932000  0.45483000  0.80539000  1.0
  O  O67  1  0.04069000  0.04516000  0.30538000  1.0
  O  O68  1  0.45932000  0.04518000  0.30539000  1.0
  O  O69  1  0.54068000  0.45483000  0.80539000  1.0
  O  O70  1  0.04068000  0.54516000  0.19461000  1.0
  O  O71  1  0.95933000  0.95484000  0.69461000  1.0
