# generated using pymatgen
data_ZnH10C10NO5F2
_symmetry_space_group_name_H-M   'P 1'
_cell_length_a   9.92604000
_cell_length_b   11.39380000
_cell_length_c   11.39400000
_cell_angle_alpha   94.86090000
_cell_angle_beta   90.84170000
_cell_angle_gamma   90.81990000
_symmetry_Int_Tables_number   1
_chemical_formula_structural   ZnH10C10NO5F2
_chemical_formula_sum   'Zn2 H20 C20 N2 O10 F4'
_cell_volume   1283.67833565
_cell_formula_units_Z   2
loop_
 _symmetry_equiv_pos_site_id
 _symmetry_equiv_pos_as_xyz
  1  'x, y, z'
loop_
 _atom_site_type_symbol
 _atom_site_label
 _atom_site_symmetry_multiplicity
 _atom_site_fract_x
 _atom_site_fract_y
 _atom_site_fract_z
 _atom_site_occupancy
  Zn  Zn0  1  0.63873000  0.52404000  0.52331000  1.0
  Zn  Zn1  1  0.36134000  0.47672000  0.47591000  1.0
  H  H2  1  0.67520000  0.11926000  0.46939000  1.0
  H  H3  1  0.11789000  0.57497000  0.56498000  1.0
  H  H4  1  0.88221000  0.43499000  0.42508000  1.0
  H  H5  1  0.84477000  0.70870000  0.80829000  1.0
  H  H6  1  0.71053000  0.67573000  0.70453000  1.0
  H  H7  1  0.95273000  0.84064000  0.67006000  1.0
  H  H8  1  0.81958000  0.80741000  0.56605000  1.0
  H  H9  1  0.65255000  0.89947000  0.70735000  1.0
  H  H10  1  0.78299000  0.00218000  0.68231000  1.0
  H  H11  1  0.78220000  0.93130000  0.81514000  1.0
  H  H12  1  0.30935000  0.87793000  0.50725000  1.0
  H  H13  1  0.15521000  0.19171000  0.29128000  1.0
  H  H14  1  0.28951000  0.29537000  0.32432000  1.0
  H  H15  1  0.04732000  0.33009000  0.15943000  1.0
  H  H16  1  0.18052000  0.43400000  0.19270000  1.0
  H  H17  1  0.34747000  0.29262000  0.10060000  1.0
  H  H18  1  0.21702000  0.31780000  0.99791000  1.0
  H  H19  1  0.21773000  0.18493000  0.06871000  1.0
  H  H20  1  0.32485000  0.53063000  0.88066000  1.0
  H  H21  1  0.69067000  0.49268000  0.12214000  1.0
  C  C22  1  0.45249000  0.51119000  0.72451000  1.0
  C  C23  1  0.92814000  0.49129000  0.49721000  1.0
  C  C24  1  0.07195000  0.50282000  0.50871000  1.0
  C  C25  1  0.41330000  0.85065000  0.49588000  1.0
  C  C26  1  0.57119000  0.14702000  0.47863000  1.0
  C  C27  1  0.58672000  0.50410000  0.14937000  1.0
  C  C28  1  0.42887000  0.52136000  0.85294000  1.0
  C  C29  1  0.56030000  0.50261000  0.27697000  1.0
  C  C30  1  0.50490000  0.93555000  0.47883000  1.0
  C  C31  1  0.47697000  0.06109000  0.48283000  1.0
  C  C32  1  0.49514000  0.52119000  0.06443000  1.0
  C  C33  1  0.52308000  0.51717000  0.93891000  1.0
  C  C34  1  0.81660000  0.70385000  0.71436000  1.0
  C  C35  1  0.54760000  0.27547000  0.48881000  1.0
  C  C36  1  0.84438000  0.81907000  0.66076000  1.0
  C  C37  1  0.76093000  0.91852000  0.71985000  1.0
  C  C38  1  0.18344000  0.28563000  0.29618000  1.0
  C  C39  1  0.15567000  0.33931000  0.18101000  1.0
  C  C40  1  0.23907000  0.28021000  0.08155000  1.0
  C  C41  1  0.43969000  0.72304000  0.49738000  1.0
  N  N42  1  0.15645000  0.43597000  0.44944000  1.0
  N  N43  1  0.84362000  0.55055000  0.56406000  1.0
  O  O44  1  0.57402000  0.50817000  0.68952000  1.0
  O  O45  1  0.66161000  0.52949000  0.34470000  1.0
  O  O46  1  0.65295000  0.34115000  0.49371000  1.0
  O  O47  1  0.33838000  0.65534000  0.47047000  1.0
  O  O48  1  0.34713000  0.50631000  0.65879000  1.0
  O  O49  1  0.90117000  0.61024000  0.66247000  1.0
  O  O50  1  0.09891000  0.33752000  0.38981000  1.0
  O  O51  1  0.44285000  0.47340000  0.30848000  1.0
  O  O52  1  0.42606000  0.31050000  0.49181000  1.0
  O  O53  1  0.55714000  0.69147000  0.52663000  1.0
  F  F54  1  0.34427000  0.08390000  0.49607000  1.0
  F  F55  1  0.63586000  0.91112000  0.45681000  1.0
  F  F56  1  0.65578000  0.50389000  0.91614000  1.0
  F  F57  1  0.36418000  0.54325000  0.08881000  1.0
