# generated using pymatgen
data_Zr3H26(C6O5)8
_symmetry_space_group_name_H-M   'P 1'
_cell_length_a   21.69070000
_cell_length_b   21.69030000
_cell_length_c   21.69052785
_cell_angle_alpha   59.99904248
_cell_angle_beta   59.99867405
_cell_angle_gamma   89.99820000
_symmetry_Int_Tables_number   1
_chemical_formula_structural   Zr3H26(C6O5)8
_chemical_formula_sum   'Zr6 H52 C96 O80'
_cell_volume   7215.82648899
_cell_formula_units_Z   2
loop_
 _symmetry_equiv_pos_site_id
 _symmetry_equiv_pos_as_xyz
  1  'x, y, z'
loop_
 _atom_site_type_symbol
 _atom_site_label
 _atom_site_symmetry_multiplicity
 _atom_site_fract_x
 _atom_site_fract_y
 _atom_site_fract_z
 _atom_site_occupancy
  Zr  Zr0  1  0.58123000  0.08124000  0.99999000  1.0
  Zr  Zr1  1  0.41878000  0.91876000  0.00001000  1.0
  Zr  Zr2  1  0.41878000  0.08125000  0.99999000  1.0
  Zr  Zr3  1  0.58123000  0.91876000  0.00002000  1.0
  Zr  Zr4  1  0.41877000  0.91878000  0.16245000  1.0
  Zr  Zr5  1  0.58123000  0.08125000  0.83753000  1.0
  H  H6  1  0.43594000  0.06404000  0.12811000  1.0
  H  H7  1  0.43595000  0.80785000  0.12810000  1.0
  H  H8  1  0.43596000  0.06406000  0.87189000  1.0
  H  H9  1  0.69215000  0.06406000  0.87190000  1.0
  H  H10  1  0.60544000  0.10365000  0.13304000  1.0
  H  H11  1  0.39636000  0.89449000  0.34218000  1.0
  H  H12  1  0.39542000  0.89559000  0.55272000  1.0
  H  H13  1  0.60436000  0.10466000  0.34368000  1.0
  H  H14  1  0.60442000  0.10460000  0.44728000  1.0
  H  H15  1  0.39539000  0.89563000  0.65629000  1.0
  H  H16  1  0.39639000  0.89451000  0.86696000  1.0
  H  H17  1  0.60553000  0.10362000  0.65783000  1.0
  H  H18  1  0.73669000  0.23849000  0.86696000  1.0
  H  H19  1  0.73667000  0.23855000  0.65782000  1.0
  H  H20  1  0.94831000  0.44814000  0.44728000  1.0
  H  H21  1  0.94835000  0.44804000  0.65632000  1.0
  H  H22  1  0.05188000  0.55170000  0.55272000  1.0
  H  H23  1  0.05192000  0.55169000  0.34370000  1.0
  H  H24  1  0.26147000  0.76336000  0.13304000  1.0
  H  H25  1  0.26146000  0.76335000  0.34217000  1.0
  H  H26  1  0.39638000  0.76335000  0.34212000  1.0
  H  H27  1  0.60555000  0.76337000  0.13300000  1.0
  H  H28  1  0.60445000  0.55174000  0.34368000  1.0
  H  H29  1  0.39539000  0.55168000  0.55269000  1.0
  H  H30  1  0.39544000  0.44815000  0.65629000  1.0
  H  H31  1  0.60441000  0.44811000  0.44728000  1.0
  H  H32  1  0.60551000  0.23854000  0.65784000  1.0
  H  H33  1  0.39640000  0.23856000  0.86697000  1.0
  H  H34  1  0.73671000  0.10368000  0.65787000  1.0
  H  H35  1  0.73668000  0.89451000  0.86699000  1.0
  H  H36  1  0.94831000  0.89559000  0.65632000  1.0
  H  H37  1  0.94838000  0.10467000  0.44731000  1.0
  H  H38  1  0.05190000  0.10462000  0.34371000  1.0
  H  H39  1  0.05192000  0.89562000  0.55272000  1.0
  H  H40  1  0.26146000  0.89450000  0.34216000  1.0
  H  H41  1  0.26147000  0.10363000  0.13304000  1.0
  H  H42  1  0.39635000  0.23848000  0.99821000  1.0
  H  H43  1  0.60552000  0.23852000  0.99812000  1.0
  H  H44  1  0.60443000  0.44811000  0.00017000  1.0
  H  H45  1  0.39536000  0.44805000  0.00030000  1.0
  H  H46  1  0.39541000  0.55170000  0.00018000  1.0
  H  H47  1  0.60438000  0.55167000  0.00023000  1.0
  H  H48  1  0.60550000  0.76334000  0.99811000  1.0
  H  H49  1  0.39639000  0.76335000  0.99811000  1.0
  H  H50  1  0.73672000  0.89459000  0.00180000  1.0
  H  H51  1  0.73666000  0.10368000  0.00187000  1.0
  H  H52  1  0.94829000  0.10465000  0.99983000  1.0
  H  H53  1  0.94838000  0.89570000  0.99970000  1.0
  H  H54  1  0.05189000  0.89562000  0.99982000  1.0
  H  H55  1  0.05193000  0.10465000  0.99977000  1.0
  H  H56  1  0.26148000  0.10365000  0.00188000  1.0
  H  H57  1  0.26147000  0.89451000  0.00189000  1.0
  C  C58  1  0.50146000  0.99852000  0.20990000  1.0
  C  C59  1  0.28862000  0.79160000  0.20990000  1.0
  C  C60  1  0.50150000  0.99852000  0.79010000  1.0
  C  C61  1  0.70841000  0.21137000  0.79010000  1.0
  C  C62  1  0.50149000  0.21136000  0.99705000  1.0
  C  C63  1  0.70842000  0.99855000  0.00296000  1.0
  C  C64  1  0.50150000  0.79160000  0.99701000  1.0
  C  C65  1  0.28863000  0.99852000  0.00298000  1.0
  C  C66  1  0.28862000  0.99852000  0.20989000  1.0
  C  C67  1  0.50150000  0.21139000  0.79011000  1.0
  C  C68  1  0.70842000  0.99853000  0.79013000  1.0
  C  C69  1  0.50151000  0.79161000  0.20987000  1.0
  C  C70  1  0.50073000  0.99925000  0.27685000  1.0
  C  C71  1  0.55754000  0.05683000  0.25280000  1.0
  C  C72  1  0.55679000  0.05674000  0.31764000  1.0
  C  C73  1  0.49997000  0.00004000  0.40664000  1.0
  C  C74  1  0.44328000  0.94319000  0.43119000  1.0
  C  C75  1  0.44317000  0.94243000  0.36720000  1.0
  C  C76  1  0.49987000  0.00014000  0.47165000  1.0
  C  C77  1  0.49988000  0.00014000  0.52834000  1.0
  C  C78  1  0.50000000  0.00002000  0.59335000  1.0
  C  C79  1  0.55684000  0.05672000  0.56881000  1.0
  C  C80  1  0.55761000  0.05681000  0.63280000  1.0
  C  C81  1  0.50079000  0.99925000  0.72315000  1.0
  C  C82  1  0.44321000  0.94243000  0.74719000  1.0
  C  C83  1  0.44330000  0.94319000  0.68235000  1.0
  C  C84  1  0.77610000  0.27758000  0.72315000  1.0
  C  C85  1  0.80963000  0.31034000  0.74720000  1.0
  C  C86  1  0.87438000  0.37443000  0.68236000  1.0
  C  C87  1  0.90668000  0.40661000  0.59336000  1.0
  C  C88  1  0.87438000  0.37447000  0.56881000  1.0
  C  C89  1  0.80962000  0.31038000  0.63280000  1.0
  C  C90  1  0.97179000  0.47152000  0.52835000  1.0
  C  C91  1  0.02848000  0.52822000  0.47166000  1.0
  C  C92  1  0.09337000  0.59334000  0.40665000  1.0
  C  C93  1  0.12553000  0.62565000  0.43119000  1.0
  C  C94  1  0.18961000  0.69040000  0.36720000  1.0
  C  C95  1  0.22240000  0.72393000  0.27685000  1.0
  C  C96  1  0.18962000  0.69040000  0.25281000  1.0
  C  C97  1  0.12554000  0.62565000  0.31765000  1.0
  C  C98  1  0.50079000  0.72394000  0.27681000  1.0
  C  C99  1  0.44321000  0.69040000  0.36716000  1.0
  C  C100  1  0.44330000  0.62565000  0.43116000  1.0
  C  C101  1  0.50001000  0.59336000  0.40662000  1.0
  C  C102  1  0.55686000  0.62567000  0.31762000  1.0
  C  C103  1  0.55762000  0.69042000  0.25277000  1.0
  C  C104  1  0.49992000  0.52826000  0.47163000  1.0
  C  C105  1  0.49991000  0.47156000  0.52834000  1.0
  C  C106  1  0.50001000  0.40665000  0.59335000  1.0
  C  C107  1  0.44331000  0.37450000  0.68235000  1.0
  C  C108  1  0.44322000  0.31042000  0.74719000  1.0
  C  C109  1  0.50078000  0.27762000  0.72316000  1.0
  C  C110  1  0.55760000  0.31040000  0.63281000  1.0
  C  C111  1  0.55684000  0.37449000  0.56881000  1.0
  C  C112  1  0.77611000  0.99927000  0.72318000  1.0
  C  C113  1  0.80966000  0.05685000  0.63284000  1.0
  C  C114  1  0.87441000  0.05675000  0.56884000  1.0
  C  C115  1  0.90669000  0.00003000  0.59338000  1.0
  C  C116  1  0.87438000  0.94319000  0.68238000  1.0
  C  C117  1  0.80963000  0.94245000  0.74722000  1.0
  C  C118  1  0.97180000  0.00014000  0.52837000  1.0
  C  C119  1  0.02850000  0.00015000  0.47166000  1.0
  C  C120  1  0.09338000  0.00003000  0.40665000  1.0
  C  C121  1  0.12554000  0.05673000  0.31765000  1.0
  C  C122  1  0.18962000  0.05682000  0.25280000  1.0
  C  C123  1  0.22240000  0.99924000  0.27684000  1.0
  C  C124  1  0.18962000  0.94242000  0.36719000  1.0
  C  C125  1  0.12554000  0.94318000  0.43119000  1.0
  C  C126  1  0.50075000  0.27757000  0.99852000  1.0
  C  C127  1  0.44317000  0.31034000  0.99929000  1.0
  C  C128  1  0.44327000  0.37443000  0.99995000  1.0
  C  C129  1  0.49998000  0.40661000  0.00006000  1.0
  C  C130  1  0.55683000  0.37446000  0.99990000  1.0
  C  C131  1  0.55758000  0.31036000  0.99924000  1.0
  C  C132  1  0.49987000  0.47151000  0.00027000  1.0
  C  C133  1  0.49987000  0.52821000  0.00026000  1.0
  C  C134  1  0.49998000  0.59334000  0.00003000  1.0
  C  C135  1  0.44329000  0.62565000  0.99988000  1.0
  C  C136  1  0.44320000  0.69040000  0.99921000  1.0
  C  C137  1  0.50077000  0.72393000  0.99846000  1.0
  C  C138  1  0.55759000  0.69039000  0.99921000  1.0
  C  C139  1  0.55683000  0.62563000  0.99989000  1.0
  C  C140  1  0.77610000  0.99929000  0.00150000  1.0
  C  C141  1  0.80966000  0.94249000  0.00072000  1.0
  C  C142  1  0.87441000  0.94326000  0.00005000  1.0
  C  C143  1  0.90669000  0.00008000  0.99994000  1.0
  C  C144  1  0.87437000  0.05677000  0.00010000  1.0
  C  C145  1  0.80961000  0.05685000  0.00077000  1.0
  C  C146  1  0.97179000  0.00019000  0.99974000  1.0
  C  C147  1  0.02849000  0.00017000  0.99976000  1.0
  C  C148  1  0.09338000  0.00004000  0.99998000  1.0
  C  C149  1  0.12554000  0.94320000  0.00012000  1.0
  C  C150  1  0.18962000  0.94243000  0.00079000  1.0
  C  C151  1  0.22241000  0.99925000  0.00154000  1.0
  C  C152  1  0.18963000  0.05682000  0.00079000  1.0
  C  C153  1  0.12555000  0.05674000  0.00012000  1.0
  O  O154  1  0.55377000  0.05059000  0.12815000  1.0
  O  O155  1  0.31807000  0.82127000  0.12815000  1.0
  O  O156  1  0.44942000  0.94622000  0.87185000  1.0
  O  O157  1  0.67873000  0.18193000  0.87185000  1.0
  O  O158  1  0.44941000  0.18193000  0.99681000  1.0
  O  O159  1  0.67875000  0.94624000  0.00319000  1.0
  O  O160  1  0.55380000  0.82127000  0.99679000  1.0
  O  O161  1  0.31808000  0.05061000  0.00320000  1.0
  O  O162  1  0.31806000  0.94621000  0.23253000  1.0
  O  O163  1  0.55380000  0.18194000  0.76747000  1.0
  O  O164  1  0.67874000  0.05059000  0.76749000  1.0
  O  O165  1  0.44943000  0.82127000  0.23251000  1.0
  O  O166  1  0.44942000  0.18195000  0.87186000  1.0
  O  O167  1  0.67875000  0.94620000  0.87188000  1.0
  O  O168  1  0.55382000  0.82128000  0.12812000  1.0
  O  O169  1  0.31806000  0.05061000  0.12814000  1.0
  O  O170  1  0.55380000  0.18193000  0.99680000  1.0
  O  O171  1  0.31807000  0.94622000  0.00320000  1.0
  O  O172  1  0.44941000  0.82126000  0.99680000  1.0
  O  O173  1  0.67874000  0.05063000  0.00320000  1.0
  O  O174  1  0.67874000  0.18193000  0.76746000  1.0
  O  O175  1  0.44939000  0.94620000  0.23255000  1.0
  O  O176  1  0.31807000  0.82126000  0.23254000  1.0
  O  O177  1  0.55381000  0.05060000  0.76746000  1.0
  O  O178  1  0.63737000  0.04580000  0.90842000  1.0
  O  O179  1  0.45422000  0.04580000  0.90841000  1.0
  O  O180  1  0.45421000  0.86263000  0.09158000  1.0
  O  O181  1  0.45421000  0.04579000  0.09158000  1.0
  O  O182  1  0.39857000  0.96619000  0.06762000  1.0
  O  O183  1  0.53382000  0.96619000  0.06763000  1.0
  O  O184  1  0.53382000  0.96619000  0.93237000  1.0
  O  O185  1  0.53382000  0.10145000  0.93237000  1.0
  O  O186  1  0.61324000  0.11269000  0.16946000  1.0
  O  O187  1  0.38733000  0.88670000  0.39544000  1.0
  O  O188  1  0.38757000  0.88783000  0.51623000  1.0
  O  O189  1  0.61213000  0.11248000  0.29159000  1.0
  O  O190  1  0.61219000  0.11244000  0.48377000  1.0
  O  O191  1  0.38757000  0.88784000  0.70839000  1.0
  O  O192  1  0.38736000  0.88671000  0.83053000  1.0
  O  O193  1  0.61333000  0.11266000  0.60456000  1.0
  O  O194  1  0.78215000  0.28270000  0.83054000  1.0
  O  O195  1  0.78213000  0.28278000  0.60456000  1.0
  O  O196  1  0.90405000  0.40380000  0.48377000  1.0
  O  O197  1  0.90407000  0.40372000  0.70841000  1.0
  O  O198  1  0.09621000  0.59596000  0.51623000  1.0
  O  O199  1  0.09623000  0.59596000  0.29161000  1.0
  O  O200  1  0.21724000  0.71789000  0.16947000  1.0
  O  O201  1  0.21722000  0.71789000  0.39544000  1.0
  O  O202  1  0.38735000  0.71788000  0.39539000  1.0
  O  O203  1  0.61335000  0.71792000  0.16943000  1.0
  O  O204  1  0.61221000  0.59598000  0.29158000  1.0
  O  O205  1  0.38757000  0.59595000  0.51620000  1.0
  O  O206  1  0.38759000  0.40382000  0.70838000  1.0
  O  O207  1  0.61219000  0.40380000  0.48377000  1.0
  O  O208  1  0.61331000  0.28278000  0.60458000  1.0
  O  O209  1  0.38738000  0.28280000  0.83053000  1.0
  O  O210  1  0.78219000  0.11272000  0.60460000  1.0
  O  O211  1  0.78214000  0.88670000  0.83056000  1.0
  O  O212  1  0.90405000  0.88782000  0.70842000  1.0
  O  O213  1  0.90411000  0.11250000  0.48380000  1.0
  O  O214  1  0.09623000  0.11247000  0.29161000  1.0
  O  O215  1  0.09623000  0.88783000  0.51623000  1.0
  O  O216  1  0.21724000  0.88670000  0.39542000  1.0
  O  O217  1  0.21724000  0.11266000  0.16947000  1.0
  O  O218  1  0.38731000  0.28271000  0.99945000  1.0
  O  O219  1  0.61332000  0.28276000  0.99934000  1.0
  O  O220  1  0.61219000  0.40378000  0.00025000  1.0
  O  O221  1  0.38753000  0.40373000  0.00035000  1.0
  O  O222  1  0.38757000  0.59596000  0.00026000  1.0
  O  O223  1  0.61217000  0.59594000  0.00027000  1.0
  O  O224  1  0.61330000  0.71788000  0.99934000  1.0
  O  O225  1  0.38736000  0.71790000  0.99933000  1.0
  O  O226  1  0.78219000  0.88679000  0.00055000  1.0
  O  O227  1  0.78212000  0.11269000  0.00066000  1.0
  O  O228  1  0.90404000  0.11249000  0.99974000  1.0
  O  O229  1  0.90412000  0.88792000  0.99965000  1.0
  O  O230  1  0.09623000  0.88785000  0.99974000  1.0
  O  O231  1  0.09625000  0.11248000  0.99972000  1.0
  O  O232  1  0.21725000  0.11267000  0.00066000  1.0
  O  O233  1  0.21724000  0.88672000  0.00066000  1.0
