# generated using pymatgen
data_MgH12C14(O3F)2
_symmetry_space_group_name_H-M   'P 1'
_cell_length_a   6.56919000
_cell_length_b   7.28458000
_cell_length_c   15.15879477
_cell_angle_alpha   97.45441073
_cell_angle_beta   89.99929367
_cell_angle_gamma   89.99950000
_symmetry_Int_Tables_number   1
_chemical_formula_structural   MgH12C14(O3F)2
_chemical_formula_sum   'Mg2 H24 C28 O12 F4'
_cell_volume   719.27494672
_cell_formula_units_Z   2
loop_
 _symmetry_equiv_pos_site_id
 _symmetry_equiv_pos_as_xyz
  1  'x, y, z'
loop_
 _atom_site_type_symbol
 _atom_site_label
 _atom_site_symmetry_multiplicity
 _atom_site_fract_x
 _atom_site_fract_y
 _atom_site_fract_z
 _atom_site_occupancy
  Mg  Mg0  1  0.00001000  0.50000000  0.00000000  1.0
  Mg  Mg1  1  0.50000000  0.00001000  1.00000000  1.0
  H  H2  1  0.07083000  0.58248000  0.73114000  1.0
  H  H3  1  0.57080000  0.91749000  0.26885000  1.0
  H  H4  1  0.92917000  0.41751000  0.26886000  1.0
  H  H5  1  0.42918000  0.08248000  0.73114000  1.0
  H  H6  1  0.17200000  0.58835000  0.57118000  1.0
  H  H7  1  0.67199000  0.91163000  0.42882000  1.0
  H  H8  1  0.82799000  0.41164000  0.42882000  1.0
  H  H9  1  0.32799000  0.08835000  0.57118000  1.0
  H  H10  1  0.76573000  0.78816000  0.65617000  1.0
  H  H11  1  0.26577000  0.71184000  0.34382000  1.0
  H  H12  1  0.23427000  0.21184000  0.34382000  1.0
  H  H13  1  0.73424000  0.28818000  0.65618000  1.0
  H  H14  1  0.66526000  0.78424000  0.81532000  1.0
  H  H15  1  0.16529000  0.71576000  0.18466000  1.0
  H  H16  1  0.33474000  0.21575000  0.18467000  1.0
  H  H17  1  0.83473000  0.28425000  0.81533000  1.0
  H  H18  1  0.64547000  0.38334000  0.97169000  1.0
  H  H19  1  0.14546000  0.11666000  0.02831000  1.0
  H  H20  1  0.35455000  0.61666000  0.02831000  1.0
  H  H21  1  0.85454000  0.88335000  0.97169000  1.0
  H  H22  1  0.62785000  0.57482000  0.93257000  1.0
  H  H23  1  0.12785000  0.92519000  0.06743000  1.0
  H  H24  1  0.37216000  0.42519000  0.06744000  1.0
  H  H25  1  0.87216000  0.07482000  0.93257000  1.0
  C  C26  1  0.36113000  0.68163000  0.78286000  1.0
  C  C27  1  0.86112000  0.81835000  0.21712000  1.0
  C  C28  1  0.63887000  0.31837000  0.21715000  1.0
  C  C29  1  0.13887000  0.18164000  0.78287000  1.0
  C  C30  1  0.22225000  0.62722000  0.71409000  1.0
  C  C31  1  0.72227000  0.87277000  0.28591000  1.0
  C  C32  1  0.77774000  0.37278000  0.28591000  1.0
  C  C33  1  0.27773000  0.12723000  0.71409000  1.0
  C  C34  1  0.27694000  0.62944000  0.62566000  1.0
  C  C35  1  0.77697000  0.87053000  0.37434000  1.0
  C  C36  1  0.72306000  0.37055000  0.37434000  1.0
  C  C37  1  0.22303000  0.12945000  0.62566000  1.0
  C  C38  1  0.47198000  0.68894000  0.60776000  1.0
  C  C39  1  0.97201000  0.81106000  0.39224000  1.0
  C  C40  1  0.52800000  0.31106000  0.39223000  1.0
  C  C41  1  0.02799000  0.18894000  0.60776000  1.0
  C  C42  1  0.61510000  0.74187000  0.67383000  1.0
  C  C43  1  0.11509000  0.75813000  0.32615000  1.0
  C  C44  1  0.38490000  0.25812000  0.32616000  1.0
  C  C45  1  0.88491000  0.24188000  0.67384000  1.0
  C  C46  1  0.55811000  0.73809000  0.76217000  1.0
  C  C47  1  0.05812000  0.76191000  0.23782000  1.0
  C  C48  1  0.44188000  0.26190000  0.23782000  1.0
  C  C49  1  0.94188000  0.23810000  0.76218000  1.0
  C  C50  1  0.29685000  0.67599000  0.87664000  1.0
  C  C51  1  0.79686000  0.82399000  0.12336000  1.0
  C  C52  1  0.70315000  0.32400000  0.12336000  1.0
  C  C53  1  0.20314000  0.17601000  0.87664000  1.0
  O  O54  1  0.12314000  0.61441000  0.89253000  1.0
  O  O55  1  0.62314000  0.88559000  0.10748000  1.0
  O  O56  1  0.87688000  0.38559000  0.10748000  1.0
  O  O57  1  0.37687000  0.11441000  0.89252000  1.0
  O  O58  1  0.42648000  0.73112000  0.93979000  1.0
  O  O59  1  0.92645000  0.76890000  0.06020000  1.0
  O  O60  1  0.57353000  0.26889000  0.06021000  1.0
  O  O61  1  0.07354000  0.23111000  0.93980000  1.0
  O  O62  1  0.72045000  0.46892000  0.93690000  1.0
  O  O63  1  0.22044000  0.03108000  0.06310000  1.0
  O  O64  1  0.27956000  0.53109000  0.06311000  1.0
  O  O65  1  0.77956000  0.96892000  0.93690000  1.0
  F  F66  1  0.52491000  0.69825000  0.52124000  1.0
  F  F67  1  0.02491000  0.80173000  0.47873000  1.0
  F  F68  1  0.47507000  0.30174000  0.47876000  1.0
  F  F69  1  0.97509000  0.19826000  0.52126000  1.0
