# generated using pymatgen
data_Cu3H2(C4O5)2
_symmetry_space_group_name_H-M   'P 1'
_cell_length_a   5.67353000
_cell_length_b   9.14835000
_cell_length_c   13.13490000
_cell_angle_alpha   89.99440000
_cell_angle_beta   89.99920000
_cell_angle_gamma   85.99350000
_symmetry_Int_Tables_number   1
_chemical_formula_structural   Cu3H2(C4O5)2
_chemical_formula_sum   'Cu6 H4 C16 O20'
_cell_volume   680.08036723
_cell_formula_units_Z   2
loop_
 _symmetry_equiv_pos_site_id
 _symmetry_equiv_pos_as_xyz
  1  'x, y, z'
loop_
 _atom_site_type_symbol
 _atom_site_label
 _atom_site_symmetry_multiplicity
 _atom_site_fract_x
 _atom_site_fract_y
 _atom_site_fract_z
 _atom_site_occupancy
  Cu  Cu0  1  0.99674000  0.53530000  0.88441000  1.0
  Cu  Cu1  1  0.00328000  0.96477000  0.38484000  1.0
  Cu  Cu2  1  0.00328000  0.46471000  0.11557000  1.0
  Cu  Cu3  1  0.99670000  0.03522000  0.61517000  1.0
  Cu  Cu4  1  0.50000000  0.00002000  0.50002000  1.0
  Cu  Cu5  1  0.50000000  0.50000000  0.99998000  1.0
  H  H6  1  0.19857000  0.80716000  0.53064000  1.0
  H  H7  1  0.80123000  0.69290000  0.03060000  1.0
  H  H8  1  0.80143000  0.19285000  0.46933000  1.0
  H  H9  1  0.19874000  0.30710000  0.96942000  1.0
  C  C10  1  0.65270000  0.74827000  0.77968000  1.0
  C  C11  1  0.55780000  0.84929000  0.70050000  1.0
  C  C12  1  0.32699000  0.86485000  0.75228000  1.0
  C  C13  1  0.41788000  0.75895000  0.83210000  1.0
  C  C14  1  0.34742000  0.75199000  0.28004000  1.0
  C  C15  1  0.44228000  0.65096000  0.20081000  1.0
  C  C16  1  0.67312000  0.63538000  0.25266000  1.0
  C  C17  1  0.58224000  0.74133000  0.33242000  1.0
  C  C18  1  0.34733000  0.25172000  0.22032000  1.0
  C  C19  1  0.44220000  0.15070000  0.29950000  1.0
  C  C20  1  0.67300000  0.13514000  0.24771000  1.0
  C  C21  1  0.58214000  0.24106000  0.16789000  1.0
  C  C22  1  0.65261000  0.24801000  0.71997000  1.0
  C  C23  1  0.55772000  0.34902000  0.79919000  1.0
  C  C24  1  0.32687000  0.36461000  0.74735000  1.0
  C  C25  1  0.41776000  0.25866000  0.66759000  1.0
  O  O26  1  0.85200000  0.68278000  0.79060000  1.0
  O  O27  1  0.64916000  0.89741000  0.62049000  1.0
  O  O28  1  0.13222000  0.93558000  0.73881000  1.0
  O  O29  1  0.33104000  0.70141000  0.90802000  1.0
  O  O30  1  0.18663000  0.91138000  0.51434000  1.0
  O  O31  1  0.14813000  0.81749000  0.29101000  1.0
  O  O32  1  0.35103000  0.60287000  0.12078000  1.0
  O  O33  1  0.86787000  0.56461000  0.23927000  1.0
  O  O34  1  0.66910000  0.79902000  0.40829000  1.0
  O  O35  1  0.81349000  0.58861000  0.01429000  1.0
  O  O36  1  0.14803000  0.31721000  0.20941000  1.0
  O  O37  1  0.35084000  0.10258000  0.37951000  1.0
  O  O38  1  0.86776000  0.06442000  0.26117000  1.0
  O  O39  1  0.66895000  0.29862000  0.09198000  1.0
  O  O40  1  0.81337000  0.08864000  0.48567000  1.0
  O  O41  1  0.85189000  0.18250000  0.70899000  1.0
  O  O42  1  0.64895000  0.39712000  0.87923000  1.0
  O  O43  1  0.13211000  0.43538000  0.76074000  1.0
  O  O44  1  0.33090000  0.20101000  0.59170000  1.0
  O  O45  1  0.18650000  0.41140000  0.98570000  1.0
