# generated using pymatgen
data_CdH9C13NO5
_symmetry_space_group_name_H-M   'P 1'
_cell_length_a   6.94620000
_cell_length_b   10.24530000
_cell_length_c   20.70600000
_cell_angle_alpha   89.61190000
_cell_angle_beta   88.85530000
_cell_angle_gamma   70.18420000
_symmetry_Int_Tables_number   1
_chemical_formula_structural   CdH9C13NO5
_chemical_formula_sum   'Cd4 H36 C52 N4 O20'
_cell_volume   1386.03101646
_cell_formula_units_Z   4
loop_
 _symmetry_equiv_pos_site_id
 _symmetry_equiv_pos_as_xyz
  1  'x, y, z'
loop_
 _atom_site_type_symbol
 _atom_site_label
 _atom_site_symmetry_multiplicity
 _atom_site_fract_x
 _atom_site_fract_y
 _atom_site_fract_z
 _atom_site_occupancy
  Cd  Cd0  1  0.50250000  0.29321000  0.47211000  1.0
  Cd  Cd1  1  0.20400000  0.29313000  0.02791000  1.0
  Cd  Cd2  1  0.49749000  0.70679000  0.52788000  1.0
  Cd  Cd3  1  0.79600000  0.70688000  0.97209000  1.0
  H  H4  1  0.26022000  0.59467000  0.29751000  1.0
  H  H5  1  0.14466000  0.59468000  0.20260000  1.0
  H  H6  1  0.73978000  0.40533000  0.70248000  1.0
  H  H7  1  0.85535000  0.40532000  0.79740000  1.0
  H  H8  1  0.02306000  0.81081000  0.47305000  1.0
  H  H9  1  0.16665000  0.81062000  0.02707000  1.0
  H  H10  1  0.97693000  0.18918000  0.52695000  1.0
  H  H11  1  0.83335000  0.18938000  0.97294000  1.0
  H  H12  1  0.88860000  0.03044000  0.29327000  1.0
  H  H13  1  0.08058000  0.03044000  0.20681000  1.0
  H  H14  1  0.11139000  0.96957000  0.70673000  1.0
  H  H15  1  0.91940000  0.96957000  0.79319000  1.0
  H  H16  1  0.55488000  0.05864000  0.70430000  1.0
  H  H17  1  0.38647000  0.05857000  0.79562000  1.0
  H  H18  1  0.44513000  0.94136000  0.29570000  1.0
  H  H19  1  0.61353000  0.94143000  0.20438000  1.0
  H  H20  1  0.58739000  0.07094000  0.58573000  1.0
  H  H21  1  0.34176000  0.07058000  0.91419000  1.0
  H  H22  1  0.41261000  0.92906000  0.41427000  1.0
  H  H23  1  0.65825000  0.92941000  0.08581000  1.0
  H  H24  1  0.24326000  0.48968000  0.58285000  1.0
  H  H25  1  0.26657000  0.48942000  0.91725000  1.0
  H  H26  1  0.75672000  0.51032000  0.41715000  1.0
  H  H27  1  0.73345000  0.51057000  0.08275000  1.0
  H  H28  1  0.25916000  0.10051000  0.47761000  1.0
  H  H29  1  0.64011000  0.10057000  0.02234000  1.0
  H  H30  1  0.74083000  0.89948000  0.52239000  1.0
  H  H31  1  0.35989000  0.89943000  0.97766000  1.0
  H  H32  1  0.13748000  0.22421000  0.43119000  1.0
  H  H33  1  0.63807000  0.22416000  0.06884000  1.0
  H  H34  1  0.86251000  0.77579000  0.56882000  1.0
  H  H35  1  0.36194000  0.77583000  0.93116000  1.0
  H  H36  1  0.18758000  0.49479000  0.70210000  1.0
  H  H37  1  0.31686000  0.49484000  0.79801000  1.0
  H  H38  1  0.81242000  0.50521000  0.29790000  1.0
  H  H39  1  0.68316000  0.50516000  0.20199000  1.0
  C  C40  1  0.14937000  0.69074000  0.38857000  1.0
  C  C41  1  0.15991000  0.69066000  0.11153000  1.0
  C  C42  1  0.85062000  0.30926000  0.61143000  1.0
  C  C43  1  0.84010000  0.30935000  0.88847000  1.0
  C  C44  1  0.16852000  0.69084000  0.32130000  1.0
  C  C45  1  0.14044000  0.69079000  0.17880000  1.0
  C  C46  1  0.83148000  0.30916000  0.67870000  1.0
  C  C47  1  0.85957000  0.30922000  0.82120000  1.0
  C  C48  1  0.03485000  0.81203000  0.42076000  1.0
  C  C49  1  0.15332000  0.81192000  0.07936000  1.0
  C  C50  1  0.96513000  0.18796000  0.57924000  1.0
  C  C51  1  0.84668000  0.18808000  0.92064000  1.0
  C  C52  1  0.07952000  0.81306000  0.28564000  1.0
  C  C53  1  0.10720000  0.81303000  0.21445000  1.0
  C  C54  1  0.92048000  0.18694000  0.71435000  1.0
  C  C55  1  0.89280000  0.18697000  0.78555000  1.0
  C  C56  1  0.37071000  0.27703000  0.71446000  1.0
  C  C57  1  0.35209000  0.27698000  0.78556000  1.0
  C  C58  1  0.62930000  0.72296000  0.28554000  1.0
  C  C59  1  0.64792000  0.72302000  0.21444000  1.0
  C  C60  1  0.96461000  0.93427000  0.31917000  1.0
  C  C61  1  0.10088000  0.93424000  0.18093000  1.0
  C  C62  1  0.03538000  0.06573000  0.68083000  1.0
  C  C63  1  0.89911000  0.06577000  0.81907000  1.0
  C  C64  1  0.93884000  0.93344000  0.38639000  1.0
  C  C65  1  0.12773000  0.93336000  0.11372000  1.0
  C  C66  1  0.06115000  0.06656000  0.61361000  1.0
  C  C67  1  0.87227000  0.06665000  0.88628000  1.0
  C  C68  1  0.47977000  0.15660000  0.67983000  1.0
  C  C69  1  0.36362000  0.15649000  0.82014000  1.0
  C  C70  1  0.52024000  0.84339000  0.32017000  1.0
  C  C71  1  0.63639000  0.84351000  0.17986000  1.0
  C  C72  1  0.50031000  0.16273000  0.61320000  1.0
  C  C73  1  0.33695000  0.16247000  0.88677000  1.0
  C  C74  1  0.49969000  0.83727000  0.38680000  1.0
  C  C75  1  0.66307000  0.83752000  0.11323000  1.0
  C  C76  1  0.80242000  0.05796000  0.42219000  1.0
  C  C77  1  0.13939000  0.05791000  0.07788000  1.0
  C  C78  1  0.19757000  0.94203000  0.57781000  1.0
  C  C79  1  0.86061000  0.94209000  0.92211000  1.0
  C  C80  1  0.30812000  0.39682000  0.61210000  1.0
  C  C81  1  0.29475000  0.39659000  0.88796000  1.0
  C  C82  1  0.69188000  0.60318000  0.38790000  1.0
  C  C83  1  0.70526000  0.60340000  0.11204000  1.0
  C  C84  1  0.28069000  0.39860000  0.67872000  1.0
  C  C85  1  0.32030000  0.39852000  0.82134000  1.0
  C  C86  1  0.71930000  0.60141000  0.32128000  1.0
  C  C87  1  0.67972000  0.60147000  0.17867000  1.0
  C  C88  1  0.25507000  0.56418000  0.42767000  1.0
  C  C89  1  0.18070000  0.56411000  0.07242000  1.0
  C  C90  1  0.74492000  0.43581000  0.57233000  1.0
  C  C91  1  0.81930000  0.43590000  0.92758000  1.0
  N  N92  1  0.41825000  0.28122000  0.57976000  1.0
  N  N93  1  0.30044000  0.28091000  0.92026000  1.0
  N  N94  1  0.58174000  0.71878000  0.42024000  1.0
  N  N95  1  0.69957000  0.71908000  0.07974000  1.0
  O  O96  1  0.27610000  0.57816000  0.48810000  1.0
  O  O97  1  0.14576000  0.57814000  0.01199000  1.0
  O  O98  1  0.72389000  0.42183000  0.51190000  1.0
  O  O99  1  0.85424000  0.42186000  0.98801000  1.0
  O  O100  1  0.73179000  0.03984000  0.47791000  1.0
  O  O101  1  0.22839000  0.03978000  0.02220000  1.0
  O  O102  1  0.26821000  0.96016000  0.52209000  1.0
  O  O103  1  0.77162000  0.96022000  0.97780000  1.0
  O  O104  1  0.75647000  0.17750000  0.39618000  1.0
  O  O105  1  0.06542000  0.17749000  0.10384000  1.0
  O  O106  1  0.24353000  0.82250000  0.60382000  1.0
  O  O107  1  0.93458000  0.82252000  0.89616000  1.0
  O  O108  1  0.32169000  0.44775000  0.39837000  1.0
  O  O109  1  0.23038000  0.44764000  0.10169000  1.0
  O  O110  1  0.67830000  0.55224000  0.60162000  1.0
  O  O111  1  0.76962000  0.55237000  0.89831000  1.0
  O  O112  1  0.27444000  0.16862000  0.44455000  1.0
  O  O113  1  0.55672000  0.16859000  0.05542000  1.0
  O  O114  1  0.72555000  0.83137000  0.55545000  1.0
  O  O115  1  0.44328000  0.83141000  0.94458000  1.0
