# generated using pymatgen
data_ZnH8C13NO4
_symmetry_space_group_name_H-M   'P 1'
_cell_length_a   7.63208000
_cell_length_b   9.34430000
_cell_length_c   10.65890000
_cell_angle_alpha   65.86740000
_cell_angle_beta   85.93440000
_cell_angle_gamma   79.50550000
_symmetry_Int_Tables_number   1
_chemical_formula_structural   ZnH8C13NO4
_chemical_formula_sum   'Zn2 H16 C26 N2 O8'
_cell_volume   682.10896628
_cell_formula_units_Z   2
loop_
 _symmetry_equiv_pos_site_id
 _symmetry_equiv_pos_as_xyz
  1  'x, y, z'
loop_
 _atom_site_type_symbol
 _atom_site_label
 _atom_site_symmetry_multiplicity
 _atom_site_fract_x
 _atom_site_fract_y
 _atom_site_fract_z
 _atom_site_occupancy
  Zn  Zn0  1  0.36262000  0.43752000  0.45649000  1.0
  Zn  Zn1  1  0.63738000  0.56248000  0.54351000  1.0
  H  H2  1  0.07827000  0.19729000  0.57789000  1.0
  H  H3  1  0.69935000  0.04075000  0.40235000  1.0
  H  H4  1  0.38138000  0.24547000  0.28697000  1.0
  H  H5  1  0.24455000  0.28355000  0.06963000  1.0
  H  H6  1  0.27804000  0.00997000  0.83488000  1.0
  H  H7  1  0.01525000  0.61020000  0.32638000  1.0
  H  H8  1  0.66641000  0.22486000  0.93735000  1.0
  H  H9  1  0.86227000  0.66694000  0.11118000  1.0
  H  H10  1  0.92172000  0.80271000  0.42211000  1.0
  H  H11  1  0.30064000  0.95925000  0.59766000  1.0
  H  H12  1  0.61863000  0.75453000  0.71303000  1.0
  H  H13  1  0.75546000  0.71645000  0.93037000  1.0
  H  H14  1  0.72196000  0.99004000  0.16512000  1.0
  H  H15  1  0.98475000  0.38980000  0.67361000  1.0
  H  H16  1  0.33359000  0.77515000  0.06265000  1.0
  H  H17  1  0.13773000  0.33306000  0.88882000  1.0
  C  C18  1  0.44157000  0.27028000  0.73651000  1.0
  C  C19  1  0.46842000  0.13132000  0.87363000  1.0
  C  C20  1  0.37449000  0.00466000  0.90805000  1.0
  C  C21  1  0.59403000  0.12566000  0.96640000  1.0
  C  C22  1  0.74044000  0.27713000  0.47867000  1.0
  C  C23  1  0.04412000  0.11070000  0.54399000  1.0
  C  C24  1  0.83153000  0.02286000  0.44436000  1.0
  C  C25  1  0.26519000  0.33679000  0.24364000  1.0
  C  C26  1  0.18753000  0.36039000  0.12135000  1.0
  C  C27  1  0.04118000  0.48291000  0.06658000  1.0
  C  C28  1  0.97683000  0.57187000  0.14409000  1.0
  C  C29  1  0.06108000  0.54104000  0.26579000  1.0
  C  C30  1  0.87500000  0.13479000  0.48800000  1.0
  C  C31  1  0.55842000  0.72972000  0.26349000  1.0
  C  C32  1  0.53158000  0.86868000  0.12637000  1.0
  C  C33  1  0.62551000  0.99534000  0.09195000  1.0
  C  C34  1  0.40597000  0.87435000  0.03359000  1.0
  C  C35  1  0.25956000  0.72287000  0.52133000  1.0
  C  C36  1  0.95588000  0.88930000  0.45602000  1.0
  C  C37  1  0.16847000  0.97713000  0.55565000  1.0
  C  C38  1  0.73482000  0.66321000  0.75636000  1.0
  C  C39  1  0.81248000  0.63960000  0.87865000  1.0
  C  C40  1  0.95882000  0.51708000  0.93341000  1.0
  C  C41  1  0.02318000  0.42813000  0.85591000  1.0
  C  C42  1  0.93892000  0.45895000  0.73421000  1.0
  C  C43  1  0.12500000  0.86521000  0.51200000  1.0
  N  N44  1  0.20474000  0.42687000  0.31415000  1.0
  N  N45  1  0.79527000  0.57313000  0.68585000  1.0
  O  O46  1  0.32826000  0.27082000  0.65330000  1.0
  O  O47  1  0.53659000  0.37652000  0.71244000  1.0
  O  O48  1  0.58196000  0.28109000  0.44552000  1.0
  O  O49  1  0.79412000  0.38237000  0.50660000  1.0
  O  O50  1  0.67174000  0.72918000  0.34670000  1.0
  O  O51  1  0.46341000  0.62348000  0.28756000  1.0
  O  O52  1  0.41805000  0.71891000  0.55449000  1.0
  O  O53  1  0.20588000  0.61764000  0.49339000  1.0
