# generated using pymatgen
data_Zn3H32C52(NO2)6
_symmetry_space_group_name_H-M   'P 1'
_cell_length_a   13.60020000
_cell_length_b   13.89080000
_cell_length_c   19.52270647
_cell_angle_alpha   75.21566739
_cell_angle_beta   69.61867755
_cell_angle_gamma   60.69160000
_symmetry_Int_Tables_number   1
_chemical_formula_structural   Zn3H32C52(NO2)6
_chemical_formula_sum   'Zn6 H64 C104 N12 O24'
_cell_volume   2998.51681986
_cell_formula_units_Z   2
loop_
 _symmetry_equiv_pos_site_id
 _symmetry_equiv_pos_as_xyz
  1  'x, y, z'
loop_
 _atom_site_type_symbol
 _atom_site_label
 _atom_site_symmetry_multiplicity
 _atom_site_fract_x
 _atom_site_fract_y
 _atom_site_fract_z
 _atom_site_occupancy
  Zn  Zn0  1  0.00000000  0.50000000  0.00000000  1.0
  Zn  Zn1  1  0.00000000  0.00000000  0.50000000  1.0
  Zn  Zn2  1  0.04332000  0.50951000  0.81964000  1.0
  Zn  Zn3  1  0.87250000  0.99062000  0.68036000  1.0
  Zn  Zn4  1  0.95668000  0.49049000  0.18036000  1.0
  Zn  Zn5  1  0.12750000  0.00938000  0.31964000  1.0
  H  H6  1  0.63758000  0.70830000  0.02941000  1.0
  H  H7  1  0.87524000  0.79176000  0.47068000  1.0
  H  H8  1  0.36242000  0.29170000  0.97059000  1.0
  H  H9  1  0.12476000  0.20824000  0.52932000  1.0
  H  H10  1  0.42145000  0.80759000  0.04210000  1.0
  H  H11  1  0.77110000  0.69252000  0.45795000  1.0
  H  H12  1  0.57854000  0.19241000  0.95791000  1.0
  H  H13  1  0.22890000  0.30748000  0.54205000  1.0
  H  H14  1  0.48085000  0.71284000  0.83260000  1.0
  H  H15  1  0.52625000  0.78719000  0.66744000  1.0
  H  H16  1  0.51915000  0.28716000  0.16740000  1.0
  H  H17  1  0.47374000  0.21281000  0.33257000  1.0
  H  H18  1  0.69631000  0.61808000  0.81919000  1.0
  H  H19  1  0.63353000  0.88196000  0.68090000  1.0
  H  H20  1  0.30368000  0.38192000  0.18081000  1.0
  H  H21  1  0.36647000  0.11804000  0.31910000  1.0
  H  H22  1  0.31258000  0.16649000  0.83584000  1.0
  H  H23  1  0.81494000  0.33350000  0.66409000  1.0
  H  H24  1  0.68742000  0.83351000  0.16416000  1.0
  H  H25  1  0.18506000  0.66650000  0.33591000  1.0
  H  H26  1  0.41363000  0.95942000  0.85459000  1.0
  H  H27  1  0.72770000  0.54057000  0.64539000  1.0
  H  H28  1  0.58637000  0.04058000  0.14541000  1.0
  H  H29  1  0.27230000  0.45943000  0.35461000  1.0
  H  H30  1  0.10639000  0.95982000  0.02139000  1.0
  H  H31  1  0.58741000  0.54034000  0.47865000  1.0
  H  H32  1  0.89361000  0.04018000  0.97861000  1.0
  H  H33  1  0.41259000  0.45966000  0.52135000  1.0
  H  H34  1  0.01155000  0.16743000  0.00818000  1.0
  H  H35  1  0.68705000  0.33272000  0.49176000  1.0
  H  H36  1  0.98845000  0.83257000  0.99182000  1.0
  H  H37  1  0.31295000  0.66728000  0.50824000  1.0
  H  H38  1  0.10433000  0.81870000  0.80762000  1.0
  H  H39  1  0.23072000  0.68126000  0.69241000  1.0
  H  H40  1  0.89567000  0.18130000  0.19238000  1.0
  H  H41  1  0.76928000  0.31874000  0.30759000  1.0
  H  H42  1  0.18505000  0.91682000  0.84701000  1.0
  H  H43  1  0.44892000  0.58318000  0.65299000  1.0
  H  H44  1  0.81495000  0.08318000  0.15299000  1.0
  H  H45  1  0.55108000  0.41682000  0.34701000  1.0
  H  H46  1  0.32871000  0.62962000  0.99637000  1.0
  H  H47  1  0.45464000  0.87041000  0.50365000  1.0
  H  H48  1  0.67129000  0.37038000  0.00363000  1.0
  H  H49  1  0.54536000  0.12958000  0.49635000  1.0
  H  H50  1  0.23929000  0.53634000  0.96086000  1.0
  H  H51  1  0.23644000  0.96362000  0.53915000  1.0
  H  H52  1  0.76071000  0.46366000  0.03914000  1.0
  H  H53  1  0.76356000  0.03638000  0.46085000  1.0
  H  H54  1  0.03996000  0.36591000  0.73884000  1.0
  H  H55  1  0.64469000  0.13418000  0.76117000  1.0
  H  H56  1  0.96004000  0.63409000  0.26116000  1.0
  H  H57  1  0.35531000  0.86581000  0.23883000  1.0
  H  H58  1  0.00646000  0.37354000  0.61737000  1.0
  H  H59  1  0.49736000  0.12652000  0.88263000  1.0
  H  H60  1  0.99354000  0.62646000  0.38263000  1.0
  H  H61  1  0.50264000  0.87348000  0.11737000  1.0
  H  H62  1  0.04131000  0.67928000  0.55081000  1.0
  H  H63  1  0.77130000  0.82080000  0.94920000  1.0
  H  H64  1  0.95869000  0.32072000  0.44919000  1.0
  H  H65  1  0.22870000  0.17920000  0.05080000  1.0
  H  H66  1  0.06587000  0.66278000  0.67646000  1.0
  H  H67  1  0.90504000  0.83726000  0.82356000  1.0
  H  H68  1  0.93413000  0.33722000  0.32354000  1.0
  H  H69  1  0.09497000  0.16274000  0.17644000  1.0
  C  C70  1  0.80931000  0.60508000  0.91333000  1.0
  C  C71  1  0.82773000  0.89497000  0.58672000  1.0
  C  C72  1  0.19069000  0.39492000  0.08667000  1.0
  C  C73  1  0.17227000  0.10503000  0.41328000  1.0
  C  C74  1  0.67991000  0.65791000  0.92340000  1.0
  C  C75  1  0.76117000  0.84216000  0.57669000  1.0
  C  C76  1  0.32009000  0.34209000  0.07660000  1.0
  C  C77  1  0.23883000  0.15784000  0.42331000  1.0
  C  C78  1  0.60224000  0.71071000  0.98642000  1.0
  C  C79  1  0.79929000  0.78939000  0.51366000  1.0
  C  C80  1  0.39776000  0.28929000  0.01358000  1.0
  C  C81  1  0.20071000  0.21061000  0.48634000  1.0
  C  C82  1  0.48242000  0.76606000  0.99337000  1.0
  C  C83  1  0.74177000  0.73407000  0.50668000  1.0
  C  C84  1  0.51758000  0.23394000  0.00663000  1.0
  C  C85  1  0.25823000  0.26593000  0.49332000  1.0
  C  C86  1  0.43842000  0.76805000  0.93765000  1.0
  C  C87  1  0.64408000  0.73204000  0.56239000  1.0
  C  C88  1  0.56158000  0.23195000  0.06235000  1.0
  C  C89  1  0.35592000  0.26796000  0.43761000  1.0
  C  C90  1  0.51557000  0.71189000  0.87554000  1.0
  C  C91  1  0.60296000  0.78817000  0.62451000  1.0
  C  C92  1  0.48443000  0.28811000  0.12446000  1.0
  C  C93  1  0.39705000  0.21183000  0.37548000  1.0
  C  C94  1  0.63523000  0.65838000  0.86832000  1.0
  C  C95  1  0.66189000  0.84167000  0.63176000  1.0
  C  C96  1  0.36477000  0.34162000  0.13168000  1.0
  C  C97  1  0.33811000  0.15833000  0.36824000  1.0
  C  C98  1  0.09617000  0.30359000  0.90818000  1.0
  C  C99  1  0.80791000  0.19650000  0.59172000  1.0
  C  C100  1  0.90383000  0.69641000  0.09182000  1.0
  C  C101  1  0.19209000  0.80350000  0.40828000  1.0
  C  C102  1  0.15582000  0.17956000  0.92046000  1.0
  C  C103  1  0.75589000  0.32053000  0.57941000  1.0
  C  C104  1  0.84418000  0.82044000  0.07954000  1.0
  C  C105  1  0.24411000  0.67947000  0.42059000  1.0
  C  C106  1  0.26933000  0.12059000  0.87782000  1.0
  C  C107  1  0.76781000  0.37942000  0.62209000  1.0
  C  C108  1  0.73068000  0.87941000  0.12218000  1.0
  C  C109  1  0.23219000  0.62058000  0.37791000  1.0
  C  C110  1  0.32523000  0.00519000  0.88782000  1.0
  C  C111  1  0.71829000  0.49483000  0.61215000  1.0
  C  C112  1  0.67477000  0.99481000  0.11218000  1.0
  C  C113  1  0.28171000  0.50517000  0.38785000  1.0
  C  C114  1  0.26548000  0.94683000  0.93837000  1.0
  C  C115  1  0.65064000  0.55324000  0.56164000  1.0
  C  C116  1  0.73452000  0.05317000  0.06163000  1.0
  C  C117  1  0.34936000  0.44676000  0.43836000  1.0
  C  C118  1  0.15199000  0.00565000  0.98171000  1.0
  C  C119  1  0.63924000  0.49449000  0.51829000  1.0
  C  C120  1  0.84801000  0.99435000  0.01829000  1.0
  C  C121  1  0.36076000  0.50551000  0.48171000  1.0
  C  C122  1  0.09864000  0.12118000  0.97374000  1.0
  C  C123  1  0.69349000  0.37897000  0.52618000  1.0
  C  C124  1  0.90136000  0.87882000  0.02626000  1.0
  C  C125  1  0.30651000  0.62103000  0.47382000  1.0
  C  C126  1  0.11813000  0.61342000  0.86092000  1.0
  C  C127  1  0.09247000  0.88658000  0.63906000  1.0
  C  C128  1  0.88187000  0.38658000  0.13908000  1.0
  C  C129  1  0.90753000  0.11342000  0.36094000  1.0
  C  C130  1  0.16616000  0.67213000  0.88263000  1.0
  C  C131  1  0.22092000  0.82783000  0.61739000  1.0
  C  C132  1  0.83384000  0.32787000  0.11737000  1.0
  C  C133  1  0.77907000  0.17217000  0.38262000  1.0
  C  C134  1  0.15081000  0.77942000  0.85038000  1.0
  C  C135  1  0.28065000  0.72057000  0.64965000  1.0
  C  C136  1  0.84919000  0.22058000  0.14962000  1.0
  C  C137  1  0.71935000  0.27943000  0.35035000  1.0
  C  C138  1  0.19671000  0.83351000  0.87187000  1.0
  C  C139  1  0.40213000  0.66650000  0.62814000  1.0
  C  C140  1  0.80330000  0.16649000  0.12812000  1.0
  C  C141  1  0.59787000  0.33350000  0.37186000  1.0
  C  C142  1  0.26237000  0.77913000  0.92398000  1.0
  C  C143  1  0.46548000  0.72093000  0.57607000  1.0
  C  C144  1  0.73763000  0.22087000  0.07602000  1.0
  C  C145  1  0.53452000  0.27907000  0.42393000  1.0
  C  C146  1  0.27851000  0.67112000  0.95568000  1.0
  C  C147  1  0.40528000  0.82890000  0.54435000  1.0
  C  C148  1  0.72149000  0.32888000  0.04432000  1.0
  C  C149  1  0.59472000  0.17110000  0.45565000  1.0
  C  C150  1  0.22953000  0.61898000  0.93575000  1.0
  C  C151  1  0.28423000  0.88099000  0.56426000  1.0
  C  C152  1  0.77047000  0.38102000  0.06425000  1.0
  C  C153  1  0.71577000  0.11901000  0.43574000  1.0
  C  C154  1  0.03867000  0.43354000  0.69536000  1.0
  C  C155  1  0.66756000  0.06656000  0.80465000  1.0
  C  C156  1  0.96134000  0.56646000  0.30464000  1.0
  C  C157  1  0.33244000  0.93344000  0.19535000  1.0
  C  C158  1  0.02131000  0.43727000  0.62888000  1.0
  C  C159  1  0.58746000  0.06281000  0.87113000  1.0
  C  C160  1  0.97869000  0.56273000  0.37112000  1.0
  C  C161  1  0.41254000  0.93719000  0.12887000  1.0
  C  C162  1  0.02290000  0.52652000  0.57551000  1.0
  C  C163  1  0.62489000  0.97355000  0.92449000  1.0
  C  C164  1  0.97710000  0.47348000  0.42449000  1.0
  C  C165  1  0.37511000  0.02645000  0.07551000  1.0
  C  C166  1  0.04043000  0.60894000  0.59122000  1.0
  C  C167  1  0.74054000  0.89115000  0.90879000  1.0
  C  C168  1  0.95957000  0.39107000  0.40878000  1.0
  C  C169  1  0.25946000  0.10885000  0.09121000  1.0
  C  C170  1  0.05507000  0.59968000  0.66020000  1.0
  C  C171  1  0.81489000  0.90039000  0.83982000  1.0
  C  C172  1  0.94493000  0.40032000  0.33980000  1.0
  C  C173  1  0.18511000  0.09961000  0.16018000  1.0
  N  N174  1  0.31634000  0.82908000  0.94345000  1.0
  N  N175  1  0.58884000  0.67099000  0.55659000  1.0
  N  N176  1  0.68366000  0.17092000  0.05655000  1.0
  N  N177  1  0.41116000  0.32901000  0.44341000  1.0
  N  N178  1  0.05493000  0.51334000  0.71083000  1.0
  N  N179  1  0.77909000  0.98675000  0.78918000  1.0
  N  N180  1  0.94507000  0.48666000  0.28917000  1.0
  N  N181  1  0.22091000  0.01325000  0.21082000  1.0
  N  N182  1  0.00746000  0.53888000  0.50519000  1.0
  N  N183  1  0.55153000  0.96112000  0.99480000  1.0
  N  N184  1  0.99254000  0.46112000  0.49481000  1.0
  N  N185  1  0.44847000  0.03888000  0.00520000  1.0
  O  O186  1  0.84690000  0.60876000  0.96316000  1.0
  O  O187  1  0.91889000  0.89117000  0.53690000  1.0
  O  O188  1  0.15310000  0.39124000  0.03684000  1.0
  O  O189  1  0.08111000  0.10883000  0.46310000  1.0
  O  O190  1  0.87265000  0.56185000  0.85281000  1.0
  O  O191  1  0.78732000  0.93830000  0.64719000  1.0
  O  O192  1  0.12735000  0.43815000  0.14719000  1.0
  O  O193  1  0.21268000  0.06170000  0.35281000  1.0
  O  O194  1  0.12258000  0.34512000  0.84137000  1.0
  O  O195  1  0.80903000  0.15500000  0.65854000  1.0
  O  O196  1  0.87743000  0.65488000  0.15863000  1.0
  O  O197  1  0.19097000  0.84500000  0.34146000  1.0
  O  O198  1  0.02458000  0.35739000  0.96241000  1.0
  O  O199  1  0.84439000  0.14265000  0.53750000  1.0
  O  O200  1  0.97542000  0.64261000  0.03759000  1.0
  O  O201  1  0.15562000  0.85735000  0.46250000  1.0
  O  O202  1  0.08257000  0.64659000  0.80291000  1.0
  O  O203  1  0.03205000  0.85346000  0.69708000  1.0
  O  O204  1  0.91743000  0.35341000  0.19709000  1.0
  O  O205  1  0.96795000  0.14653000  0.30292000  1.0
  O  O206  1  0.11532000  0.52372000  0.89979000  1.0
  O  O207  1  0.03888000  0.97628000  0.60017000  1.0
  O  O208  1  0.88468000  0.47628000  0.10021000  1.0
  O  O209  1  0.96112000  0.02372000  0.39983000  1.0
