# generated using pymatgen
data_ZnH11C13N3O4
_symmetry_space_group_name_H-M   'P 1'
_cell_length_a   11.61360000
_cell_length_b   13.12830000
_cell_length_c   14.06900000
_cell_angle_alpha   90.00000000
_cell_angle_beta   93.15830000
_cell_angle_gamma   90.00000000
_symmetry_Int_Tables_number   1
_chemical_formula_structural   ZnH11C13N3O4
_chemical_formula_sum   'Zn4 H44 C52 N12 O16'
_cell_volume   2141.79769145
_cell_formula_units_Z   4
loop_
 _symmetry_equiv_pos_site_id
 _symmetry_equiv_pos_as_xyz
  1  'x, y, z'
loop_
 _atom_site_type_symbol
 _atom_site_label
 _atom_site_symmetry_multiplicity
 _atom_site_fract_x
 _atom_site_fract_y
 _atom_site_fract_z
 _atom_site_occupancy
  Zn  Zn0  1  0.44373000  0.56483000  0.41420000  1.0
  Zn  Zn1  1  0.05627000  0.06483000  0.08580000  1.0
  Zn  Zn2  1  0.55627000  0.43517000  0.58580000  1.0
  Zn  Zn3  1  0.94373000  0.93517000  0.91420000  1.0
  H  H4  1  0.95901000  0.23293000  0.34496000  1.0
  H  H5  1  0.54099000  0.73293000  0.15504000  1.0
  H  H6  1  0.04099000  0.76707000  0.65504000  1.0
  H  H7  1  0.45901000  0.26707000  0.84496000  1.0
  H  H8  1  0.52618000  0.69465000  0.56591000  1.0
  H  H9  1  0.97382000  0.19465000  0.93409000  1.0
  H  H10  1  0.47382000  0.30535000  0.43409000  1.0
  H  H11  1  0.02618000  0.80535000  0.06591000  1.0
  H  H12  1  0.46894000  0.75092000  0.47934000  1.0
  H  H13  1  0.03106000  0.25092000  0.02066000  1.0
  H  H14  1  0.53106000  0.24908000  0.52066000  1.0
  H  H15  1  0.96894000  0.74908000  0.97934000  1.0
  H  H16  1  0.73936000  0.32700000  0.49067000  1.0
  H  H17  1  0.76064000  0.82700000  0.00933000  1.0
  H  H18  1  0.26064000  0.67300000  0.50933000  1.0
  H  H19  1  0.23936000  0.17300000  0.99067000  1.0
  H  H20  1  0.92156000  0.35652000  0.23262000  1.0
  H  H21  1  0.57844000  0.85652000  0.26738000  1.0
  H  H22  1  0.07844000  0.64348000  0.76738000  1.0
  H  H23  1  0.42156000  0.14348000  0.73262000  1.0
  H  H24  1  0.78991000  0.49612000  0.18028000  1.0
  H  H25  1  0.71009000  0.99612000  0.31972000  1.0
  H  H26  1  0.21009000  0.50388000  0.81972000  1.0
  H  H27  1  0.28991000  0.00388000  0.68028000  1.0
  H  H28  1  0.64462000  0.60192000  0.19355000  1.0
  H  H29  1  0.85539000  0.10192000  0.30646000  1.0
  H  H30  1  0.35538000  0.39808000  0.80646000  1.0
  H  H31  1  0.14461000  0.89808000  0.69354000  1.0
  H  H32  1  0.19202000  0.81399000  0.35167000  1.0
  H  H33  1  0.30798000  0.31398000  0.14833000  1.0
  H  H34  1  0.80798000  0.18602000  0.64833000  1.0
  H  H35  1  0.69202000  0.68601000  0.85167000  1.0
  H  H36  1  0.07002000  0.94826000  0.26867000  1.0
  H  H37  1  0.42999000  0.44826000  0.23133000  1.0
  H  H38  1  0.92999000  0.05174000  0.73133000  1.0
  H  H39  1  0.57001000  0.55174000  0.76867000  1.0
  H  H40  1  0.27041000  0.94337000  0.03412000  1.0
  H  H41  1  0.22959000  0.44337000  0.46588000  1.0
  H  H42  1  0.72959000  0.05663000  0.96588000  1.0
  H  H43  1  0.77041000  0.55663000  0.53412000  1.0
  H  H44  1  0.39947000  0.81069000  0.10585000  1.0
  H  H45  1  0.10053000  0.31069000  0.39415000  1.0
  H  H46  1  0.60053000  0.18931000  0.89415000  1.0
  H  H47  1  0.89947000  0.68931000  0.60585000  1.0
  C  C48  1  0.67171000  0.44201000  0.39285000  1.0
  C  C49  1  0.82829000  0.94201000  0.10715000  1.0
  C  C50  1  0.32829000  0.55799000  0.60715000  1.0
  C  C51  1  0.17171000  0.05799000  0.89285000  1.0
  C  C52  1  0.74900000  0.36447000  0.42239000  1.0
  C  C53  1  0.75100000  0.86447000  0.07761000  1.0
  C  C54  1  0.25100000  0.63553000  0.57761000  1.0
  C  C55  1  0.24900000  0.13553000  0.92239000  1.0
  C  C56  1  0.83768000  0.33300000  0.36551000  1.0
  C  C57  1  0.66233000  0.83300000  0.13449000  1.0
  C  C58  1  0.16233000  0.66700000  0.63449000  1.0
  C  C59  1  0.33767000  0.16700000  0.86551000  1.0
  C  C60  1  0.85288000  0.38104000  0.27701000  1.0
  C  C61  1  0.64712000  0.88104000  0.22300000  1.0
  C  C62  1  0.14712000  0.61896000  0.72300000  1.0
  C  C63  1  0.35288000  0.11896000  0.77700000  1.0
  C  C64  1  0.77874000  0.45833000  0.24828000  1.0
  C  C65  1  0.72126000  0.95832000  0.25172000  1.0
  C  C66  1  0.22126000  0.54168000  0.75172000  1.0
  C  C67  1  0.27874000  0.04167000  0.74828000  1.0
  C  C68  1  0.68676000  0.49158000  0.30286000  1.0
  C  C69  1  0.81324000  0.99158000  0.19714000  1.0
  C  C70  1  0.31324000  0.50842000  0.69714000  1.0
  C  C71  1  0.18676000  0.00842000  0.80286000  1.0
  C  C72  1  0.61752000  0.57179000  0.26165000  1.0
  C  C73  1  0.88248000  0.07179000  0.23835000  1.0
  C  C74  1  0.38248000  0.42821000  0.73835000  1.0
  C  C75  1  0.11752000  0.92821000  0.76165000  1.0
  C  C76  1  0.37795000  0.72246000  0.28750000  1.0
  C  C77  1  0.12205000  0.22246000  0.21250000  1.0
  C  C78  1  0.62205000  0.27754000  0.71250000  1.0
  C  C79  1  0.87795000  0.77754000  0.78750000  1.0
  C  C80  1  0.30713000  0.80187000  0.23661000  1.0
  C  C81  1  0.19287000  0.30187000  0.26339000  1.0
  C  C82  1  0.69287000  0.19813000  0.76339000  1.0
  C  C83  1  0.80713000  0.69813000  0.73661000  1.0
  C  C84  1  0.21207000  0.84171000  0.28157000  1.0
  C  C85  1  0.28793000  0.34172000  0.21843000  1.0
  C  C86  1  0.78793000  0.15828000  0.71843000  1.0
  C  C87  1  0.71207000  0.65828000  0.78157000  1.0
  C  C88  1  0.14443000  0.91577000  0.23566000  1.0
  C  C89  1  0.35557000  0.41577000  0.26433000  1.0
  C  C90  1  0.85557000  0.08423000  0.76434000  1.0
  C  C91  1  0.64443000  0.58423000  0.73566000  1.0
  C  C92  1  0.25655000  0.91328000  0.10477000  1.0
  C  C93  1  0.24345000  0.41328000  0.39523000  1.0
  C  C94  1  0.74345000  0.08672000  0.89523000  1.0
  C  C95  1  0.75655000  0.58672000  0.60478000  1.0
  C  C96  1  0.32853000  0.83900000  0.14571000  1.0
  C  C97  1  0.17147000  0.33900000  0.35429000  1.0
  C  C98  1  0.67148000  0.16100000  0.85429000  1.0
  C  C99  1  0.82853000  0.66100000  0.64571000  1.0
  N  N100  1  0.52492000  0.61074000  0.29639000  1.0
  N  N101  1  0.97508000  0.11074000  0.20361000  1.0
  N  N102  1  0.47508000  0.38926000  0.70361000  1.0
  N  N103  1  0.02492000  0.88926000  0.79639000  1.0
  N  N104  1  0.46828000  0.68560000  0.24373000  1.0
  N  N105  1  0.03172000  0.18560000  0.25627000  1.0
  N  N106  1  0.53172000  0.31440000  0.75627000  1.0
  N  N107  1  0.96828000  0.81440000  0.74373000  1.0
  N  N108  1  0.16584000  0.95167000  0.14863000  1.0
  N  N109  1  0.33416000  0.45167000  0.35137000  1.0
  N  N110  1  0.83416000  0.04833000  0.85137000  1.0
  N  N111  1  0.66584000  0.54832000  0.64863000  1.0
  O  O112  1  0.90672000  0.25616000  0.39742000  1.0
  O  O113  1  0.59328000  0.75616000  0.10258000  1.0
  O  O114  1  0.09328000  0.74384000  0.60258000  1.0
  O  O115  1  0.40672000  0.24384000  0.89742000  1.0
  O  O116  1  0.54243000  0.72216000  0.50376000  1.0
  O  O117  1  0.95757000  0.22216000  0.99624000  1.0
  O  O118  1  0.45757000  0.27784000  0.49624000  1.0
  O  O119  1  0.04243000  0.77784000  0.00377000  1.0
  O  O120  1  0.58615000  0.46828000  0.44757000  1.0
  O  O121  1  0.91384000  0.96828000  0.05243000  1.0
  O  O122  1  0.41384000  0.53171000  0.55243000  1.0
  O  O123  1  0.08616000  0.03172000  0.94757000  1.0
  O  O124  1  0.34718000  0.69421000  0.37038000  1.0
  O  O125  1  0.15282000  0.19421000  0.12963000  1.0
  O  O126  1  0.65282000  0.30579000  0.62962000  1.0
  O  O127  1  0.84718000  0.80579000  0.87037000  1.0
