# generated using pymatgen
data_CdH12C12Br2(NF)2
_symmetry_space_group_name_H-M   'P 1'
_cell_length_a   6.81144000
_cell_length_b   7.40520000
_cell_length_c   14.95590000
_cell_angle_alpha   84.81670000
_cell_angle_beta   80.05140000
_cell_angle_gamma   73.72510000
_symmetry_Int_Tables_number   1
_chemical_formula_structural   CdH12C12Br2(NF)2
_chemical_formula_sum   'Cd2 H24 C24 Br4 N4 F4'
_cell_volume   712.55697661
_cell_formula_units_Z   2
loop_
 _symmetry_equiv_pos_site_id
 _symmetry_equiv_pos_as_xyz
  1  'x, y, z'
loop_
 _atom_site_type_symbol
 _atom_site_label
 _atom_site_symmetry_multiplicity
 _atom_site_fract_x
 _atom_site_fract_y
 _atom_site_fract_z
 _atom_site_occupancy
  Cd  Cd0  1  0.23880000  0.43466000  0.05953000  1.0
  Cd  Cd1  1  0.76122000  0.56536000  0.94047000  1.0
  H  H2  1  0.50378000  0.02903000  0.17426000  1.0
  H  H3  1  0.49624000  0.97098000  0.82574000  1.0
  H  H4  1  0.25288000  0.79701000  0.42808000  1.0
  H  H5  1  0.74717000  0.20301000  0.57192000  1.0
  H  H6  1  0.90099000  0.89266000  0.37986000  1.0
  H  H7  1  0.09905000  0.10735000  0.62015000  1.0
  H  H8  1  0.85229000  0.05411000  0.22965000  1.0
  H  H9  1  0.14774000  0.94589000  0.77035000  1.0
  H  H10  1  0.99828000  0.17338000  0.09398000  1.0
  H  H11  1  0.00174000  0.82662000  0.90602000  1.0
  H  H12  1  0.23944000  0.06253000  0.05459000  1.0
  H  H13  1  0.76057000  0.93748000  0.94541000  1.0
  H  H14  1  0.97905000  0.48695000  0.29921000  1.0
  H  H15  1  0.02092000  0.51310000  0.70079000  1.0
  H  H16  1  0.98968000  0.31784000  0.44985000  1.0
  H  H17  1  0.01025000  0.68217000  0.55014000  1.0
  H  H18  1  0.32646000  0.20324000  0.51250000  1.0
  H  H19  1  0.67346000  0.79672000  0.48750000  1.0
  H  H20  1  0.63693000  0.42428000  0.26991000  1.0
  H  H21  1  0.36305000  0.57568000  0.73011000  1.0
  H  H22  1  0.43473000  0.60330000  0.16624000  1.0
  H  H23  1  0.56528000  0.39669000  0.83377000  1.0
  H  H24  1  0.17994000  0.68551000  0.19288000  1.0
  H  H25  1  0.82007000  0.31451000  0.80712000  1.0
  C  C26  1  0.30659000  0.46554000  0.27492000  1.0
  C  C27  1  0.69339000  0.53446000  0.72508000  1.0
  C  C28  1  0.12485000  0.43524000  0.32596000  1.0
  C  C29  1  0.87512000  0.56477000  0.67403000  1.0
  C  C30  1  0.13142000  0.34123000  0.41081000  1.0
  C  C31  1  0.86853000  0.65876000  0.58918000  1.0
  C  C32  1  0.31696000  0.27644000  0.44627000  1.0
  C  C33  1  0.68297000  0.72353000  0.55372000  1.0
  C  C34  1  0.49342000  0.30813000  0.39335000  1.0
  C  C35  1  0.50653000  0.69182000  0.60665000  1.0
  C  C36  1  0.49480000  0.39954000  0.30819000  1.0
  C  C37  1  0.50517000  0.60043000  0.69182000  1.0
  C  C38  1  0.17351000  0.05393000  0.19242000  1.0
  C  C39  1  0.82652000  0.94608000  0.80758000  1.0
  C  C40  1  0.37033000  0.00050000  0.21866000  1.0
  C  C41  1  0.62969000  0.99951000  0.78134000  1.0
  C  C42  1  0.39057000  0.91041000  0.30322000  1.0
  C  C43  1  0.60946000  0.08961000  0.69677000  1.0
  C  C44  1  0.22681000  0.86973000  0.36295000  1.0
  C  C45  1  0.77323000  0.13029000  0.63705000  1.0
  C  C46  1  0.03265000  0.92363000  0.33535000  1.0
  C  C47  1  0.96738000  0.07638000  0.66465000  1.0
  C  C48  1  0.00463000  0.01494000  0.25072000  1.0
  C  C49  1  0.99540000  0.98507000  0.74928000  1.0
  Br  Br50  1  0.17437000  0.35826000  0.88925000  1.0
  Br  Br51  1  0.82564000  0.64174000  0.11074000  1.0
  Br  Br52  1  0.34225000  0.76476000  0.97109000  1.0
  Br  Br53  1  0.65777000  0.23525000  0.02891000  1.0
  N  N54  1  0.30033000  0.56528000  0.18896000  1.0
  N  N55  1  0.69967000  0.43473000  0.81105000  1.0
  N  N56  1  0.14844000  0.14711000  0.10553000  1.0
  N  N57  1  0.85158000  0.85290000  0.89447000  1.0
  F  F58  1  0.67729000  0.24793000  0.42696000  1.0
  F  F59  1  0.32265000  0.75200000  0.57304000  1.0
  F  F60  1  0.58322000  0.85793000  0.32893000  1.0
  F  F61  1  0.41682000  0.14209000  0.67106000  1.0
