# generated using pymatgen
data_FeH14(C11N6)2
_symmetry_space_group_name_H-M   'P 1'
_cell_length_a   8.73083000
_cell_length_b   16.36920000
_cell_length_c   16.36900000
_cell_angle_alpha   116.90900000
_cell_angle_beta   100.25400000
_cell_angle_gamma   100.23900000
_symmetry_Int_Tables_number   1
_chemical_formula_structural   FeH14(C11N6)2
_chemical_formula_sum   'Fe3 H42 C66 N36'
_cell_volume   1961.82355930
_cell_formula_units_Z   3
loop_
 _symmetry_equiv_pos_site_id
 _symmetry_equiv_pos_as_xyz
  1  'x, y, z'
loop_
 _atom_site_type_symbol
 _atom_site_label
 _atom_site_symmetry_multiplicity
 _atom_site_fract_x
 _atom_site_fract_y
 _atom_site_fract_z
 _atom_site_occupancy
  Fe  Fe0  1  0.50000000  0.50000000  0.00000000  1.0
  Fe  Fe1  1  0.50000000  0.00000000  0.50000000  1.0
  Fe  Fe2  1  0.00000000  0.50000000  0.50000000  1.0
  H  H3  1  0.47858000  0.40356000  0.12589000  1.0
  H  H4  1  0.35262000  0.87400000  0.27758000  1.0
  H  H5  1  0.07502000  0.72231000  0.59636000  1.0
  H  H6  1  0.52142000  0.59644000  0.87411000  1.0
  H  H7  1  0.64737000  0.12600000  0.72243000  1.0
  H  H8  1  0.92498000  0.27769000  0.40364000  1.0
  H  H9  1  0.62618000  0.29412000  0.15212000  1.0
  H  H10  1  0.47413000  0.84782000  0.14199000  1.0
  H  H11  1  0.33209000  0.85799000  0.70580000  1.0
  H  H12  1  0.37382000  0.70588000  0.84788000  1.0
  H  H13  1  0.52587000  0.15218000  0.85801000  1.0
  H  H14  1  0.66791000  0.14201000  0.29420000  1.0
  H  H15  1  0.89667000  0.31059000  0.97210000  1.0
  H  H16  1  0.92451000  0.02809000  0.33870000  1.0
  H  H17  1  0.58599000  0.66152000  0.68973000  1.0
  H  H18  1  0.10333000  0.68941000  0.02790000  1.0
  H  H19  1  0.07549000  0.97191000  0.66130000  1.0
  H  H20  1  0.41401000  0.33847000  0.31027000  1.0
  H  H21  1  0.01966000  0.37221000  0.58311000  1.0
  H  H22  1  0.43672000  0.41692000  0.78919000  1.0
  H  H23  1  0.64727000  0.21089000  0.62774000  1.0
  H  H24  1  0.98034000  0.62779000  0.41689000  1.0
  H  H25  1  0.56328000  0.58308000  0.21081000  1.0
  H  H26  1  0.35273000  0.78911000  0.37226000  1.0
  H  H27  1  0.95102000  0.36277000  0.72043000  1.0
  H  H28  1  0.23071000  0.27955000  0.64239000  1.0
  H  H29  1  0.58813000  0.35763000  0.63705000  1.0
  H  H30  1  0.04899000  0.63723000  0.27957000  1.0
  H  H31  1  0.76930000  0.72045000  0.35761000  1.0
  H  H32  1  0.41187000  0.64237000  0.36295000  1.0
  H  H33  1  0.90609000  0.62854000  0.66363000  1.0
  H  H34  1  0.24279000  0.33635000  0.96499000  1.0
  H  H35  1  0.27749000  0.03500000  0.37130000  1.0
  H  H36  1  0.09390000  0.37146000  0.33637000  1.0
  H  H37  1  0.75721000  0.66365000  0.03501000  1.0
  H  H38  1  0.72251000  0.96500000  0.62870000  1.0
  H  H39  1  0.82510000  0.62608000  0.80063000  1.0
  H  H40  1  0.02464000  0.19935000  0.82550000  1.0
  H  H41  1  0.19875000  0.17444000  0.37374000  1.0
  H  H42  1  0.17490000  0.37392000  0.19937000  1.0
  H  H43  1  0.97537000  0.80065000  0.17450000  1.0
  H  H44  1  0.80125000  0.82556000  0.62626000  1.0
  C  C45  1  0.57272000  0.38257000  0.09191000  1.0
  C  C46  1  0.48077000  0.90804000  0.29063000  1.0
  C  C47  1  0.19014000  0.70933000  0.61743000  1.0
  C  C48  1  0.42728000  0.61743000  0.90809000  1.0
  C  C49  1  0.51923000  0.09196000  0.70937000  1.0
  C  C50  1  0.80985000  0.29067000  0.38257000  1.0
  C  C51  1  0.65508000  0.32200000  0.10565000  1.0
  C  C52  1  0.54945000  0.89432000  0.21637000  1.0
  C  C53  1  0.33307000  0.78364000  0.67799000  1.0
  C  C54  1  0.34492000  0.67800000  0.89435000  1.0
  C  C55  1  0.45054000  0.10567000  0.78363000  1.0
  C  C56  1  0.66693000  0.21636000  0.32201000  1.0
  C  C57  1  0.80252000  0.32983000  0.00676000  1.0
  C  C58  1  0.79569000  0.99335000  0.32321000  1.0
  C  C59  1  0.47262000  0.67693000  0.67038000  1.0
  C  C60  1  0.19748000  0.67017000  0.99324000  1.0
  C  C61  1  0.20430000  0.00665000  0.67679000  1.0
  C  C62  1  0.52737000  0.32307000  0.32962000  1.0
  C  C63  1  0.72151000  0.39002000  0.99067000  1.0
  C  C64  1  0.73075000  0.00937000  0.39945000  1.0
  C  C65  1  0.33146000  0.60063000  0.61011000  1.0
  C  C66  1  0.27849000  0.60998000  0.00933000  1.0
  C  C67  1  0.26925000  0.99063000  0.60055000  1.0
  C  C68  1  0.66854000  0.39937000  0.38989000  1.0
  C  C69  1  0.74920000  0.43104000  0.93153000  1.0
  C  C70  1  0.81762000  0.06850000  0.49959000  1.0
  C  C71  1  0.31810000  0.50046000  0.56906000  1.0
  C  C72  1  0.25081000  0.56896000  0.06847000  1.0
  C  C73  1  0.18238000  0.93150000  0.50041000  1.0
  C  C74  1  0.68190000  0.49953000  0.43094000  1.0
  C  C75  1  0.81496000  0.48156000  0.84235000  1.0
  C  C76  1  0.97268000  0.15766000  0.63926000  1.0
  C  C77  1  0.33329000  0.36075000  0.51835000  1.0
  C  C78  1  0.18504000  0.51844000  0.15765000  1.0
  C  C79  1  0.02732000  0.84234000  0.36074000  1.0
  C  C80  1  0.66666667  0.63925000  0.48165000  1.0
  C  C81  1  0.87765000  0.49231000  0.77039000  1.0
  C  C82  1  0.10743000  0.22961000  0.72200000  1.0
  C  C83  1  0.38516000  0.27799000  0.50750000  1.0
  C  C84  1  0.12235000  0.50769000  0.22961000  1.0
  C  C85  1  0.89257000  0.77040000  0.27800000  1.0
  C  C86  1  0.61484000  0.72201000  0.49249000  1.0
  C  C87  1  0.97792000  0.42778000  0.63336000  1.0
  C  C88  1  0.34483000  0.36662000  0.79449000  1.0
  C  C89  1  0.55002000  0.20555000  0.57212000  1.0
  C  C90  1  0.02208000  0.57222000  0.36664000  1.0
  C  C91  1  0.65517000  0.63338000  0.20551000  1.0
  C  C92  1  0.44998000  0.79445000  0.42788000  1.0
  C  C93  1  0.93933000  0.42251000  0.70961000  1.0
  C  C94  1  0.22992000  0.29033000  0.71295000  1.0
  C  C95  1  0.51672000  0.28705000  0.57731000  1.0
  C  C96  1  0.06067000  0.57749000  0.29039000  1.0
  C  C97  1  0.77009000  0.70967000  0.28706000  1.0
  C  C98  1  0.48328000  0.71295000  0.42269000  1.0
  C  C99  1  0.91296000  0.57035000  0.67794000  1.0
  C  C100  1  0.23531000  0.32202000  0.89249000  1.0
  C  C101  1  0.34248000  0.10751000  0.42950000  1.0
  C  C102  1  0.08705000  0.42965000  0.32206000  1.0
  C  C103  1  0.76469000  0.67798000  0.10751000  1.0
  C  C104  1  0.65752000  0.89249000  0.57050000  1.0
  C  C105  1  0.86843000  0.56875000  0.75423000  1.0
  C  C106  1  0.11440000  0.24573000  0.81458000  1.0
  C  C107  1  0.29947000  0.18539000  0.43106000  1.0
  C  C108  1  0.13157000  0.43125000  0.24577000  1.0
  C  C109  1  0.88561000  0.75427000  0.18542000  1.0
  C  C110  1  0.70054000  0.81461000  0.56894000  1.0
  N  N111  1  0.60411000  0.41692000  0.03381000  1.0
  N  N112  1  0.57016000  0.96618000  0.38312000  1.0
  N  N113  1  0.18715000  0.61688000  0.58315000  1.0
  N  N114  1  0.39590000  0.58308000  0.96619000  1.0
  N  N115  1  0.42984000  0.03382000  0.61688000  1.0
  N  N116  1  0.81285000  0.38312000  0.41684000  1.0
  N  N117  1  0.77004000  0.29492000  0.06356000  1.0
  N  N118  1  0.70651000  0.93652000  0.23146000  1.0
  N  N119  1  0.47506000  0.76864000  0.70521000  1.0
  N  N120  1  0.22996000  0.70507000  0.93644000  1.0
  N  N121  1  0.29349000  0.06348000  0.76854000  1.0
  N  N122  1  0.52493000  0.23136000  0.29479000  1.0
  N  N123  1  0.66229000  0.49276000  0.93322000  1.0
  N  N124  1  0.72906000  0.06690000  0.55966000  1.0
  N  N125  1  0.16946000  0.44046000  0.50727000  1.0
  N  N126  1  0.33771000  0.50724000  0.06678000  1.0
  N  N127  1  0.27094000  0.93311000  0.44035000  1.0
  N  N128  1  0.83054000  0.55954000  0.49273000  1.0
  N  N129  1  0.70518000  0.52670000  0.87710000  1.0
  N  N130  1  0.82811000  0.12298000  0.64969000  1.0
  N  N131  1  0.17838000  0.35040000  0.47320000  1.0
  N  N132  1  0.29482000  0.47330000  0.12290000  1.0
  N  N133  1  0.17189000  0.87702000  0.35031000  1.0
  N  N134  1  0.82162000  0.64960000  0.52680000  1.0
  N  N135  1  0.84579000  0.42096000  0.87441000  1.0
  N  N136  1  0.97139000  0.12562000  0.54663000  1.0
  N  N137  1  0.42473000  0.45338000  0.57909000  1.0
  N  N138  1  0.15422000  0.57904000  0.12559000  1.0
  N  N139  1  0.02861000  0.87438000  0.45337000  1.0
  N  N140  1  0.57527000  0.54662000  0.42091000  1.0
  N  N141  1  0.96279000  0.49968000  0.61576000  1.0
  N  N142  1  0.34725000  0.38419000  0.88397000  1.0
  N  N143  1  0.46299000  0.11604000  0.50022000  1.0
  N  N144  1  0.03720000  0.50032000  0.38423000  1.0
  N  N145  1  0.65275000  0.61581000  0.11603000  1.0
  N  N146  1  0.53701000  0.88396000  0.49978000  1.0
