# generated using pymatgen
data_CoNiH8(C7N3)2
_symmetry_space_group_name_H-M   'P 1'
_cell_length_a   6.53880000
_cell_length_b   8.97193052
_cell_length_c   11.48230000
_cell_angle_alpha   89.24082425
_cell_angle_beta   87.89040000
_cell_angle_gamma   68.66310803
_symmetry_Int_Tables_number   1
_chemical_formula_structural   CoNiH8(C7N3)2
_chemical_formula_sum   'Co2 Ni2 H16 C28 N12'
_cell_volume   627.01982131
_cell_formula_units_Z   2
loop_
 _symmetry_equiv_pos_site_id
 _symmetry_equiv_pos_as_xyz
  1  'x, y, z'
loop_
 _atom_site_type_symbol
 _atom_site_label
 _atom_site_symmetry_multiplicity
 _atom_site_fract_x
 _atom_site_fract_y
 _atom_site_fract_z
 _atom_site_occupancy
  Co  Co0  1  0.63508000  0.72950000  0.24994000  1.0
  Co  Co1  1  0.36500000  0.27015000  0.75007000  1.0
  Ni  Ni2  1  0.99954000  0.99993000  0.99999000  1.0
  Ni  Ni3  1  0.00042000  0.99978000  0.50001000  1.0
  H  H4  1  0.78413000  0.14711000  0.29269000  1.0
  H  H5  1  0.06883000  0.14732000  0.20713000  1.0
  H  H6  1  0.21716000  0.85293000  0.70812000  1.0
  H  H7  1  0.93024000  0.85278000  0.79201000  1.0
  H  H8  1  0.44108000  0.17115000  0.40665000  1.0
  H  H9  1  0.38775000  0.17175000  0.09329000  1.0
  H  H10  1  0.55962000  0.82874000  0.59379000  1.0
  H  H11  1  0.61200000  0.82844000  0.90636000  1.0
  H  H12  1  0.16766000  0.44759000  0.45082000  1.0
  H  H13  1  0.38441000  0.44838000  0.04907000  1.0
  H  H14  1  0.83119000  0.55248000  0.54786000  1.0
  H  H15  1  0.61657000  0.55209000  0.95226000  1.0
  H  H16  1  0.25171000  0.68221000  0.38502000  1.0
  H  H17  1  0.06564000  0.68271000  0.11484000  1.0
  H  H18  1  0.74670000  0.31774000  0.61328000  1.0
  H  H19  1  0.93568000  0.31750000  0.88686000  1.0
  C  C20  1  0.70250000  0.40241000  0.28315000  1.0
  C  C21  1  0.89499000  0.40256000  0.21665000  1.0
  C  C22  1  0.29751000  0.59758000  0.71675000  1.0
  C  C23  1  0.10511000  0.59749000  0.78342000  1.0
  C  C24  1  0.66485000  0.26422000  0.31676000  1.0
  C  C25  1  0.07097000  0.26448000  0.18311000  1.0
  C  C26  1  0.33564000  0.73578000  0.68351000  1.0
  C  C27  1  0.92878000  0.73562000  0.81661000  1.0
  C  C28  1  0.47262000  0.27740000  0.37888000  1.0
  C  C29  1  0.24992000  0.27791000  0.12104000  1.0
  C  C30  1  0.52760000  0.72254000  0.62113000  1.0
  C  C31  1  0.75012000  0.72227000  0.87897000  1.0
  C  C32  1  0.32159000  0.43010000  0.40344000  1.0
  C  C33  1  0.24812000  0.43067000  0.09645000  1.0
  C  C34  1  0.67778000  0.56988000  0.59572000  1.0
  C  C35  1  0.75257000  0.56957000  0.90442000  1.0
  C  C36  1  0.36820000  0.56308000  0.36744000  1.0
  C  C37  1  0.06842000  0.56349000  0.13241000  1.0
  C  C38  1  0.63086000  0.43693000  0.63148000  1.0
  C  C39  1  0.93240000  0.43670000  0.86867000  1.0
  C  C40  1  0.25009000  0.85353000  0.06192000  1.0
  C  C41  1  0.89607000  0.85339000  0.43802000  1.0
  C  C42  1  0.74930000  0.14669000  0.93783000  1.0
  C  C43  1  0.10404000  0.14664000  0.56216000  1.0
  C  C44  1  0.23532000  0.93798000  0.39302000  1.0
  C  C45  1  0.82616000  0.93825000  0.10692000  1.0
  C  C46  1  0.76533000  0.06148000  0.60699000  1.0
  C  C47  1  0.17317000  0.06156000  0.89315000  1.0
  N  N48  1  0.55620000  0.55191000  0.30992000  1.0
  N  N49  1  0.89166000  0.55212000  0.18987000  1.0
  N  N50  1  0.44334000  0.44808000  0.68956000  1.0
  N  N51  1  0.10873000  0.44797000  0.81062000  1.0
  N  N52  1  0.40799000  0.76183000  0.10381000  1.0
  N  N53  1  0.82985000  0.76169000  0.39602000  1.0
  N  N54  1  0.59201000  0.23872000  0.89567000  1.0
  N  N55  1  0.16941000  0.23864000  0.60442000  1.0
  N  N56  1  0.38987000  0.87949000  0.33072000  1.0
  N  N57  1  0.73008000  0.87969000  0.16921000  1.0
  N  N58  1  0.61035000  0.11968000  0.66907000  1.0
  N  N59  1  0.27010000  0.11968000  0.83104000  1.0
