# generated using pymatgen
data_MnH10(C3N2)4
_symmetry_space_group_name_H-M   'P 1'
_cell_length_a   8.57504000
_cell_length_b   11.00480000
_cell_length_c   11.38730000
_cell_angle_alpha   72.74990000
_cell_angle_beta   71.30400000
_cell_angle_gamma   89.04300000
_symmetry_Int_Tables_number   1
_chemical_formula_structural   MnH10(C3N2)4
_chemical_formula_sum   'Mn3 H30 C36 N24'
_cell_volume   968.44003033
_cell_formula_units_Z   3
loop_
 _symmetry_equiv_pos_site_id
 _symmetry_equiv_pos_as_xyz
  1  'x, y, z'
loop_
 _atom_site_type_symbol
 _atom_site_label
 _atom_site_symmetry_multiplicity
 _atom_site_fract_x
 _atom_site_fract_y
 _atom_site_fract_z
 _atom_site_occupancy
  Mn  Mn0  1  0.11971000  0.11300000  0.36849000  1.0
  Mn  Mn1  1  0.87872000  0.88536000  0.63326000  1.0
  Mn  Mn2  1  0.50192000  0.50164000  0.99849000  1.0
  H  H3  1  0.88340000  0.26191000  0.22189000  1.0
  H  H4  1  0.11707000  0.73764000  0.77851000  1.0
  H  H5  1  0.71137000  0.44598000  0.21777000  1.0
  H  H6  1  0.28891000  0.55352000  0.78247000  1.0
  H  H7  1  0.82134000  0.47439000  0.55470000  1.0
  H  H8  1  0.17938000  0.52588000  0.44509000  1.0
  H  H9  1  0.99588000  0.29438000  0.53989000  1.0
  H  H10  1  0.00463000  0.70568000  0.46030000  1.0
  H  H11  1  0.65648000  0.62589000  0.47198000  1.0
  H  H12  1  0.34380000  0.37387000  0.52803000  1.0
  H  H13  1  0.58353000  0.61472000  0.22667000  1.0
  H  H14  1  0.41639000  0.38478000  0.77358000  1.0
  H  H15  1  0.37955000  0.97916000  0.48048000  1.0
  H  H16  1  0.62086000  0.02056000  0.51957000  1.0
  H  H17  1  0.55105000  0.79635000  0.47604000  1.0
  H  H18  1  0.44941000  0.20337000  0.52385000  1.0
  H  H19  1  0.40823000  0.76621000  0.15281000  1.0
  H  H20  1  0.59150000  0.23320000  0.84757000  1.0
  H  H21  1  0.24899000  0.95723000  0.16746000  1.0
  H  H22  1  0.75100000  0.04238000  0.83282000  1.0
  H  H23  1  0.12940000  0.52147000  0.11741000  1.0
  H  H24  1  0.87251000  0.47919000  0.88211000  1.0
  H  H25  1  0.92307000  0.68258000  0.13812000  1.0
  H  H26  1  0.07728000  0.31716000  0.86146000  1.0
  H  H27  1  0.30959000  0.96976000  0.85876000  1.0
  H  H28  1  0.68887000  0.03135000  0.14062000  1.0
  H  H29  1  0.49834000  0.79906000  0.85109000  1.0
  H  H30  1  0.50148000  0.20303000  0.14822000  1.0
  H  H31  1  0.85086000  0.89806000  0.06830000  1.0
  H  H32  1  0.14800000  0.10177000  0.93167000  1.0
  C  C33  1  0.86733000  0.31298000  0.29317000  1.0
  C  C34  1  0.13312000  0.68671000  0.70710000  1.0
  C  C35  1  0.77091000  0.41558000  0.29191000  1.0
  C  C36  1  0.22944000  0.58407000  0.70829000  1.0
  C  C37  1  0.75276000  0.47918000  0.38580000  1.0
  C  C38  1  0.24761000  0.52060000  0.61429000  1.0
  C  C39  1  0.83361000  0.43147000  0.47769000  1.0
  C  C40  1  0.16692000  0.56855000  0.52231000  1.0
  C  C41  1  0.93015000  0.32976000  0.47056000  1.0
  C  C42  1  0.07037000  0.67024000  0.52959000  1.0
  C  C43  1  0.65895000  0.58957000  0.39205000  1.0
  C  C44  1  0.34127000  0.41015000  0.60801000  1.0
  C  C45  1  0.58201000  0.65010000  0.30696000  1.0
  C  C46  1  0.41809000  0.34950000  0.69318000  1.0
  C  C47  1  0.39183000  0.93002000  0.40816000  1.0
  C  C48  1  0.60844000  0.06964000  0.59195000  1.0
  C  C49  1  0.48546000  0.82654000  0.40592000  1.0
  C  C50  1  0.51481000  0.17312000  0.59413000  1.0
  C  C51  1  0.49298000  0.76255000  0.31391000  1.0
  C  C52  1  0.50715000  0.23705000  0.68623000  1.0
  C  C53  1  0.40661000  0.81183000  0.22603000  1.0
  C  C54  1  0.59336000  0.18770000  0.77422000  1.0
  C  C55  1  0.31702000  0.91712000  0.23422000  1.0
  C  C56  1  0.68300000  0.08245000  0.76602000  1.0
  C  C57  1  0.16401000  0.62206000  0.06220000  1.0
  C  C58  1  0.83698000  0.37866000  0.93726000  1.0
  C  C59  1  0.04951000  0.71194000  0.07298000  1.0
  C  C60  1  0.95071000  0.28827000  0.92650000  1.0
  C  C61  1  0.09813000  0.84183000  0.00292000  1.0
  C  C62  1  0.90116000  0.15852000  0.99674000  1.0
  C  C63  1  0.26366000  0.87221000  0.92004000  1.0
  C  C64  1  0.73549000  0.12879000  0.07939000  1.0
  C  C65  1  0.37010000  0.77613000  0.91464000  1.0
  C  C66  1  0.62979000  0.22538000  0.08470000  1.0
  C  C67  1  0.97955000  0.93631000  0.01936000  1.0
  C  C68  1  0.01927000  0.06368000  0.98060000  1.0
  N  N69  1  0.16335000  0.17752000  0.15822000  1.0
  N  N70  1  0.83664000  0.82155000  0.84040000  1.0
  N  N71  1  0.24040000  0.27175000  0.07962000  1.0
  N  N72  1  0.75887000  0.72783000  0.91979000  1.0
  N  N73  1  0.31595000  0.36530000  0.99859000  1.0
  N  N74  1  0.68239000  0.63469000  0.00137000  1.0
  N  N75  1  0.31018000  0.24580000  0.36853000  1.0
  N  N76  1  0.69327000  0.75420000  0.63157000  1.0
  N  N77  1  0.35187000  0.34844000  0.28993000  1.0
  N  N78  1  0.64770000  0.65211000  0.71070000  1.0
  N  N79  1  0.39356000  0.45141000  0.21302000  1.0
  N  N80  1  0.60209000  0.54971000  0.78833000  1.0
  N  N81  1  0.07513000  0.03078000  0.57971000  1.0
  N  N82  1  0.92407000  0.96855000  0.42088000  1.0
  N  N83  1  0.09356000  0.09569000  0.64413000  1.0
  N  N84  1  0.90591000  0.90374000  0.35632000  1.0
  N  N85  1  0.11226000  0.16119000  0.70317000  1.0
  N  N86  1  0.88726000  0.83809000  0.29740000  1.0
  N  N87  1  0.94892000  0.27068000  0.37938000  1.0
  N  N88  1  0.05153000  0.72917000  0.62091000  1.0
  N  N89  1  0.32344000  0.65230000  0.98533000  1.0
  N  N90  1  0.67743000  0.34911000  0.01408000  1.0
  N  N91  1  0.30776000  0.97581000  0.32450000  1.0
  N  N92  1  0.69243000  0.02383000  0.67567000  1.0
