# generated using pymatgen
data_CdH15C7S2N5
_symmetry_space_group_name_H-M   'P 1'
_cell_length_a   7.66026000
_cell_length_b   11.74420000
_cell_length_c   14.43790000
_cell_angle_alpha   90.00000000
_cell_angle_beta   90.00010000
_cell_angle_gamma   90.00000000
_symmetry_Int_Tables_number   1
_chemical_formula_structural   CdH15C7S2N5
_chemical_formula_sum   'Cd4 H60 C28 S8 N20'
_cell_volume   1298.88582849
_cell_formula_units_Z   4
loop_
 _symmetry_equiv_pos_site_id
 _symmetry_equiv_pos_as_xyz
  1  'x, y, z'
loop_
 _atom_site_type_symbol
 _atom_site_label
 _atom_site_symmetry_multiplicity
 _atom_site_fract_x
 _atom_site_fract_y
 _atom_site_fract_z
 _atom_site_occupancy
  Cd  Cd0  1  0.40584000  0.55918000  0.24311000  1.0
  Cd  Cd1  1  0.09416000  0.44082000  0.74311000  1.0
  Cd  Cd2  1  0.90584000  0.94082000  0.75689000  1.0
  Cd  Cd3  1  0.59416000  0.05918000  0.25689000  1.0
  H  H4  1  0.61663000  0.76214000  0.30490000  1.0
  H  H5  1  0.88337000  0.23786000  0.80490000  1.0
  H  H6  1  0.11663000  0.73786000  0.69510000  1.0
  H  H7  1  0.38337000  0.26214000  0.19510000  1.0
  H  H8  1  0.65045000  0.65660000  0.37812000  1.0
  H  H9  1  0.84955000  0.34340000  0.87812000  1.0
  H  H10  1  0.15045000  0.84340000  0.62188000  1.0
  H  H11  1  0.34955000  0.15660000  0.12188000  1.0
  H  H12  1  0.83657000  0.55985000  0.27777000  1.0
  H  H13  1  0.66342000  0.44015000  0.77777000  1.0
  H  H14  1  0.33658000  0.94015000  0.72223000  1.0
  H  H15  1  0.16343000  0.05985000  0.22223000  1.0
  H  H16  1  0.90667000  0.70421000  0.27255000  1.0
  H  H17  1  0.59333000  0.29579000  0.77255000  1.0
  H  H18  1  0.40667000  0.79579000  0.72745000  1.0
  H  H19  1  0.09333000  0.20421000  0.22745000  1.0
  H  H20  1  0.70580000  0.73323000  0.13533000  1.0
  H  H21  1  0.79420000  0.26677000  0.63533000  1.0
  H  H22  1  0.20580000  0.76677000  0.86467000  1.0
  H  H23  1  0.29420000  0.23323000  0.36467000  1.0
  H  H24  1  0.88252000  0.63886000  0.11492000  1.0
  H  H25  1  0.61748000  0.36114000  0.61492000  1.0
  H  H26  1  0.38252000  0.86114000  0.88508000  1.0
  H  H27  1  0.11748000  0.13886000  0.38508000  1.0
  H  H28  1  0.69299000  0.48415000  0.13166000  1.0
  H  H29  1  0.80701000  0.51586000  0.63166000  1.0
  H  H30  1  0.19299000  0.01585000  0.86834000  1.0
  H  H31  1  0.30701000  0.98415000  0.36834000  1.0
  H  H32  1  0.68923000  0.58757000  0.98473000  1.0
  H  H33  1  0.81077000  0.41243000  0.48473000  1.0
  H  H34  1  0.18923000  0.91243000  0.01527000  1.0
  H  H35  1  0.31077000  0.08757000  0.51527000  1.0
  H  H36  1  0.49909000  0.65642000  0.02694000  1.0
  H  H37  1  0.00091000  0.34358000  0.52694000  1.0
  H  H38  1  0.99909000  0.84358000  0.97307000  1.0
  H  H39  1  0.50092000  0.15642000  0.47306000  1.0
  H  H40  1  0.54635000  0.40166000  0.98623000  1.0
  H  H41  1  0.95365000  0.59834000  0.48623000  1.0
  H  H42  1  0.04635000  0.09834000  0.01377000  1.0
  H  H43  1  0.45365000  0.90166000  0.51377000  1.0
  H  H44  1  0.37234000  0.45393000  0.05429000  1.0
  H  H45  1  0.12766000  0.54607000  0.55429000  1.0
  H  H46  1  0.87234000  0.04607000  0.94571000  1.0
  H  H47  1  0.62766000  0.95394000  0.44571000  1.0
  H  H48  1  0.27303000  0.57811000  0.92481000  1.0
  H  H49  1  0.22697000  0.42189000  0.42481000  1.0
  H  H50  1  0.77303000  0.92189000  0.07519000  1.0
  H  H51  1  0.72697000  0.07811000  0.57519000  1.0
  H  H52  1  0.44476000  0.52954000  0.85413000  1.0
  H  H53  1  0.05524000  0.47046000  0.35413000  1.0
  H  H54  1  0.94476000  0.97046000  0.14587000  1.0
  H  H55  1  0.55524000  0.02954000  0.64587000  1.0
  H  H56  1  0.15879000  0.39079000  0.93155000  1.0
  H  H57  1  0.34121000  0.60921000  0.43155000  1.0
  H  H58  1  0.65879000  0.10921000  0.06845000  1.0
  H  H59  1  0.84121000  0.89079000  0.56845000  1.0
  H  H60  1  0.32239000  0.33697000  0.87326000  1.0
  H  H61  1  0.17761000  0.66303000  0.37326000  1.0
  H  H62  1  0.82239000  0.16303000  0.12674000  1.0
  H  H63  1  0.67761000  0.83697000  0.62674000  1.0
  C  C64  1  0.35184000  0.82655000  0.17616000  1.0
  C  C65  1  0.14815000  0.17345000  0.67616000  1.0
  C  C66  1  0.85184000  0.67345000  0.82384000  1.0
  C  C67  1  0.64816000  0.32655000  0.32384000  1.0
  C  C68  1  0.07559000  0.40465000  0.13443000  1.0
  C  C69  1  0.42441000  0.59535000  0.63443000  1.0
  C  C70  1  0.57559000  0.09535000  0.86557000  1.0
  C  C71  1  0.92441000  0.90465000  0.36557000  1.0
  C  C72  1  0.79721000  0.64639000  0.25753000  1.0
  C  C73  1  0.70279000  0.35361000  0.75753000  1.0
  C  C74  1  0.29721000  0.85361000  0.74247000  1.0
  C  C75  1  0.20279000  0.14639000  0.24247000  1.0
  C  C76  1  0.76000000  0.64954000  0.15404000  1.0
  C  C77  1  0.74000000  0.35047000  0.65404000  1.0
  C  C78  1  0.26000000  0.85047000  0.84596000  1.0
  C  C79  1  0.24000000  0.14954000  0.34596000  1.0
  C  C80  1  0.57485000  0.57690000  0.03043000  1.0
  C  C81  1  0.92515000  0.42310000  0.53043000  1.0
  C  C82  1  0.07485000  0.92310000  0.96957000  1.0
  C  C83  1  0.42515000  0.07690000  0.46957000  1.0
  C  C84  1  0.46377000  0.47706000  0.99864000  1.0
  C  C85  1  0.03623000  0.52295000  0.49864000  1.0
  C  C86  1  0.96377000  0.02295000  0.00136000  1.0
  C  C87  1  0.53623000  0.97705000  0.50136000  1.0
  C  C88  1  0.35902000  0.50482000  0.91177000  1.0
  C  C89  1  0.14097000  0.49518000  0.41177000  1.0
  C  C90  1  0.85902000  0.99518000  0.08823000  1.0
  C  C91  1  0.64098000  0.00482000  0.58824000  1.0
  S  S92  1  0.21740000  0.72366000  0.15071000  1.0
  S  S93  1  0.28260000  0.27634000  0.65071000  1.0
  S  S94  1  0.71740000  0.77634000  0.84929000  1.0
  S  S95  1  0.78260000  0.22366000  0.34929000  1.0
  S  S96  1  0.93072000  0.35412000  0.06286000  1.0
  S  S97  1  0.56928000  0.64587000  0.56286000  1.0
  S  S98  1  0.43072000  0.14587000  0.93714000  1.0
  S  S99  1  0.06928000  0.85413000  0.43714000  1.0
  N  N100  1  0.45195000  0.90008000  0.19434000  1.0
  N  N101  1  0.04804000  0.09992000  0.69434000  1.0
  N  N102  1  0.95196000  0.59992000  0.80566000  1.0
  N  N103  1  0.54804000  0.40008000  0.30566000  1.0
  N  N104  1  0.18291000  0.43893000  0.18674000  1.0
  N  N105  1  0.31709000  0.56107000  0.68674000  1.0
  N  N106  1  0.68291000  0.06107000  0.81326000  1.0
  N  N107  1  0.81709000  0.93893000  0.31326000  1.0
  N  N108  1  0.63805000  0.67621000  0.30949000  1.0
  N  N109  1  0.86195000  0.32379000  0.80949000  1.0
  N  N110  1  0.13805000  0.82379000  0.69051000  1.0
  N  N111  1  0.36195000  0.17621000  0.19051000  1.0
  N  N112  1  0.63173000  0.56196000  0.12717000  1.0
  N  N113  1  0.86827000  0.43804000  0.62717000  1.0
  N  N114  1  0.13173000  0.93804000  0.87283000  1.0
  N  N115  1  0.36827000  0.06196000  0.37283000  1.0
  N  N116  1  0.24839000  0.40940000  0.88069000  1.0
  N  N117  1  0.25161000  0.59060000  0.38069000  1.0
  N  N118  1  0.74839000  0.09060000  0.11931000  1.0
  N  N119  1  0.75161000  0.90940000  0.61931000  1.0
