# generated using pymatgen
data_BiH9C5SNClO2
_symmetry_space_group_name_H-M   'P 1'
_cell_length_a   6.57148000
_cell_length_b   7.23758000
_cell_length_c   10.12510000
_cell_angle_alpha   89.99950000
_cell_angle_beta   74.58000000
_cell_angle_gamma   89.99980000
_symmetry_Int_Tables_number   1
_chemical_formula_structural   BiH9C5SNClO2
_chemical_formula_sum   'Bi2 H18 C10 S2 N2 Cl2 O4'
_cell_volume   464.23097661
_cell_formula_units_Z   2
loop_
 _symmetry_equiv_pos_site_id
 _symmetry_equiv_pos_as_xyz
  1  'x, y, z'
loop_
 _atom_site_type_symbol
 _atom_site_label
 _atom_site_symmetry_multiplicity
 _atom_site_fract_x
 _atom_site_fract_y
 _atom_site_fract_z
 _atom_site_occupancy
  Bi  Bi0  1  0.40333000  0.49865000  0.94257000  1.0
  Bi  Bi1  1  0.59668000  0.99866000  0.05742000  1.0
  H  H2  1  0.29090000  0.32423000  0.71422000  1.0
  H  H3  1  0.70909000  0.82423000  0.28578000  1.0
  H  H4  1  0.09822000  0.27128000  0.85415000  1.0
  H  H5  1  0.90179000  0.77128000  0.14586000  1.0
  H  H6  1  0.95219000  0.48995000  0.72027000  1.0
  H  H7  1  0.04780000  0.98995000  0.27973000  1.0
  H  H8  1  0.03100000  0.92654000  0.76670000  1.0
  H  H9  1  0.96900000  0.42654000  0.23331000  1.0
  H  H10  1  0.19294000  0.94979000  0.59645000  1.0
  H  H11  1  0.80705000  0.44978000  0.40355000  1.0
  H  H12  1  0.95514000  0.81810000  0.62933000  1.0
  H  H13  1  0.04485000  0.31809000  0.37067000  1.0
  H  H14  1  0.40726000  0.69708000  0.47402000  1.0
  H  H15  1  0.59273000  0.19708000  0.52597000  1.0
  H  H16  1  0.41293000  0.47607000  0.54577000  1.0
  H  H17  1  0.58706000  0.97607000  0.45423000  1.0
  H  H18  1  0.18574000  0.55090000  0.49508000  1.0
  H  H19  1  0.81425000  0.05090000  0.50493000  1.0
  C  C20  1  0.94501000  0.61081000  0.91375000  1.0
  C  C21  1  0.05500000  0.11081000  0.08625000  1.0
  C  C22  1  0.06815000  0.53425000  0.77467000  1.0
  C  C23  1  0.93185000  0.03424000  0.22533000  1.0
  C  C24  1  0.21510000  0.68011000  0.68400000  1.0
  C  C25  1  0.78490000  0.18010000  0.31600000  1.0
  C  C26  1  0.09056000  0.85427000  0.66901000  1.0
  C  C27  1  0.90944000  0.35427000  0.33099000  1.0
  C  C28  1  0.31032000  0.59467000  0.54251000  1.0
  C  C29  1  0.68968000  0.09466000  0.45749000  1.0
  S  S30  1  0.43682000  0.74717000  0.75663000  1.0
  S  S31  1  0.56318000  0.24716000  0.24336000  1.0
  N  N32  1  0.19236000  0.37700000  0.80160000  1.0
  N  N33  1  0.80764000  0.87700000  0.19840000  1.0
  Cl  Cl34  1  0.66574000  0.23725000  0.79820000  1.0
  Cl  Cl35  1  0.33427000  0.73725000  0.20178000  1.0
  O  O36  1  0.03545000  0.60407000  0.01106000  1.0
  O  O37  1  0.96457000  0.10408000  0.98894000  1.0
  O  O38  1  0.76344000  0.67953000  0.92690000  1.0
  O  O39  1  0.23656000  0.17952000  0.07310000  1.0
