# generated using pymatgen
data_CdH18C22(NO)4
_symmetry_space_group_name_H-M   'P 1'
_cell_length_a   7.55168000
_cell_length_b   8.80831000
_cell_length_c   16.15982203
_cell_angle_alpha   104.78321919
_cell_angle_beta   102.29107940
_cell_angle_gamma   94.25870000
_symmetry_Int_Tables_number   1
_chemical_formula_structural   CdH18C22(NO)4
_chemical_formula_sum   'Cd2 H36 C44 N8 O8'
_cell_volume   1006.05808677
_cell_formula_units_Z   2
loop_
 _symmetry_equiv_pos_site_id
 _symmetry_equiv_pos_as_xyz
  1  'x, y, z'
loop_
 _atom_site_type_symbol
 _atom_site_label
 _atom_site_symmetry_multiplicity
 _atom_site_fract_x
 _atom_site_fract_y
 _atom_site_fract_z
 _atom_site_occupancy
  Cd  Cd0  1  0.53428000  0.84919000  0.72143000  1.0
  Cd  Cd1  1  0.31249000  0.12769000  0.27862000  1.0
  H  H2  1  0.52782000  0.14082000  0.12601000  1.0
  H  H3  1  0.90196000  0.01519000  0.87421000  1.0
  H  H4  1  0.54155000  0.26128000  0.05314000  1.0
  H  H5  1  0.98820000  0.20852000  0.94702000  1.0
  H  H6  1  0.33058000  0.14933000  0.04726000  1.0
  H  H7  1  0.78294000  0.10262000  0.95277000  1.0
  H  H8  1  0.35351000  0.52726000  0.35005000  1.0
  H  H9  1  0.50357000  0.17754000  0.65010000  1.0
  H  H10  1  0.34124000  0.71785000  0.23609000  1.0
  H  H11  1  0.60466000  0.48212000  0.76417000  1.0
  H  H12  1  0.26801000  0.35687000  0.97751000  1.0
  H  H13  1  0.78981000  0.37941000  0.02245000  1.0
  H  H14  1  0.30084000  0.47081000  0.85501000  1.0
  H  H15  1  0.94550000  0.61549000  0.14511000  1.0
  H  H16  1  0.58480000  0.90364000  0.04157000  1.0
  H  H17  1  0.04348000  0.86214000  0.95875000  1.0
  H  H18  1  0.56063000  0.79096000  0.16519000  1.0
  H  H19  1  0.89560000  0.62605000  0.83496000  1.0
  H  H20  1  0.26149000  0.03404000  0.79917000  1.0
  H  H21  1  0.96269000  0.23550000  0.20070000  1.0
  H  H22  1  0.02539000  0.97397000  0.74720000  1.0
  H  H23  1  0.77815000  0.22713000  0.25250000  1.0
  H  H24  1  0.11907000  0.17686000  0.77261000  1.0
  H  H25  1  0.84671000  0.40476000  0.22727000  1.0
  H  H26  1  0.35373000  0.82692000  0.50509000  1.0
  H  H27  1  0.34763000  0.32185000  0.49480000  1.0
  H  H28  1  0.15212000  0.06001000  0.46432000  1.0
  H  H29  1  0.18692000  0.59578000  0.53571000  1.0
  H  H30  1  0.26209000  0.37762000  0.70831000  1.0
  H  H31  1  0.05412000  0.66986000  0.29166000  1.0
  H  H32  1  0.10118000  0.61381000  0.73199000  1.0
  H  H33  1  0.86960000  0.88237000  0.26793000  1.0
  H  H34  1  0.63578000  0.35485000  0.52718000  1.0
  H  H35  1  0.60823000  0.82843000  0.47267000  1.0
  H  H36  1  0.79108000  0.11398000  0.50743000  1.0
  H  H37  1  0.78309000  0.60718000  0.49250000  1.0
  C  C38  1  0.45638000  0.22013000  0.09233000  1.0
  C  C39  1  0.86399000  0.12818000  0.90776000  1.0
  C  C40  1  0.41642000  0.35439000  0.15935000  1.0
  C  C41  1  0.75727000  0.19536000  0.84066000  1.0
  C  C42  1  0.36926000  0.49973000  0.28291000  1.0
  C  C43  1  0.58645000  0.21716000  0.71719000  1.0
  C  C44  1  0.36913000  0.59687000  0.22924000  1.0
  C  C45  1  0.63967000  0.36798000  0.77091000  1.0
  C  C46  1  0.41504000  0.56546000  0.07892000  1.0
  C  C47  1  0.83600000  0.48669000  0.92116000  1.0
  C  C48  1  0.34116000  0.47528000  0.99166000  1.0
  C  C49  1  0.84925000  0.48362000  0.00840000  1.0
  C  C50  1  0.35817000  0.53970000  0.92311000  1.0
  C  C51  1  0.93486000  0.61643000  0.07703000  1.0
  C  C52  1  0.44475000  0.69471000  0.94058000  1.0
  C  C53  1  0.00402000  0.75401000  0.05959000  1.0
  C  C54  1  0.51609000  0.78384000  0.02829000  1.0
  C  C55  1  0.98781000  0.75556000  0.97190000  1.0
  C  C56  1  0.50332000  0.71997000  0.09736000  1.0
  C  C57  1  0.90603000  0.62275000  0.90277000  1.0
  C  C58  1  0.46316000  0.76553000  0.86737000  1.0
  C  C59  1  0.09545000  0.89811000  0.13273000  1.0
  C  C60  1  0.14694000  0.05462000  0.75043000  1.0
  C  C61  1  0.89657000  0.30464000  0.24941000  1.0
  C  C62  1  0.18891000  0.02038000  0.66245000  1.0
  C  C63  1  0.02613000  0.35831000  0.33745000  1.0
  C  C64  1  0.28365000  0.90768000  0.54509000  1.0
  C  C65  1  0.23751000  0.36261000  0.45487000  1.0
  C  C66  1  0.18420000  0.02164000  0.52364000  1.0
  C  C67  1  0.15968000  0.49815000  0.47633000  1.0
  C  C68  1  0.12254000  0.37141000  0.67060000  1.0
  C  C69  1  0.95211000  0.70138000  0.32935000  1.0
  C  C70  1  0.03343000  0.23042000  0.60859000  1.0
  C  C71  1  0.92463000  0.62233000  0.39130000  1.0
  C  C72  1  0.03250000  0.50450000  0.68309000  1.0
  C  C73  1  0.84972000  0.82205000  0.31687000  1.0
  C  C74  1  0.85523000  0.49857000  0.63264000  1.0
  C  C75  1  0.72270000  0.86655000  0.36726000  1.0
  C  C76  1  0.77244000  0.35885000  0.56723000  1.0
  C  C77  1  0.70508000  0.79234000  0.43271000  1.0
  C  C78  1  0.85967000  0.22397000  0.55557000  1.0
  C  C79  1  0.80383000  0.66902000  0.44436000  1.0
  C  C80  1  0.74936000  0.63500000  0.65396000  1.0
  C  C81  1  0.59575000  0.98170000  0.34576000  1.0
  N  N82  1  0.39811000  0.35017000  0.23921000  1.0
  N  N83  1  0.65926000  0.11129000  0.76082000  1.0
  N  N84  1  0.39865000  0.50455000  0.15092000  1.0
  N  N85  1  0.74754000  0.35391000  0.84917000  1.0
  N  N86  1  0.28520000  0.90694000  0.63082000  1.0
  N  N87  1  0.15369000  0.27630000  0.36910000  1.0
  N  N88  1  0.12548000  0.09295000  0.59837000  1.0
  N  N89  1  0.02668000  0.49497000  0.40153000  1.0
  O  O90  1  0.50543000  0.91369000  0.88369000  1.0
  O  O91  1  0.12062000  0.03002000  0.11639000  1.0
  O  O92  1  0.43681000  0.67008000  0.78933000  1.0
  O  O93  1  0.14774000  0.88072000  0.21074000  1.0
  O  O94  1  0.81710000  0.74616000  0.72517000  1.0
  O  O95  1  0.59251000  0.02122000  0.27445000  1.0
  O  O96  1  0.59274000  0.63186000  0.60427000  1.0
  O  O97  1  0.48866000  0.02857000  0.39539000  1.0
