# generated using pymatgen
data_ZnH12C17N2O5
_symmetry_space_group_name_H-M   'P 1'
_cell_length_a   8.49097000
_cell_length_b   8.57493000
_cell_length_c   22.20720000
_cell_angle_alpha   90.00000000
_cell_angle_beta   90.00000000
_cell_angle_gamma   97.52850000
_symmetry_Int_Tables_number   1
_chemical_formula_structural   ZnH12C17N2O5
_chemical_formula_sum   'Zn4 H48 C68 N8 O20'
_cell_volume   1602.95660327
_cell_formula_units_Z   4
loop_
 _symmetry_equiv_pos_site_id
 _symmetry_equiv_pos_as_xyz
  1  'x, y, z'
loop_
 _atom_site_type_symbol
 _atom_site_label
 _atom_site_symmetry_multiplicity
 _atom_site_fract_x
 _atom_site_fract_y
 _atom_site_fract_z
 _atom_site_occupancy
  Zn  Zn0  1  0.39314000  0.13179000  0.29717000  1.0
  Zn  Zn1  1  0.13233000  0.39111000  0.70231000  1.0
  Zn  Zn2  1  0.63233000  0.89112000  0.79769000  1.0
  Zn  Zn3  1  0.89314000  0.63179000  0.20283000  1.0
  H  H4  1  0.65317000  0.45439000  0.37421000  1.0
  H  H5  1  0.45401000  0.65471000  0.62642000  1.0
  H  H6  1  0.95400000  0.15471000  0.87358000  1.0
  H  H7  1  0.15317000  0.95438000  0.12578000  1.0
  H  H8  1  0.49359000  0.39091000  0.46455000  1.0
  H  H9  1  0.39123000  0.49673000  0.53598000  1.0
  H  H10  1  0.89122000  0.99673000  0.96402000  1.0
  H  H11  1  0.99360000  0.89092000  0.03545000  1.0
  H  H12  1  0.46117000  0.27070000  0.56740000  1.0
  H  H13  1  0.27031000  0.46431000  0.43305000  1.0
  H  H14  1  0.77031000  0.96430000  0.06695000  1.0
  H  H15  1  0.96120000  0.77069000  0.93260000  1.0
  H  H16  1  0.66715000  0.11925000  0.60770000  1.0
  H  H17  1  0.11868000  0.66852000  0.39230000  1.0
  H  H18  1  0.61868000  0.16852000  0.10770000  1.0
  H  H19  1  0.16717000  0.61924000  0.89230000  1.0
  H  H20  1  0.90119000  0.08018000  0.54562000  1.0
  H  H21  1  0.07981000  0.90130000  0.45396000  1.0
  H  H22  1  0.57980000  0.40130000  0.04604000  1.0
  H  H23  1  0.40121000  0.58017000  0.95439000  1.0
  H  H24  1  0.05712000  0.12930000  0.44850000  1.0
  H  H25  1  0.12918000  0.05632000  0.55094000  1.0
  H  H26  1  0.62918000  0.55633000  0.94906000  1.0
  H  H27  1  0.55712000  0.62929000  0.05151000  1.0
  H  H28  1  0.67363000  0.94345000  0.28652000  1.0
  H  H29  1  0.94503000  0.67109000  0.71341000  1.0
  H  H30  1  0.44503000  0.17109000  0.78659000  1.0
  H  H31  1  0.17363000  0.44345000  0.21348000  1.0
  H  H32  1  0.82075000  0.78102000  0.35620000  1.0
  H  H33  1  0.78307000  0.81964000  0.64388000  1.0
  H  H34  1  0.28307000  0.31964000  0.85612000  1.0
  H  H35  1  0.32074000  0.28102000  0.14380000  1.0
  H  H36  1  0.51940000  0.90609000  0.50016000  1.0
  H  H37  1  0.90427000  0.51936000  0.49968000  1.0
  H  H38  1  0.40427000  0.01937000  0.00032000  1.0
  H  H39  1  0.01939000  0.40609000  0.99983000  1.0
  H  H40  1  0.38401000  0.06223000  0.42455000  1.0
  H  H41  1  0.06045000  0.38292000  0.57507000  1.0
  H  H42  1  0.56045000  0.88293000  0.92493000  1.0
  H  H43  1  0.88400000  0.56223000  0.07545000  1.0
  H  H44  1  0.60649000  0.38018000  0.26203000  1.0
  H  H45  1  0.38037000  0.60627000  0.73759000  1.0
  H  H46  1  0.88037000  0.10627000  0.76241000  1.0
  H  H47  1  0.10649000  0.88018000  0.23797000  1.0
  H  H48  1  0.43977000  0.43908000  0.27348000  1.0
  H  H49  1  0.44414000  0.44287000  0.72731000  1.0
  H  H50  1  0.94413000  0.94287000  0.77269000  1.0
  H  H51  1  0.93977000  0.93908000  0.22653000  1.0
  C  C52  1  0.11004000  0.22282000  0.33387000  1.0
  C  C53  1  0.22185000  0.10861000  0.66597000  1.0
  C  C54  1  0.72186000  0.60862000  0.83404000  1.0
  C  C55  1  0.61005000  0.72283000  0.16612000  1.0
  C  C56  1  0.98338000  0.26461000  0.37591000  1.0
  C  C57  1  0.26402000  0.98288000  0.62400000  1.0
  C  C58  1  0.76402000  0.48288000  0.87600000  1.0
  C  C59  1  0.48338000  0.76461000  0.12410000  1.0
  C  C60  1  0.86972000  0.36067000  0.35486000  1.0
  C  C61  1  0.36007000  0.86973000  0.64531000  1.0
  C  C62  1  0.86006000  0.36974000  0.85469000  1.0
  C  C63  1  0.36972000  0.86066000  0.14514000  1.0
  C  C64  1  0.73927000  0.37950000  0.38984000  1.0
  C  C65  1  0.37918000  0.74034000  0.61048000  1.0
  C  C66  1  0.87917000  0.24034000  0.88952000  1.0
  C  C67  1  0.23927000  0.87949000  0.11016000  1.0
  C  C68  1  0.71678000  0.30730000  0.44719000  1.0
  C  C69  1  0.30717000  0.71820000  0.55299000  1.0
  C  C70  1  0.80717000  0.21820000  0.94700000  1.0
  C  C71  1  0.21679000  0.80729000  0.05281000  1.0
  C  C72  1  0.58264000  0.32421000  0.48321000  1.0
  C  C73  1  0.32432000  0.58508000  0.51714000  1.0
  C  C74  1  0.82431000  0.08508000  0.98286000  1.0
  C  C75  1  0.08265000  0.82420000  0.01679000  1.0
  C  C76  1  0.56539000  0.25792000  0.53993000  1.0
  C  C77  1  0.25773000  0.56784000  0.46037000  1.0
  C  C78  1  0.75772000  0.06785000  0.03962000  1.0
  C  C79  1  0.06540000  0.75791000  0.96007000  1.0
  C  C80  1  0.68221000  0.17061000  0.56278000  1.0
  C  C81  1  0.17015000  0.68370000  0.43727000  1.0
  C  C82  1  0.67015000  0.18370000  0.06272000  1.0
  C  C83  1  0.18223000  0.67058000  0.93722000  1.0
  C  C84  1  0.81299000  0.14985000  0.52812000  1.0
  C  C85  1  0.14948000  0.81369000  0.47171000  1.0
  C  C86  1  0.64948000  0.31369000  0.02829000  1.0
  C  C87  1  0.31301000  0.64983000  0.97188000  1.0
  C  C88  1  0.83451000  0.21704000  0.46985000  1.0
  C  C89  1  0.21675000  0.83510000  0.53009000  1.0
  C  C90  1  0.71675000  0.33510000  0.96991000  1.0
  C  C91  1  0.33452000  0.71704000  0.03016000  1.0
  C  C92  1  0.96666000  0.19861000  0.43262000  1.0
  C  C93  1  0.19829000  0.96640000  0.56713000  1.0
  C  C94  1  0.69829000  0.46641000  0.93287000  1.0
  C  C95  1  0.46667000  0.69860000  0.06739000  1.0
  C  C96  1  0.90233000  0.45810000  0.29937000  1.0
  C  C97  1  0.45780000  0.90161000  0.70097000  1.0
  C  C98  1  0.95780000  0.40161000  0.79903000  1.0
  C  C99  1  0.40233000  0.95810000  0.20063000  1.0
  C  C100  1  0.64528000  0.93278000  0.33425000  1.0
  C  C101  1  0.93367000  0.64330000  0.66566000  1.0
  C  C102  1  0.43367000  0.14330000  0.83434000  1.0
  C  C103  1  0.14528000  0.43277000  0.16575000  1.0
  C  C104  1  0.72443000  0.84161000  0.37291000  1.0
  C  C105  1  0.84269000  0.72322000  0.62711000  1.0
  C  C106  1  0.34269000  0.22323000  0.87289000  1.0
  C  C107  1  0.22443000  0.34161000  0.12709000  1.0
  C  C108  1  0.67966000  0.83237000  0.43367000  1.0
  C  C109  1  0.83242000  0.67913000  0.56633000  1.0
  C  C110  1  0.33241000  0.17913000  0.93367000  1.0
  C  C111  1  0.17965000  0.33237000  0.06633000  1.0
  C  C112  1  0.55514000  0.91163000  0.45327000  1.0
  C  C113  1  0.91043000  0.55452000  0.54661000  1.0
  C  C114  1  0.41042000  0.05452000  0.95339000  1.0
  C  C115  1  0.05513000  0.41162000  0.04673000  1.0
  C  C116  1  0.48142000  0.99824000  0.41185000  1.0
  C  C117  1  0.99715000  0.48024000  0.58790000  1.0
  C  C118  1  0.49715000  0.98024000  0.91211000  1.0
  C  C119  1  0.98141000  0.49824000  0.08815000  1.0
  N  N120  1  0.52632000  0.01023000  0.35344000  1.0
  N  N121  1  0.01011000  0.52436000  0.64633000  1.0
  N  N122  1  0.51011000  0.02436000  0.85367000  1.0
  N  N123  1  0.02631000  0.51023000  0.14656000  1.0
  N  N124  1  0.76624000  0.74295000  0.47230000  1.0
  N  N125  1  0.74398000  0.76700000  0.52776000  1.0
  N  N126  1  0.24397000  0.26700000  0.97224000  1.0
  N  N127  1  0.26623000  0.24296000  0.02770000  1.0
  O  O128  1  0.07819000  0.20350000  0.27924000  1.0
  O  O129  1  0.20091000  0.07662000  0.72051000  1.0
  O  O130  1  0.70091000  0.57663000  0.77949000  1.0
  O  O131  1  0.57820000  0.70351000  0.22077000  1.0
  O  O132  1  0.48760000  0.34515000  0.26349000  1.0
  O  O133  1  0.34713000  0.48842000  0.73553000  1.0
  O  O134  1  0.84713000  0.98843000  0.76447000  1.0
  O  O135  1  0.98760000  0.84515000  0.23651000  1.0
  O  O136  1  0.24571000  0.20394000  0.35834000  1.0
  O  O137  1  0.20442000  0.24351000  0.64159000  1.0
  O  O138  1  0.70442000  0.74352000  0.85841000  1.0
  O  O139  1  0.74571000  0.70394000  0.14166000  1.0
  O  O140  1  0.78849000  0.46244000  0.26030000  1.0
  O  O141  1  0.46178000  0.78847000  0.73990000  1.0
  O  O142  1  0.96178000  0.28847000  0.76010000  1.0
  O  O143  1  0.28849000  0.96245000  0.23970000  1.0
  O  O144  1  0.03360000  0.54237000  0.29313000  1.0
  O  O145  1  0.54273000  0.03159000  0.70740000  1.0
  O  O146  1  0.04273000  0.53160000  0.79260000  1.0
  O  O147  1  0.53361000  0.04237000  0.20687000  1.0
