# generated using pymatgen
data_CuH14C12N4O5
_symmetry_space_group_name_H-M   'P 1'
_cell_length_a   6.00465000
_cell_length_b   6.93637000
_cell_length_c   8.88595248
_cell_angle_alpha   105.26345666
_cell_angle_beta   109.71929007
_cell_angle_gamma   90.04200000
_symmetry_Int_Tables_number   1
_chemical_formula_structural   CuH14C12N4O5
_chemical_formula_sum   'Cu1 H14 C12 N4 O5'
_cell_volume   334.47209045
_cell_formula_units_Z   1
loop_
 _symmetry_equiv_pos_site_id
 _symmetry_equiv_pos_as_xyz
  1  'x, y, z'
loop_
 _atom_site_type_symbol
 _atom_site_label
 _atom_site_symmetry_multiplicity
 _atom_site_fract_x
 _atom_site_fract_y
 _atom_site_fract_z
 _atom_site_occupancy
  Cu  Cu0  1  0.01454000  0.99988000  0.00003000  1.0
  H  H1  1  0.41176000  0.26584000  0.27809000  1.0
  H  H2  1  0.13340000  0.73419000  0.72216000  1.0
  H  H3  1  0.50682000  0.42507000  0.57916000  1.0
  H  H4  1  0.92766000  0.57540000  0.42070000  1.0
  H  H5  1  0.84815000  0.11756000  0.53371000  1.0
  H  H6  1  0.31501000  0.88273000  0.46608000  1.0
  H  H7  1  0.78149000  0.97227000  0.23589000  1.0
  H  H8  1  0.54583000  0.02784000  0.76413000  1.0
  H  H9  1  0.12510000  0.32376000  0.80837000  1.0
  H  H10  1  0.31708000  0.67636000  0.19182000  1.0
  H  H11  1  0.37898000  0.46169000  0.82345000  1.0
  H  H12  1  0.55555000  0.53841000  0.17655000  1.0
  H  H13  1  0.50189000  0.11902000  0.02215000  1.0
  H  H14  1  0.48010000  0.88114000  0.97789000  1.0
  C  C15  1  0.82615000  0.60774000  0.98822000  1.0
  C  C16  1  0.83783000  0.39196000  0.01168000  1.0
  C  C17  1  0.29168000  0.23742000  0.33978000  1.0
  C  C18  1  0.95181000  0.76252000  0.66032000  1.0
  C  C19  1  0.34367000  0.32579000  0.50781000  1.0
  C  C20  1  0.83589000  0.67427000  0.49225000  1.0
  C  C21  1  0.18709000  0.28354000  0.58682000  1.0
  C  C22  1  0.60047000  0.71645000  0.41323000  1.0
  C  C23  1  0.97875000  0.15374000  0.48260000  1.0
  C  C24  1  0.49650000  0.84640000  0.51739000  1.0
  C  C25  1  0.94127000  0.07224000  0.31597000  1.0
  C  C26  1  0.62544000  0.92775000  0.68408000  1.0
  N  N27  1  0.09457000  0.11049000  0.24271000  1.0
  N  N28  1  0.85173000  0.88926000  0.75740000  1.0
  N  N29  1  0.23359000  0.36026000  0.75079000  1.0
  N  N30  1  0.48293000  0.63970000  0.24929000  1.0
  O  O31  1  0.02316000  0.71341000  0.03123000  1.0
  O  O32  1  0.99197000  0.28647000  0.96887000  1.0
  O  O33  1  0.62151000  0.66057000  0.93136000  1.0
  O  O34  1  0.68991000  0.33902000  0.06851000  1.0
  O  O35  1  0.39271000  0.99987000  0.99952000  1.0
