# generated using pymatgen
data_CuP2H36(C4O)4
_symmetry_space_group_name_H-M   'P 1'
_cell_length_a   9.67783000
_cell_length_b   9.71584000
_cell_length_c   12.24500000
_cell_angle_alpha   93.82720000
_cell_angle_beta   106.01600000
_cell_angle_gamma   101.12700000
_symmetry_Int_Tables_number   1
_chemical_formula_structural   CuP2H36(C4O)4
_chemical_formula_sum   'Cu2 P4 H72 C32 O8'
_cell_volume   1077.05647340
_cell_formula_units_Z   2
loop_
 _symmetry_equiv_pos_site_id
 _symmetry_equiv_pos_as_xyz
  1  'x, y, z'
loop_
 _atom_site_type_symbol
 _atom_site_label
 _atom_site_symmetry_multiplicity
 _atom_site_fract_x
 _atom_site_fract_y
 _atom_site_fract_z
 _atom_site_occupancy
  Cu  Cu0  1  0.74065000  0.97262000  0.98859000  1.0
  Cu  Cu1  1  0.25935000  0.02738000  0.01142000  1.0
  P  P2  1  0.47581000  0.09070000  0.85692000  1.0
  P  P3  1  0.52417000  0.90930000  0.14309000  1.0
  P  P4  1  0.96238000  0.04740000  0.84018000  1.0
  P  P5  1  0.03763000  0.95260000  0.15982000  1.0
  H  H6  1  0.33601000  0.24154000  0.75339000  1.0
  H  H7  1  0.66400000  0.75847000  0.24661000  1.0
  H  H8  1  0.48180000  0.21931000  0.69665000  1.0
  H  H9  1  0.51820000  0.78069000  0.30335000  1.0
  H  H10  1  0.66564000  0.37104000  0.87179000  1.0
  H  H11  1  0.33436000  0.62896000  0.12822000  1.0
  H  H12  1  0.51996000  0.39803000  0.92461000  1.0
  H  H13  1  0.48004000  0.60197000  0.07539000  1.0
  H  H14  1  0.56178000  0.48457000  0.69704000  1.0
  H  H15  1  0.43823000  0.51544000  0.30297000  1.0
  H  H16  1  0.41795000  0.51316000  0.75156000  1.0
  H  H17  1  0.58206000  0.48685000  0.24845000  1.0
  H  H18  1  0.60389000  0.66631000  0.92561000  1.0
  H  H19  1  0.39611000  0.33369000  0.07440000  1.0
  H  H20  1  0.74873000  0.63974000  0.86932000  1.0
  H  H21  1  0.25127000  0.36026000  0.13069000  1.0
  H  H22  1  0.61884000  0.73331000  0.79759000  1.0
  H  H23  1  0.38117000  0.26670000  0.20242000  1.0
  H  H24  1  0.37270000  0.84620000  0.81906000  1.0
  H  H25  1  0.62729000  0.15380000  0.18094000  1.0
  H  H26  1  0.24820000  0.94274000  0.74288000  1.0
  H  H27  1  0.75180000  0.05726000  0.25712000  1.0
  H  H28  1  0.41359000  0.99110000  0.60941000  1.0
  H  H29  1  0.58642000  0.00891000  0.39060000  1.0
  H  H30  1  0.52424000  0.88354000  0.68451000  1.0
  H  H31  1  0.47576000  0.11646000  0.31550000  1.0
  H  H32  1  0.30128000  0.67841000  0.62606000  1.0
  H  H33  1  0.69871000  0.32159000  0.37394000  1.0
  H  H34  1  0.19605000  0.78917000  0.54959000  1.0
  H  H35  1  0.80395000  0.21084000  0.45040000  1.0
  H  H36  1  0.46769000  0.70768000  0.49995000  1.0
  H  H37  1  0.53231000  0.29233000  0.50006000  1.0
  H  H38  1  0.36879000  0.82576000  0.42510000  1.0
  H  H39  1  0.63123000  0.17425000  0.57490000  1.0
  H  H40  1  0.28147000  0.64538000  0.41492000  1.0
  H  H41  1  0.71855000  0.35462000  0.58508000  1.0
  H  H42  1  0.76987000  0.02370000  0.66348000  1.0
  H  H43  1  0.23014000  0.97631000  0.33651000  1.0
  H  H44  1  0.94686000  0.07848000  0.64414000  1.0
  H  H45  1  0.05315000  0.92153000  0.35587000  1.0
  H  H46  1  0.99282000  0.83232000  0.68048000  1.0
  H  H47  1  0.00719000  0.16768000  0.31952000  1.0
  H  H48  1  0.81054000  0.78004000  0.68540000  1.0
  H  H49  1  0.18947000  0.21996000  0.31460000  1.0
  H  H50  1  0.71687000  0.82973000  0.48203000  1.0
  H  H51  1  0.28313000  0.17028000  0.51797000  1.0
  H  H52  1  0.89919000  0.88542000  0.47785000  1.0
  H  H53  1  0.10081000  0.11459000  0.52215000  1.0
  H  H54  1  0.75984000  0.58569000  0.51605000  1.0
  H  H55  1  0.24016000  0.41432000  0.48394000  1.0
  H  H56  1  0.94433000  0.64117000  0.51310000  1.0
  H  H57  1  0.05568000  0.35883000  0.48689000  1.0
  H  H58  1  0.79591000  0.63259000  0.38748000  1.0
  H  H59  1  0.20409000  0.36742000  0.61251000  1.0
  H  H60  1  0.00278000  0.24585000  0.97467000  1.0
  H  H61  1  0.99721000  0.75415000  0.02533000  1.0
  H  H62  1  0.84577000  0.23951000  0.85702000  1.0
  H  H63  1  0.15422000  0.76049000  0.14298000  1.0
  H  H64  1  0.17028000  0.32224000  0.85479000  1.0
  H  H65  1  0.82972000  0.67775000  0.14521000  1.0
  H  H66  1  0.01689000  0.31649000  0.73486000  1.0
  H  H67  1  0.98311000  0.68350000  0.26514000  1.0
  H  H68  1  0.09499000  0.51023000  0.96089000  1.0
  H  H69  1  0.90500000  0.48977000  0.03910000  1.0
  H  H70  1  0.93992000  0.50301000  0.84263000  1.0
  H  H71  1  0.06007000  0.49698000  0.15736000  1.0
  H  H72  1  0.11026000  0.58148000  0.72242000  1.0
  H  H73  1  0.88973000  0.41851000  0.27757000  1.0
  H  H74  1  0.26434000  0.59265000  0.84480000  1.0
  H  H75  1  0.73565000  0.40735000  0.15520000  1.0
  H  H76  1  0.14134000  0.70661000  0.84397000  1.0
  H  H77  1  0.85865000  0.29338000  0.15603000  1.0
  C  C78  1  0.45386000  0.23931000  0.77661000  1.0
  C  C79  1  0.54614000  0.76069000  0.22340000  1.0
  C  C80  1  0.54932000  0.37916000  0.84494000  1.0
  C  C81  1  0.45068000  0.62083000  0.15506000  1.0
  C  C82  1  0.53425000  0.50484000  0.77744000  1.0
  C  C83  1  0.46575000  0.49516000  0.22256000  1.0
  C  C84  1  0.63135000  0.64311000  0.84594000  1.0
  C  C85  1  0.36865000  0.35689000  0.15406000  1.0
  C  C86  1  0.36335000  0.93182000  0.76473000  1.0
  C  C87  1  0.63665000  0.06818000  0.23526000  1.0
  C  C88  1  0.41066000  0.89954000  0.65801000  1.0
  C  C89  1  0.58934000  0.10046000  0.34199000  1.0
  C  C90  1  0.30843000  0.77008000  0.57796000  1.0
  C  C91  1  0.69157000  0.22993000  0.42204000  1.0
  C  C92  1  0.35908000  0.73505000  0.47386000  1.0
  C  C93  1  0.64093000  0.26496000  0.52614000  1.0
  C  C94  1  0.88231000  0.00472000  0.68565000  1.0
  C  C95  1  0.11769000  0.99527000  0.31435000  1.0
  C  C96  1  0.88119000  0.85135000  0.64657000  1.0
  C  C97  1  0.11882000  0.14865000  0.35343000  1.0
  C  C98  1  0.82931000  0.81266000  0.51653000  1.0
  C  C99  1  0.17069000  0.18734000  0.48346000  1.0
  C  C100  1  0.83240000  0.65989000  0.48095000  1.0
  C  C101  1  0.16760000  0.34011000  0.51904000  1.0
  C  C102  1  0.96143000  0.22996000  0.88033000  1.0
  C  C103  1  0.03857000  0.77003000  0.11967000  1.0
  C  C104  1  0.05615000  0.33693000  0.82924000  1.0
  C  C105  1  0.94384000  0.66306000  0.17075000  1.0
  C  C106  1  0.05479000  0.48980000  0.86678000  1.0
  C  C107  1  0.94520000  0.51018000  0.13321000  1.0
  C  C108  1  0.14761000  0.59855000  0.81670000  1.0
  C  C109  1  0.85238000  0.40144000  0.18330000  1.0
  O  O110  1  0.63919000  0.08411000  0.88137000  1.0
  O  O111  1  0.36082000  0.91589000  0.11863000  1.0
  O  O112  1  0.57316000  0.88355000  0.03598000  1.0
  O  O113  1  0.42684000  0.11645000  0.96401000  1.0
  O  O114  1  0.87003000  0.94593000  0.89698000  1.0
  O  O115  1  0.12996000  0.05406000  0.10303000  1.0
  O  O116  1  0.87686000  0.96779000  0.13682000  1.0
  O  O117  1  0.12313000  0.03221000  0.86319000  1.0
