# generated using pymatgen
data_ZnH6C12N5(OF)2
_symmetry_space_group_name_H-M   'P 1'
_cell_length_a   15.82770000
_cell_length_b   17.27980000
_cell_length_c   18.34280000
_cell_angle_alpha   89.96750000
_cell_angle_beta   89.99850000
_cell_angle_gamma   89.09660000
_symmetry_Int_Tables_number   1
_chemical_formula_structural   ZnH6C12N5(OF)2
_chemical_formula_sum   'Zn8 H48 C96 N40 O16 F16'
_cell_volume   5016.12205743
_cell_formula_units_Z   8
loop_
 _symmetry_equiv_pos_site_id
 _symmetry_equiv_pos_as_xyz
  1  'x, y, z'
loop_
 _atom_site_type_symbol
 _atom_site_label
 _atom_site_symmetry_multiplicity
 _atom_site_fract_x
 _atom_site_fract_y
 _atom_site_fract_z
 _atom_site_occupancy
  Zn  Zn0  1  0.99325000  0.65508000  0.99020000  1.0
  Zn  Zn1  1  0.00067000  0.34485000  0.99433000  1.0
  Zn  Zn2  1  0.49970000  0.15567000  0.49454000  1.0
  Zn  Zn3  1  0.50578000  0.84509000  0.49180000  1.0
  Zn  Zn4  1  0.85592000  0.49063000  0.99748000  1.0
  Zn  Zn5  1  0.13727000  0.50974000  0.99911000  1.0
  Zn  Zn6  1  0.36257000  0.99112000  0.49964000  1.0
  Zn  Zn7  1  0.64348000  0.00916000  0.49875000  1.0
  H  H8  1  0.70724000  0.40006000  0.09470000  1.0
  H  H9  1  0.19308000  0.51074000  0.83177000  1.0
  H  H10  1  0.28275000  0.60061000  0.09928000  1.0
  H  H11  1  0.80846000  0.48929000  0.82859000  1.0
  H  H12  1  0.21524000  0.90033000  0.59832000  1.0
  H  H13  1  0.69229000  0.01020000  0.32995000  1.0
  H  H14  1  0.79269000  0.09925000  0.59569000  1.0
  H  H15  1  0.30731000  0.98986000  0.33276000  1.0
  H  H16  1  0.14923000  0.52718000  0.16944000  1.0
  H  H17  1  0.66618000  0.58951000  0.95075000  1.0
  H  H18  1  0.84707000  0.47334000  0.16858000  1.0
  H  H19  1  0.32660000  0.41163000  0.95164000  1.0
  H  H20  1  0.65148000  0.02707000  0.66976000  1.0
  H  H21  1  0.17380000  0.08946000  0.45083000  1.0
  H  H22  1  0.34966000  0.97445000  0.67017000  1.0
  H  H23  1  0.83252000  0.91024000  0.45132000  1.0
  H  H24  1  0.83017000  0.24656000  0.79498000  1.0
  H  H25  1  0.31874000  0.88334000  0.06312000  1.0
  H  H26  1  0.17705000  0.75207000  0.79612000  1.0
  H  H27  1  0.67796000  0.11448000  0.06221000  1.0
  H  H28  1  0.32008000  0.74766000  0.29798000  1.0
  H  H29  1  0.82598000  0.38368000  0.56087000  1.0
  H  H30  1  0.66912000  0.25448000  0.29460000  1.0
  H  H31  1  0.17994000  0.61677000  0.56119000  1.0
  H  H32  1  0.39223000  0.68950000  0.16666000  1.0
  H  H33  1  0.75196000  0.43916000  0.69131000  1.0
  H  H34  1  0.59566000  0.30758000  0.16191000  1.0
  H  H35  1  0.25276000  0.55947000  0.69148000  1.0
  H  H36  1  0.90407000  0.19081000  0.66347000  1.0
  H  H37  1  0.24658000  0.94112000  0.19343000  1.0
  H  H38  1  0.10425000  0.80978000  0.66478000  1.0
  H  H39  1  0.75153000  0.06167000  0.19385000  1.0
  H  H40  1  0.46533000  0.83540000  0.14079000  1.0
  H  H41  1  0.68180000  0.29085000  0.71575000  1.0
  H  H42  1  0.52903000  0.15865000  0.13835000  1.0
  H  H43  1  0.32493000  0.70674000  0.71688000  1.0
  H  H44  1  0.97343000  0.33847000  0.63866000  1.0
  H  H45  1  0.17269000  0.79456000  0.21875000  1.0
  H  H46  1  0.03285000  0.66317000  0.63890000  1.0
  H  H47  1  0.81894000  0.21121000  0.21704000  1.0
  H  H48  1  0.72312000  0.85417000  0.88168000  1.0
  H  H49  1  0.05599000  0.30775000  0.31259000  1.0
  H  H50  1  0.27112000  0.14708000  0.88130000  1.0
  H  H51  1  0.94751000  0.69090000  0.31094000  1.0
  H  H52  1  0.22974000  0.35414000  0.38051000  1.0
  H  H53  1  0.54955000  0.81006000  0.81228000  1.0
  H  H54  1  0.77444000  0.64630000  0.38110000  1.0
  H  H55  1  0.44479000  0.19330000  0.81312000  1.0
  C  C56  1  0.96094000  0.62894000  0.15628000  1.0
  C  C57  1  0.17510000  0.28498000  0.95233000  1.0
  C  C58  1  0.03401000  0.37224000  0.15994000  1.0
  C  C59  1  0.81905000  0.71483000  0.94837000  1.0
  C  C60  1  0.46572000  0.12883000  0.66018000  1.0
  C  C61  1  0.67981000  0.78475000  0.45042000  1.0
  C  C62  1  0.53587000  0.87254000  0.65803000  1.0
  C  C63  1  0.32566000  0.21576000  0.45161000  1.0
  C  C64  1  0.75543000  0.36076000  0.07321000  1.0
  C  C65  1  0.13698000  0.54679000  0.83995000  1.0
  C  C66  1  0.23548000  0.63997000  0.07639000  1.0
  C  C67  1  0.86418000  0.45336000  0.83884000  1.0
  C  C68  1  0.26257000  0.86096000  0.57560000  1.0
  C  C69  1  0.63668000  0.04639000  0.33989000  1.0
  C  C70  1  0.74481000  0.13874000  0.57395000  1.0
  C  C71  1  0.36308000  0.95340000  0.34109000  1.0
  C  C72  1  0.83480000  0.26289000  0.03999000  1.0
  C  C73  1  0.03102000  0.62799000  0.83313000  1.0
  C  C74  1  0.15775000  0.73798000  0.04073000  1.0
  C  C75  1  0.97039000  0.37218000  0.83606000  1.0
  C  C76  1  0.34020000  0.76290000  0.53999000  1.0
  C  C77  1  0.53096000  0.12807000  0.33651000  1.0
  C  C78  1  0.66616000  0.23691000  0.54017000  1.0
  C  C79  1  0.46814000  0.87122000  0.33462000  1.0
  C  C80  1  0.10927000  0.47814000  0.15821000  1.0
  C  C81  1  0.72257000  0.62428000  0.95297000  1.0
  C  C82  1  0.88647000  0.52254000  0.15642000  1.0
  C  C83  1  0.27065000  0.37636000  0.95499000  1.0
  C  C84  1  0.61162000  0.97817000  0.65776000  1.0
  C  C85  1  0.22982000  0.12461000  0.45426000  1.0
  C  C86  1  0.38988000  0.02328000  0.65878000  1.0
  C  C87  1  0.77621000  0.87539000  0.45411000  1.0
  C  C88  1  0.91509000  0.58049000  0.20417000  1.0
  C  C89  1  0.26262000  0.29711000  0.93814000  1.0
  C  C90  1  0.08211000  0.42014000  0.20660000  1.0
  C  C91  1  0.73094000  0.70354000  0.93621000  1.0
  C  C92  1  0.41748000  0.08119000  0.70703000  1.0
  C  C93  1  0.76771000  0.79618000  0.43730000  1.0
  C  C94  1  0.58188000  0.92090000  0.70579000  1.0
  C  C95  1  0.23814000  0.20381000  0.43725000  1.0
  C  C96  1  0.76063000  0.27987000  0.07893000  1.0
  C  C97  1  0.10059000  0.60185000  0.79247000  1.0
  C  C98  1  0.23054000  0.72090000  0.08158000  1.0
  C  C99  1  0.90282000  0.39818000  0.79287000  1.0
  C  C100  1  0.26696000  0.77996000  0.58018000  1.0
  C  C101  1  0.59869000  0.10177000  0.29368000  1.0
  C  C102  1  0.74028000  0.21967000  0.57911000  1.0
  C  C103  1  0.39851000  0.89749000  0.29407000  1.0
  C  C104  1  0.35956000  0.74547000  0.17294000  1.0
  C  C105  1  0.78571000  0.38368000  0.68571000  1.0
  C  C106  1  0.63064000  0.25294000  0.16934000  1.0
  C  C107  1  0.21977000  0.61537000  0.68614000  1.0
  C  C108  1  0.86992000  0.24601000  0.67001000  1.0
  C  C109  1  0.27892000  0.88491000  0.18806000  1.0
  C  C110  1  0.13758000  0.75413000  0.67106000  1.0
  C  C111  1  0.71691000  0.11661000  0.18734000  1.0
  C  C112  1  0.82820000  0.27590000  0.74207000  1.0
  C  C113  1  0.31911000  0.85313000  0.11561000  1.0
  C  C114  1  0.17868000  0.72317000  0.74301000  1.0
  C  C115  1  0.67598000  0.14564000  0.11415000  1.0
  C  C116  1  0.31880000  0.77668000  0.24491000  1.0
  C  C117  1  0.82691000  0.35318000  0.61319000  1.0
  C  C118  1  0.67208000  0.22451000  0.24206000  1.0
  C  C119  1  0.17924000  0.64691000  0.61368000  1.0
  C  C120  1  0.86714000  0.35870000  0.72934000  1.0
  C  C121  1  0.27843000  0.77157000  0.12972000  1.0
  C  C122  1  0.13846000  0.64100000  0.72965000  1.0
  C  C123  1  0.71313000  0.22885000  0.12706000  1.0
  C  C124  1  0.35998000  0.85847000  0.23155000  1.0
  C  C125  1  0.78823000  0.27067000  0.62686000  1.0
  C  C126  1  0.63464000  0.14102000  0.23006000  1.0
  C  C127  1  0.21900000  0.72884000  0.62787000  1.0
  C  C128  1  0.40021000  0.82625000  0.15853000  1.0
  C  C129  1  0.74711000  0.30224000  0.69997000  1.0
  C  C130  1  0.59354000  0.17045000  0.15624000  1.0
  C  C131  1  0.25951000  0.69621000  0.70090000  1.0
  C  C132  1  0.90854000  0.32780000  0.65620000  1.0
  C  C133  1  0.23824000  0.80443000  0.20276000  1.0
  C  C134  1  0.09785000  0.67295000  0.65663000  1.0
  C  C135  1  0.75400000  0.19875000  0.20089000  1.0
  C  C136  1  0.11842000  0.40672000  0.27755000  1.0
  C  C137  1  0.66392000  0.74993000  0.90561000  1.0
  C  C138  1  0.88178000  0.59350000  0.27623000  1.0
  C  C139  1  0.32944000  0.25158000  0.90617000  1.0
  C  C140  1  0.61491000  0.90787000  0.77795000  1.0
  C  C141  1  0.17146000  0.24949000  0.40522000  1.0
  C  C142  1  0.38165000  0.09466000  0.77813000  1.0
  C  C143  1  0.83428000  0.75005000  0.40572000  1.0
  C  C144  1  0.10938000  0.34504000  0.32297000  1.0
  C  C145  1  0.66568000  0.82144000  0.87431000  1.0
  C  C146  1  0.89374000  0.65431000  0.32212000  1.0
  C  C147  1  0.32817000  0.18046000  0.87415000  1.0
  C  C148  1  0.60329000  0.84666000  0.82350000  1.0
  C  C149  1  0.17272000  0.32074000  0.37334000  1.0
  C  C150  1  0.39130000  0.15617000  0.82361000  1.0
  C  C151  1  0.83188000  0.67902000  0.37361000  1.0
  N  N152  1  0.95802000  0.60240000  0.08740000  1.0
  N  N153  1  0.13717000  0.35088000  0.97451000  1.0
  N  N154  1  0.03476000  0.39897000  0.09098000  1.0
  N  N155  1  0.85700000  0.64843000  0.96928000  1.0
  N  N156  1  0.46473000  0.10203000  0.59128000  1.0
  N  N157  1  0.64208000  0.85105000  0.47184000  1.0
  N  N158  1  0.53978000  0.89841000  0.58892000  1.0
  N  N159  1  0.36331000  0.14980000  0.47404000  1.0
  N  N160  1  0.82185000  0.38808000  0.03518000  1.0
  N  N161  1  0.09256000  0.54307000  0.90289000  1.0
  N  N162  1  0.17022000  0.61269000  0.03695000  1.0
  N  N163  1  0.90551000  0.45724000  0.90328000  1.0
  N  N164  1  0.32855000  0.88826000  0.53703000  1.0
  N  N165  1  0.59489000  0.04271000  0.40413000  1.0
  N  N166  1  0.67809000  0.11161000  0.53622000  1.0
  N  N167  1  0.40799000  0.95748000  0.40374000  1.0
  N  N168  1  0.87245000  0.32613000  0.01451000  1.0
  N  N169  1  0.02603000  0.59468000  0.89886000  1.0
  N  N170  1  0.12062000  0.67471000  0.01471000  1.0
  N  N171  1  0.97220000  0.40566000  0.90181000  1.0
  N  N172  1  0.37803000  0.82619000  0.51480000  1.0
  N  N173  1  0.52851000  0.09461000  0.40227000  1.0
  N  N174  1  0.62795000  0.17377000  0.51518000  1.0
  N  N175  1  0.47398000  0.90527000  0.39992000  1.0
  N  N176  1  0.08066000  0.46405000  0.09028000  1.0
  N  N177  1  0.79850000  0.59343000  0.97211000  1.0
  N  N178  1  0.91262000  0.53700000  0.08784000  1.0
  N  N179  1  0.19510000  0.40643000  0.97608000  1.0
  N  N180  1  0.58596000  0.96336000  0.58912000  1.0
  N  N181  1  0.30522000  0.09441000  0.47560000  1.0
  N  N182  1  0.41847000  0.03717000  0.59079000  1.0
  N  N183  1  0.70054000  0.90610000  0.47411000  1.0
  N  N184  1  0.00175000  0.70090000  0.16966000  1.0
  N  N185  1  0.12173000  0.22013000  0.94778000  1.0
  N  N186  1  0.99156000  0.30138000  0.17443000  1.0
  N  N187  1  0.87276000  0.77943000  0.94344000  1.0
  N  N188  1  0.50869000  0.19947000  0.67447000  1.0
  N  N189  1  0.62610000  0.72013000  0.44594000  1.0
  N  N190  1  0.49353000  0.80148000  0.67200000  1.0
  N  N191  1  0.37926000  0.28045000  0.44697000  1.0
  O  O192  1  0.03606000  0.71045000  0.23008000  1.0
  O  O193  1  0.00006000  0.74978000  0.11968000  1.0
  O  O194  1  0.04367000  0.23027000  0.96319000  1.0
  O  O195  1  0.15075000  0.15617000  0.92957000  1.0
  O  O196  1  0.96081000  0.29177000  0.23628000  1.0
  O  O197  1  0.98796000  0.25343000  0.12382000  1.0
  O  O198  1  0.95107000  0.76881000  0.95770000  1.0
  O  O199  1  0.84391000  0.84372000  0.92605000  1.0
  O  O200  1  0.53953000  0.20900000  0.73628000  1.0
  O  O201  1  0.51263000  0.24728000  0.62372000  1.0
  O  O202  1  0.54791000  0.73079000  0.46066000  1.0
  O  O203  1  0.65485000  0.65581000  0.42857000  1.0
  O  O204  1  0.45878000  0.79327000  0.73245000  1.0
  O  O205  1  0.49433000  0.75203000  0.62259000  1.0
  O  O206  1  0.45719000  0.27019000  0.46286000  1.0
  O  O207  1  0.35061000  0.34439000  0.42823000  1.0
  F  F208  1  0.86880000  0.19268000  0.02737000  1.0
  F  F209  1  0.97324000  0.68238000  0.81342000  1.0
  F  F210  1  0.12460000  0.80823000  0.02662000  1.0
  F  F211  1  0.02897000  0.31762000  0.81862000  1.0
  F  F212  1  0.37330000  0.69264000  0.52596000  1.0
  F  F213  1  0.47274000  0.18284000  0.31867000  1.0
  F  F214  1  0.63263000  0.30725000  0.52715000  1.0
  F  F215  1  0.52525000  0.81610000  0.31529000  1.0
  F  F216  1  0.59066000  0.70858000  0.89944000  1.0
  F  F217  1  0.18078000  0.45857000  0.29292000  1.0
  F  F218  1  0.40227000  0.29359000  0.89991000  1.0
  F  F219  1  0.81899000  0.54248000  0.29279000  1.0
  F  F220  1  0.09861000  0.20753000  0.39878000  1.0
  F  F221  1  0.67760000  0.95891000  0.79466000  1.0
  F  F222  1  0.90756000  0.79133000  0.39939000  1.0
  F  F223  1  0.31910000  0.04308000  0.79371000  1.0
