# generated using pymatgen
data_Zn4H8C40O13F12
_symmetry_space_group_name_H-M   'P 1'
_cell_length_a   23.81814088
_cell_length_b   23.81810000
_cell_length_c   23.81680000
_cell_angle_alpha   72.47600000
_cell_angle_beta   66.55461971
_cell_angle_gamma   107.52170920
_symmetry_Int_Tables_number   1
_chemical_formula_structural   Zn4H8C40O13F12
_chemical_formula_sum   'Zn8 H16 C80 O26 F24'
_cell_volume   10362.87947903
_cell_formula_units_Z   2
loop_
 _symmetry_equiv_pos_site_id
 _symmetry_equiv_pos_as_xyz
  1  'x, y, z'
loop_
 _atom_site_type_symbol
 _atom_site_label
 _atom_site_symmetry_multiplicity
 _atom_site_fract_x
 _atom_site_fract_y
 _atom_site_fract_z
 _atom_site_occupancy
  Zn  Zn0  1  0.48483000  0.44238000  0.45754000  1.0
  Zn  Zn1  1  0.45755000  0.55764000  0.48482000  1.0
  Zn  Zn2  1  0.45754000  0.44237000  0.60010000  1.0
  Zn  Zn3  1  0.60009000  0.55763000  0.45753000  1.0
  Zn  Zn4  1  0.01517000  0.55762000  0.04246000  1.0
  Zn  Zn5  1  0.04246000  0.55763000  0.89990000  1.0
  Zn  Zn6  1  0.04246000  0.44237000  0.01517000  1.0
  Zn  Zn7  1  0.89991000  0.44236000  0.04247000  1.0
  H  H8  1  0.11236000  0.76464000  0.96451000  1.0
  H  H9  1  0.15232000  0.76467000  0.77081000  1.0
  H  H10  1  0.34768000  0.23533000  0.72919000  1.0
  H  H11  1  0.38771000  0.23536000  0.53547000  1.0
  H  H12  1  0.77086000  0.23535000  0.15226000  1.0
  H  H13  1  0.96453000  0.23535000  0.11233000  1.0
  H  H14  1  0.53548000  0.76465000  0.38770000  1.0
  H  H15  1  0.72917000  0.76465000  0.34770000  1.0
  H  H16  1  0.11233000  0.57684000  0.15232000  1.0
  H  H17  1  0.15232000  0.42314000  0.11234000  1.0
  H  H18  1  0.34767000  0.57685000  0.38767000  1.0
  H  H19  1  0.38760000  0.42311000  0.34775000  1.0
  H  H20  1  0.96451000  0.57682000  0.77083000  1.0
  H  H21  1  0.77081000  0.42312000  0.96454000  1.0
  H  H22  1  0.72918000  0.57686000  0.53546000  1.0
  H  H23  1  0.53551000  0.42313000  0.72915000  1.0
  C  C24  1  0.40885000  0.50000000  0.40886000  1.0
  C  C25  1  0.36293000  0.50000000  0.63707000  1.0
  C  C26  1  0.40887000  0.31772000  0.59114000  1.0
  C  C27  1  0.59116000  0.50001000  0.59112000  1.0
  C  C28  1  0.63707000  0.50000000  0.36293000  1.0
  C  C29  1  0.59115000  0.68229000  0.40886000  1.0
  C  C30  1  0.09115000  0.68228000  0.90885000  1.0
  C  C31  1  0.13707000  0.50000000  0.86293000  1.0
  C  C32  1  0.09114000  0.49999000  0.09115000  1.0
  C  C33  1  0.90887000  0.31771000  0.09113000  1.0
  C  C34  1  0.86293000  0.50000000  0.13707000  1.0
  C  C35  1  0.90885000  0.49999000  0.90887000  1.0
  C  C36  1  0.69464000  0.50000000  0.30536000  1.0
  C  C37  1  0.80536000  0.50000000  0.19464000  1.0
  C  C38  1  0.76561000  0.54233000  0.27673000  1.0
  C  C39  1  0.73439000  0.45767000  0.22327000  1.0
  C  C40  1  0.81906000  0.54233000  0.22328000  1.0
  C  C41  1  0.68094000  0.45766000  0.27672000  1.0
  C  C42  1  0.30536000  0.50000000  0.69464000  1.0
  C  C43  1  0.19464000  0.50000000  0.80536000  1.0
  C  C44  1  0.27672000  0.45766000  0.76562000  1.0
  C  C45  1  0.22328000  0.54234000  0.73438000  1.0
  C  C46  1  0.22327000  0.45766000  0.81906000  1.0
  C  C47  1  0.27673000  0.54234000  0.68093000  1.0
  C  C48  1  0.12860000  0.75719000  0.87140000  1.0
  C  C49  1  0.13471000  0.79190000  0.90868000  1.0
  C  C50  1  0.16960000  0.86128000  0.87303000  1.0
  C  C51  1  0.19948000  0.89893000  0.80053000  1.0
  C  C52  1  0.19171000  0.86130000  0.76567000  1.0
  C  C53  1  0.15722000  0.79192000  0.79940000  1.0
  C  C54  1  0.23472000  0.96940000  0.76529000  1.0
  C  C55  1  0.26532000  0.03060000  0.73470000  1.0
  C  C56  1  0.30056000  0.10107000  0.69946000  1.0
  C  C57  1  0.30831000  0.13870000  0.73432000  1.0
  C  C58  1  0.34280000  0.20809000  0.70059000  1.0
  C  C59  1  0.37142000  0.24281000  0.62860000  1.0
  C  C60  1  0.36534000  0.20810000  0.59131000  1.0
  C  C61  1  0.33044000  0.13871000  0.62697000  1.0
  C  C62  1  0.87142000  0.24281000  0.12858000  1.0
  C  C63  1  0.79943000  0.20809000  0.15717000  1.0
  C  C64  1  0.76570000  0.13870000  0.19167000  1.0
  C  C65  1  0.80055000  0.10107000  0.19944000  1.0
  C  C66  1  0.87303000  0.13870000  0.16958000  1.0
  C  C67  1  0.90869000  0.20809000  0.13469000  1.0
  C  C68  1  0.76531000  0.03060000  0.23469000  1.0
  C  C69  1  0.73471000  0.96941000  0.26530000  1.0
  C  C70  1  0.69947000  0.89893000  0.30055000  1.0
  C  C71  1  0.62698000  0.86130000  0.33043000  1.0
  C  C72  1  0.59132000  0.79191000  0.36533000  1.0
  C  C73  1  0.62860000  0.75719000  0.37142000  1.0
  C  C74  1  0.70059000  0.79191000  0.34281000  1.0
  C  C75  1  0.73432000  0.86129000  0.30831000  1.0
  C  C76  1  0.12859000  0.49999000  0.12860000  1.0
  C  C77  1  0.13469000  0.54336000  0.15722000  1.0
  C  C78  1  0.16958000  0.54260000  0.19171000  1.0
  C  C79  1  0.19946000  0.49999000  0.19947000  1.0
  C  C80  1  0.19171000  0.45739000  0.16959000  1.0
  C  C81  1  0.15722000  0.45662000  0.13469000  1.0
  C  C82  1  0.23469000  0.49999000  0.23471000  1.0
  C  C83  1  0.26527000  0.49998000  0.26533000  1.0
  C  C84  1  0.30050000  0.49998000  0.30057000  1.0
  C  C85  1  0.30828000  0.54260000  0.33042000  1.0
  C  C86  1  0.34277000  0.54337000  0.36532000  1.0
  C  C87  1  0.37138000  0.49999000  0.37143000  1.0
  C  C88  1  0.36526000  0.45660000  0.34283000  1.0
  C  C89  1  0.33036000  0.45735000  0.30835000  1.0
  C  C90  1  0.87139000  0.49997000  0.87142000  1.0
  C  C91  1  0.90867000  0.54335000  0.79941000  1.0
  C  C92  1  0.87302000  0.54259000  0.76568000  1.0
  C  C93  1  0.80053000  0.49998000  0.80054000  1.0
  C  C94  1  0.76567000  0.45736000  0.87304000  1.0
  C  C95  1  0.79940000  0.45661000  0.90869000  1.0
  C  C96  1  0.76529000  0.49997000  0.76531000  1.0
  C  C97  1  0.73472000  0.49999000  0.73468000  1.0
  C  C98  1  0.69948000  0.49999000  0.69945000  1.0
  C  C99  1  0.73433000  0.54262000  0.62696000  1.0
  C  C100  1  0.70061000  0.54339000  0.59130000  1.0
  C  C101  1  0.62861000  0.50000000  0.62858000  1.0
  C  C102  1  0.59134000  0.45661000  0.70058000  1.0
  C  C103  1  0.62699000  0.45737000  0.73431000  1.0
  O  O104  1  0.50000000  0.50000000  0.50000000  1.0
  O  O105  1  0.43343000  0.45916000  0.41321000  1.0
  O  O106  1  0.38470000  0.54035000  0.57495000  1.0
  O  O107  1  0.41320000  0.34664000  0.62765000  1.0
  O  O108  1  0.41320000  0.54085000  0.43344000  1.0
  O  O109  1  0.43344000  0.34665000  0.52572000  1.0
  O  O110  1  0.38469000  0.45965000  0.65567000  1.0
  O  O111  1  0.52574000  0.45916000  0.62763000  1.0
  O  O112  1  0.65566000  0.54035000  0.38468000  1.0
  O  O113  1  0.62766000  0.54085000  0.52570000  1.0
  O  O114  1  0.57496000  0.45965000  0.38469000  1.0
  O  O115  1  0.52573000  0.65337000  0.43343000  1.0
  O  O116  1  0.62765000  0.65336000  0.41319000  1.0
  O  O117  1  1.00000000  0.50000000  0.00000000  1.0
  O  O118  1  0.06657000  0.65335000  0.97427000  1.0
  O  O119  1  0.11531000  0.54035000  0.84433000  1.0
  O  O120  1  0.08679000  0.45914000  0.06657000  1.0
  O  O121  1  0.08681000  0.65337000  0.87234000  1.0
  O  O122  1  0.06655000  0.54082000  0.08682000  1.0
  O  O123  1  0.11531000  0.45966000  0.92504000  1.0
  O  O124  1  0.97429000  0.34663000  0.06656000  1.0
  O  O125  1  0.84434000  0.45964000  0.11532000  1.0
  O  O126  1  0.87237000  0.34663000  0.08680000  1.0
  O  O127  1  0.92504000  0.54035000  0.11531000  1.0
  O  O128  1  0.97426000  0.54082000  0.87237000  1.0
  O  O129  1  0.87234000  0.45914000  0.97431000  1.0
  F  F130  1  0.78590000  0.58522000  0.29933000  1.0
  F  F131  1  0.71410000  0.41478000  0.20066000  1.0
  F  F132  1  0.88456000  0.58522000  0.20067000  1.0
  F  F133  1  0.61544000  0.41477000  0.29933000  1.0
  F  F134  1  0.29931000  0.41476000  0.78592000  1.0
  F  F135  1  0.20069000  0.58524000  0.71408000  1.0
  F  F136  1  0.20066000  0.41477000  0.88457000  1.0
  F  F137  1  0.29934000  0.58523000  0.61543000  1.0
  F  F138  1  0.21963000  0.89558000  0.69616000  1.0
  F  F139  1  0.17596000  0.89555000  0.90827000  1.0
  F  F140  1  0.32410000  0.10444000  0.59172000  1.0
  F  F141  1  0.28038000  0.10442000  0.80384000  1.0
  F  F142  1  0.90827000  0.10443000  0.17595000  1.0
  F  F143  1  0.69619000  0.10443000  0.21958000  1.0
  F  F144  1  0.80383000  0.89557000  0.28039000  1.0
  F  F145  1  0.59174000  0.89557000  0.32408000  1.0
  F  F146  1  0.21963000  0.41579000  0.17594000  1.0
  F  F147  1  0.17593000  0.58419000  0.21964000  1.0
  F  F148  1  0.32401000  0.41576000  0.28042000  1.0
  F  F149  1  0.28037000  0.58421000  0.32406000  1.0
  F  F150  1  0.69616000  0.41578000  0.90828000  1.0
  F  F151  1  0.90826000  0.58418000  0.69617000  1.0
  F  F152  1  0.59175000  0.41577000  0.80383000  1.0
  F  F153  1  0.80384000  0.58421000  0.59172000  1.0
