# generated using pymatgen
data_PH13PbC18S(NO3)2
_symmetry_space_group_name_H-M   'P 1'
_cell_length_a   7.20260000
_cell_length_b   11.14530000
_cell_length_c   11.31780000
_cell_angle_alpha   89.36280000
_cell_angle_beta   79.35140000
_cell_angle_gamma   84.71230000
_symmetry_Int_Tables_number   1
_chemical_formula_structural   PH13PbC18S(NO3)2
_chemical_formula_sum   'P2 H26 Pb2 C36 S2 N4 O12'
_cell_volume   889.07608672
_cell_formula_units_Z   2
loop_
 _symmetry_equiv_pos_site_id
 _symmetry_equiv_pos_as_xyz
  1  'x, y, z'
loop_
 _atom_site_type_symbol
 _atom_site_label
 _atom_site_symmetry_multiplicity
 _atom_site_fract_x
 _atom_site_fract_y
 _atom_site_fract_z
 _atom_site_occupancy
  P  P0  1  0.25626000  0.17519000  0.05630000  1.0
  P  P1  1  0.74374000  0.82480000  0.94370000  1.0
  H  H2  1  0.36152000  0.56471000  0.97802000  1.0
  H  H3  1  0.63848000  0.43530000  0.02197000  1.0
  H  H4  1  0.55437000  0.40579000  0.83903000  1.0
  H  H5  1  0.44564000  0.59422000  0.16096000  1.0
  H  H6  1  0.65111000  0.45432000  0.62284000  1.0
  H  H7  1  0.34889000  0.54569000  0.37716000  1.0
  H  H8  1  0.10900000  0.08900000  0.80585000  1.0
  H  H9  1  0.89099000  0.91099000  0.19416000  1.0
  H  H10  1  0.11445000  0.13970000  0.59104000  1.0
  H  H11  1  0.88553000  0.86031000  0.40897000  1.0
  H  H12  1  0.28805000  0.99005000  0.43147000  1.0
  H  H13  1  0.71195000  0.00996000  0.56853000  1.0
  H  H14  1  0.48807000  0.79372000  0.38327000  1.0
  H  H15  1  0.51192000  0.20629000  0.61672000  1.0
  H  H16  1  0.62516000  0.60215000  0.45265000  1.0
  H  H17  1  0.37483000  0.39786000  0.54735000  1.0
  H  H18  1  0.90709000  0.50285000  0.43304000  1.0
  H  H19  1  0.09292000  0.49714000  0.56697000  1.0
  H  H20  1  0.97357000  0.28688000  0.47704000  1.0
  H  H21  1  0.02643000  0.71311000  0.52296000  1.0
  H  H22  1  0.13140000  0.14511000  0.31049000  1.0
  H  H23  1  0.86860000  0.85488000  0.68951000  1.0
  H  H24  1  0.13322000  0.43756000  0.05788000  1.0
  H  H25  1  0.86679000  0.56244000  0.94213000  1.0
  H  H26  1  0.29172000  0.27838000  0.88198000  1.0
  H  H27  1  0.70829000  0.72162000  0.11802000  1.0
  Pb  Pb28  1  0.25006000  0.87105000  0.98935000  1.0
  Pb  Pb29  1  0.74995000  0.12894000  0.01065000  1.0
  C  C30  1  0.40736000  0.58212000  0.88276000  1.0
  C  C31  1  0.59263000  0.41789000  0.11723000  1.0
  C  C32  1  0.51318000  0.49376000  0.80458000  1.0
  C  C33  1  0.48683000  0.50625000  0.19542000  1.0
  C  C34  1  0.56536000  0.52093000  0.68446000  1.0
  C  C35  1  0.43464000  0.47908000  0.31554000  1.0
  C  C36  1  0.50524000  0.63473000  0.64210000  1.0
  C  C37  1  0.49476000  0.36528000  0.35789000  1.0
  C  C38  1  0.40097000  0.71926000  0.72807000  1.0
  C  C39  1  0.59903000  0.28075000  0.27192000  1.0
  C  C40  1  0.33529000  0.83623000  0.68842000  1.0
  C  C41  1  0.66471000  0.16378000  0.31157000  1.0
  C  C42  1  0.17309000  0.02424000  0.73529000  1.0
  C  C43  1  0.82690000  0.97576000  0.26471000  1.0
  C  C44  1  0.18024000  0.05264000  0.61333000  1.0
  C  C45  1  0.81975000  0.94736000  0.38667000  1.0
  C  C46  1  0.27496000  0.97066000  0.52721000  1.0
  C  C47  1  0.72504000  0.02934000  0.47278000  1.0
  C  C48  1  0.35907000  0.86002000  0.56304000  1.0
  C  C49  1  0.64093000  0.13999000  0.43696000  1.0
  C  C50  1  0.46563000  0.77302000  0.47893000  1.0
  C  C51  1  0.53436000  0.22699000  0.52107000  1.0
  C  C52  1  0.54068000  0.66612000  0.51760000  1.0
  C  C53  1  0.45931000  0.33389000  0.48239000  1.0
  C  C54  1  0.96778000  0.43989000  0.36023000  1.0
  C  C55  1  0.03223000  0.56010000  0.63978000  1.0
  C  C56  1  0.00695000  0.31824000  0.38459000  1.0
  C  C57  1  0.99305000  0.68175000  0.61542000  1.0
  C  C58  1  0.09424000  0.23956000  0.29150000  1.0
  C  C59  1  0.90576000  0.76043000  0.70850000  1.0
  C  C60  1  0.13759000  0.28096000  0.17289000  1.0
  C  C61  1  0.86240000  0.71904000  0.82711000  1.0
  C  C62  1  0.09644000  0.40329000  0.14875000  1.0
  C  C63  1  0.90357000  0.59671000  0.85125000  1.0
  C  C64  1  0.01560000  0.48238000  0.24283000  1.0
  C  C65  1  0.98441000  0.51761000  0.75718000  1.0
  S  S66  1  0.99550000  0.64195000  0.21955000  1.0
  S  S67  1  0.00451000  0.35805000  0.78046000  1.0
  N  N68  1  0.35584000  0.69202000  0.84612000  1.0
  N  N69  1  0.64415000  0.30799000  0.15388000  1.0
  N  N70  1  0.24628000  0.91929000  0.77166000  1.0
  N  N71  1  0.75372000  0.08071000  0.22833000  1.0
  O  O72  1  0.10976000  0.10412000  0.01213000  1.0
  O  O73  1  0.89024000  0.89588000  0.98786000  1.0
  O  O74  1  0.40816000  0.09667000  0.10535000  1.0
  O  O75  1  0.59184000  0.90333000  0.89465000  1.0
  O  O76  1  0.36079000  0.25487000  0.95104000  1.0
  O  O77  1  0.63921000  0.74513000  0.04896000  1.0
  O  O78  1  0.78970000  0.68072000  0.23270000  1.0
  O  O79  1  0.21031000  0.31927000  0.76730000  1.0
  O  O80  1  0.09799000  0.66060000  0.09659000  1.0
  O  O81  1  0.90201000  0.33939000  0.90341000  1.0
  O  O82  1  0.07976000  0.69318000  0.31354000  1.0
  O  O83  1  0.92025000  0.30682000  0.68645000  1.0
