# generated using pymatgen
data_CdH12C11(NO2)2
_symmetry_space_group_name_H-M   'P 1'
_cell_length_a   8.54230000
_cell_length_b   9.33956000
_cell_length_c   16.08190000
_cell_angle_alpha   90.00000000
_cell_angle_beta   90.00000000
_cell_angle_gamma   90.00000000
_symmetry_Int_Tables_number   1
_chemical_formula_structural   CdH12C11(NO2)2
_chemical_formula_sum   'Cd4 H48 C44 N8 O16'
_cell_volume   1283.03526459
_cell_formula_units_Z   4
loop_
 _symmetry_equiv_pos_site_id
 _symmetry_equiv_pos_as_xyz
  1  'x, y, z'
loop_
 _atom_site_type_symbol
 _atom_site_label
 _atom_site_symmetry_multiplicity
 _atom_site_fract_x
 _atom_site_fract_y
 _atom_site_fract_z
 _atom_site_occupancy
  Cd  Cd0  1  0.95632000  0.41820000  0.77780000  1.0
  Cd  Cd1  1  0.54369000  0.58180000  0.27780000  1.0
  Cd  Cd2  1  0.04368000  0.91820000  0.72220000  1.0
  Cd  Cd3  1  0.45632000  0.08180000  0.22220000  1.0
  H  H4  1  0.19166000  0.55071000  0.67460000  1.0
  H  H5  1  0.30834000  0.44929000  0.17460000  1.0
  H  H6  1  0.80834000  0.05071000  0.82540000  1.0
  H  H7  1  0.69166000  0.94929000  0.32540000  1.0
  H  H8  1  0.46041000  0.17309000  0.78102000  1.0
  H  H9  1  0.03959000  0.82691000  0.28102000  1.0
  H  H10  1  0.53959000  0.67309000  0.71898000  1.0
  H  H11  1  0.96041000  0.32691000  0.21898000  1.0
  H  H12  1  0.50515000  0.18159000  0.67402000  1.0
  H  H13  1  0.99485000  0.81841000  0.17402000  1.0
  H  H14  1  0.49485000  0.68159000  0.82598000  1.0
  H  H15  1  0.00515000  0.31841000  0.32598000  1.0
  H  H16  1  0.45213000  0.46112000  0.69234000  1.0
  H  H17  1  0.04787000  0.53888000  0.19234000  1.0
  H  H18  1  0.54787000  0.96112000  0.80766000  1.0
  H  H19  1  0.95213000  0.03888000  0.30766000  1.0
  H  H20  1  0.34392000  0.40653000  0.78073000  1.0
  H  H21  1  0.15608000  0.59347000  0.28073000  1.0
  H  H22  1  0.65608000  0.90653000  0.71927000  1.0
  H  H23  1  0.84392000  0.09347000  0.21927000  1.0
  H  H24  1  0.29955000  0.32185000  0.59946000  1.0
  H  H25  1  0.20046000  0.67814000  0.09946000  1.0
  H  H26  1  0.70046000  0.82186000  0.90054000  1.0
  H  H27  1  0.79954000  0.17814000  0.40054000  1.0
  H  H28  1  0.95643000  0.55099000  0.59636000  1.0
  H  H29  1  0.54357000  0.44901000  0.09636000  1.0
  H  H30  1  0.04357000  0.05099000  0.90364000  1.0
  H  H31  1  0.45643000  0.94901000  0.40364000  1.0
  H  H32  1  0.97806000  0.36634000  0.57669000  1.0
  H  H33  1  0.52194000  0.63366000  0.07669000  1.0
  H  H34  1  0.02194000  0.86634000  0.92331000  1.0
  H  H35  1  0.47806000  0.13366000  0.42331000  1.0
  H  H36  1  0.35770000  0.76409000  0.42118000  1.0
  H  H37  1  0.14230000  0.23591000  0.92118000  1.0
  H  H38  1  0.64230000  0.26409000  0.07882000  1.0
  H  H39  1  0.85771000  0.73591000  0.57882000  1.0
  H  H40  1  0.17265000  0.72547000  0.53882000  1.0
  H  H41  1  0.32735000  0.27453000  0.03882000  1.0
  H  H42  1  0.82735000  0.22547000  0.96118000  1.0
  H  H43  1  0.67265000  0.77453000  0.46118000  1.0
  H  H44  1  0.15744000  0.27831000  0.46827000  1.0
  H  H45  1  0.34256000  0.72169000  0.96827000  1.0
  H  H46  1  0.84256000  0.77831000  0.03173000  1.0
  H  H47  1  0.65744000  0.22169000  0.53173000  1.0
  H  H48  1  0.35522000  0.33377000  0.35943000  1.0
  H  H49  1  0.14478000  0.66623000  0.85943000  1.0
  H  H50  1  0.64478000  0.83377000  0.14057000  1.0
  H  H51  1  0.85522000  0.16623000  0.64057000  1.0
  C  C52  1  0.66677000  0.29486000  0.74968000  1.0
  C  C53  1  0.83323000  0.70513000  0.24968000  1.0
  C  C54  1  0.33323000  0.79486000  0.75032000  1.0
  C  C55  1  0.16677000  0.20514000  0.25032000  1.0
  C  C56  1  0.50089000  0.24516000  0.73171000  1.0
  C  C57  1  0.99911000  0.75484000  0.23171000  1.0
  C  C58  1  0.49911000  0.74516000  0.76829000  1.0
  C  C59  1  0.00089000  0.25484000  0.26829000  1.0
  C  C60  1  0.38815000  0.37098000  0.72007000  1.0
  C  C61  1  0.11185000  0.62902000  0.22007000  1.0
  C  C62  1  0.61185000  0.87098000  0.77993000  1.0
  C  C63  1  0.88815000  0.12902000  0.27993000  1.0
  C  C64  1  0.25071000  0.33626000  0.66230000  1.0
  C  C65  1  0.24929000  0.66374000  0.16230000  1.0
  C  C66  1  0.74929000  0.83626000  0.83770000  1.0
  C  C67  1  0.75071000  0.16374000  0.33770000  1.0
  C  C68  1  0.17200000  0.19363000  0.68434000  1.0
  C  C69  1  0.32800000  0.80637000  0.18434000  1.0
  C  C70  1  0.82800000  0.69363000  0.81566000  1.0
  C  C71  1  0.67200000  0.30637000  0.31566000  1.0
  C  C72  1  0.04326000  0.46630000  0.58653000  1.0
  C  C73  1  0.45674000  0.53370000  0.08653000  1.0
  C  C74  1  0.95674000  0.96630000  0.91347000  1.0
  C  C75  1  0.54326000  0.03370000  0.41347000  1.0
  C  C76  1  0.31283000  0.65762000  0.43521000  1.0
  C  C77  1  0.18717000  0.34238000  0.93521000  1.0
  C  C78  1  0.68717000  0.15762000  0.06479000  1.0
  C  C79  1  0.81283000  0.84238000  0.56479000  1.0
  C  C80  1  0.20585000  0.63599000  0.49909000  1.0
  C  C81  1  0.29415000  0.36401000  0.99909000  1.0
  C  C82  1  0.79415000  0.13599000  0.00091000  1.0
  C  C83  1  0.70585000  0.86401000  0.50091000  1.0
  C  C84  1  0.14709000  0.49799000  0.51307000  1.0
  C  C85  1  0.35291000  0.50201000  0.01307000  1.0
  C  C86  1  0.85291000  0.99799000  0.98693000  1.0
  C  C87  1  0.64709000  0.00201000  0.48693000  1.0
  C  C88  1  0.19998000  0.38780000  0.46108000  1.0
  C  C89  1  0.30002000  0.61220000  0.96108000  1.0
  C  C90  1  0.80002000  0.88780000  0.03892000  1.0
  C  C91  1  0.69998000  0.11220000  0.53892000  1.0
  C  C92  1  0.31066000  0.41773000  0.40009000  1.0
  C  C93  1  0.18934000  0.58227000  0.90009000  1.0
  C  C94  1  0.68934000  0.91773000  0.09991000  1.0
  C  C95  1  0.81066000  0.08227000  0.59991000  1.0
  N  N96  1  0.13580000  0.45394000  0.66417000  1.0
  N  N97  1  0.36420000  0.54606000  0.16417000  1.0
  N  N98  1  0.86420000  0.95394000  0.83583000  1.0
  N  N99  1  0.63580000  0.04606000  0.33583000  1.0
  N  N100  1  0.36645000  0.55047000  0.38709000  1.0
  N  N101  1  0.13355000  0.44953000  0.88709000  1.0
  N  N102  1  0.63355000  0.05047000  0.11291000  1.0
  N  N103  1  0.86645000  0.94953000  0.61291000  1.0
  O  O104  1  0.72777000  0.38531000  0.69945000  1.0
  O  O105  1  0.77223000  0.61469000  0.19945000  1.0
  O  O106  1  0.27223000  0.88531000  0.80055000  1.0
  O  O107  1  0.22777000  0.11469000  0.30055000  1.0
  O  O108  1  0.74052000  0.24482000  0.81224000  1.0
  O  O109  1  0.75947000  0.75518000  0.31224000  1.0
  O  O110  1  0.25947000  0.74482000  0.68776000  1.0
  O  O111  1  0.24052000  0.25518000  0.18776000  1.0
  O  O112  1  0.07227000  0.19080000  0.74420000  1.0
  O  O113  1  0.42772000  0.80920000  0.24420000  1.0
  O  O114  1  0.92772000  0.69080000  0.75580000  1.0
  O  O115  1  0.57227000  0.30920000  0.25580000  1.0
  O  O116  1  0.20905000  0.08407000  0.64290000  1.0
  O  O117  1  0.29095000  0.91593000  0.14290000  1.0
  O  O118  1  0.79095000  0.58407000  0.85710000  1.0
  O  O119  1  0.70905000  0.41593000  0.35710000  1.0
