# generated using pymatgen
data_CuH28C44(N3O7)2
_symmetry_space_group_name_H-M   'P 1'
_cell_length_a   8.87780000
_cell_length_b   10.10580000
_cell_length_c   15.37020000
_cell_angle_alpha   74.97900000
_cell_angle_beta   83.41270000
_cell_angle_gamma   68.91300000
_symmetry_Int_Tables_number   1
_chemical_formula_structural   CuH28C44(N3O7)2
_chemical_formula_sum   'Cu1 H28 C44 N6 O14'
_cell_volume   1242.31404755
_cell_formula_units_Z   1
loop_
 _symmetry_equiv_pos_site_id
 _symmetry_equiv_pos_as_xyz
  1  'x, y, z'
loop_
 _atom_site_type_symbol
 _atom_site_label
 _atom_site_symmetry_multiplicity
 _atom_site_fract_x
 _atom_site_fract_y
 _atom_site_fract_z
 _atom_site_occupancy
  Cu  Cu0  1  0.50001000  0.50001000  0.00000000  1.0
  H  H1  1  0.69533000  0.56799000  0.83932000  1.0
  H  H2  1  0.30468000  0.43201000  0.16067000  1.0
  H  H3  1  0.79598000  0.47172000  0.70103000  1.0
  H  H4  1  0.20404000  0.52826000  0.29897000  1.0
  H  H5  1  0.66492000  0.09263000  0.83482000  1.0
  H  H6  1  0.33506000  0.90737000  0.16519000  1.0
  H  H7  1  0.57601000  0.20175000  0.96763000  1.0
  H  H8  1  0.42397000  0.79828000  0.03237000  1.0
  H  H9  1  0.52602000  0.24952000  0.52914000  1.0
  H  H10  1  0.47398000  0.75047000  0.47088000  1.0
  H  H11  1  0.41079000  0.25888000  0.38538000  1.0
  H  H12  1  0.58918000  0.74112000  0.61463000  1.0
  H  H13  1  0.41676000  0.14613000  0.26071000  1.0
  H  H14  1  0.58319000  0.85389000  0.73931000  1.0
  H  H15  1  0.63607000  0.91592000  0.24606000  1.0
  H  H16  1  0.36388000  0.08411000  0.75394000  1.0
  H  H17  1  0.84859000  0.79023000  0.36276000  1.0
  H  H18  1  0.15137000  0.20977000  0.63723000  1.0
  H  H19  1  0.96104000  0.77896000  0.50648000  1.0
  H  H20  1  0.03894000  0.22103000  0.49351000  1.0
  H  H21  1  0.20912000  0.43182000  0.97511000  1.0
  H  H22  1  0.79092000  0.56817000  0.02489000  1.0
  H  H23  1  0.99348000  0.52435000  0.85818000  1.0
  H  H24  1  0.00655000  0.47562000  0.14183000  1.0
  H  H25  1  0.19507000  0.85883000  0.72872000  1.0
  H  H26  1  0.80491000  0.14118000  0.27129000  1.0
  H  H27  1  0.39746000  0.75601000  0.85138000  1.0
  H  H28  1  0.60253000  0.24400000  0.14862000  1.0
  C  C29  1  0.69151000  0.46353000  0.83451000  1.0
  C  C30  1  0.30850000  0.53647000  0.16548000  1.0
  C  C31  1  0.74608000  0.40970000  0.75804000  1.0
  C  C32  1  0.25393000  0.59029000  0.24196000  1.0
  C  C33  1  0.73059000  0.27808000  0.75501000  1.0
  C  C34  1  0.26941000  0.72191000  0.24499000  1.0
  C  C35  1  0.67239000  0.19913000  0.83150000  1.0
  C  C36  1  0.32760000  0.80087000  0.16850000  1.0
  C  C37  1  0.62264000  0.25901000  0.90648000  1.0
  C  C38  1  0.37735000  0.74100000  0.09352000  1.0
  C  C39  1  0.77049000  0.23252000  0.66789000  1.0
  C  C40  1  0.22953000  0.76747000  0.33211000  1.0
  C  C41  1  0.73203000  0.07380000  0.58919000  1.0
  C  C42  1  0.26799000  0.92619000  0.41080000  1.0
  C  C43  1  0.62160000  0.14831000  0.52234000  1.0
  C  C44  1  0.37841000  0.85169000  0.47766000  1.0
  C  C45  1  0.62652000  0.08937000  0.44745000  1.0
  C  C46  1  0.37348000  0.91063000  0.55255000  1.0
  C  C47  1  0.50803000  0.15769000  0.38005000  1.0
  C  C48  1  0.49194000  0.84233000  0.61996000  1.0
  C  C49  1  0.51155000  0.09430000  0.31019000  1.0
  C  C50  1  0.48841000  0.90572000  0.68982000  1.0
  C  C51  1  0.63548000  0.96191000  0.30295000  1.0
  C  C52  1  0.36448000  0.03812000  0.69705000  1.0
  C  C53  1  0.75287000  0.89278000  0.36726000  1.0
  C  C54  1  0.24710000  0.10724000  0.63273000  1.0
  C  C55  1  0.75058000  0.95317000  0.44154000  1.0
  C  C56  1  0.24941000  0.04684000  0.55846000  1.0
  C  C57  1  0.86458000  0.88074000  0.51103000  1.0
  C  C58  1  0.13542000  0.11925000  0.48896000  1.0
  C  C59  1  0.85345000  0.93963000  0.58360000  1.0
  C  C60  1  0.14658000  0.06037000  0.41639000  1.0
  C  C61  1  0.95839000  0.74771000  0.71204000  1.0
  C  C62  1  0.04162000  0.25229000  0.28796000  1.0
  C  C63  1  0.19985000  0.52563000  0.91874000  1.0
  C  C64  1  0.80017000  0.47437000  0.08126000  1.0
  C  C65  1  0.08291000  0.57655000  0.85378000  1.0
  C  C66  1  0.91710000  0.42344000  0.14623000  1.0
  C  C67  1  0.08099000  0.69636000  0.78304000  1.0
  C  C68  1  0.91901000  0.30364000  0.21696000  1.0
  C  C69  1  0.19383000  0.76388000  0.78145000  1.0
  C  C70  1  0.80617000  0.23613000  0.21855000  1.0
  C  C71  1  0.30683000  0.70758000  0.84910000  1.0
  C  C72  1  0.69317000  0.29243000  0.15090000  1.0
  N  N73  1  0.62692000  0.39109000  0.90628000  1.0
  N  N74  1  0.37309000  0.60891000  0.09371000  1.0
  N  N75  1  0.31108000  0.58948000  0.91537000  1.0
  N  N76  1  0.68894000  0.41052000  0.08463000  1.0
  N  N77  1  0.63042000  0.83265000  0.90694000  1.0
  N  N78  1  0.36959000  0.16734000  0.09306000  1.0
  O  O79  1  0.83632000  0.29067000  0.60325000  1.0
  O  O80  1  0.16368000  0.70931000  0.39675000  1.0
  O  O81  1  0.71719000  0.12089000  0.66876000  1.0
  O  O82  1  0.28283000  0.87909000  0.33124000  1.0
  O  O83  1  0.86618000  0.68566000  0.70651000  1.0
  O  O84  1  0.13382000  0.31435000  0.29349000  1.0
  O  O85  1  0.96442000  0.87340000  0.65315000  1.0
  O  O86  1  0.03561000  0.12659000  0.34684000  1.0
  O  O87  1  0.62406000  0.70224000  0.92630000  1.0
  O  O88  1  0.37595000  0.29775000  0.07370000  1.0
  O  O89  1  0.50075000  0.93950000  0.90482000  1.0
  O  O90  1  0.49927000  0.06049000  0.09517000  1.0
  O  O91  1  0.76573000  0.84867000  0.89039000  1.0
  O  O92  1  0.23428000  0.15132000  0.10962000  1.0
