# generated using pymatgen
data_Pr2P2H16C14N2O19
_symmetry_space_group_name_H-M   'P 1'
_cell_length_a   10.68650000
_cell_length_b   11.47780000
_cell_length_c   11.73860000
_cell_angle_alpha   105.14600000
_cell_angle_beta   110.84900000
_cell_angle_gamma   98.88610000
_symmetry_Int_Tables_number   1
_chemical_formula_structural   Pr2P2H16C14N2O19
_chemical_formula_sum   'Pr4 P4 H32 C28 N4 O38'
_cell_volume   1248.98181135
_cell_formula_units_Z   2
loop_
 _symmetry_equiv_pos_site_id
 _symmetry_equiv_pos_as_xyz
  1  'x, y, z'
loop_
 _atom_site_type_symbol
 _atom_site_label
 _atom_site_symmetry_multiplicity
 _atom_site_fract_x
 _atom_site_fract_y
 _atom_site_fract_z
 _atom_site_occupancy
  Pr  Pr0  1  0.39475000  0.85304000  0.54936000  1.0
  Pr  Pr1  1  0.60525000  0.14696000  0.45064000  1.0
  Pr  Pr2  1  0.24711000  0.62788000  0.94968000  1.0
  Pr  Pr3  1  0.75291000  0.37212000  0.05032000  1.0
  P  P4  1  0.74227000  0.88617000  0.53989000  1.0
  P  P5  1  0.25772000  0.11383000  0.46011000  1.0
  P  P6  1  0.03350000  0.61925000  0.35399000  1.0
  P  P7  1  0.96650000  0.38076000  0.64601000  1.0
  H  H8  1  0.91354000  0.84763000  0.68645000  1.0
  H  H9  1  0.08646000  0.15238000  0.31355000  1.0
  H  H10  1  0.00316000  0.43087000  0.35812000  1.0
  H  H11  1  0.99686000  0.56914000  0.64189000  1.0
  H  H12  1  0.34632000  0.65849000  0.30148000  1.0
  H  H13  1  0.65368000  0.34151000  0.69851000  1.0
  H  H14  1  0.35029000  0.57882000  0.39257000  1.0
  H  H15  1  0.64971000  0.42121000  0.60744000  1.0
  H  H16  1  0.77313000  0.67038000  0.25797000  1.0
  H  H17  1  0.22687000  0.32962000  0.74203000  1.0
  H  H18  1  0.90265000  0.73127000  0.95048000  1.0
  H  H19  1  0.09732000  0.26873000  0.04951000  1.0
  H  H20  1  0.67106000  0.66343000  0.41052000  1.0
  H  H21  1  0.32893000  0.33657000  0.58948000  1.0
  H  H22  1  0.62224000  0.75654000  0.31397000  1.0
  H  H23  1  0.37777000  0.24346000  0.68603000  1.0
  H  H24  1  0.86156000  0.60062000  0.44286000  1.0
  H  H25  1  0.13843000  0.39938000  0.55713000  1.0
  H  H26  1  0.99039000  0.75016000  0.52993000  1.0
  H  H27  1  0.00961000  0.24984000  0.47007000  1.0
  H  H28  1  0.88181000  0.93668000  0.40531000  1.0
  H  H29  1  0.11818000  0.06331000  0.59468000  1.0
  H  H30  1  0.01164000  0.86332000  0.38359000  1.0
  H  H31  1  0.98835000  0.13667000  0.61641000  1.0
  H  H32  1  0.68581000  0.94426000  0.21062000  1.0
  H  H33  1  0.31419000  0.05575000  0.78940000  1.0
  H  H34  1  0.58956000  0.91054000  0.97296000  1.0
  H  H35  1  0.41042000  0.08946000  0.02706000  1.0
  H  H36  1  0.70179000  0.79779000  0.83900000  1.0
  H  H37  1  0.29817000  0.20222000  0.16100000  1.0
  H  H38  1  0.99780000  0.76216000  0.16307000  1.0
  H  H39  1  0.00219000  0.23784000  0.83690000  1.0
  C  C40  1  0.70831000  0.75095000  0.39665000  1.0
  C  C41  1  0.29168000  0.24904000  0.60335000  1.0
  C  C42  1  0.92451000  0.67995000  0.43391000  1.0
  C  C43  1  0.07549000  0.32005000  0.56609000  1.0
  C  C44  1  0.90006000  0.85669000  0.34505000  1.0
  C  C45  1  0.09994000  0.14331000  0.65495000  1.0
  C  C46  1  0.84626000  0.85193000  0.20666000  1.0
  C  C47  1  0.15372000  0.14807000  0.79334000  1.0
  C  C48  1  0.73245000  0.89573000  0.15068000  1.0
  C  C49  1  0.26753000  0.10428000  0.84933000  1.0
  C  C50  1  0.67907000  0.87859000  0.01844000  1.0
  C  C51  1  0.32091000  0.12141000  0.98156000  1.0
  C  C52  1  0.74081000  0.81852000  0.94353000  1.0
  C  C53  1  0.25916000  0.18147000  0.05647000  1.0
  C  C54  1  0.90778000  0.79748000  0.12843000  1.0
  C  C55  1  0.09219000  0.20252000  0.87156000  1.0
  C  C56  1  0.35171000  0.68374000  0.72734000  1.0
  C  C57  1  0.64831000  0.31626000  0.27269000  1.0
  C  C58  1  0.22673000  0.74190000  0.71094000  1.0
  C  C59  1  0.77330000  0.25811000  0.28909000  1.0
  C  C60  1  0.38083000  0.85377000  0.24505000  1.0
  C  C61  1  0.61918000  0.14623000  0.75495000  1.0
  C  C62  1  0.41153000  0.92158000  0.15570000  1.0
  C  C63  1  0.58849000  0.07841000  0.84430000  1.0
  C  C64  1  0.45411000  0.43897000  0.94213000  1.0
  C  C65  1  0.54591000  0.56102000  0.05787000  1.0
  C  C66  1  0.95463000  0.54038000  0.96932000  1.0
  C  C67  1  0.04538000  0.45962000  0.03068000  1.0
  N  N68  1  0.82522000  0.73707000  0.35476000  1.0
  N  N69  1  0.17478000  0.26293000  0.64525000  1.0
  N  N70  1  0.85446000  0.78254000  0.00154000  1.0
  N  N71  1  0.14552000  0.21746000  0.99846000  1.0
  O  O72  1  0.64251000  0.85113000  0.59710000  1.0
  O  O73  1  0.35749000  0.14887000  0.40290000  1.0
  O  O74  1  0.74719000  0.00137000  0.50014000  1.0
  O  O75  1  0.25280000  0.99863000  0.49986000  1.0
  O  O76  1  0.90135000  0.90750000  0.64055000  1.0
  O  O77  1  0.09865000  0.09250000  0.35944000  1.0
  O  O78  1  0.93762000  0.56032000  0.21181000  1.0
  O  O79  1  0.06238000  0.43970000  0.78819000  1.0
  O  O80  1  0.16189000  0.72109000  0.39085000  1.0
  O  O81  1  0.83811000  0.27893000  0.60916000  1.0
  O  O82  1  0.07770000  0.51206000  0.41149000  1.0
  O  O83  1  0.92231000  0.48794000  0.58850000  1.0
  O  O84  1  0.41423000  0.69392000  0.65522000  1.0
  O  O85  1  0.58577000  0.30608000  0.34479000  1.0
  O  O86  1  0.38088000  0.63070000  0.81138000  1.0
  O  O87  1  0.61913000  0.36927000  0.18862000  1.0
  O  O88  1  0.21992000  0.82380000  0.65776000  1.0
  O  O89  1  0.78011000  0.17620000  0.34225000  1.0
  O  O90  1  0.13843000  0.69975000  0.75204000  1.0
  O  O91  1  0.86159000  0.30026000  0.24797000  1.0
  O  O92  1  0.44061000  0.91319000  0.36709000  1.0
  O  O93  1  0.55937000  0.08681000  0.63288000  1.0
  O  O94  1  0.30149000  0.74355000  0.19056000  1.0
  O  O95  1  0.69851000  0.25645000  0.80943000  1.0
  O  O96  1  0.49256000  0.03163000  0.21073000  1.0
  O  O97  1  0.50744000  0.96836000  0.78927000  1.0
  O  O98  1  0.35535000  0.86055000  0.03513000  1.0
  O  O99  1  0.64468000  0.13944000  0.96486000  1.0
  O  O100  1  0.32532000  0.43101000  0.89005000  1.0
  O  O101  1  0.67470000  0.56899000  0.10995000  1.0
  O  O102  1  0.51137000  0.35665000  0.90744000  1.0
  O  O103  1  0.48862000  0.64333000  0.09254000  1.0
  O  O104  1  0.01807000  0.63697000  0.95626000  1.0
  O  O105  1  0.98196000  0.36303000  0.04376000  1.0
  O  O106  1  0.82613000  0.50867000  0.93853000  1.0
  O  O107  1  0.17388000  0.49133000  0.06147000  1.0
  O  O108  1  0.40313000  0.65220000  0.38645000  1.0
  O  O109  1  0.59687000  0.34782000  0.61354000  1.0
