# generated using pymatgen
data_CuH8C6N12(ClO2)2
_symmetry_space_group_name_H-M   'P 1'
_cell_length_a   6.48470000
_cell_length_b   9.89051000
_cell_length_c   11.19030000
_cell_angle_alpha   89.41430000
_cell_angle_beta   89.99930000
_cell_angle_gamma   89.99990000
_symmetry_Int_Tables_number   1
_chemical_formula_structural   CuH8C6N12(ClO2)2
_chemical_formula_sum   'Cu2 H16 C12 N24 Cl4 O8'
_cell_volume   717.67466217
_cell_formula_units_Z   2
loop_
 _symmetry_equiv_pos_site_id
 _symmetry_equiv_pos_as_xyz
  1  'x, y, z'
loop_
 _atom_site_type_symbol
 _atom_site_label
 _atom_site_symmetry_multiplicity
 _atom_site_fract_x
 _atom_site_fract_y
 _atom_site_fract_z
 _atom_site_occupancy
  Cu  Cu0  1  0.50000000  0.00000000  1.00000000  1.0
  Cu  Cu1  1  0.00000000  0.50000000  0.00000000  1.0
  H  H2  1  0.00335000  0.79653000  0.61820000  1.0
  H  H3  1  0.50336000  0.70348000  0.38180000  1.0
  H  H4  1  0.99664000  0.20347000  0.38180000  1.0
  H  H5  1  0.49665000  0.29653000  0.61820000  1.0
  H  H6  1  0.14235000  0.78971000  0.75512000  1.0
  H  H7  1  0.64235000  0.71029000  0.24488000  1.0
  H  H8  1  0.85765000  0.21029000  0.24488000  1.0
  H  H9  1  0.35765000  0.28970000  0.75512000  1.0
  H  H10  1  0.32026000  0.01082000  0.69953000  1.0
  H  H11  1  0.82026000  0.48917000  0.30047000  1.0
  H  H12  1  0.67974000  0.98918000  0.30047000  1.0
  H  H13  1  0.17975000  0.51083000  0.69953000  1.0
  H  H14  1  0.19944000  0.00508000  0.55549000  1.0
  H  H15  1  0.69943000  0.49492000  0.44451000  1.0
  H  H16  1  0.80056000  0.99492000  0.44451000  1.0
  H  H17  1  0.30057000  0.50508000  0.55549000  1.0
  C  C18  1  0.07958000  0.85780000  0.68646000  1.0
  C  C19  1  0.57958000  0.64220000  0.31354000  1.0
  C  C20  1  0.92042000  0.14221000  0.31354000  1.0
  C  C21  1  0.42042000  0.35780000  0.68646000  1.0
  C  C22  1  0.84564000  0.92285000  0.85753000  1.0
  C  C23  1  0.34564000  0.57715000  0.14247000  1.0
  C  C24  1  0.15436000  0.07715000  0.14247000  1.0
  C  C25  1  0.65436000  0.42285000  0.85753000  1.0
  C  C26  1  0.25037000  0.94493000  0.63268000  1.0
  C  C27  1  0.75038000  0.55506000  0.36732000  1.0
  C  C28  1  0.74963000  0.05507000  0.36732000  1.0
  C  C29  1  0.24963000  0.44494000  0.63268000  1.0
  N  N30  1  0.92171000  0.93837000  0.74519000  1.0
  N  N31  1  0.42171000  0.56163000  0.25481000  1.0
  N  N32  1  0.07829000  0.06163000  0.25481000  1.0
  N  N33  1  0.57830000  0.43837000  0.74519000  1.0
  N  N34  1  0.92369000  0.82826000  0.93261000  1.0
  N  N35  1  0.42370000  0.67174000  0.06739000  1.0
  N  N36  1  0.07631000  0.17174000  0.06739000  1.0
  N  N37  1  0.57630000  0.32826000  0.93261000  1.0
  N  N38  1  0.81355000  0.03666000  0.68792000  1.0
  N  N39  1  0.31355000  0.46335000  0.31208000  1.0
  N  N40  1  0.18645000  0.96334000  0.31208000  1.0
  N  N41  1  0.68645000  0.53665000  0.68792000  1.0
  N  N42  1  0.85906000  0.82449000  0.04316000  1.0
  N  N43  1  0.35906000  0.67551000  0.95684000  1.0
  N  N44  1  0.14094000  0.17551000  0.95684000  1.0
  N  N45  1  0.64094000  0.32449000  0.04316000  1.0
  N  N46  1  0.69082000  0.01288000  0.86734000  1.0
  N  N47  1  0.19083000  0.48712000  0.13266000  1.0
  N  N48  1  0.30917000  0.98712000  0.13266000  1.0
  N  N49  1  0.80917000  0.51288000  0.86734000  1.0
  N  N50  1  0.67584000  0.08098000  0.76156000  1.0
  N  N51  1  0.17585000  0.41902000  0.23844000  1.0
  N  N52  1  0.32416000  0.91902000  0.23844000  1.0
  N  N53  1  0.82415000  0.58098000  0.76156000  1.0
  Cl  Cl54  1  0.44690000  0.83308000  0.58100000  1.0
  Cl  Cl55  1  0.94690000  0.66692000  0.41899000  1.0
  Cl  Cl56  1  0.55310000  0.16692000  0.41899000  1.0
  Cl  Cl57  1  0.05310000  0.33308000  0.58101000  1.0
  O  O58  1  0.92869000  0.73389000  0.11088000  1.0
  O  O59  1  0.42868000  0.76610000  0.88913000  1.0
  O  O60  1  0.07131000  0.26611000  0.88912000  1.0
  O  O61  1  0.57132000  0.23390000  0.11087000  1.0
  O  O62  1  0.73065000  0.91116000  0.08994000  1.0
  O  O63  1  0.23066000  0.58882000  0.91007000  1.0
  O  O64  1  0.26934000  0.08883000  0.91006000  1.0
  O  O65  1  0.76934000  0.41118000  0.08993000  1.0
