# generated using pymatgen
data_Zn2H24C41S2N2(O4F3)2
_symmetry_space_group_name_H-M   'P 1'
_cell_length_a   10.93290000
_cell_length_b   10.98560000
_cell_length_c   20.20950000
_cell_angle_alpha   103.82400000
_cell_angle_beta   92.78030000
_cell_angle_gamma   107.81200000
_symmetry_Int_Tables_number   1
_chemical_formula_structural   Zn2H24C41S2N2(O4F3)2
_chemical_formula_sum   'Zn4 H48 C82 S4 N4 O16 F12'
_cell_volume   2224.47001784
_cell_formula_units_Z   2
loop_
 _symmetry_equiv_pos_site_id
 _symmetry_equiv_pos_as_xyz
  1  'x, y, z'
loop_
 _atom_site_type_symbol
 _atom_site_label
 _atom_site_symmetry_multiplicity
 _atom_site_fract_x
 _atom_site_fract_y
 _atom_site_fract_z
 _atom_site_occupancy
  Zn  Zn0  1  0.31465000  0.92293000  0.07713000  1.0
  Zn  Zn1  1  0.68534000  0.07706000  0.92287000  1.0
  Zn  Zn2  1  0.34561000  0.99422000  0.22787000  1.0
  Zn  Zn3  1  0.65438000  0.00578000  0.77214000  1.0
  H  H4  1  0.92671000  0.90290000  0.04229000  1.0
  H  H5  1  0.07329000  0.09711000  0.95772000  1.0
  H  H6  1  0.60625000  0.37935000  0.42821000  1.0
  H  H7  1  0.39376000  0.62065000  0.57179000  1.0
  H  H8  1  0.87632000  0.12827000  0.45673000  1.0
  H  H9  1  0.12368000  0.87173000  0.54327000  1.0
  H  H10  1  0.46359000  0.89691000  0.32842000  1.0
  H  H11  1  0.53641000  0.10308000  0.67159000  1.0
  H  H12  1  0.44940000  0.82784000  0.96026000  1.0
  H  H13  1  0.55061000  0.17217000  0.03974000  1.0
  H  H14  1  0.70324000  0.91768000  0.03598000  1.0
  H  H15  1  0.29676000  0.08232000  0.96403000  1.0
  H  H16  1  0.38765000  0.64514000  0.85250000  1.0
  H  H17  1  0.61235000  0.35487000  0.14750000  1.0
  H  H18  1  0.99739000  0.63776000  0.61816000  1.0
  H  H19  1  0.00259000  0.36224000  0.38184000  1.0
  H  H20  1  0.12893000  0.57428000  0.61642000  1.0
  H  H21  1  0.87108000  0.42573000  0.38359000  1.0
  H  H22  1  0.01565000  0.54120000  0.67471000  1.0
  H  H23  1  0.98434000  0.45880000  0.32529000  1.0
  H  H24  1  0.30034000  0.53942000  0.73507000  1.0
  H  H25  1  0.69967000  0.46058000  0.26492000  1.0
  H  H26  1  0.98579000  0.59001000  0.88119000  1.0
  H  H27  1  0.01422000  0.41002000  0.11879000  1.0
  H  H28  1  0.65007000  0.99846000  0.42239000  1.0
  H  H29  1  0.34993000  0.00153000  0.57761000  1.0
  H  H30  1  0.72934000  0.00686000  0.25615000  1.0
  H  H31  1  0.27064000  0.99313000  0.74386000  1.0
  H  H32  1  0.29977000  0.53125000  0.05266000  1.0
  H  H33  1  0.70021000  0.46874000  0.94734000  1.0
  H  H34  1  0.95412000  0.99027000  0.26233000  1.0
  H  H35  1  0.04587000  0.00972000  0.73767000  1.0
  H  H36  1  0.32182000  0.30731000  0.04480000  1.0
  H  H37  1  0.67817000  0.69268000  0.95519000  1.0
  H  H38  1  0.42038000  0.26065000  0.33548000  1.0
  H  H39  1  0.57962000  0.73934000  0.66453000  1.0
  H  H40  1  0.06559000  0.77382000  0.98897000  1.0
  H  H41  1  0.93442000  0.22621000  0.01102000  1.0
  H  H42  1  0.33574000  0.61426000  0.27258000  1.0
  H  H43  1  0.66425000  0.38574000  0.72741000  1.0
  H  H44  1  0.84971000  0.12058000  0.69119000  1.0
  H  H45  1  0.15030000  0.87942000  0.30882000  1.0
  H  H46  1  0.94984000  0.10804000  0.62483000  1.0
  H  H47  1  0.05018000  0.89196000  0.37517000  1.0
  H  H48  1  0.83998000  0.19745000  0.62391000  1.0
  H  H49  1  0.16002000  0.80254000  0.37609000  1.0
  H  H50  1  0.35783000  0.39093000  0.26492000  1.0
  H  H51  1  0.64217000  0.60907000  0.73508000  1.0
  C  C52  1  0.56954000  0.97209000  0.14275000  1.0
  C  C53  1  0.43046000  0.02789000  0.85725000  1.0
  C  C54  1  0.35319000  0.20201000  0.15102000  1.0
  C  C55  1  0.64681000  0.79799000  0.84898000  1.0
  C  C56  1  0.34206000  0.33623000  0.15452000  1.0
  C  C57  1  0.65793000  0.66377000  0.84547000  1.0
  C  C58  1  0.30811000  0.72096000  0.16711000  1.0
  C  C59  1  0.69188000  0.27903000  0.83288000  1.0
  C  C60  1  0.12997000  0.36360000  0.68314000  1.0
  C  C61  1  0.87003000  0.63640000  0.31686000  1.0
  C  C62  1  0.30485000  0.26850000  0.52942000  1.0
  C  C63  1  0.69516000  0.73152000  0.47058000  1.0
  C  C64  1  0.88247000  0.92454000  0.08892000  1.0
  C  C65  1  0.11752000  0.07545000  0.91109000  1.0
  C  C66  1  0.57777000  0.27197000  0.40842000  1.0
  C  C67  1  0.42224000  0.72803000  0.59158000  1.0
  C  C68  1  0.87163000  0.22224000  0.48759000  1.0
  C  C69  1  0.12839000  0.77776000  0.51241000  1.0
  C  C70  1  0.49811000  0.00325000  0.35313000  1.0
  C  C71  1  0.50190000  0.99673000  0.64687000  1.0
  C  C72  1  0.08808000  0.93885000  0.15561000  1.0
  C  C73  1  0.91191000  0.06114000  0.84440000  1.0
  C  C74  1  0.97486000  0.31519000  0.53801000  1.0
  C  C75  1  0.02516000  0.68482000  0.46198000  1.0
  C  C76  1  0.18069000  0.60069000  0.85733000  1.0
  C  C77  1  0.81933000  0.39933000  0.14267000  1.0
  C  C78  1  0.31634000  0.58554000  0.16301000  1.0
  C  C79  1  0.68364000  0.41445000  0.83698000  1.0
  C  C80  1  0.16111000  0.22935000  0.49727000  1.0
  C  C81  1  0.83890000  0.77066000  0.50273000  1.0
  C  C82  1  0.14011000  0.49271000  0.79466000  1.0
  C  C83  1  0.85990000  0.50730000  0.20534000  1.0
  C  C84  1  0.34794000  0.77311000  0.94062000  1.0
  C  C85  1  0.65206000  0.22691000  0.05938000  1.0
  C  C86  1  0.75839000  0.93365000  0.08543000  1.0
  C  C87  1  0.24160000  0.06634000  0.91458000  1.0
  C  C88  1  0.16983000  0.32592000  0.61579000  1.0
  C  C89  1  0.83016000  0.67408000  0.38421000  1.0
  C  C90  1  0.31258000  0.67140000  0.88035000  1.0
  C  C91  1  0.68743000  0.32861000  0.11965000  1.0
  C  C92  1  0.02579000  0.55220000  0.62237000  1.0
  C  C93  1  0.97421000  0.44781000  0.37763000  1.0
  C  C94  1  0.95308000  0.94476000  0.15267000  1.0
  C  C95  1  0.04691000  0.05522000  0.84734000  1.0
  C  C96  1  0.64804000  0.19931000  0.43211000  1.0
  C  C97  1  0.35196000  0.80068000  0.56789000  1.0
  C  C98  1  0.20527000  0.47300000  0.73836000  1.0
  C  C99  1  0.79474000  0.52701000  0.26164000  1.0
  C  C100  1  0.70378000  0.96408000  0.14595000  1.0
  C  C101  1  0.29621000  0.03589000  0.85405000  1.0
  C  C102  1  0.08967000  0.63915000  0.89688000  1.0
  C  C103  1  0.91034000  0.36088000  0.10311000  1.0
  C  C104  1  0.09764000  0.29473000  0.55312000  1.0
  C  C105  1  0.90236000  0.70527000  0.44688000  1.0
  C  C106  1  0.60298000  0.06087000  0.40452000  1.0
  C  C107  1  0.39702000  0.93913000  0.59549000  1.0
  C  C108  1  0.77407000  0.98411000  0.20979000  1.0
  C  C109  1  0.22592000  0.01588000  0.79022000  1.0
  C  C110  1  0.31212000  0.49896000  0.09876000  1.0
  C  C111  1  0.68788000  0.50104000  0.90123000  1.0
  C  C112  1  0.89796000  0.97441000  0.21317000  1.0
  C  C113  1  0.10202000  0.02555000  0.78684000  1.0
  C  C114  1  0.32482000  0.37512000  0.09446000  1.0
  C  C115  1  0.67517000  0.62488000  0.90553000  1.0
  C  C116  1  0.29849000  0.30483000  0.60837000  1.0
  C  C117  1  0.70151000  0.69517000  0.39163000  1.0
  C  C118  1  0.00906000  0.29656000  0.69949000  1.0
  C  C119  1  0.99094000  0.70344000  0.30051000  1.0
  C  C120  1  0.76586000  0.26413000  0.48090000  1.0
  C  C121  1  0.23414000  0.73586000  0.51910000  1.0
  C  C122  1  0.94603000  0.42964000  0.56936000  1.0
  C  C123  1  0.05398000  0.57036000  0.43065000  1.0
  C  C124  1  0.47332000  0.20665000  0.35707000  1.0
  C  C125  1  0.52668000  0.79333000  0.64293000  1.0
  C  C126  1  0.13267000  0.74206000  0.95640000  1.0
  C  C127  1  0.86734000  0.25797000  0.04359000  1.0
  C  C128  1  0.33269000  0.54627000  0.22298000  1.0
  C  C129  1  0.66730000  0.45373000  0.77701000  1.0
  C  C130  1  0.90655000  0.17417000  0.65776000  1.0
  C  C131  1  0.09345000  0.82582000  0.34224000  1.0
  C  C132  1  0.34542000  0.42264000  0.21869000  1.0
  C  C133  1  0.65457000  0.57735000  0.78130000  1.0
  S  S134  1  0.98974000  0.37101000  0.78110000  1.0
  S  S135  1  0.01026000  0.62900000  0.21891000  1.0
  S  S136  1  0.79451000  0.41940000  0.53663000  1.0
  S  S137  1  0.20548000  0.58059000  0.46336000  1.0
  N  N138  1  0.43484000  0.07468000  0.32870000  1.0
  N  N139  1  0.56516000  0.92530000  0.67131000  1.0
  N  N140  1  0.25955000  0.80794000  0.97835000  1.0
  N  N141  1  0.74045000  0.19207000  0.02165000  1.0
  O  O142  1  0.50762000  0.94870000  0.08346000  1.0
  O  O143  1  0.49237000  0.05130000  0.91654000  1.0
  O  O144  1  0.15091000  0.96278000  0.21482000  1.0
  O  O145  1  0.84908000  0.03722000  0.78519000  1.0
  O  O146  1  0.34647000  0.12486000  0.09175000  1.0
  O  O147  1  0.65353000  0.87514000  0.90824000  1.0
  O  O148  1  0.31676000  0.79810000  0.22698000  1.0
  O  O149  1  0.68323000  0.20190000  0.77302000  1.0
  O  O150  1  0.36764000  0.17555000  0.20833000  1.0
  O  O151  1  0.63237000  0.82445000  0.79167000  1.0
  O  O152  1  0.29477000  0.74971000  0.11073000  1.0
  O  O153  1  0.70523000  0.25028000  0.88926000  1.0
  O  O154  1  0.52659000  0.00034000  0.19978000  1.0
  O  O155  1  0.47340000  0.99966000  0.80022000  1.0
  O  O156  1  0.13095000  0.91251000  0.09841000  1.0
  O  O157  1  0.86905000  0.08748000  0.90160000  1.0
  F  F158  1  0.15262000  0.26440000  0.43676000  1.0
  F  F159  1  0.84739000  0.73561000  0.56325000  1.0
  F  F160  1  0.37824000  0.37787000  0.51086000  1.0
  F  F161  1  0.62177000  0.62215000  0.48915000  1.0
  F  F162  1  0.35737000  0.17019000  0.50857000  1.0
  F  F163  1  0.64265000  0.82983000  0.49143000  1.0
  F  F164  1  0.40257000  0.41461000  0.64213000  1.0
  F  F165  1  0.59744000  0.58539000  0.35787000  1.0
  F  F166  1  0.10579000  0.09182000  0.47986000  1.0
  F  F167  1  0.89422000  0.90819000  0.52014000  1.0
  F  F168  1  0.30793000  0.20259000  0.63498000  1.0
  F  F169  1  0.69207000  0.79741000  0.36502000  1.0
