# generated using pymatgen
data_CuH10(CN)12
_symmetry_space_group_name_H-M   'P 1'
_cell_length_a   6.26203000
_cell_length_b   7.38422000
_cell_length_c   9.13526000
_cell_angle_alpha   103.63200000
_cell_angle_beta   99.16590000
_cell_angle_gamma   107.77800000
_symmetry_Int_Tables_number   1
_chemical_formula_structural   CuH10(CN)12
_chemical_formula_sum   'Cu1 H10 C12 N12'
_cell_volume   378.51091704
_cell_formula_units_Z   1
loop_
 _symmetry_equiv_pos_site_id
 _symmetry_equiv_pos_as_xyz
  1  'x, y, z'
loop_
 _atom_site_type_symbol
 _atom_site_label
 _atom_site_symmetry_multiplicity
 _atom_site_fract_x
 _atom_site_fract_y
 _atom_site_fract_z
 _atom_site_occupancy
  Cu  Cu0  1  0.00001000  0.00000000  0.00000000  1.0
  H  H1  1  0.49361000  0.08362000  0.15166000  1.0
  H  H2  1  0.50641000  0.91643000  0.84835000  1.0
  H  H3  1  0.92268000  0.12086000  0.31944000  1.0
  H  H4  1  0.07732000  0.87914000  0.68056000  1.0
  H  H5  1  0.16618000  0.25166000  0.59068000  1.0
  H  H6  1  0.83380000  0.74833000  0.40933000  1.0
  H  H7  1  0.79140000  0.32229000  0.67281000  1.0
  H  H8  1  0.20860000  0.67771000  0.32720000  1.0
  H  H9  1  0.55546000  0.31304000  0.75391000  1.0
  H  H10  1  0.44453000  0.68696000  0.24610000  1.0
  C  C11  1  0.42380000  0.12423000  0.25136000  1.0
  C  C12  1  0.57621000  0.87579000  0.74863000  1.0
  C  C13  1  0.10630000  0.14173000  0.34376000  1.0
  C  C14  1  0.89370000  0.85827000  0.65623000  1.0
  C  C15  1  0.47915000  0.23985000  0.51608000  1.0
  C  C16  1  0.52085000  0.76016000  0.48392000  1.0
  C  C17  1  0.24084000  0.21340000  0.49351000  1.0
  C  C18  1  0.75915000  0.78660000  0.50649000  1.0
  C  C19  1  0.14288000  0.63613000  0.89923000  1.0
  C  C20  1  0.85711000  0.36385000  0.10076000  1.0
  C  C21  1  0.25213000  0.35942000  0.88576000  1.0
  C  C22  1  0.74788000  0.64056000  0.11425000  1.0
  N  N23  1  0.19632000  0.09498000  0.22041000  1.0
  N  N24  1  0.80368000  0.90503000  0.77958000  1.0
  N  N25  1  0.56843000  0.19564000  0.39166000  1.0
  N  N26  1  0.43159000  0.80438000  0.60834000  1.0
  N  N27  1  0.62261000  0.30990000  0.65901000  1.0
  N  N28  1  0.37739000  0.69011000  0.34100000  1.0
  N  N29  1  0.13416000  0.79663000  0.94143000  1.0
  N  N30  1  0.86579000  0.20335000  0.05856000  1.0
  N  N31  1  0.13275000  0.45781000  0.83492000  1.0
  N  N32  1  0.86723000  0.54216000  0.16505000  1.0
  N  N33  1  0.34588000  0.25010000  0.91371000  1.0
  N  N34  1  0.65412000  0.74988000  0.08633000  1.0
