# generated using pymatgen
data_SbH16C8S2Br3N4
_symmetry_space_group_name_H-M   'P 1'
_cell_length_a   8.70309000
_cell_length_b   9.57248000
_cell_length_c   20.77210000
_cell_angle_alpha   90.00000000
_cell_angle_beta   90.00000000
_cell_angle_gamma   107.81700000
_symmetry_Int_Tables_number   1
_chemical_formula_structural   SbH16C8S2Br3N4
_chemical_formula_sum   'Sb4 H64 C32 S8 Br12 N16'
_cell_volume   1647.52846365
_cell_formula_units_Z   4
loop_
 _symmetry_equiv_pos_site_id
 _symmetry_equiv_pos_as_xyz
  1  'x, y, z'
loop_
 _atom_site_type_symbol
 _atom_site_label
 _atom_site_symmetry_multiplicity
 _atom_site_fract_x
 _atom_site_fract_y
 _atom_site_fract_z
 _atom_site_occupancy
  Sb  Sb0  1  0.18158000  0.94967000  0.16816000  1.0
  Sb  Sb1  1  0.31843000  0.05035000  0.66816000  1.0
  Sb  Sb2  1  0.81843000  0.05034000  0.83184000  1.0
  Sb  Sb3  1  0.68157000  0.94966000  0.33184000  1.0
  H  H4  1  0.92203000  0.62801000  0.47267000  1.0
  H  H5  1  0.57796000  0.37198000  0.97267000  1.0
  H  H6  1  0.07794000  0.37198000  0.52733000  1.0
  H  H7  1  0.42205000  0.62802000  0.02733000  1.0
  H  H8  1  0.13202000  0.66683000  0.45833000  1.0
  H  H9  1  0.36797000  0.33316000  0.95832000  1.0
  H  H10  1  0.86796000  0.33316000  0.54168000  1.0
  H  H11  1  0.63203000  0.66684000  0.04168000  1.0
  H  H12  1  0.00220000  0.40969000  0.42620000  1.0
  H  H13  1  0.49780000  0.59030000  0.92620000  1.0
  H  H14  1  0.99779000  0.59030000  0.57380000  1.0
  H  H15  1  0.50221000  0.40970000  0.07380000  1.0
  H  H16  1  0.85141000  0.45688000  0.38231000  1.0
  H  H17  1  0.64859000  0.54310000  0.88231000  1.0
  H  H18  1  0.14859000  0.54311000  0.61768000  1.0
  H  H19  1  0.35142000  0.45690000  0.11769000  1.0
  H  H20  1  0.21207000  0.54566000  0.34793000  1.0
  H  H21  1  0.28794000  0.45433000  0.84793000  1.0
  H  H22  1  0.78794000  0.45433000  0.65207000  1.0
  H  H23  1  0.71206000  0.54567000  0.15207000  1.0
  H  H24  1  0.04787000  0.42481000  0.30454000  1.0
  H  H25  1  0.45214000  0.57518000  0.80454000  1.0
  H  H26  1  0.95214000  0.57518000  0.69546000  1.0
  H  H27  1  0.54786000  0.42483000  0.19546000  1.0
  H  H28  1  0.84184000  0.34344000  0.15115000  1.0
  H  H29  1  0.65816000  0.65656000  0.65115000  1.0
  H  H30  1  0.15816000  0.65656000  0.84885000  1.0
  H  H31  1  0.34183000  0.34344000  0.34885000  1.0
  H  H32  1  0.64457000  0.25358000  0.12060000  1.0
  H  H33  1  0.85543000  0.74642000  0.62060000  1.0
  H  H34  1  0.35542000  0.74642000  0.87940000  1.0
  H  H35  1  0.14457000  0.25357000  0.37940000  1.0
  H  H36  1  0.74757000  0.25084000  0.01123000  1.0
  H  H37  1  0.75244000  0.74916000  0.51123000  1.0
  H  H38  1  0.25244000  0.74917000  0.98877000  1.0
  H  H39  1  0.24755000  0.25083000  0.48877000  1.0
  H  H40  1  0.83402000  0.43312000  0.04115000  1.0
  H  H41  1  0.66599000  0.56687000  0.54115000  1.0
  H  H42  1  0.16599000  0.56688000  0.95885000  1.0
  H  H43  1  0.33400000  0.43312000  0.45885000  1.0
  H  H44  1  0.03061000  0.32277000  0.98387000  1.0
  H  H45  1  0.46939000  0.67722000  0.48387000  1.0
  H  H46  1  0.96939000  0.67722000  0.01613000  1.0
  H  H47  1  0.53060000  0.32278000  0.51613000  1.0
  H  H48  1  0.08956000  0.38779000  0.06405000  1.0
  H  H49  1  0.41044000  0.61220000  0.56405000  1.0
  H  H50  1  0.91044000  0.61220000  0.93595000  1.0
  H  H51  1  0.58955000  0.38780000  0.43595000  1.0
  H  H52  1  0.97997000  0.84576000  0.41190000  1.0
  H  H53  1  0.52002000  0.15422000  0.91190000  1.0
  H  H54  1  0.02003000  0.15422000  0.58810000  1.0
  H  H55  1  0.47998000  0.84578000  0.08810000  1.0
  H  H56  1  0.06757000  0.64460000  0.25100000  1.0
  H  H57  1  0.43243000  0.35539000  0.75100000  1.0
  H  H58  1  0.93244000  0.35539000  0.74899000  1.0
  H  H59  1  0.56757000  0.64462000  0.24900000  1.0
  H  H60  1  0.71827000  0.05368000  0.15846000  1.0
  H  H61  1  0.78173000  0.94632000  0.65846000  1.0
  H  H62  1  0.28172000  0.94632000  0.84154000  1.0
  H  H63  1  0.21828000  0.05368000  0.34154000  1.0
  H  H64  1  0.08626000  0.11868000  0.03237000  1.0
  H  H65  1  0.41374000  0.88130000  0.53236000  1.0
  H  H66  1  0.91374000  0.88131000  0.96764000  1.0
  H  H67  1  0.58626000  0.11870000  0.46764000  1.0
  C  C68  1  0.02533000  0.75587000  0.32872000  1.0
  C  C69  1  0.47467000  0.24412000  0.82872000  1.0
  C  C70  1  0.97469000  0.24411000  0.67127000  1.0
  C  C71  1  0.52533000  0.75588000  0.17128000  1.0
  C  C72  1  0.01273000  0.63779000  0.43484000  1.0
  C  C73  1  0.48727000  0.36220000  0.93484000  1.0
  C  C74  1  0.98726000  0.36219000  0.56516000  1.0
  C  C75  1  0.51274000  0.63781000  0.06516000  1.0
  C  C76  1  0.97895000  0.49593000  0.39662000  1.0
  C  C77  1  0.52104000  0.50406000  0.89662000  1.0
  C  C78  1  0.02104000  0.50406000  0.60338000  1.0
  C  C79  1  0.47896000  0.49594000  0.10338000  1.0
  C  C80  1  0.08287000  0.52140000  0.33616000  1.0
  C  C81  1  0.41713000  0.47859000  0.83616000  1.0
  C  C82  1  0.91713000  0.47860000  0.66384000  1.0
  C  C83  1  0.58287000  0.52141000  0.16384000  1.0
  C  C84  1  0.90205000  0.07558000  0.09539000  1.0
  C  C85  1  0.59795000  0.92442000  0.59539000  1.0
  C  C86  1  0.09795000  0.92442000  0.90461000  1.0
  C  C87  1  0.40205000  0.07558000  0.40461000  1.0
  C  C88  1  0.77334000  0.26618000  0.11449000  1.0
  C  C89  1  0.72666000  0.73382000  0.61449000  1.0
  C  C90  1  0.22666000  0.73383000  0.88551000  1.0
  C  C91  1  0.27334000  0.26617000  0.38551000  1.0
  C  C92  1  0.83093000  0.31846000  0.04694000  1.0
  C  C93  1  0.66907000  0.68154000  0.54693000  1.0
  C  C94  1  0.16907000  0.68154000  0.95307000  1.0
  C  C95  1  0.33092000  0.31846000  0.45307000  1.0
  C  C96  1  0.99913000  0.30608000  0.03513000  1.0
  C  C97  1  0.50086000  0.69391000  0.53513000  1.0
  C  C98  1  0.00086000  0.69391000  0.96487000  1.0
  C  C99  1  0.49913000  0.30609000  0.46487000  1.0
  S  S100  1  0.00756000  0.90413000  0.28476000  1.0
  S  S101  1  0.49243000  0.09585000  0.78475000  1.0
  S  S102  1  0.99244000  0.09586000  0.71524000  1.0
  S  S103  1  0.50757000  0.90415000  0.21524000  1.0
  S  S104  1  0.90976000  0.89834000  0.11043000  1.0
  S  S105  1  0.59024000  0.10166000  0.61043000  1.0
  S  S106  1  0.09023000  0.10167000  0.88957000  1.0
  S  S107  1  0.40977000  0.89834000  0.38957000  1.0
  Br  Br108  1  0.18585000  0.22338000  0.20480000  1.0
  Br  Br109  1  0.31413000  0.77663000  0.70479000  1.0
  Br  Br110  1  0.81414000  0.77663000  0.79521000  1.0
  Br  Br111  1  0.68585000  0.22338000  0.29520000  1.0
  Br  Br112  1  0.08634000  0.63974000  0.14105000  1.0
  Br  Br113  1  0.41367000  0.36029000  0.64106000  1.0
  Br  Br114  1  0.91368000  0.36029000  0.85894000  1.0
  Br  Br115  1  0.58633000  0.63973000  0.35894000  1.0
  Br  Br116  1  0.35068000  0.04677000  0.05417000  1.0
  Br  Br117  1  0.14934000  0.95330000  0.55416000  1.0
  Br  Br118  1  0.64934000  0.95330000  0.94584000  1.0
  Br  Br119  1  0.85066000  0.04670000  0.44584000  1.0
  N  N120  1  0.00689000  0.75786000  0.39257000  1.0
  N  N121  1  0.49310000  0.24213000  0.89258000  1.0
  N  N122  1  0.99310000  0.24214000  0.60743000  1.0
  N  N123  1  0.50690000  0.75787000  0.10742000  1.0
  N  N124  1  0.05942000  0.64457000  0.30042000  1.0
  N  N125  1  0.44058000  0.35542000  0.80042000  1.0
  N  N126  1  0.94058000  0.35543000  0.69959000  1.0
  N  N127  1  0.55942000  0.64458000  0.19958000  1.0
  N  N128  1  0.79330000  0.12240000  0.12571000  1.0
  N  N129  1  0.70669000  0.87760000  0.62571000  1.0
  N  N130  1  0.20669000  0.87760000  0.87429000  1.0
  N  N131  1  0.29332000  0.12240000  0.37429000  1.0
  N  N132  1  0.00095000  0.15883000  0.05209000  1.0
  N  N133  1  0.49905000  0.84116000  0.55209000  1.0
  N  N134  1  0.99904000  0.84117000  0.94792000  1.0
  N  N135  1  0.50096000  0.15884000  0.44792000  1.0
