# generated using pymatgen
data_CuH13C18N3O4
_symmetry_space_group_name_H-M   'P 1'
_cell_length_a   11.07680000
_cell_length_b   14.29950000
_cell_length_c   17.19340000
_cell_angle_alpha   89.99990000
_cell_angle_beta   90.00000000
_cell_angle_gamma   90.00000000
_symmetry_Int_Tables_number   1
_chemical_formula_structural   CuH13C18N3O4
_chemical_formula_sum   'Cu4 H52 C72 N12 O16'
_cell_volume   2723.30907569
_cell_formula_units_Z   4
loop_
 _symmetry_equiv_pos_site_id
 _symmetry_equiv_pos_as_xyz
  1  'x, y, z'
loop_
 _atom_site_type_symbol
 _atom_site_label
 _atom_site_symmetry_multiplicity
 _atom_site_fract_x
 _atom_site_fract_y
 _atom_site_fract_z
 _atom_site_occupancy
  Cu  Cu0  1  0.00000000  0.15261000  0.01403000  1.0
  Cu  Cu1  1  0.00000000  0.84739000  0.98597000  1.0
  Cu  Cu2  1  0.00000000  0.65261000  0.48598000  1.0
  Cu  Cu3  1  0.00000000  0.34739000  0.51402000  1.0
  H  H4  1  0.00000000  0.10082000  0.20719000  1.0
  H  H5  1  0.00000000  0.89918000  0.79281000  1.0
  H  H6  1  0.00000000  0.60082000  0.29281000  1.0
  H  H7  1  0.00000000  0.39918000  0.70719000  1.0
  H  H8  1  0.00000000  0.98999000  0.44107000  1.0
  H  H9  1  0.00000000  0.01002000  0.55893000  1.0
  H  H10  1  0.00000000  0.48998000  0.05893000  1.0
  H  H11  1  0.00000000  0.51001000  0.94107000  1.0
  H  H12  1  0.00000000  0.80260000  0.24637000  1.0
  H  H13  1  0.00000000  0.19740000  0.75363000  1.0
  H  H14  1  0.00000000  0.30260000  0.25363000  1.0
  H  H15  1  0.00000000  0.69740000  0.74637000  1.0
  H  H16  1  0.81165000  0.21690000  0.90904000  1.0
  H  H17  1  0.81165000  0.78310000  0.09096000  1.0
  H  H18  1  0.18835000  0.71690000  0.59096000  1.0
  H  H19  1  0.18835000  0.28310000  0.40904000  1.0
  H  H20  1  0.18835000  0.78310000  0.09096000  1.0
  H  H21  1  0.18835000  0.21690000  0.90904000  1.0
  H  H22  1  0.81165000  0.28310000  0.40904000  1.0
  H  H23  1  0.81165000  0.71690000  0.59096000  1.0
  H  H24  1  0.81496000  0.07845000  0.12005000  1.0
  H  H25  1  0.81496000  0.92155000  0.87995000  1.0
  H  H26  1  0.18504000  0.57845000  0.37995000  1.0
  H  H27  1  0.18504000  0.42155000  0.62005000  1.0
  H  H28  1  0.18504000  0.92155000  0.87995000  1.0
  H  H29  1  0.18504000  0.07845000  0.12005000  1.0
  H  H30  1  0.81496000  0.42155000  0.62005000  1.0
  H  H31  1  0.81496000  0.57845000  0.37995000  1.0
  H  H32  1  0.58874000  0.21795000  0.90407000  1.0
  H  H33  1  0.58874000  0.78204000  0.09593000  1.0
  H  H34  1  0.41126000  0.71796000  0.59593000  1.0
  H  H35  1  0.41125000  0.28205000  0.40407000  1.0
  H  H36  1  0.41126000  0.78204000  0.09593000  1.0
  H  H37  1  0.41126000  0.21795000  0.90407000  1.0
  H  H38  1  0.58874000  0.28205000  0.40407000  1.0
  H  H39  1  0.58874000  0.71796000  0.59593000  1.0
  H  H40  1  0.59118000  0.07134000  0.12479000  1.0
  H  H41  1  0.59118000  0.92866000  0.87521000  1.0
  H  H42  1  0.40882000  0.57134000  0.37521000  1.0
  H  H43  1  0.40882000  0.42866000  0.62479000  1.0
  H  H44  1  0.40882000  0.92866000  0.87521000  1.0
  H  H45  1  0.40882000  0.07134000  0.12479000  1.0
  H  H46  1  0.59118000  0.42866000  0.62479000  1.0
  H  H47  1  0.59118000  0.57134000  0.37521000  1.0
  H  H48  1  0.00000000  0.20348000  0.32441000  1.0
  H  H49  1  0.00000000  0.79652000  0.67559000  1.0
  H  H50  1  0.00000000  0.70348000  0.17559000  1.0
  H  H51  1  0.00000000  0.29652000  0.82441000  1.0
  H  H52  1  0.00000000  0.15672000  0.41758000  1.0
  H  H53  1  0.00000000  0.84328000  0.58242000  1.0
  H  H54  1  0.00000000  0.65672000  0.08242000  1.0
  H  H55  1  0.00000000  0.34328000  0.91758000  1.0
  C  C56  1  0.00000000  0.93963000  0.13122000  1.0
  C  C57  1  0.00000000  0.06037000  0.86879000  1.0
  C  C58  1  0.00000000  0.43963000  0.36879000  1.0
  C  C59  1  0.00000000  0.56037000  0.63121000  1.0
  C  C60  1  0.00000000  0.95067000  0.21813000  1.0
  C  C61  1  0.00000000  0.04934000  0.78187000  1.0
  C  C62  1  0.00000000  0.45067000  0.28187000  1.0
  C  C63  1  0.00000000  0.54933000  0.71813000  1.0
  C  C64  1  0.00000000  0.04197000  0.24765000  1.0
  C  C65  1  0.00000000  0.95803000  0.75235000  1.0
  C  C66  1  0.00000000  0.54197000  0.25235000  1.0
  C  C67  1  0.00000000  0.45803000  0.74765000  1.0
  C  C68  1  0.00000000  0.05820000  0.32854000  1.0
  C  C69  1  0.00000000  0.94179000  0.67147000  1.0
  C  C70  1  0.00000000  0.55820000  0.17146000  1.0
  C  C71  1  0.00000000  0.44180000  0.82854000  1.0
  C  C72  1  0.00000000  0.97989000  0.37837000  1.0
  C  C73  1  0.00000000  0.02011000  0.62164000  1.0
  C  C74  1  0.00000000  0.47989000  0.12163000  1.0
  C  C75  1  0.00000000  0.52011000  0.87837000  1.0
  C  C76  1  0.00000000  0.88894000  0.34904000  1.0
  C  C77  1  0.00000000  0.11106000  0.65096000  1.0
  C  C78  1  0.00000000  0.38894000  0.15096000  1.0
  C  C79  1  0.00000000  0.61106000  0.84904000  1.0
  C  C80  1  0.00000000  0.87361000  0.26857000  1.0
  C  C81  1  0.00000000  0.12639000  0.73143000  1.0
  C  C82  1  0.00000000  0.37361000  0.23143000  1.0
  C  C83  1  0.00000000  0.62639000  0.76857000  1.0
  C  C84  1  0.00000000  0.80995000  0.40666000  1.0
  C  C85  1  0.00000000  0.19005000  0.59334000  1.0
  C  C86  1  0.00000000  0.30995000  0.09334000  1.0
  C  C87  1  0.00000000  0.69005000  0.90666000  1.0
  C  C88  1  0.75821000  0.18578000  0.95556000  1.0
  C  C89  1  0.75821000  0.81422000  0.04445000  1.0
  C  C90  1  0.24179000  0.68579000  0.54445000  1.0
  C  C91  1  0.24179000  0.31422000  0.45555000  1.0
  C  C92  1  0.24179000  0.81422000  0.04445000  1.0
  C  C93  1  0.24179000  0.18578000  0.95555000  1.0
  C  C94  1  0.75821000  0.31422000  0.45555000  1.0
  C  C95  1  0.75821000  0.68579000  0.54445000  1.0
  C  C96  1  0.75984000  0.10809000  0.07370000  1.0
  C  C97  1  0.75984000  0.89191000  0.92630000  1.0
  C  C98  1  0.24016000  0.60809000  0.42630000  1.0
  C  C99  1  0.24016000  0.39191000  0.57370000  1.0
  C  C100  1  0.24016000  0.89191000  0.92630000  1.0
  C  C101  1  0.24016000  0.10809000  0.07370000  1.0
  C  C102  1  0.75984000  0.39191000  0.57370000  1.0
  C  C103  1  0.75984000  0.60809000  0.42630000  1.0
  C  C104  1  0.63300000  0.18519000  0.95351000  1.0
  C  C105  1  0.63300000  0.81481000  0.04649000  1.0
  C  C106  1  0.36700000  0.68519000  0.54649000  1.0
  C  C107  1  0.36700000  0.31481000  0.45351000  1.0
  C  C108  1  0.36700000  0.81481000  0.04649000  1.0
  C  C109  1  0.36700000  0.18519000  0.95351000  1.0
  C  C110  1  0.63300000  0.31481000  0.45351000  1.0
  C  C111  1  0.63300000  0.68519000  0.54649000  1.0
  C  C112  1  0.56687000  0.14407000  0.01427000  1.0
  C  C113  1  0.56688000  0.85593000  0.98573000  1.0
  C  C114  1  0.43313000  0.64407000  0.48573000  1.0
  C  C115  1  0.43312000  0.35593000  0.51427000  1.0
  C  C116  1  0.43313000  0.85593000  0.98573000  1.0
  C  C117  1  0.43313000  0.14407000  0.01427000  1.0
  C  C118  1  0.56688000  0.35593000  0.51427000  1.0
  C  C119  1  0.56687000  0.64407000  0.48573000  1.0
  C  C120  1  0.63451000  0.10467000  0.07520000  1.0
  C  C121  1  0.63451000  0.89533000  0.92480000  1.0
  C  C122  1  0.36549000  0.60467000  0.42480000  1.0
  C  C123  1  0.36549000  0.39533000  0.57520000  1.0
  C  C124  1  0.36549000  0.89533000  0.92480000  1.0
  C  C125  1  0.36549000  0.10467000  0.07520000  1.0
  C  C126  1  0.63451000  0.39533000  0.57520000  1.0
  C  C127  1  0.63451000  0.60467000  0.42480000  1.0
  N  N128  1  0.82091000  0.14746000  0.01448000  1.0
  N  N129  1  0.82091000  0.85253000  0.98552000  1.0
  N  N130  1  0.17909000  0.64746000  0.48552000  1.0
  N  N131  1  0.17909000  0.35254000  0.51448000  1.0
  N  N132  1  0.17909000  0.85253000  0.98552000  1.0
  N  N133  1  0.17909000  0.14746000  0.01448000  1.0
  N  N134  1  0.82091000  0.35254000  0.51448000  1.0
  N  N135  1  0.82091000  0.64746000  0.48552000  1.0
  N  N136  1  0.00000000  0.14638000  0.35888000  1.0
  N  N137  1  0.00000000  0.85362000  0.64112000  1.0
  N  N138  1  0.00000000  0.64638000  0.14112000  1.0
  N  N139  1  0.00000000  0.35362000  0.85888000  1.0
  O  O140  1  0.00000000  0.85497000  0.10399000  1.0
  O  O141  1  0.00000000  0.14503000  0.89602000  1.0
  O  O142  1  0.00000000  0.35497000  0.39602000  1.0
  O  O143  1  0.00000000  0.64503000  0.60399000  1.0
  O  O144  1  0.00000000  0.01076000  0.08854000  1.0
  O  O145  1  0.00000000  0.98924000  0.91146000  1.0
  O  O146  1  0.00000000  0.51077000  0.41146000  1.0
  O  O147  1  0.00000000  0.48923000  0.58854000  1.0
  O  O148  1  0.00000000  0.72483000  0.38088000  1.0
  O  O149  1  0.00000000  0.27517000  0.61911000  1.0
  O  O150  1  0.00000000  0.22483000  0.11912000  1.0
  O  O151  1  0.00000000  0.77517000  0.88088000  1.0
  O  O152  1  0.00000000  0.82831000  0.47844000  1.0
  O  O153  1  0.00000000  0.17170000  0.52156000  1.0
  O  O154  1  0.00000000  0.32830000  0.02156000  1.0
  O  O155  1  0.00000000  0.67169000  0.97844000  1.0
