# generated using pymatgen
data_Al2H20C27O14
_symmetry_space_group_name_H-M   'P 1'
_cell_length_a   6.64325000
_cell_length_b   17.27120000
_cell_length_c   19.60530000
_cell_angle_alpha   107.65500000
_cell_angle_beta   89.99970000
_cell_angle_gamma   89.99960000
_symmetry_Int_Tables_number   1
_chemical_formula_structural   Al2H20C27O14
_chemical_formula_sum   'Al4 H40 C54 O28'
_cell_volume   2143.50211831
_cell_formula_units_Z   2
loop_
 _symmetry_equiv_pos_site_id
 _symmetry_equiv_pos_as_xyz
  1  'x, y, z'
loop_
 _atom_site_type_symbol
 _atom_site_label
 _atom_site_symmetry_multiplicity
 _atom_site_fract_x
 _atom_site_fract_y
 _atom_site_fract_z
 _atom_site_occupancy
  Al  Al0  1  0.89151000  0.49714000  0.49800000  1.0
  Al  Al1  1  0.39151000  0.50285000  0.50200000  1.0
  Al  Al2  1  0.38790000  0.99847000  0.99914000  1.0
  Al  Al3  1  0.88789000  0.00153000  0.00086000  1.0
  H  H4  1  0.38121000  0.66752000  0.70715000  1.0
  H  H5  1  0.88120000  0.33248000  0.29284000  1.0
  H  H6  1  0.43547000  0.67276000  0.39064000  1.0
  H  H7  1  0.93548000  0.32725000  0.60937000  1.0
  H  H8  1  0.58471000  0.78321000  0.35018000  1.0
  H  H9  1  0.08473000  0.21681000  0.64983000  1.0
  H  H10  1  0.40089000  0.91246000  0.17470000  1.0
  H  H11  1  0.90090000  0.08755000  0.82531000  1.0
  H  H12  1  0.67482000  0.62416000  0.22389000  1.0
  H  H13  1  0.17481000  0.37584000  0.77611000  1.0
  H  H14  1  0.56662000  0.77329000  0.76488000  1.0
  H  H15  1  0.06662000  0.22670000  0.23510000  1.0
  H  H16  1  0.81047000  0.71473000  0.02922000  1.0
  H  H17  1  0.68912000  0.80854000  0.06533000  1.0
  H  H18  1  0.90027000  0.80128000  0.00784000  1.0
  H  H19  1  0.31046000  0.28528000  0.97079000  1.0
  H  H20  1  0.18912000  0.19147000  0.93467000  1.0
  H  H21  1  0.40027000  0.19872000  0.99217000  1.0
  H  H22  1  0.53360000  0.67224000  0.14410000  1.0
  H  H23  1  0.03360000  0.32777000  0.85590000  1.0
  H  H24  1  0.84910000  0.83162000  0.84466000  1.0
  H  H25  1  0.34910000  0.16837000  0.15534000  1.0
  H  H26  1  0.94171000  0.75343000  0.59786000  1.0
  H  H27  1  0.81265000  0.73650000  0.67093000  1.0
  H  H28  1  0.98697000  0.81798000  0.68706000  1.0
  H  H29  1  0.44174000  0.24656000  0.40215000  1.0
  H  H30  1  0.31267000  0.26348000  0.32908000  1.0
  H  H31  1  0.48701000  0.18202000  0.31294000  1.0
  H  H32  1  0.81765000  0.56171000  0.36605000  1.0
  H  H33  1  0.31765000  0.43829000  0.63395000  1.0
  H  H34  1  0.69241000  0.88087000  0.22224000  1.0
  H  H35  1  0.56109000  0.95224000  0.29205000  1.0
  H  H36  1  0.73670000  0.88455000  0.31241000  1.0
  H  H37  1  0.19241000  0.11913000  0.77776000  1.0
  H  H38  1  0.06109000  0.04777000  0.70795000  1.0
  H  H39  1  0.23671000  0.11546000  0.68759000  1.0
  H  H40  1  0.65074000  0.60427000  0.53651000  1.0
  H  H41  1  0.15074000  0.39573000  0.46348000  1.0
  H  H42  1  0.64020000  0.90436000  0.01155000  1.0
  H  H43  1  0.14020000  0.09563000  0.98844000  1.0
  C  C44  1  0.64296000  0.42324000  0.58725000  1.0
  C  C45  1  0.14296000  0.57676000  0.41275000  1.0
  C  C46  1  0.63788000  0.37851000  0.39757000  1.0
  C  C47  1  0.13789000  0.62149000  0.60242000  1.0
  C  C48  1  0.27975000  0.78050000  0.77970000  1.0
  C  C49  1  0.77975000  0.21949000  0.22030000  1.0
  C  C50  1  0.12193000  0.81895000  0.82190000  1.0
  C  C51  1  0.62193000  0.18104000  0.17810000  1.0
  C  C52  1  0.26187000  0.71319000  0.71440000  1.0
  C  C53  1  0.76187000  0.28680000  0.28559000  1.0
  C  C54  1  0.12370000  0.69962000  0.66116000  1.0
  C  C55  1  0.62371000  0.30037000  0.33883000  1.0
  C  C56  1  0.96582000  0.62364000  0.31920000  1.0
  C  C57  1  0.46583000  0.37637000  0.68081000  1.0
  C  C58  1  0.13848000  0.62460000  0.36199000  1.0
  C  C59  1  0.63849000  0.37541000  0.63802000  1.0
  C  C60  1  0.30424000  0.67327000  0.35744000  1.0
  C  C61  1  0.80425000  0.32674000  0.64257000  1.0
  C  C62  1  0.30143000  0.72281000  0.31282000  1.0
  C  C63  1  0.80146000  0.27721000  0.68719000  1.0
  C  C64  1  0.13396000  0.71733000  0.26553000  1.0
  C  C65  1  0.63397000  0.28269000  0.73449000  1.0
  C  C66  1  0.96843000  0.66612000  0.26760000  1.0
  C  C67  1  0.46844000  0.33390000  0.73241000  1.0
  C  C68  1  0.45889000  0.77948000  0.31346000  1.0
  C  C69  1  0.95890000  0.22054000  0.68655000  1.0
  C  C70  1  0.45541000  0.82873000  0.27045000  1.0
  C  C71  1  0.95542000  0.17128000  0.72955000  1.0
  C  C72  1  0.29195000  0.82069000  0.21983000  1.0
  C  C73  1  0.79196000  0.17933000  0.78018000  1.0
  C  C74  1  0.13195000  0.76394000  0.21659000  1.0
  C  C75  1  0.63195000  0.23607000  0.78343000  1.0
  C  C76  1  0.97254000  0.75474000  0.16481000  1.0
  C  C77  1  0.47254000  0.24527000  0.83520000  1.0
  C  C78  1  0.80683000  0.70237000  0.17023000  1.0
  C  C79  1  0.30684000  0.29764000  0.82978000  1.0
  C  C80  1  0.80537000  0.66081000  0.21975000  1.0
  C  C81  1  0.30536000  0.33920000  0.78026000  1.0
  C  C82  1  0.28512000  0.86727000  0.17279000  1.0
  C  C83  1  0.78513000  0.13274000  0.82721000  1.0
  C  C84  1  0.13241000  0.85728000  0.12175000  1.0
  C  C85  1  0.63241000  0.14273000  0.87825000  1.0
  C  C86  1  0.97880000  0.79874000  0.11400000  1.0
  C  C87  1  0.47880000  0.20127000  0.88601000  1.0
  C  C88  1  0.63935000  0.11332000  0.11061000  1.0
  C  C89  1  0.13936000  0.88667000  0.88938000  1.0
  C  C90  1  0.63702000  0.08625000  0.92273000  1.0
  C  C91  1  0.13702000  0.91375000  0.07727000  1.0
  C  C92  1  0.83768000  0.78012000  0.05064000  1.0
  C  C93  1  0.33767000  0.21988000  0.94937000  1.0
  C  C94  1  0.95794000  0.75540000  0.65418000  1.0
  C  C95  1  0.45797000  0.24459000  0.34582000  1.0
  C  C96  1  0.61984000  0.88964000  0.27446000  1.0
  C  C97  1  0.11985000  0.11037000  0.72554000  1.0
  O  O98  1  0.47138000  0.40897000  0.42597000  1.0
  O  O99  1  0.97139000  0.59102000  0.57402000  1.0
  O  O100  1  0.81016000  0.43589000  0.56090000  1.0
  O  O101  1  0.31016000  0.56411000  0.43910000  1.0
  O  O102  1  0.81104000  0.40937000  0.41680000  1.0
  O  O103  1  0.31103000  0.59062000  0.58319000  1.0
  O  O104  1  0.97133000  0.55101000  0.42840000  1.0
  O  O105  1  0.47133000  0.44899000  0.57160000  1.0
  O  O106  1  0.64368000  0.54893000  0.50484000  1.0
  O  O107  1  0.14369000  0.45107000  0.49516000  1.0
  O  O108  1  0.80881000  0.06550000  0.94068000  1.0
  O  O109  1  0.30882000  0.93451000  0.05932000  1.0
  O  O110  1  0.46656000  0.08744000  0.08291000  1.0
  O  O111  1  0.96657000  0.91256000  0.91709000  1.0
  O  O112  1  0.46901000  0.06075000  0.93847000  1.0
  O  O113  1  0.96899000  0.93925000  0.06152000  1.0
  O  O114  1  0.30970000  0.91268000  0.91517000  1.0
  O  O115  1  0.80969000  0.08731000  0.08482000  1.0
  O  O116  1  0.63913000  0.95134000  0.99421000  1.0
  O  O117  1  0.13913000  0.04866000  0.00579000  1.0
  O  O118  1  0.47350000  0.80168000  0.80269000  1.0
  O  O119  1  0.97349000  0.19832000  0.19730000  1.0
  O  O120  1  0.64275000  0.69930000  0.12705000  1.0
  O  O121  1  0.14274000  0.30070000  0.87295000  1.0
  O  O122  1  0.92746000  0.79345000  0.80557000  1.0
  O  O123  1  0.42745000  0.20654000  0.19443000  1.0
  O  O124  1  0.79637000  0.58258000  0.32416000  1.0
  O  O125  1  0.29638000  0.41743000  0.67584000  1.0
