# generated using pymatgen
data_Zn2H18C23N8O
_symmetry_space_group_name_H-M   'P 1'
_cell_length_a   14.83080000
_cell_length_b   15.96360000
_cell_length_c   17.70530000
_cell_angle_alpha   90.01290000
_cell_angle_beta   78.54600000
_cell_angle_gamma   90.23790000
_symmetry_Int_Tables_number   1
_chemical_formula_structural   Zn2H18C23N8O
_chemical_formula_sum   'Zn8 H72 C92 N32 O4'
_cell_volume   4108.26434011
_cell_formula_units_Z   4
loop_
 _symmetry_equiv_pos_site_id
 _symmetry_equiv_pos_as_xyz
  1  'x, y, z'
loop_
 _atom_site_type_symbol
 _atom_site_label
 _atom_site_symmetry_multiplicity
 _atom_site_fract_x
 _atom_site_fract_y
 _atom_site_fract_z
 _atom_site_occupancy
  Zn  Zn0  1  0.99882000  0.64565000  0.00909000  1.0
  Zn  Zn1  1  0.50638000  0.14382000  0.49341000  1.0
  Zn  Zn2  1  0.99161000  0.35499000  0.98883000  1.0
  Zn  Zn3  1  0.50700000  0.84825000  0.50996000  1.0
  Zn  Zn4  1  0.83773000  0.50315000  0.01570000  1.0
  Zn  Zn5  1  0.15105000  0.49515000  0.98420000  1.0
  Zn  Zn6  1  0.35427000  0.99164000  0.50920000  1.0
  Zn  Zn7  1  0.66170000  0.99734000  0.48244000  1.0
  H  H8  1  0.98072000  0.68184000  0.18745000  1.0
  H  H9  1  0.02020000  0.70438000  0.83367000  1.0
  H  H10  1  0.47839000  0.19879000  0.67017000  1.0
  H  H11  1  0.51937000  0.18315000  0.31724000  1.0
  H  H12  1  0.73465000  0.43469000  0.75155000  1.0
  H  H13  1  0.13808000  0.44993000  0.32399000  1.0
  H  H14  1  0.33922000  0.95246000  0.19315000  1.0
  H  H15  1  0.76896000  0.93092000  0.73862000  1.0
  H  H16  1  0.54047000  0.67601000  0.21687000  1.0
  H  H17  1  0.43120000  0.85527000  0.89432000  1.0
  H  H18  1  0.07457000  0.34787000  0.61121000  1.0
  H  H19  1  0.04065000  0.15389000  0.21303000  1.0
  H  H20  1  0.44103000  0.66165000  0.29149000  1.0
  H  H21  1  0.45121000  0.76412000  0.83517000  1.0
  H  H22  1  0.05024000  0.26184000  0.67652000  1.0
  H  H23  1  0.14670000  0.18118000  0.15046000  1.0
  H  H24  1  0.46044000  0.60099000  0.12395000  1.0
  H  H25  1  0.50151000  0.78392000  0.99427000  1.0
  H  H26  1  0.00919000  0.26652000  0.51366000  1.0
  H  H27  1  0.12795000  0.07590000  0.29834000  1.0
  H  H28  1  0.36177000  0.58722000  0.19880000  1.0
  H  H29  1  0.52091000  0.69279000  0.93556000  1.0
  H  H30  1  0.98279000  0.18189000  0.58043000  1.0
  H  H31  1  0.23335000  0.10572000  0.23704000  1.0
  H  H32  1  0.75664000  0.11096000  0.17236000  1.0
  H  H33  1  0.24156000  0.11432000  0.80976000  1.0
  H  H34  1  0.24579000  0.61405000  0.68398000  1.0
  H  H35  1  0.74222000  0.60417000  0.32833000  1.0
  H  H36  1  0.11230000  0.76301000  0.71063000  1.0
  H  H37  1  0.88529000  0.74661000  0.29842000  1.0
  H  H38  1  0.61453000  0.25284000  0.20619000  1.0
  H  H39  1  0.38365000  0.25765000  0.78926000  1.0
  H  H40  1  0.96736000  0.29866000  0.16639000  1.0
  H  H41  1  0.01684000  0.32990000  0.80530000  1.0
  H  H42  1  0.48321000  0.82484000  0.69522000  1.0
  H  H43  1  0.54415000  0.79490000  0.32686000  1.0
  H  H44  1  0.66074000  0.39182000  0.11599000  1.0
  H  H45  1  0.33308000  0.38693000  0.89123000  1.0
  H  H46  1  0.16708000  0.89008000  0.60326000  1.0
  H  H47  1  0.83713000  0.88629000  0.38361000  1.0
  H  H48  1  0.86431000  0.19521000  0.07244000  1.0
  H  H49  1  0.11916000  0.20156000  0.89243000  1.0
  H  H50  1  0.37235000  0.69902000  0.60687000  1.0
  H  H51  1  0.63602000  0.68667000  0.43405000  1.0
  H  H52  1  0.12562000  0.78904000  0.08935000  1.0
  H  H53  1  0.89156000  0.80952000  0.94771000  1.0
  H  H54  1  0.61780000  0.30372000  0.55109000  1.0
  H  H55  1  0.37744000  0.29825000  0.42365000  1.0
  H  H56  1  0.17497000  0.49170000  0.16128000  1.0
  H  H57  1  0.80571000  0.52090000  0.83909000  1.0
  H  H58  1  0.69236000  0.01903000  0.65746000  1.0
  H  H59  1  0.33511000  0.98535000  0.33214000  1.0
  H  H60  1  0.76267000  0.49738000  0.20099000  1.0
  H  H61  1  0.21253000  0.49738000  0.79953000  1.0
  H  H62  1  0.27716000  0.99776000  0.69306000  1.0
  H  H63  1  0.73803000  0.00006000  0.29636000  1.0
  H  H64  1  0.67066000  0.35643000  0.65753000  1.0
  H  H65  1  0.21723000  0.37500000  0.41229000  1.0
  H  H66  1  0.26413000  0.88119000  0.10074000  1.0
  H  H67  1  0.83712000  0.85734000  0.83285000  1.0
  H  H68  1  0.32715000  0.53632000  0.91790000  1.0
  H  H69  1  0.43457000  0.51785000  0.94678000  1.0
  H  H70  1  0.40804000  0.62027000  0.91492000  1.0
  H  H71  1  0.64726000  0.54970000  0.06113000  1.0
  H  H72  1  0.68422000  0.49189000  0.97249000  1.0
  H  H73  1  0.56804000  0.52671000  0.99956000  1.0
  H  H74  1  0.85498000  0.03264000  0.44469000  1.0
  H  H75  1  0.80587000  0.98509000  0.53644000  1.0
  H  H76  1  0.92557000  0.00830000  0.51307000  1.0
  H  H77  1  0.07434000  0.13110000  0.43850000  1.0
  H  H78  1  0.09673000  0.08777000  0.52653000  1.0
  H  H79  1  0.06547000  0.01990000  0.45466000  1.0
  C  C80  1  0.93247000  0.63329000  0.17840000  1.0
  C  C81  1  0.06184000  0.64929000  0.83733000  1.0
  C  C82  1  0.43521000  0.14514000  0.66387000  1.0
  C  C83  1  0.56777000  0.13429000  0.32429000  1.0
  C  C84  1  0.07910000  0.38183000  0.19574000  1.0
  C  C85  1  0.90239000  0.41680000  0.78890000  1.0
  C  C86  1  0.59784000  0.91366000  0.70923000  1.0
  C  C87  1  0.43393000  0.87848000  0.29579000  1.0
  C  C88  1  0.73494000  0.26912000  0.11708000  1.0
  C  C89  1  0.25542000  0.27061000  0.87011000  1.0
  C  C90  1  0.23919000  0.77178000  0.62687000  1.0
  C  C91  1  0.76436000  0.76194000  0.38656000  1.0
  C  C92  1  0.25550000  0.71258000  0.07462000  1.0
  C  C93  1  0.75988000  0.74332000  0.93867000  1.0
  C  C94  1  0.74811000  0.23634000  0.56040000  1.0
  C  C95  1  0.26385000  0.20889000  0.40970000  1.0
  C  C96  1  0.37903000  0.71766000  0.15409000  1.0
  C  C97  1  0.61757000  0.79683000  0.89361000  1.0
  C  C98  1  0.88903000  0.29008000  0.60888000  1.0
  C  C99  1  0.16685000  0.21092000  0.30867000  1.0
  C  C100  1  0.31602000  0.75721000  0.11675000  1.0
  C  C101  1  0.71206000  0.79769000  0.89327000  1.0
  C  C102  1  0.79566000  0.29193000  0.60519000  1.0
  C  C103  1  0.20655000  0.25183000  0.36403000  1.0
  C  C104  1  0.74414000  0.35033000  0.65668000  1.0
  C  C105  1  0.19124000  0.33934000  0.36841000  1.0
  C  C106  1  0.30808000  0.84461000  0.13092000  1.0
  C  C107  1  0.76282000  0.85223000  0.83713000  1.0
  C  C108  1  0.78094000  0.39541000  0.71080000  1.0
  C  C109  1  0.14568000  0.38211000  0.31813000  1.0
  C  C110  1  0.35154000  0.88555000  0.18366000  1.0
  C  C111  1  0.72364000  0.89441000  0.78281000  1.0
  C  C112  1  0.87333000  0.38650000  0.71952000  1.0
  C  C113  1  0.11044000  0.34064000  0.25951000  1.0
  C  C114  1  0.40772000  0.84299000  0.22725000  1.0
  C  C115  1  0.62969000  0.88575000  0.77821000  1.0
  C  C116  1  0.42302000  0.75905000  0.20634000  1.0
  C  C117  1  0.57849000  0.83834000  0.83832000  1.0
  C  C118  1  0.92586000  0.33525000  0.66355000  1.0
  C  C119  1  0.12023000  0.25365000  0.25953000  1.0
  C  C120  1  0.46487000  0.67926000  0.23067000  1.0
  C  C121  1  0.48192000  0.80673000  0.87206000  1.0
  C  C122  1  0.02229000  0.30101000  0.63555000  1.0
  C  C123  1  0.11114000  0.17674000  0.21109000  1.0
  C  C124  1  0.01580000  0.35032000  0.15315000  1.0
  C  C125  1  0.96781000  0.37919000  0.82568000  1.0
  C  C126  1  0.53159000  0.87471000  0.67382000  1.0
  C  C127  1  0.49473000  0.84540000  0.34004000  1.0
  C  C128  1  0.41490000  0.63228000  0.17206000  1.0
  C  C129  1  0.52587000  0.76130000  0.93509000  1.0
  C  C130  1  0.98071000  0.25014000  0.57406000  1.0
  C  C131  1  0.16521000  0.12834000  0.26587000  1.0
  C  C132  1  0.69490000  0.14374000  0.20180000  1.0
  C  C133  1  0.30461000  0.14833000  0.78455000  1.0
  C  C134  1  0.18574000  0.65016000  0.71185000  1.0
  C  C135  1  0.80443000  0.63772000  0.30034000  1.0
  C  C136  1  0.17312000  0.72723000  0.68400000  1.0
  C  C137  1  0.82348000  0.71352000  0.32787000  1.0
  C  C138  1  0.67597000  0.22025000  0.17594000  1.0
  C  C139  1  0.32012000  0.22408000  0.81389000  1.0
  C  C140  1  0.72050000  0.35245000  0.09640000  1.0
  C  C141  1  0.27010000  0.35004000  0.89994000  1.0
  C  C142  1  0.22821000  0.85117000  0.59552000  1.0
  C  C143  1  0.77796000  0.84631000  0.40479000  1.0
  C  C144  1  0.26789000  0.63431000  0.03724000  1.0
  C  C145  1  0.73684000  0.66109000  0.96547000  1.0
  C  C146  1  0.76886000  0.15341000  0.53480000  1.0
  C  C147  1  0.25667000  0.12535000  0.43608000  1.0
  C  C148  1  0.82374000  0.25197000  0.07456000  1.0
  C  C149  1  0.16164000  0.25505000  0.90071000  1.0
  C  C150  1  0.33235000  0.75336000  0.59705000  1.0
  C  C151  1  0.67598000  0.74425000  0.42998000  1.0
  C  C152  1  0.16505000  0.73372000  0.06803000  1.0
  C  C153  1  0.84739000  0.75444000  0.95654000  1.0
  C  C154  1  0.66082000  0.24824000  0.54265000  1.0
  C  C155  1  0.34387000  0.23747000  0.43343000  1.0
  C  C156  1  0.12037000  0.45000000  0.15147000  1.0
  C  C157  1  0.85922000  0.47586000  0.84328000  1.0
  C  C158  1  0.63925000  0.97289000  0.65405000  1.0
  C  C159  1  0.38948000  0.94388000  0.34195000  1.0
  C  C160  1  0.82165000  0.53889000  0.18499000  1.0
  C  C161  1  0.15958000  0.54343000  0.82022000  1.0
  C  C162  1  0.33283000  0.04241000  0.67520000  1.0
  C  C163  1  0.67892000  0.04062000  0.31402000  1.0
  C  C164  1  0.85343000  0.60241000  0.22854000  1.0
  C  C165  1  0.13431000  0.61472000  0.78261000  1.0
  C  C166  1  0.35819000  0.11218000  0.71514000  1.0
  C  C167  1  0.64667000  0.10582000  0.27284000  1.0
  C  C168  1  0.37979000  0.56366000  0.94658000  1.0
  C  C169  1  0.63965000  0.54275000  0.00076000  1.0
  C  C170  1  0.85764000  0.02987000  0.50646000  1.0
  C  C171  1  0.10269000  0.07706000  0.46429000  1.0
  N  N172  1  0.94399000  0.59297000  0.11043000  1.0
  N  N173  1  0.04800000  0.60307000  0.90226000  1.0
  N  N174  1  0.45156000  0.09962000  0.59858000  1.0
  N  N175  1  0.55658000  0.09106000  0.39081000  1.0
  N  N176  1  0.02056000  0.39577000  0.08838000  1.0
  N  N177  1  0.96142000  0.41168000  0.89674000  1.0
  N  N178  1  0.53598000  0.90671000  0.60266000  1.0
  N  N179  1  0.48526000  0.88742000  0.40726000  1.0
  N  N180  1  0.79424000  0.38222000  0.04642000  1.0
  N  N181  1  0.19207000  0.37913000  0.94420000  1.0
  N  N182  1  0.30763000  0.87740000  0.55103000  1.0
  N  N183  1  0.70404000  0.87627000  0.45403000  1.0
  N  N184  1  0.19191000  0.61114000  0.01187000  1.0
  N  N185  1  0.80425000  0.62656000  0.99578000  1.0
  N  N186  1  0.70027000  0.11934000  0.50522000  1.0
  N  N187  1  0.32466000  0.10714000  0.47289000  1.0
  N  N188  1  0.85853000  0.31935000  0.03291000  1.0
  N  N189  1  0.12447000  0.31988000  0.94456000  1.0
  N  N190  1  0.37253000  0.81648000  0.55211000  1.0
  N  N191  1  0.64061000  0.81238000  0.46973000  1.0
  N  N192  1  0.12757000  0.67350000  0.03056000  1.0
  N  N193  1  0.87375000  0.68598000  0.99063000  1.0
  N  N194  1  0.63247000  0.17967000  0.50996000  1.0
  N  N195  1  0.38045000  0.17633000  0.47038000  1.0
  N  N196  1  0.08522000  0.45665000  0.08712000  1.0
  N  N197  1  0.89507000  0.47143000  0.90752000  1.0
  N  N198  1  0.60187000  0.96741000  0.59063000  1.0
  N  N199  1  0.42056000  0.94763000  0.40824000  1.0
  N  N200  1  0.87592000  0.53489000  0.11419000  1.0
  N  N201  1  0.10798000  0.53797000  0.89182000  1.0
  N  N202  1  0.38870000  0.03639000  0.60543000  1.0
  N  N203  1  0.62502000  0.03343000  0.38475000  1.0
  O  O204  1  0.34332000  0.58355000  0.02610000  1.0
  O  O205  1  0.65800000  0.62003000  0.95986000  1.0
  O  O206  1  0.84663000  0.11121000  0.54058000  1.0
  O  O207  1  0.19692000  0.06224000  0.42819000  1.0
