# generated using pymatgen
data_Zn4H39C44N17O2
_symmetry_space_group_name_H-M   'P 1'
_cell_length_a   14.87600000
_cell_length_b   14.91500000
_cell_length_c   14.91290000
_cell_angle_alpha   117.63400000
_cell_angle_beta   93.93900000
_cell_angle_gamma   117.70400000
_symmetry_Int_Tables_number   1
_chemical_formula_structural   Zn4H39C44N17O2
_chemical_formula_sum   'Zn4 H39 C44 N17 O2'
_cell_volume   2418.80250827
_cell_formula_units_Z   1
loop_
 _symmetry_equiv_pos_site_id
 _symmetry_equiv_pos_as_xyz
  1  'x, y, z'
loop_
 _atom_site_type_symbol
 _atom_site_label
 _atom_site_symmetry_multiplicity
 _atom_site_fract_x
 _atom_site_fract_y
 _atom_site_fract_z
 _atom_site_occupancy
  Zn  Zn0  1  0.00390000  0.65105000  0.14585000  1.0
  Zn  Zn1  1  0.00274000  0.34615000  0.84356000  1.0
  Zn  Zn2  1  0.15229000  0.64691000  0.99473000  1.0
  Zn  Zn3  1  0.85502000  0.35009000  0.99656000  1.0
  H  H4  1  0.82883000  0.66763000  0.01989000  1.0
  H  H5  1  0.85938000  0.32909000  0.65276000  1.0
  H  H6  1  0.23625000  0.69598000  0.81035000  1.0
  H  H7  1  0.62107000  0.30170000  0.02908000  1.0
  H  H8  1  0.04716000  0.30025000  0.61386000  1.0
  H  H9  1  0.81891000  0.69724000  0.22384000  1.0
  H  H10  1  0.66020000  0.32407000  0.85197000  1.0
  H  H11  1  0.03177000  0.67104000  0.82441000  1.0
  H  H12  1  0.17764000  0.70075000  0.33859000  1.0
  H  H13  1  0.15556000  0.29776000  0.95284000  1.0
  H  H14  1  0.38689000  0.91661000  0.17885000  1.0
  H  H15  1  0.77092000  0.08211000  0.96256000  1.0
  H  H16  1  0.95185000  0.06846000  0.74697000  1.0
  H  H17  1  0.18378000  0.92585000  0.37276000  1.0
  H  H18  1  0.97898000  0.30364000  0.13862000  1.0
  H  H19  1  0.35248000  0.69432000  0.15090000  1.0
  H  H20  1  0.49551000  0.37837000  0.17217000  1.0
  H  H21  1  0.46662000  0.30307000  0.03099000  1.0
  H  H22  1  0.30970000  0.29922000  0.00542000  1.0
  H  H23  1  0.33724000  0.37505000  0.14659000  1.0
  H  H24  1  0.45489000  0.59817000  0.26781000  1.0
  H  H25  1  0.61604000  0.57924000  0.02580000  1.0
  H  H26  1  0.53319000  0.41818000  0.94703000  1.0
  H  H27  1  0.37971000  0.42518000  0.92400000  1.0
  H  H28  1  0.46144000  0.58572000  0.01004000  1.0
  H  H29  1  0.65451000  0.69502000  0.21736000  1.0
  H  H30  1  0.49804000  0.69286000  0.21816000  1.0
  H  H31  1  0.35359000  0.11239000  0.52888000  1.0
  H  H32  1  0.50176000  0.08724000  0.39860000  1.0
  H  H33  1  0.51006000  0.23684000  0.68931000  1.0
  H  H34  1  0.64918000  0.23866000  0.54604000  1.0
  H  H35  1  0.08994000  0.31764000  0.45972000  1.0
  H  H36  1  0.18592000  0.59302000  0.59056000  1.0
  H  H37  1  0.05495000  0.31560000  0.29981000  1.0
  H  H38  1  0.19473000  0.59696000  0.44556000  1.0
  H  H39  1  0.90416000  0.86737000  0.71772000  1.0
  H  H40  1  0.82548000  0.91511000  0.91024000  1.0
  H  H41  1  0.94437000  0.74515000  0.75127000  1.0
  H  H42  1  0.81189000  0.75789000  0.90088000  1.0
  C  C43  1  0.88714000  0.66379000  0.98080000  1.0
  C  C44  1  0.82423000  0.33268000  0.71485000  1.0
  C  C45  1  0.18810000  0.59885000  0.77766000  1.0
  C  C46  1  0.68484000  0.39882000  0.07537000  1.0
  C  C47  1  0.09258000  0.39730000  0.67737000  1.0
  C  C48  1  0.78541000  0.60014000  0.17363000  1.0
  C  C49  1  0.72199000  0.32978000  0.81597000  1.0
  C  C50  1  0.99051000  0.66574000  0.88082000  1.0
  C  C51  1  0.90751000  0.68536000  0.89947000  1.0
  C  C52  1  0.72054000  0.30928000  0.71328000  1.0
  C  C53  1  0.14888000  0.49872000  0.67004000  1.0
  C  C54  1  0.67693000  0.49949000  0.12764000  1.0
  C  C55  1  0.12058000  0.60366000  0.27629000  1.0
  C  C56  1  0.19012000  0.39496000  0.99462000  1.0
  C  C57  1  0.32169000  0.90080000  0.21098000  1.0
  C  C58  1  0.81813000  0.09699000  0.91245000  1.0
  C  C59  1  0.90947000  0.08905000  0.80185000  1.0
  C  C60  1  0.21864000  0.90676000  0.31011000  1.0
  C  C61  1  0.01937000  0.40099000  0.17469000  1.0
  C  C62  1  0.29060000  0.59690000  0.09553000  1.0
  C  C63  1  0.10056000  0.50216000  0.27763000  1.0
  C  C64  1  0.29531000  0.49616000  0.06930000  1.0
  C  C65  1  0.32797000  0.96950000  0.31815000  1.0
  C  C66  1  0.85501000  0.02677000  0.84875000  1.0
  C  C67  1  0.47714000  0.38304000  0.10255000  1.0
  C  C68  1  0.37187000  0.38067000  0.08514000  1.0
  C  C69  1  0.59152000  0.61589000  0.21500000  1.0
  C  C70  1  0.54553000  0.50007000  0.01788000  1.0
  C  C71  1  0.57512000  0.49832000  0.11887000  1.0
  C  C72  1  0.39563000  0.49635000  0.09213000  1.0
  C  C73  1  0.48339000  0.60753000  0.20469000  1.0
  C  C74  1  0.44338000  0.50244000  0.00427000  1.0
  C  C75  1  0.43048000  0.13242000  0.51620000  1.0
  C  C76  1  0.42584000  0.06934000  0.41280000  1.0
  C  C77  1  0.52631000  0.21469000  0.61394000  1.0
  C  C78  1  0.63096000  0.25615000  0.61999000  1.0
  C  C79  1  0.12006000  0.40675000  0.47292000  1.0
  C  C80  1  0.15580000  0.50341000  0.57612000  1.0
  C  C81  1  0.10615000  0.40648000  0.37578000  1.0
  C  C82  1  0.14027000  0.50539000  0.37088000  1.0
  C  C83  1  0.88013000  0.85506000  0.78099000  1.0
  C  C84  1  0.84932000  0.92639000  0.84646000  1.0
  C  C85  1  0.89578000  0.77258000  0.79438000  1.0
  C  C86  1  0.86551000  0.73675000  0.86207000  1.0
  N  N87  1  0.95412000  0.63658000  0.00902000  1.0
  N  N88  1  0.88051000  0.36158000  0.80940000  1.0
  N  N89  1  0.15798000  0.56040000  0.84281000  1.0
  N  N90  1  0.78959000  0.43657000  0.08889000  1.0
  N  N91  1  0.09792000  0.43450000  0.77997000  1.0
  N  N92  1  0.85218000  0.56215000  0.15046000  1.0
  N  N93  1  0.81756000  0.35991000  0.87138000  1.0
  N  N94  1  0.01742000  0.63775000  0.94746000  1.0
  N  N95  1  0.05463000  0.56502000  0.18174000  1.0
  N  N96  1  0.12884000  0.43364000  0.97728000  1.0
  N  N97  1  0.21823000  0.80562000  0.14545000  1.0
  N  N98  1  0.84818000  0.19236000  0.90439000  1.0
  N  N99  1  0.90585000  0.18772000  0.83581000  1.0
  N  N100  1  0.15414000  0.80940000  0.20764000  1.0
  N  N101  1  0.99266000  0.44054000  0.11949000  1.0
  N  N102  1  0.19056000  0.55768000  0.03925000  1.0
  N  N103  1  0.64097000  0.64147000  0.32375000  1.0
  O  O104  1  0.58367000  0.57256000  0.34956000  1.0
  O  O105  1  0.73717000  0.72959000  0.37922000  1.0
