# generated using pymatgen
data_Sn3P2H8C10N2O7
_symmetry_space_group_name_H-M   'P 1'
_cell_length_a   7.05707000
_cell_length_b   9.93562000
_cell_length_c   12.72410000
_cell_angle_alpha   104.61900000
_cell_angle_beta   90.35700000
_cell_angle_gamma   109.69000000
_symmetry_Int_Tables_number   1
_chemical_formula_structural   Sn3P2H8C10N2O7
_chemical_formula_sum   'Sn6 P4 H16 C20 N4 O14'
_cell_volume   808.71844415
_cell_formula_units_Z   2
loop_
 _symmetry_equiv_pos_site_id
 _symmetry_equiv_pos_as_xyz
  1  'x, y, z'
loop_
 _atom_site_type_symbol
 _atom_site_label
 _atom_site_symmetry_multiplicity
 _atom_site_fract_x
 _atom_site_fract_y
 _atom_site_fract_z
 _atom_site_occupancy
  Sn  Sn0  1  0.85314000  0.52245000  0.39126000  1.0
  Sn  Sn1  1  0.14687000  0.47757000  0.60873000  1.0
  Sn  Sn2  1  0.85112000  0.48615000  0.10862000  1.0
  Sn  Sn3  1  0.14888000  0.51385000  0.89137000  1.0
  Sn  Sn4  1  0.60115000  0.48528000  0.75556000  1.0
  Sn  Sn5  1  0.39883000  0.51471000  0.24444000  1.0
  P  P6  1  0.62137000  0.70444000  0.58148000  1.0
  P  P7  1  0.37864000  0.29557000  0.41852000  1.0
  P  P8  1  0.63119000  0.70556000  0.01472000  1.0
  P  P9  1  0.36881000  0.29445000  0.98528000  1.0
  H  H10  1  0.22602000  0.16906000  0.67878000  1.0
  H  H11  1  0.77398000  0.83094000  0.32121000  1.0
  H  H12  1  0.04995000  0.89523000  0.65345000  1.0
  H  H13  1  0.95005000  0.10476000  0.34655000  1.0
  H  H14  1  0.49129000  0.95633000  0.58131000  1.0
  H  H15  1  0.50871000  0.04367000  0.41869000  1.0
  H  H16  1  0.69318000  0.22554000  0.60192000  1.0
  H  H17  1  0.30682000  0.77446000  0.39808000  1.0
  H  H18  1  0.89050000  0.20156000  0.94336000  1.0
  H  H19  1  0.10950000  0.79844000  0.05664000  1.0
  H  H20  1  0.80754000  0.92595000  0.89269000  1.0
  H  H21  1  0.19246000  0.07406000  0.10731000  1.0
  H  H22  1  0.57341000  0.92717000  0.20527000  1.0
  H  H23  1  0.42658000  0.07283000  0.79472000  1.0
  H  H24  1  0.65925000  0.20139000  0.24201000  1.0
  H  H25  1  0.34074000  0.79861000  0.75799000  1.0
  C  C26  1  0.06363000  0.11639000  0.65531000  1.0
  C  C27  1  0.93637000  0.88361000  0.34469000  1.0
  C  C28  1  0.96526000  0.96491000  0.64173000  1.0
  C  C29  1  0.03474000  0.03509000  0.35827000  1.0
  C  C30  1  0.75573000  0.90359000  0.61297000  1.0
  C  C31  1  0.24428000  0.09641000  0.38703000  1.0
  C  C32  1  0.65452000  0.99913000  0.60170000  1.0
  C  C33  1  0.34549000  0.00087000  0.39830000  1.0
  C  C34  1  0.76580000  0.14860000  0.61428000  1.0
  C  C35  1  0.23420000  0.85140000  0.38572000  1.0
  C  C36  1  0.81960000  0.13658000  0.99925000  1.0
  C  C37  1  0.18040000  0.86342000  0.00075000  1.0
  C  C38  1  0.77471000  0.98375000  0.97130000  1.0
  C  C39  1  0.22529000  0.01626000  0.02870000  1.0
  C  C40  1  0.68651000  0.90458000  0.04579000  1.0
  C  C41  1  0.31349000  0.09542000  0.95421000  1.0
  C  C42  1  0.64592000  0.98406000  0.14538000  1.0
  C  C43  1  0.35407000  0.01594000  0.85462000  1.0
  C  C44  1  0.69391000  0.13683000  0.16653000  1.0
  C  C45  1  0.30608000  0.86317000  0.83347000  1.0
  N  N46  1  0.96668000  0.20664000  0.64038000  1.0
  N  N47  1  0.03332000  0.79335000  0.35962000  1.0
  N  N48  1  0.78006000  0.21188000  0.09473000  1.0
  N  N49  1  0.21994000  0.78812000  0.90527000  1.0
  O  O50  1  0.66139000  0.64300000  0.46215000  1.0
  O  O51  1  0.33861000  0.35700000  0.53785000  1.0
  O  O52  1  0.39630000  0.68227000  0.58707000  1.0
  O  O53  1  0.60372000  0.31774000  0.41294000  1.0
  O  O54  1  0.71850000  0.64927000  0.66254000  1.0
  O  O55  1  0.28150000  0.35072000  0.33746000  1.0
  O  O56  1  0.67754000  0.47758000  0.24310000  1.0
  O  O57  1  0.32247000  0.52244000  0.75690000  1.0
  O  O58  1  0.70627000  0.66449000  0.90182000  1.0
  O  O59  1  0.29373000  0.33550000  0.09818000  1.0
  O  O60  1  0.74760000  0.68331000  0.10715000  1.0
  O  O61  1  0.25239000  0.31670000  0.89286000  1.0
  O  O62  1  0.40079000  0.63081000  0.01654000  1.0
  O  O63  1  0.59920000  0.36920000  0.98346000  1.0
