# generated using pymatgen
data_CuH10C12(NO3)2
_symmetry_space_group_name_H-M   'P 1'
_cell_length_a   7.16380000
_cell_length_b   7.16482000
_cell_length_c   12.25700000
_cell_angle_alpha   86.13140000
_cell_angle_beta   86.12790000
_cell_angle_gamma   71.39830000
_symmetry_Int_Tables_number   1
_chemical_formula_structural   CuH10C12(NO3)2
_chemical_formula_sum   'Cu2 H20 C24 N4 O12'
_cell_volume   594.19014802
_cell_formula_units_Z   2
loop_
 _symmetry_equiv_pos_site_id
 _symmetry_equiv_pos_as_xyz
  1  'x, y, z'
loop_
 _atom_site_type_symbol
 _atom_site_label
 _atom_site_symmetry_multiplicity
 _atom_site_fract_x
 _atom_site_fract_y
 _atom_site_fract_z
 _atom_site_occupancy
  Cu  Cu0  1  0.60221000  0.66729000  0.54201000  1.0
  Cu  Cu1  1  0.66740000  0.60205000  0.04202000  1.0
  H  H2  1  0.08465000  0.85690000  0.28860000  1.0
  H  H3  1  0.85689000  0.08464000  0.78860000  1.0
  H  H4  1  0.64151000  0.00465000  0.46148000  1.0
  H  H5  1  0.00476000  0.64156000  0.96144000  1.0
  H  H6  1  0.73241000  0.97988000  0.57967000  1.0
  H  H7  1  0.97998000  0.73246000  0.07967000  1.0
  H  H8  1  0.95950000  0.56150000  0.47057000  1.0
  H  H9  1  0.56150000  0.95952000  0.97055000  1.0
  H  H10  1  0.31522000  0.37067000  0.48539000  1.0
  H  H11  1  0.37069000  0.31520000  0.98537000  1.0
  H  H12  1  0.32600000  0.15807000  0.16369000  1.0
  H  H13  1  0.15807000  0.32598000  0.66369000  1.0
  H  H14  1  0.97474000  0.33568000  0.15109000  1.0
  H  H15  1  0.33566000  0.97478000  0.65110000  1.0
  H  H16  1  0.81159000  0.07502000  0.26129000  1.0
  H  H17  1  0.07503000  0.81156000  0.76130000  1.0
  H  H18  1  0.62275000  0.21672000  0.17414000  1.0
  H  H19  1  0.21672000  0.62278000  0.67412000  1.0
  H  H20  1  0.64303000  0.96451000  0.21215000  1.0
  H  H21  1  0.96446000  0.64307000  0.71215000  1.0
  C  C22  1  0.41900000  0.73188000  0.34055000  1.0
  C  C23  1  0.73186000  0.41903000  0.84055000  1.0
  C  C24  1  0.43916000  0.69912000  0.22978000  1.0
  C  C25  1  0.69915000  0.43916000  0.72976000  1.0
  C  C26  1  0.73226000  0.57458000  0.29861000  1.0
  C  C27  1  0.57462000  0.73226000  0.79859000  1.0
  C  C28  1  0.93986000  0.46377000  0.30949000  1.0
  C  C29  1  0.46378000  0.93986000  0.80947000  1.0
  C  C30  1  0.03788000  0.46760000  0.40482000  1.0
  C  C31  1  0.46760000  0.03790000  0.90480000  1.0
  C  C32  1  0.23636000  0.36309000  0.41364000  1.0
  C  C33  1  0.36310000  0.23636000  0.91363000  1.0
  C  C34  1  0.34279000  0.25461000  0.32581000  1.0
  C  C35  1  0.25462000  0.34280000  0.82581000  1.0
  C  C36  1  0.24703000  0.24583000  0.23133000  1.0
  C  C37  1  0.24582000  0.24702000  0.73134000  1.0
  C  C38  1  0.04717000  0.34828000  0.22414000  1.0
  C  C39  1  0.34828000  0.04718000  0.72415000  1.0
  C  C40  1  0.24782000  0.82150000  0.41330000  1.0
  C  C41  1  0.82148000  0.24786000  0.91328000  1.0
  C  C42  1  0.29722000  0.72508000  0.14543000  1.0
  C  C43  1  0.72508000  0.29722000  0.64540000  1.0
  C  C44  1  0.66016000  0.10073000  0.23954000  1.0
  C  C45  1  0.10073000  0.66016000  0.73954000  1.0
  N  N46  1  0.60233000  0.65441000  0.38200000  1.0
  N  N47  1  0.65440000  0.60236000  0.88201000  1.0
  N  N48  1  0.63491000  0.60449000  0.20355000  1.0
  N  N49  1  0.60457000  0.63488000  0.70355000  1.0
  O  O50  1  0.26868000  0.82822000  0.51285000  1.0
  O  O51  1  0.82819000  0.26873000  0.01283000  1.0
  O  O52  1  0.07392000  0.89166000  0.37018000  1.0
  O  O53  1  0.89165000  0.07398000  0.87016000  1.0
  O  O54  1  0.11286000  0.79629000  0.16937000  1.0
  O  O55  1  0.79623000  0.11293000  0.66932000  1.0
  O  O56  1  0.36961000  0.66659000  0.05068000  1.0
  O  O57  1  0.66666667  0.36966000  0.55069000  1.0
  O  O58  1  0.54047000  0.16387000  0.33776000  1.0
  O  O59  1  0.16389000  0.54046000  0.83775000  1.0
  O  O60  1  0.69087000  0.90917000  0.52279000  1.0
  O  O61  1  0.90922000  0.69088000  0.02277000  1.0
