# generated using pymatgen
data_ZnH22C16Br4(NO4)2
_symmetry_space_group_name_H-M   'P 1'
_cell_length_a   8.21066000
_cell_length_b   8.94605000
_cell_length_c   9.03152000
_cell_angle_alpha   78.00840000
_cell_angle_beta   69.70100000
_cell_angle_gamma   77.84950000
_symmetry_Int_Tables_number   1
_chemical_formula_structural   ZnH22C16Br4(NO4)2
_chemical_formula_sum   'Zn1 H22 C16 Br4 N2 O8'
_cell_volume   601.64928246
_cell_formula_units_Z   1
loop_
 _symmetry_equiv_pos_site_id
 _symmetry_equiv_pos_as_xyz
  1  'x, y, z'
loop_
 _atom_site_type_symbol
 _atom_site_label
 _atom_site_symmetry_multiplicity
 _atom_site_fract_x
 _atom_site_fract_y
 _atom_site_fract_z
 _atom_site_occupancy
  Zn  Zn0  1  0.50000000  0.50000000  0.50000000  1.0
  H  H1  1  0.24690000  0.52248000  0.39934000  1.0
  H  H2  1  0.75310000  0.47752000  0.60067000  1.0
  H  H3  1  0.44006000  0.82613000  0.57958000  1.0
  H  H4  1  0.55994000  0.17388000  0.42042000  1.0
  H  H5  1  0.11301000  0.66175000  0.91990000  1.0
  H  H6  1  0.88699000  0.33825000  0.08010000  1.0
  H  H7  1  0.97422000  0.84501000  0.93265000  1.0
  H  H8  1  0.02578000  0.15499000  0.06735000  1.0
  H  H9  1  0.13396000  0.79071000  0.03699000  1.0
  H  H10  1  0.86604000  0.20929000  0.96301000  1.0
  H  H11  1  0.34111000  0.05086000  0.65848000  1.0
  H  H12  1  0.65888000  0.94914000  0.34151000  1.0
  H  H13  1  0.25043000  0.05004000  0.86798000  1.0
  H  H14  1  0.74957000  0.94996000  0.13202000  1.0
  H  H15  1  0.10814000  0.07833000  0.74989000  1.0
  H  H16  1  0.89186000  0.92167000  0.25011000  1.0
  H  H17  1  0.16543000  0.38864000  0.73049000  1.0
  H  H18  1  0.83458000  0.61136000  0.26952000  1.0
  H  H19  1  0.03267000  0.35991000  0.62068000  1.0
  H  H20  1  0.96734000  0.64009000  0.37933000  1.0
  H  H21  1  0.04425000  0.55133000  0.64414000  1.0
  H  H22  1  0.95575000  0.44867000  0.35586000  1.0
  C  C23  1  0.39515000  0.73585000  0.24472000  1.0
  C  C24  1  0.60486000  0.26415000  0.75528000  1.0
  C  C25  1  0.44403000  0.87266000  0.11528000  1.0
  C  C26  1  0.55597000  0.12734000  0.88472000  1.0
  C  C27  1  0.57096000  0.84878000  0.96764000  1.0
  C  C28  1  0.42904000  0.15122000  0.03236000  1.0
  C  C29  1  0.62646000  0.97603000  0.85384000  1.0
  C  C30  1  0.37353000  0.02396000  0.14616000  1.0
  C  C31  1  0.34781000  0.76313000  0.68110000  1.0
  C  C32  1  0.65219000  0.23688000  0.31890000  1.0
  C  C33  1  0.10610000  0.78335000  0.92824000  1.0
  C  C34  1  0.89390000  0.21665000  0.07175000  1.0
  C  C35  1  0.23358000  0.01635000  0.76467000  1.0
  C  C36  1  0.76642000  0.98365000  0.23533000  1.0
  C  C37  1  0.11873000  0.43514000  0.62766000  1.0
  C  C38  1  0.88128000  0.56486000  0.37235000  1.0
  Br  Br39  1  0.66324000  0.64360000  0.92606000  1.0
  Br  Br40  1  0.33676000  0.35639000  0.07394000  1.0
  Br  Br41  1  0.79766000  0.94590000  0.65212000  1.0
  Br  Br42  1  0.20231000  0.05409000  0.34787000  1.0
  N  N43  1  0.23532000  0.85063000  0.78769000  1.0
  N  N44  1  0.76468000  0.14937000  0.21230000  1.0
  O  O45  1  0.49128000  0.70163000  0.33462000  1.0
  O  O46  1  0.50872000  0.29837000  0.66538000  1.0
  O  O47  1  0.26935000  0.67216000  0.25130000  1.0
  O  O48  1  0.73065000  0.32784000  0.74871000  1.0
  O  O49  1  0.27017000  0.43947000  0.48686000  1.0
  O  O50  1  0.72984000  0.56053000  0.51315000  1.0
  O  O51  1  0.34969000  0.62075000  0.69301000  1.0
  O  O52  1  0.65031000  0.37925000  0.30698000  1.0
