# generated using pymatgen
data_ZnH7C23N2O4F5
_symmetry_space_group_name_H-M   'P 1'
_cell_length_a   15.28800000
_cell_length_b   15.28760000
_cell_length_c   15.96730000
_cell_angle_alpha   93.24260000
_cell_angle_beta   93.13450000
_cell_angle_gamma   90.11710000
_symmetry_Int_Tables_number   1
_chemical_formula_structural   ZnH7C23N2O4F5
_chemical_formula_sum   'Zn2 H14 C46 N4 O8 F10'
_cell_volume   3720.22847213
_cell_formula_units_Z   2
loop_
 _symmetry_equiv_pos_site_id
 _symmetry_equiv_pos_as_xyz
  1  'x, y, z'
loop_
 _atom_site_type_symbol
 _atom_site_label
 _atom_site_symmetry_multiplicity
 _atom_site_fract_x
 _atom_site_fract_y
 _atom_site_fract_z
 _atom_site_occupancy
  Zn  Zn0  1  0.49400000  0.49379000  0.91180000  1.0
  Zn  Zn1  1  0.50599000  0.50603000  0.08820000  1.0
  H  H2  1  0.41696000  0.41698000  0.21782000  1.0
  H  H3  1  0.41659000  0.41648000  0.37659000  1.0
  H  H4  1  0.61779000  0.61716000  0.38835000  1.0
  H  H5  1  0.38249000  0.38264000  0.61162000  1.0
  H  H6  1  0.58366000  0.58336000  0.62350000  1.0
  H  H7  1  0.58320000  0.58285000  0.78225000  1.0
  H  H8  1  0.50747000  0.78275000  0.13119000  1.0
  H  H9  1  0.49308000  0.77163000  0.86148000  1.0
  H  H10  1  0.49300000  0.21714000  0.86886000  1.0
  H  H11  1  0.50724000  0.22822000  0.13856000  1.0
  H  H12  1  0.22787000  0.50616000  0.13862000  1.0
  H  H13  1  0.21748000  0.49265000  0.86893000  1.0
  H  H14  1  0.77204000  0.49212000  0.86128000  1.0
  H  H15  1  0.78242000  0.50615000  0.13095000  1.0
  C  C16  1  0.50003000  0.32934000  0.00532000  1.0
  C  C17  1  0.32938000  0.49998000  0.00538000  1.0
  C  C18  1  0.50007000  0.67048000  0.99472000  1.0
  C  C19  1  0.67054000  0.49943000  0.99457000  1.0
  C  C20  1  0.45970000  0.45966000  0.25904000  1.0
  C  C21  1  0.45971000  0.45956000  0.34565000  1.0
  C  C22  1  0.51743000  0.51707000  0.39344000  1.0
  C  C23  1  0.57250000  0.57203000  0.35311000  1.0
  C  C24  1  0.56669000  0.56644000  0.26575000  1.0
  C  C25  1  0.42775000  0.42779000  0.64688000  1.0
  C  C26  1  0.48283000  0.48276000  0.60657000  1.0
  C  C27  1  0.54051000  0.54028000  0.65440000  1.0
  C  C28  1  0.54046000  0.54019000  0.74101000  1.0
  C  C29  1  0.43347000  0.43341000  0.73425000  1.0
  C  C30  1  0.50436000  0.81720000  0.07331000  1.0
  C  C31  1  0.50438000  0.90895000  0.07571000  1.0
  C  C32  1  0.50828000  0.96150000  0.15280000  1.0
  C  C33  1  0.49636000  0.81090000  0.92057000  1.0
  C  C34  1  0.49633000  0.90259000  0.92115000  1.0
  C  C35  1  0.49241000  0.94894000  0.84575000  1.0
  C  C36  1  0.49607000  0.18266000  0.92671000  1.0
  C  C37  1  0.49612000  0.09092000  0.92430000  1.0
  C  C38  1  0.49235000  0.03836000  0.84722000  1.0
  C  C39  1  0.50401000  0.18896000  0.07947000  1.0
  C  C40  1  0.50413000  0.09727000  0.07887000  1.0
  C  C41  1  0.50817000  0.05092000  0.15428000  1.0
  C  C42  1  0.50032000  0.76883000  0.99619000  1.0
  C  C43  1  0.50030000  0.95346000  0.99923000  1.0
  C  C44  1  0.49997000  0.23101000  0.00386000  1.0
  C  C45  1  0.50016000  0.04641000  0.00079000  1.0
  C  C46  1  0.18875000  0.50298000  0.07950000  1.0
  C  C47  1  0.09706000  0.50269000  0.07884000  1.0
  C  C48  1  0.05054000  0.50615000  0.15422000  1.0
  C  C49  1  0.18286000  0.49549000  0.92677000  1.0
  C  C50  1  0.09113000  0.49520000  0.92430000  1.0
  C  C51  1  0.03879000  0.49133000  0.84719000  1.0
  C  C52  1  0.81114000  0.49532000  0.92041000  1.0
  C  C53  1  0.90282000  0.49517000  0.92104000  1.0
  C  C54  1  0.94937000  0.49131000  0.84566000  1.0
  C  C55  1  0.81705000  0.50309000  0.07313000  1.0
  C  C56  1  0.90878000  0.50288000  0.07559000  1.0
  C  C57  1  0.96112000  0.50633000  0.15269000  1.0
  C  C58  1  0.23103000  0.49943000  0.00392000  1.0
  C  C59  1  0.04641000  0.49891000  0.00075000  1.0
  C  C60  1  0.76888000  0.49933000  0.99599000  1.0
  C  C61  1  0.95348000  0.49896000  0.99913000  1.0
  N  N62  1  0.51295000  0.51289000  0.21932000  1.0
  N  N63  1  0.52548000  0.52497000  0.48251000  1.0
  N  N64  1  0.47482000  0.47486000  0.51751000  1.0
  N  N65  1  0.48717000  0.48698000  0.78069000  1.0
  O  O66  1  0.49865000  0.36354000  0.93442000  1.0
  O  O67  1  0.50152000  0.37053000  0.07695000  1.0
  O  O68  1  0.37046000  0.50155000  0.07699000  1.0
  O  O69  1  0.36369000  0.49887000  0.93448000  1.0
  O  O70  1  0.50124000  0.63626000  0.06560000  1.0
  O  O71  1  0.49866000  0.62931000  0.92309000  1.0
  O  O72  1  0.62947000  0.49796000  0.92297000  1.0
  O  O73  1  0.63624000  0.50096000  0.06548000  1.0
  F  F74  1  0.61823000  0.61797000  0.22419000  1.0
  F  F75  1  0.38192000  0.38189000  0.77579000  1.0
  F  F76  1  0.51197000  0.09799000  0.22910000  1.0
  F  F77  1  0.51212000  0.92052000  0.22612000  1.0
  F  F78  1  0.48871000  0.07932000  0.77390000  1.0
  F  F79  1  0.48875000  0.90187000  0.77094000  1.0
  F  F80  1  0.91998000  0.50970000  0.22599000  1.0
  F  F81  1  0.09742000  0.50925000  0.22905000  1.0
  F  F82  1  0.90245000  0.48768000  0.77085000  1.0
  F  F83  1  0.07996000  0.48769000  0.77391000  1.0
