# generated using pymatgen
data_ZnH20C24N5O6
_symmetry_space_group_name_H-M   'P 1'
_cell_length_a   15.81710000
_cell_length_b   17.13370000
_cell_length_c   19.05790000
_cell_angle_alpha   89.42190000
_cell_angle_beta   87.53900000
_cell_angle_gamma   86.89670000
_symmetry_Int_Tables_number   1
_chemical_formula_structural   ZnH20C24N5O6
_chemical_formula_sum   'Zn2 H40 C48 N10 O12'
_cell_volume   5152.30811736
_cell_formula_units_Z   2
loop_
 _symmetry_equiv_pos_site_id
 _symmetry_equiv_pos_as_xyz
  1  'x, y, z'
loop_
 _atom_site_type_symbol
 _atom_site_label
 _atom_site_symmetry_multiplicity
 _atom_site_fract_x
 _atom_site_fract_y
 _atom_site_fract_z
 _atom_site_occupancy
  Zn  Zn0  1  0.58469000  0.50937000  0.49613000  1.0
  Zn  Zn1  1  0.41127000  0.49767000  0.50855000  1.0
  H  H2  1  0.88678000  0.40473000  0.54068000  1.0
  H  H3  1  0.63329000  0.50161000  0.14607000  1.0
  H  H4  1  0.39204000  0.42012000  0.72270000  1.0
  H  H5  1  0.61393000  0.53010000  0.27458000  1.0
  H  H6  1  0.58541000  0.74375000  0.41879000  1.0
  H  H7  1  0.40500000  0.25543000  0.53560000  1.0
  H  H8  1  0.57970000  0.88961000  0.40358000  1.0
  H  H9  1  0.39895000  0.11102000  0.51724000  1.0
  H  H10  1  0.63789000  0.11298000  0.40025000  1.0
  H  H11  1  0.34731000  0.90453000  0.53008000  1.0
  H  H12  1  0.72647000  0.40608000  0.54219000  1.0
  H  H13  1  0.11552000  0.54211000  0.41221000  1.0
  H  H14  1  0.27560000  0.54377000  0.41326000  1.0
  H  H15  1  0.70554000  0.48455000  0.67441000  1.0
  H  H16  1  0.73868000  0.51795000  0.75721000  1.0
  H  H17  1  0.75856000  0.65128000  0.70440000  1.0
  H  H18  1  0.82073000  0.57879000  0.65585000  1.0
  H  H19  1  0.72321000  0.61845000  0.62281000  1.0
  H  H20  1  0.39702000  0.28276000  0.29299000  1.0
  H  H21  1  0.43285000  0.33756000  0.36431000  1.0
  H  H22  1  0.24527000  0.31430000  0.33797000  1.0
  H  H23  1  0.30669000  0.26133000  0.40085000  1.0
  H  H24  1  0.12188000  0.42035000  0.61141000  1.0
  H  H25  1  0.28571000  0.36388000  0.41041000  1.0
  H  H26  1  0.59298000  0.34515000  0.35820000  1.0
  H  H27  1  0.63975000  0.26581000  0.30716000  1.0
  H  H28  1  0.78513000  0.31294000  0.33317000  1.0
  H  H29  1  0.72183000  0.38420000  0.28726000  1.0
  H  H30  1  0.73369000  0.39385000  0.37926000  1.0
  H  H31  1  0.28117000  0.69706000  0.47948000  1.0
  H  H32  1  0.23169000  0.78953000  0.50574000  1.0
  H  H33  1  0.19634000  0.73241000  0.62538000  1.0
  H  H34  1  0.15149000  0.67823000  0.55819000  1.0
  H  H35  1  0.87038000  0.62568000  0.43010000  1.0
  H  H36  1  0.24576000  0.64112000  0.59840000  1.0
  H  H37  1  0.28172000  0.43130000  0.60607000  1.0
  H  H38  1  0.70995000  0.61998000  0.43996000  1.0
  H  H39  1  0.62868000  0.51716000  0.85448000  1.0
  H  H40  1  0.40227000  0.37851000  0.15845000  1.0
  H  H41  1  0.40593000  0.38343000  0.84946000  1.0
  C  C42  1  0.52035000  0.35119000  0.49523000  1.0
  C  C43  1  0.46323000  0.90560000  0.46657000  1.0
  C  C44  1  0.58628000  0.14417000  0.42984000  1.0
  C  C45  1  0.39835000  0.86874000  0.50423000  1.0
  C  C46  1  0.59027000  0.22457000  0.44054000  1.0
  C  C47  1  0.40144000  0.78760000  0.51266000  1.0
  C  C48  1  0.23806000  0.51888000  0.45643000  1.0
  C  C49  1  0.76161000  0.45383000  0.51934000  1.0
  C  C50  1  0.15053000  0.51728000  0.45579000  1.0
  C  C51  1  0.84937000  0.45299000  0.51791000  1.0
  C  C52  1  0.10796000  0.48213000  0.51290000  1.0
  C  C53  1  0.48049000  0.65541000  0.49232000  1.0
  C  C54  1  0.88917000  0.51603000  0.48563000  1.0
  C  C55  1  0.15446000  0.44884000  0.56752000  1.0
  C  C56  1  0.83986000  0.57693000  0.45581000  1.0
  C  C57  1  0.49742000  0.49902000  0.63917000  1.0
  C  C58  1  0.49434000  0.49101000  0.36536000  1.0
  C  C59  1  0.24189000  0.45440000  0.56457000  1.0
  C  C60  1  0.75215000  0.57375000  0.46074000  1.0
  C  C61  1  0.56967000  0.51487000  0.75481000  1.0
  C  C62  1  0.43810000  0.42835000  0.25489000  1.0
  C  C63  1  0.57753000  0.49467000  0.82535000  1.0
  C  C64  1  0.52388000  0.26539000  0.47952000  1.0
  C  C65  1  0.44912000  0.41213000  0.18329000  1.0
  C  C66  1  0.51945000  0.44640000  0.85937000  1.0
  C  C67  1  0.51906000  0.43813000  0.14381000  1.0
  C  C68  1  0.45140000  0.42007000  0.82254000  1.0
  C  C69  1  0.57901000  0.48131000  0.17677000  1.0
  C  C70  1  0.44391000  0.44054000  0.75230000  1.0
  C  C71  1  0.56815000  0.49709000  0.24783000  1.0
  C  C72  1  0.50350000  0.48618000  0.71683000  1.0
  C  C73  1  0.49853000  0.47149000  0.28853000  1.0
  C  C74  1  0.52896000  0.42218000  0.06852000  1.0
  C  C75  1  0.47000000  0.74216000  0.48201000  1.0
  C  C76  1  0.52907000  0.42628000  0.93348000  1.0
  C  C77  1  0.70853000  0.53626000  0.70802000  1.0
  C  C78  1  0.75564000  0.60012000  0.67053000  1.0
  C  C79  1  0.37987000  0.33126000  0.32958000  1.0
  C  C80  1  0.29924000  0.31702000  0.37212000  1.0
  C  C81  1  0.64971000  0.30559000  0.35098000  1.0
  C  C82  1  0.72755000  0.35176000  0.33702000  1.0
  C  C83  1  0.26469000  0.73534000  0.52471000  1.0
  C  C84  1  0.21131000  0.69430000  0.58004000  1.0
  C  C85  1  0.45531000  0.22284000  0.50580000  1.0
  C  C86  1  0.53306000  0.78000000  0.44222000  1.0
  C  C87  1  0.45139000  0.14346000  0.49554000  1.0
  C  C88  1  0.53031000  0.86044000  0.43358000  1.0
  C  C89  1  0.51786000  0.10322000  0.45714000  1.0
  N  N90  1  0.47001000  0.38409000  0.96784000  1.0
  N  N91  1  0.97812000  0.52287000  0.47989000  1.0
  N  N92  1  0.60101000  0.44193000  0.03338000  1.0
  N  N93  1  0.46997000  0.38194000  0.03692000  1.0
  N  N94  1  0.60120000  0.44389000  0.96435000  1.0
  N  N95  1  0.52276000  0.02137000  0.44672000  1.0
  N  N96  1  0.45730000  0.98793000  0.46951000  1.0
  N  N97  1  0.28242000  0.48889000  0.51023000  1.0
  N  N98  1  0.71419000  0.51336000  0.49171000  1.0
  N  N99  1  0.01896000  0.47650000  0.51955000  1.0
  O  O100  1  0.58682000  0.38900000  0.48435000  1.0
  O  O101  1  0.36637000  0.40229000  0.28879000  1.0
  O  O102  1  0.66150000  0.25900000  0.41396000  1.0
  O  O103  1  0.34189000  0.75470000  0.55683000  1.0
  O  O104  1  0.41472000  0.61596000  0.49145000  1.0
  O  O105  1  0.44877000  0.38083000  0.51826000  1.0
  O  O106  1  0.55605000  0.62776000  0.50004000  1.0
  O  O107  1  0.56682000  0.49601000  0.60276000  1.0
  O  O108  1  0.42569000  0.48123000  0.40078000  1.0
  O  O109  1  0.42345000  0.50806000  0.61532000  1.0
  O  O110  1  0.56189000  0.51532000  0.38986000  1.0
  O  O111  1  0.62304000  0.56696000  0.72366000  1.0
