# generated using pymatgen
data_MnH14C14(N3O)4
_symmetry_space_group_name_H-M   'P 1'
_cell_length_a   7.85338000
_cell_length_b   7.90443000
_cell_length_c   7.86299000
_cell_angle_alpha   104.80500000
_cell_angle_beta   106.82200000
_cell_angle_gamma   93.41460000
_symmetry_Int_Tables_number   1
_chemical_formula_structural   MnH14C14(N3O)4
_chemical_formula_sum   'Mn1 H14 C14 N12 O4'
_cell_volume   446.98324017
_cell_formula_units_Z   1
loop_
 _symmetry_equiv_pos_site_id
 _symmetry_equiv_pos_as_xyz
  1  'x, y, z'
loop_
 _atom_site_type_symbol
 _atom_site_label
 _atom_site_symmetry_multiplicity
 _atom_site_fract_x
 _atom_site_fract_y
 _atom_site_fract_z
 _atom_site_occupancy
  Mn  Mn0  1  0.00000000  0.00000000  0.00000000  1.0
  H  H1  1  0.37416000  0.81651000  0.40957000  1.0
  H  H2  1  0.62584000  0.18349000  0.59043000  1.0
  H  H3  1  0.31221000  0.58542000  0.32479000  1.0
  H  H4  1  0.68779000  0.41458000  0.67521000  1.0
  H  H5  1  0.56681000  0.54314000  0.20359000  1.0
  H  H6  1  0.43319000  0.45686000  0.79641000  1.0
  H  H7  1  0.04357000  0.60580000  0.73575000  1.0
  H  H8  1  0.95643000  0.39420000  0.26425000  1.0
  H  H9  1  0.62310000  0.91471000  0.65861000  1.0
  H  H10  1  0.37690000  0.08529000  0.34139000  1.0
  H  H11  1  0.71499000  0.19411000  0.20472000  1.0
  H  H12  1  0.28501000  0.80590000  0.79528000  1.0
  H  H13  1  0.80572000  0.66092000  0.08558000  1.0
  H  H14  1  0.19428000  0.33908000  0.91442000  1.0
  C  C15  1  0.25399000  0.71898000  0.11155000  1.0
  C  C16  1  0.74601000  0.28102000  0.88845000  1.0
  C  C17  1  0.37212000  0.70050000  0.29694000  1.0
  C  C18  1  0.62788000  0.29950000  0.70306000  1.0
  C  C19  1  0.56189000  0.67215000  0.29494000  1.0
  C  C20  1  0.43811000  0.32785000  0.70506000  1.0
  C  C21  1  0.92232000  0.65516000  0.67107000  1.0
  C  C22  1  0.07768000  0.34484000  0.32893000  1.0
  C  C23  1  0.71061000  0.81561000  0.63739000  1.0
  C  C24  1  0.28939000  0.18439000  0.36261000  1.0
  C  C25  1  0.71116000  0.05532000  0.20008000  1.0
  C  C26  1  0.28884000  0.94468000  0.79992000  1.0
  C  C27  1  0.76055000  0.78610000  0.13427000  1.0
  C  C28  1  0.23945000  0.21390000  0.86573000  1.0
  N  N29  1  0.81591000  0.58057000  0.49902000  1.0
  N  N30  1  0.18409000  0.41943000  0.50098000  1.0
  N  N31  1  0.68070000  0.68230000  0.48003000  1.0
  N  N32  1  0.31930000  0.31770000  0.51997000  1.0
  N  N33  1  0.86403000  0.80297000  0.76117000  1.0
  N  N34  1  0.13597000  0.19703000  0.23883000  1.0
  N  N35  1  0.60879000  0.97505000  0.27220000  1.0
  N  N36  1  0.39121000  0.02495000  0.72779000  1.0
  N  N37  1  0.64037000  0.80450000  0.22787000  1.0
  N  N38  1  0.35963000  0.19550000  0.77213000  1.0
  N  N39  1  0.80841000  0.94382000  0.11394000  1.0
  N  N40  1  0.19159000  0.05618000  0.88606000  1.0
  O  O41  1  0.14700000  0.83416000  0.12710000  1.0
  O  O42  1  0.85300000  0.16585000  0.87290000  1.0
  O  O43  1  0.27001000  0.62235000  0.96402000  1.0
  O  O44  1  0.72999000  0.37765000  0.03598000  1.0
