# generated using pymatgen
data_MnH4C3N4O3
_symmetry_space_group_name_H-M   'P 1'
_cell_length_a   8.05307000
_cell_length_b   9.49268000
_cell_length_c   9.78470000
_cell_angle_alpha   89.99630000
_cell_angle_beta   89.99520000
_cell_angle_gamma   65.12900000
_symmetry_Int_Tables_number   1
_chemical_formula_structural   MnH4C3N4O3
_chemical_formula_sum   'Mn4 H16 C12 N16 O12'
_cell_volume   678.62234791
_cell_formula_units_Z   4
loop_
 _symmetry_equiv_pos_site_id
 _symmetry_equiv_pos_as_xyz
  1  'x, y, z'
loop_
 _atom_site_type_symbol
 _atom_site_label
 _atom_site_symmetry_multiplicity
 _atom_site_fract_x
 _atom_site_fract_y
 _atom_site_fract_z
 _atom_site_occupancy
  Mn  Mn0  1  0.22537000  0.82064000  0.41976000  1.0
  Mn  Mn1  1  0.77465000  0.67934000  0.91979000  1.0
  Mn  Mn2  1  0.77464000  0.17935000  0.58024000  1.0
  Mn  Mn3  1  0.22535000  0.32066000  0.08022000  1.0
  H  H4  1  0.66406000  0.98162000  0.13447000  1.0
  H  H5  1  0.33597000  0.51838000  0.63446000  1.0
  H  H6  1  0.33595000  0.01838000  0.86554000  1.0
  H  H7  1  0.66403000  0.48162000  0.36554000  1.0
  H  H8  1  0.78038000  0.02490000  0.26166000  1.0
  H  H9  1  0.21962000  0.47509000  0.76164000  1.0
  H  H10  1  0.21962000  0.97510000  0.73834000  1.0
  H  H11  1  0.78038000  0.52490000  0.23835000  1.0
  H  H12  1  0.49856000  0.75477000  0.62661000  1.0
  H  H13  1  0.50143000  0.74522000  0.12663000  1.0
  H  H14  1  0.50144000  0.24524000  0.37339000  1.0
  H  H15  1  0.49857000  0.25476000  0.87338000  1.0
  H  H16  1  0.54581000  0.83018000  0.49522000  1.0
  H  H17  1  0.45418000  0.66984000  0.99523000  1.0
  H  H18  1  0.45419000  0.16982000  0.50478000  1.0
  H  H19  1  0.54582000  0.33016000  0.00478000  1.0
  C  C20  1  0.92112000  0.81476000  0.17701000  1.0
  C  C21  1  0.07889000  0.68525000  0.67701000  1.0
  C  C22  1  0.07889000  0.18525000  0.82299000  1.0
  C  C23  1  0.92111000  0.31474000  0.32299000  1.0
  C  C24  1  0.16616000  0.61495000  0.21959000  1.0
  C  C25  1  0.83385000  0.88506000  0.71960000  1.0
  C  C26  1  0.83384000  0.38506000  0.78041000  1.0
  C  C27  1  0.16615000  0.11494000  0.28041000  1.0
  C  C28  1  0.33851000  0.51067000  0.28475000  1.0
  C  C29  1  0.66149000  0.98931000  0.78477000  1.0
  C  C30  1  0.66149000  0.48933000  0.71524000  1.0
  C  C31  1  0.33852000  0.01069000  0.21523000  1.0
  N  N32  1  0.08366000  0.57090000  0.12206000  1.0
  N  N33  1  0.91635000  0.92911000  0.62206000  1.0
  N  N34  1  0.91634000  0.42911000  0.87794000  1.0
  N  N35  1  0.08366000  0.07089000  0.37794000  1.0
  N  N36  1  0.92366000  0.69859000  0.09352000  1.0
  N  N37  1  0.07635000  0.80142000  0.59351000  1.0
  N  N38  1  0.07634000  0.30142000  0.90648000  1.0
  N  N39  1  0.92365000  0.19857000  0.40648000  1.0
  N  N40  1  0.07222000  0.76513000  0.25776000  1.0
  N  N41  1  0.92780000  0.73487000  0.75778000  1.0
  N  N42  1  0.92778000  0.23488000  0.74223000  1.0
  N  N43  1  0.07219000  0.26512000  0.24221000  1.0
  N  N44  1  0.78900000  0.96206000  0.17580000  1.0
  N  N45  1  0.21102000  0.53793000  0.67578000  1.0
  N  N46  1  0.21100000  0.03795000  0.82421000  1.0
  N  N47  1  0.78898000  0.46206000  0.32421000  1.0
  O  O48  1  0.40234000  0.57008000  0.37556000  1.0
  O  O49  1  0.59765000  0.92990000  0.87558000  1.0
  O  O50  1  0.59765000  0.42994000  0.62444000  1.0
  O  O51  1  0.40236000  0.07008000  0.12443000  1.0
  O  O52  1  0.41000000  0.36816000  0.24679000  1.0
  O  O53  1  0.58998000  0.13183000  0.74680000  1.0
  O  O54  1  0.58999000  0.63184000  0.75321000  1.0
  O  O55  1  0.41002000  0.86817000  0.25321000  1.0
  O  O56  1  0.44438000  0.83438000  0.55184000  1.0
  O  O57  1  0.55561000  0.66561000  0.05186000  1.0
  O  O58  1  0.55562000  0.16563000  0.44816000  1.0
  O  O59  1  0.44439000  0.33438000  0.94815000  1.0
