# generated using pymatgen
data_LaAgH8C14(NO4)2
_symmetry_space_group_name_H-M   'P 1'
_cell_length_a   9.39475000
_cell_length_b   9.60627000
_cell_length_c   22.76990000
_cell_angle_alpha   90.00150000
_cell_angle_beta   90.00060000
_cell_angle_gamma   63.68800000
_symmetry_Int_Tables_number   1
_chemical_formula_structural   LaAgH8C14(NO4)2
_chemical_formula_sum   'La4 Ag4 H32 C56 N8 O32'
_cell_volume   1842.04355100
_cell_formula_units_Z   4
loop_
 _symmetry_equiv_pos_site_id
 _symmetry_equiv_pos_as_xyz
  1  'x, y, z'
loop_
 _atom_site_type_symbol
 _atom_site_label
 _atom_site_symmetry_multiplicity
 _atom_site_fract_x
 _atom_site_fract_y
 _atom_site_fract_z
 _atom_site_occupancy
  La  La0  1  0.87941000  0.36393000  0.01060000  1.0
  La  La1  1  0.62059000  0.63607000  0.51060000  1.0
  La  La2  1  0.12060000  0.63606000  0.98941000  1.0
  La  La3  1  0.37940000  0.36395000  0.48941000  1.0
  Ag  Ag4  1  0.02594000  0.34290000  0.34857000  1.0
  Ag  Ag5  1  0.47405000  0.65708000  0.84858000  1.0
  Ag  Ag6  1  0.97405000  0.65710000  0.65142000  1.0
  Ag  Ag7  1  0.52597000  0.34289000  0.15143000  1.0
  H  H8  1  0.12701000  0.62050000  0.33153000  1.0
  H  H9  1  0.37298000  0.37948000  0.83152000  1.0
  H  H10  1  0.87298000  0.37953000  0.66846000  1.0
  H  H11  1  0.62700000  0.62049000  0.16847000  1.0
  H  H12  1  0.16112000  0.76736000  0.24610000  1.0
  H  H13  1  0.33890000  0.23261000  0.74609000  1.0
  H  H14  1  0.83886000  0.23266000  0.75389000  1.0
  H  H15  1  0.66110000  0.76736000  0.25390000  1.0
  H  H16  1  0.10520000  0.70403000  0.14375000  1.0
  H  H17  1  0.39481000  0.29595000  0.64374000  1.0
  H  H18  1  0.89479000  0.29597000  0.85625000  1.0
  H  H19  1  0.60520000  0.70404000  0.35626000  1.0
  H  H20  1  0.96759000  0.37365000  0.22165000  1.0
  H  H21  1  0.53239000  0.62635000  0.72165000  1.0
  H  H22  1  0.03245000  0.62633000  0.77835000  1.0
  H  H23  1  0.46760000  0.37363000  0.27835000  1.0
  H  H24  1  0.73066000  0.77155000  0.84159000  1.0
  H  H25  1  0.76933000  0.22845000  0.34160000  1.0
  H  H26  1  0.26935000  0.22845000  0.15841000  1.0
  H  H27  1  0.23067000  0.77154000  0.65840000  1.0
  H  H28  1  0.78582000  0.98756000  0.87902000  1.0
  H  H29  1  0.71418000  0.01243000  0.37903000  1.0
  H  H30  1  0.21418000  0.01244000  0.12098000  1.0
  H  H31  1  0.28582000  0.98755000  0.62097000  1.0
  H  H32  1  0.57286000  0.20257000  0.93655000  1.0
  H  H33  1  0.92714000  0.79743000  0.43655000  1.0
  H  H34  1  0.42714000  0.79744000  0.06345000  1.0
  H  H35  1  0.07286000  0.20257000  0.56345000  1.0
  H  H36  1  0.28900000  0.95327000  0.92269000  1.0
  H  H37  1  0.21099000  0.04673000  0.42269000  1.0
  H  H38  1  0.71101000  0.04672000  0.07732000  1.0
  H  H39  1  0.78899000  0.95328000  0.57731000  1.0
  C  C40  1  0.09935000  0.59952000  0.28686000  1.0
  C  C41  1  0.40065000  0.40046000  0.78685000  1.0
  C  C42  1  0.90064000  0.40050000  0.71314000  1.0
  C  C43  1  0.59935000  0.59951000  0.21315000  1.0
  C  C44  1  0.11918000  0.67957000  0.23883000  1.0
  C  C45  1  0.38083000  0.32041000  0.73883000  1.0
  C  C46  1  0.88081000  0.32045000  0.76116000  1.0
  C  C47  1  0.61917000  0.67957000  0.26117000  1.0
  C  C48  1  0.08793000  0.64485000  0.18210000  1.0
  C  C49  1  0.41208000  0.35514000  0.68210000  1.0
  C  C50  1  0.91206000  0.35516000  0.81789000  1.0
  C  C51  1  0.58793000  0.64485000  0.31790000  1.0
  C  C52  1  0.03175000  0.53286000  0.17588000  1.0
  C  C53  1  0.46824000  0.46713000  0.67588000  1.0
  C  C54  1  0.96824000  0.46715000  0.82412000  1.0
  C  C55  1  0.53176000  0.53285000  0.32412000  1.0
  C  C56  1  0.01234000  0.46005000  0.22619000  1.0
  C  C57  1  0.48766000  0.53994000  0.72619000  1.0
  C  C58  1  0.98768000  0.53995000  0.77381000  1.0
  C  C59  1  0.51234000  0.46004000  0.27382000  1.0
  C  C60  1  0.99086000  0.48285000  0.11849000  1.0
  C  C61  1  0.50912000  0.51716000  0.61849000  1.0
  C  C62  1  0.00913000  0.51715000  0.88151000  1.0
  C  C63  1  0.49088000  0.48283000  0.38151000  1.0
  C  C64  1  0.64312000  0.86512000  0.86785000  1.0
  C  C65  1  0.85688000  0.13487000  0.36786000  1.0
  C  C66  1  0.35689000  0.13488000  0.13215000  1.0
  C  C67  1  0.14311000  0.86512000  0.63214000  1.0
  C  C68  1  0.67211000  0.98696000  0.88777000  1.0
  C  C69  1  0.82789000  0.01303000  0.38778000  1.0
  C  C70  1  0.32790000  0.01305000  0.11222000  1.0
  C  C71  1  0.17210000  0.98696000  0.61222000  1.0
  C  C72  1  0.55502000  0.10469000  0.92041000  1.0
  C  C73  1  0.94498000  0.89531000  0.42041000  1.0
  C  C74  1  0.44498000  0.89532000  0.07959000  1.0
  C  C75  1  0.05502000  0.10469000  0.57959000  1.0
  C  C76  1  0.41405000  0.09500000  0.93333000  1.0
  C  C77  1  0.08596000  0.90500000  0.43333000  1.0
  C  C78  1  0.58595000  0.90501000  0.06666000  1.0
  C  C79  1  0.91405000  0.09501000  0.56667000  1.0
  C  C80  1  0.39591000  0.96654000  0.91279000  1.0
  C  C81  1  0.10409000  0.03346000  0.41279000  1.0
  C  C82  1  0.60410000  0.03346000  0.08721000  1.0
  C  C83  1  0.89590000  0.96655000  0.58721000  1.0
  C  C84  1  0.28276000  0.22303000  0.96718000  1.0
  C  C85  1  0.21723000  0.77698000  0.46718000  1.0
  C  C86  1  0.71723000  0.77698000  0.03282000  1.0
  C  C87  1  0.78277000  0.22303000  0.53282000  1.0
  C  C88  1  0.49615000  0.47724000  0.03232000  1.0
  C  C89  1  0.00384000  0.52277000  0.53231000  1.0
  C  C90  1  0.50384000  0.52276000  0.96769000  1.0
  C  C91  1  0.99616000  0.47724000  0.46768000  1.0
  C  C92  1  0.01663000  0.99078000  0.03380000  1.0
  C  C93  1  0.48338000  0.00923000  0.53381000  1.0
  C  C94  1  0.98337000  0.00923000  0.96621000  1.0
  C  C95  1  0.51663000  0.99077000  0.46621000  1.0
  N  N96  1  0.04734000  0.48981000  0.28062000  1.0
  N  N97  1  0.45266000  0.51018000  0.78061000  1.0
  N  N98  1  0.95268000  0.51020000  0.71938000  1.0
  N  N99  1  0.54733000  0.48979000  0.21939000  1.0
  N  N100  1  0.50742000  0.85449000  0.87981000  1.0
  N  N101  1  0.99257000  0.14551000  0.37981000  1.0
  N  N102  1  0.49259000  0.14551000  0.12019000  1.0
  N  N103  1  0.00742000  0.85449000  0.62019000  1.0
  O  O104  1  0.04291000  0.51271000  0.07067000  1.0
  O  O105  1  0.45710000  0.48729000  0.57067000  1.0
  O  O106  1  0.95712000  0.48726000  0.92933000  1.0
  O  O107  1  0.54290000  0.51271000  0.42933000  1.0
  O  O108  1  0.90764000  0.40933000  0.12035000  1.0
  O  O109  1  0.59233000  0.59070000  0.62035000  1.0
  O  O110  1  0.09229000  0.59073000  0.87965000  1.0
  O  O111  1  0.40772000  0.40926000  0.37965000  1.0
  O  O112  1  0.17183000  0.19592000  0.98759000  1.0
  O  O113  1  0.32816000  0.80410000  0.48759000  1.0
  O  O114  1  0.82817000  0.80411000  0.01241000  1.0
  O  O115  1  0.67183000  0.19591000  0.51241000  1.0
  O  O116  1  0.29349000  0.34981000  0.97146000  1.0
  O  O117  1  0.20652000  0.65019000  0.47146000  1.0
  O  O118  1  0.70652000  0.65020000  0.02853000  1.0
  O  O119  1  0.79348000  0.34981000  0.52854000  1.0
  O  O120  1  0.62658000  0.38322000  0.05559000  1.0
  O  O121  1  0.87341000  0.61680000  0.55558000  1.0
  O  O122  1  0.37341000  0.61679000  0.94442000  1.0
  O  O123  1  0.12659000  0.38323000  0.44441000  1.0
  O  O124  1  0.36303000  0.53524000  0.05769000  1.0
  O  O125  1  0.13697000  0.46477000  0.55768000  1.0
  O  O126  1  0.63696000  0.46477000  0.94232000  1.0
  O  O127  1  0.86302000  0.53522000  0.44232000  1.0
  O  O128  1  0.95828000  0.11307000  0.06449000  1.0
  O  O129  1  0.54173000  0.88695000  0.56449000  1.0
  O  O130  1  0.04174000  0.88695000  0.93551000  1.0
  O  O131  1  0.45825000  0.11305000  0.43552000  1.0
  O  O132  1  0.10027000  0.85449000  0.05299000  1.0
  O  O133  1  0.39974000  0.14553000  0.55299000  1.0
  O  O134  1  0.89972000  0.14552000  0.94701000  1.0
  O  O135  1  0.60028000  0.85448000  0.44702000  1.0
