# generated using pymatgen
data_PrH8(C2O3)3
_symmetry_space_group_name_H-M   'P 1'
_cell_length_a   6.20249000
_cell_length_b   7.38421000
_cell_length_c   28.38880000
_cell_angle_alpha   90.00030000
_cell_angle_beta   90.00010000
_cell_angle_gamma   89.99990000
_symmetry_Int_Tables_number   1
_chemical_formula_structural   PrH8(C2O3)3
_chemical_formula_sum   'Pr4 H32 C24 O36'
_cell_volume   1300.22091310
_cell_formula_units_Z   4
loop_
 _symmetry_equiv_pos_site_id
 _symmetry_equiv_pos_as_xyz
  1  'x, y, z'
loop_
 _atom_site_type_symbol
 _atom_site_label
 _atom_site_symmetry_multiplicity
 _atom_site_fract_x
 _atom_site_fract_y
 _atom_site_fract_z
 _atom_site_occupancy
  Pr  Pr0  1  0.42915000  0.90784000  0.33613000  1.0
  Pr  Pr1  1  0.42915000  0.09216000  0.66387000  1.0
  Pr  Pr2  1  0.57084000  0.59217000  0.83613000  1.0
  Pr  Pr3  1  0.57084000  0.40784000  0.16387000  1.0
  H  H4  1  0.98693000  0.03522000  0.34702000  1.0
  H  H5  1  0.07699000  0.10889000  0.39463000  1.0
  H  H6  1  0.50890000  0.47601000  0.35155000  1.0
  H  H7  1  0.87494000  0.44710000  0.35404000  1.0
  H  H8  1  0.68574000  0.64921000  0.24588000  1.0
  H  H9  1  0.95541000  0.35839000  0.27797000  1.0
  H  H10  1  0.29842000  0.82654000  0.50177000  1.0
  H  H11  1  0.58307000  0.83115000  0.50282000  1.0
  H  H12  1  0.98693000  0.96478000  0.65298000  1.0
  H  H13  1  0.07699000  0.89111000  0.60537000  1.0
  H  H14  1  0.50890000  0.52398000  0.64845000  1.0
  H  H15  1  0.87494000  0.55290000  0.64596000  1.0
  H  H16  1  0.68574000  0.35079000  0.75412000  1.0
  H  H17  1  0.95541000  0.64161000  0.72202000  1.0
  H  H18  1  0.29842000  0.17346000  0.49823000  1.0
  H  H19  1  0.58308000  0.16885000  0.49718000  1.0
  H  H20  1  0.01306000  0.46479000  0.84702000  1.0
  H  H21  1  0.92301000  0.39113000  0.89462000  1.0
  H  H22  1  0.49110000  0.02399000  0.85155000  1.0
  H  H23  1  0.12506000  0.05292000  0.85404000  1.0
  H  H24  1  0.31426000  0.85079000  0.74588000  1.0
  H  H25  1  0.04460000  0.14162000  0.77797000  1.0
  H  H26  1  0.70158000  0.67346000  0.00177000  1.0
  H  H27  1  0.41692000  0.66885000  0.00282000  1.0
  H  H28  1  0.01307000  0.53521000  0.15298000  1.0
  H  H29  1  0.92302000  0.60887000  0.10538000  1.0
  H  H30  1  0.49110000  0.97601000  0.14845000  1.0
  H  H31  1  0.12506000  0.94709000  0.14596000  1.0
  H  H32  1  0.31426000  0.14922000  0.25413000  1.0
  H  H33  1  0.04460000  0.85838000  0.22203000  1.0
  H  H34  1  0.70157000  0.32654000  0.99823000  1.0
  H  H35  1  0.41692000  0.33116000  0.99718000  1.0
  C  C36  1  0.93222000  0.71160000  0.32554000  1.0
  C  C37  1  0.80102000  0.53708000  0.32769000  1.0
  C  C38  1  0.80363000  0.43547000  0.27995000  1.0
  C  C39  1  0.61739000  0.29925000  0.28094000  1.0
  C  C40  1  0.44290000  0.90220000  0.43671000  1.0
  C  C41  1  0.43971000  0.90386000  0.48997000  1.0
  C  C42  1  0.93221000  0.28839000  0.67446000  1.0
  C  C43  1  0.80102000  0.46292000  0.67231000  1.0
  C  C44  1  0.80363000  0.56452000  0.72005000  1.0
  C  C45  1  0.61738000  0.70075000  0.71906000  1.0
  C  C46  1  0.44290000  0.09781000  0.56330000  1.0
  C  C47  1  0.43971000  0.09614000  0.51003000  1.0
  C  C48  1  0.06777000  0.78841000  0.82554000  1.0
  C  C49  1  0.19897000  0.96293000  0.82769000  1.0
  C  C50  1  0.19638000  0.06453000  0.77995000  1.0
  C  C51  1  0.38263000  0.20075000  0.78094000  1.0
  C  C52  1  0.55709000  0.59781000  0.93671000  1.0
  C  C53  1  0.56028000  0.59614000  0.98997000  1.0
  C  C54  1  0.06778000  0.21160000  0.17446000  1.0
  C  C55  1  0.19898000  0.03707000  0.17231000  1.0
  C  C56  1  0.19638000  0.93547000  0.22005000  1.0
  C  C57  1  0.38263000  0.79925000  0.21906000  1.0
  C  C58  1  0.55709000  0.40220000  0.06329000  1.0
  C  C59  1  0.56028000  0.40386000  0.01003000  1.0
  O  O60  1  0.10835000  0.10774000  0.36102000  1.0
  O  O61  1  0.82982000  0.86083000  0.32944000  1.0
  O  O62  1  0.13290000  0.69534000  0.32018000  1.0
  O  O63  1  0.58673000  0.58547000  0.34238000  1.0
  O  O64  1  0.79267000  0.54796000  0.23931000  1.0
  O  O65  1  0.59253000  0.20454000  0.31762000  1.0
  O  O66  1  0.49328000  0.29372000  0.24517000  1.0
  O  O67  1  0.32093000  0.79064000  0.41466000  1.0
  O  O68  1  0.56455000  0.01350000  0.41440000  1.0
  O  O69  1  0.10835000  0.89226000  0.63898000  1.0
  O  O70  1  0.82982000  0.13916000  0.67056000  1.0
  O  O71  1  0.13290000  0.30466000  0.67982000  1.0
  O  O72  1  0.58672000  0.41452000  0.65762000  1.0
  O  O73  1  0.79267000  0.45204000  0.76069000  1.0
  O  O74  1  0.59253000  0.79546000  0.68238000  1.0
  O  O75  1  0.49328000  0.70628000  0.75483000  1.0
  O  O76  1  0.32093000  0.20936000  0.58534000  1.0
  O  O77  1  0.56455000  0.98650000  0.58560000  1.0
  O  O78  1  0.89165000  0.39228000  0.86102000  1.0
  O  O79  1  0.17017000  0.63917000  0.82944000  1.0
  O  O80  1  0.86710000  0.80468000  0.82018000  1.0
  O  O81  1  0.41327000  0.91453000  0.84238000  1.0
  O  O82  1  0.20733000  0.95204000  0.73931000  1.0
  O  O83  1  0.40748000  0.29546000  0.81762000  1.0
  O  O84  1  0.50672000  0.20627000  0.74517000  1.0
  O  O85  1  0.67906000  0.70936000  0.91466000  1.0
  O  O86  1  0.43543000  0.48651000  0.91440000  1.0
  O  O87  1  0.89165000  0.60773000  0.13898000  1.0
  O  O88  1  0.17018000  0.36083000  0.17056000  1.0
  O  O89  1  0.86711000  0.19534000  0.17982000  1.0
  O  O90  1  0.41327000  0.08547000  0.15762000  1.0
  O  O91  1  0.20733000  0.04796000  0.26069000  1.0
  O  O92  1  0.40748000  0.70454000  0.18238000  1.0
  O  O93  1  0.50672000  0.79373000  0.25483000  1.0
  O  O94  1  0.67906000  0.29064000  0.08534000  1.0
  O  O95  1  0.43544000  0.51350000  0.08560000  1.0
