# generated using pymatgen
data_NiH13C17(NO3)2
_symmetry_space_group_name_H-M   'P 1'
_cell_length_a   16.40570610
_cell_length_b   16.40720000
_cell_length_c   17.52600000
_cell_angle_alpha   89.99080000
_cell_angle_beta   90.00409916
_cell_angle_gamma   59.99696313
_symmetry_Int_Tables_number   1
_chemical_formula_structural   NiH13C17(NO3)2
_chemical_formula_sum   'Ni6 H78 C102 N12 O36'
_cell_volume   4085.35249896
_cell_formula_units_Z   6
loop_
 _symmetry_equiv_pos_site_id
 _symmetry_equiv_pos_as_xyz
  1  'x, y, z'
loop_
 _atom_site_type_symbol
 _atom_site_label
 _atom_site_symmetry_multiplicity
 _atom_site_fract_x
 _atom_site_fract_y
 _atom_site_fract_z
 _atom_site_occupancy
  Ni  Ni0  1  0.66738000  0.32181000  0.85192000  1.0
  Ni  Ni1  1  0.01093000  0.66750000  0.85210000  1.0
  Ni  Ni2  1  0.32079000  0.01133000  0.22931000  1.0
  Ni  Ni3  1  0.01149000  0.66764000  0.22928000  1.0
  Ni  Ni4  1  0.32161000  0.01098000  0.85210000  1.0
  Ni  Ni5  1  0.66773000  0.32078000  0.22915000  1.0
  H  H6  1  0.87535000  0.69686000  0.34397000  1.0
  H  H7  1  0.93131000  0.60310000  0.99022000  1.0
  H  H8  1  0.15165000  0.63740000  0.34269000  1.0
  H  H9  1  0.86186000  0.74776000  0.59681000  1.0
  H  H10  1  0.85636000  0.98483000  0.24152000  1.0
  H  H11  1  0.36539000  0.86659000  0.96693000  1.0
  H  H12  1  0.20998000  0.28715000  0.26672000  1.0
  H  H13  1  0.42810000  0.87532000  0.34402000  1.0
  H  H14  1  0.36956000  0.10579000  0.09237000  1.0
  H  H15  1  0.69563000  0.43363000  0.48593000  1.0
  H  H16  1  0.59356000  0.23957000  0.59750000  1.0
  H  H17  1  0.90052000  0.80800000  0.11486000  1.0
  H  H18  1  0.73908000  0.39264000  0.73873000  1.0
  H  H19  1  0.15870000  0.63921000  0.48383000  1.0
  H  H20  1  0.10606000  0.52465000  0.09203000  1.0
  H  H21  1  0.07055000  0.75519000  0.09438000  1.0
  H  H22  1  0.63806000  0.21057000  0.34261000  1.0
  H  H23  1  0.42637000  0.05008000  0.96610000  1.0
  H  H24  1  0.24039000  0.15943000  0.73835000  1.0
  H  H25  1  0.24383000  0.94223000  0.98585000  1.0
  H  H26  1  0.20997000  0.15466000  0.11369000  1.0
  H  H27  1  0.98484000  0.15869000  0.24159000  1.0
  H  H28  1  0.15463000  0.63574000  0.11376000  1.0
  H  H29  1  0.21063000  0.15121000  0.34270000  1.0
  H  H30  1  0.60023000  0.24042000  0.73830000  1.0
  H  H31  1  0.45944000  0.99042000  0.11613000  1.0
  H  H32  1  0.20182000  0.15829000  0.48385000  1.0
  H  H33  1  0.54987000  0.45946000  0.11598000  1.0
  H  H34  1  0.86662000  0.76841000  0.96686000  1.0
  H  H35  1  0.17573000  0.11396000  0.96583000  1.0
  H  H36  1  0.86869000  0.72167000  0.09617000  1.0
  H  H37  1  0.75499000  0.17423000  0.09434000  1.0
  H  H38  1  0.28740000  0.50253000  0.26666000  1.0
  H  H39  1  0.39078000  0.86167000  0.59695000  1.0
  H  H40  1  0.49719000  0.71378000  0.85450000  1.0
  H  H41  1  0.72184000  0.40947000  0.09627000  1.0
  H  H42  1  0.21274000  0.28359000  0.81987000  1.0
  H  H43  1  0.15985000  0.85800000  0.83690000  1.0
  H  H44  1  0.94259000  0.81388000  0.98617000  1.0
  H  H45  1  0.63977000  0.20181000  0.48375000  1.0
  H  H46  1  0.46570000  0.93165000  0.99000000  1.0
  H  H47  1  0.15701000  0.58900000  0.98390000  1.0
  H  H48  1  0.50364000  0.21287000  0.81970000  1.0
  H  H49  1  0.78916000  0.49730000  0.85454000  1.0
  H  H50  1  0.78617000  0.49611000  0.21924000  1.0
  H  H51  1  0.23961000  0.16681000  0.59753000  1.0
  H  H52  1  0.16707000  0.59342000  0.59766000  1.0
  H  H53  1  0.39248000  0.86835000  0.73903000  1.0
  H  H54  1  0.52354000  0.42658000  0.96587000  1.0
  H  H55  1  0.60268000  0.46581000  0.98995000  1.0
  H  H56  1  0.49619000  0.71765000  0.21937000  1.0
  H  H57  1  0.28342000  0.50379000  0.81980000  1.0
  H  H58  1  0.43372000  0.87059000  0.48616000  1.0
  H  H59  1  0.25359000  0.15711000  0.98369000  1.0
  H  H60  1  0.04956000  0.52371000  0.96594000  1.0
  H  H61  1  0.86846000  0.73951000  0.73893000  1.0
  H  H62  1  0.63539000  0.20990000  0.11350000  1.0
  H  H63  1  0.15952000  0.60023000  0.73845000  1.0
  H  H64  1  0.98215000  0.15994000  0.83668000  1.0
  H  H65  1  0.40930000  0.86859000  0.09646000  1.0
  H  H66  1  0.85792000  0.98223000  0.83680000  1.0
  H  H67  1  0.69655000  0.42797000  0.34378000  1.0
  H  H68  1  0.71368000  0.78920000  0.85474000  1.0
  H  H69  1  0.87070000  0.69609000  0.48613000  1.0
  H  H70  1  0.71776000  0.78602000  0.21945000  1.0
  H  H71  1  0.76810000  0.36537000  0.96680000  1.0
  H  H72  1  0.81388000  0.24386000  0.98582000  1.0
  H  H73  1  0.15873000  0.85628000  0.24171000  1.0
  H  H74  1  0.17410000  0.07090000  0.09459000  1.0
  H  H75  1  0.50277000  0.20983000  0.26677000  1.0
  H  H76  1  0.58916000  0.25379000  0.98354000  1.0
  H  H77  1  0.99091000  0.54974000  0.11611000  1.0
  H  H78  1  0.74741000  0.39083000  0.59662000  1.0
  H  H79  1  0.29090000  0.90087000  0.11473000  1.0
  H  H80  1  0.71013000  0.17593000  0.96561000  1.0
  H  H81  1  0.52456000  0.36952000  0.09206000  1.0
  H  H82  1  0.80810000  0.29115000  0.11465000  1.0
  H  H83  1  0.11422000  0.70990000  0.96578000  1.0
  C  C84  1  0.42916000  0.26609000  0.82043000  1.0
  C  C85  1  0.92027000  0.98972000  0.83610000  1.0
  C  C86  1  0.38841000  0.13540000  0.27302000  1.0
  C  C87  1  0.93020000  0.75537000  0.99763000  1.0
  C  C88  1  0.40233000  0.35944000  0.26660000  1.0
  C  C89  1  0.66946000  0.31626000  0.58315000  1.0
  C  C90  1  0.57069000  0.69596000  0.22104000  1.0
  C  C91  1  0.13492000  0.47312000  0.81062000  1.0
  C  C92  1  0.30703000  0.42851000  0.26617000  1.0
  C  C93  1  0.40893000  0.00402000  0.99856000  1.0
  C  C94  1  0.35905000  0.93186000  0.70426000  1.0
  C  C95  1  0.39188000  0.13510000  0.81061000  1.0
  C  C96  1  0.09995000  0.66033000  0.99658000  1.0
  C  C97  1  0.08917000  0.68221000  0.08331000  1.0
  C  C98  1  0.52972000  0.86690000  0.21441000  1.0
  C  C99  1  0.09003000  0.92038000  0.83613000  1.0
  C  C100  1  0.36177000  0.23765000  0.81991000  1.0
  C  C101  1  0.76245000  0.63956000  0.85328000  1.0
  C  C102  1  0.59807000  0.76256000  0.85323000  1.0
  C  C103  1  0.42873000  0.26415000  0.26619000  1.0
  C  C104  1  0.23751000  0.40069000  0.81992000  1.0
  C  C105  1  0.08054000  0.00864000  0.24211000  1.0
  C  C106  1  0.75526000  0.31464000  0.99746000  1.0
  C  C107  1  0.71150000  0.35857000  0.62489000  1.0
  C  C108  1  0.47297000  0.39207000  0.81045000  1.0
  C  C109  1  0.91939000  0.99114000  0.24219000  1.0
  C  C110  1  0.35967000  0.23792000  0.26663000  1.0
  C  C111  1  0.93008000  0.71173000  0.62504000  1.0
  C  C112  1  0.01999000  0.81495000  0.23885000  1.0
  C  C113  1  0.27309000  0.09829000  0.62530000  1.0
  C  C114  1  0.16326000  0.02318000  0.84003000  1.0
  C  C115  1  0.03121000  0.57475000  0.08335000  1.0
  C  C116  1  0.63738000  0.59968000  0.22078000  1.0
  C  C117  1  0.65156000  0.25459000  0.45637000  1.0
  C  C118  1  0.81353000  0.16337000  0.83993000  1.0
  C  C119  1  0.98961000  0.09012000  0.83597000  1.0
  C  C120  1  0.68438000  0.38111000  0.45746000  1.0
  C  C121  1  0.08940000  0.91934000  0.24225000  1.0
  C  C122  1  0.69603000  0.73326000  0.22106000  1.0
  C  C123  1  0.40057000  0.36189000  0.81988000  1.0
  C  C124  1  0.65076000  0.25807000  0.37726000  1.0
  C  C125  1  0.52685000  0.86645000  0.85894000  1.0
  C  C126  1  0.00870000  0.91068000  0.24216000  1.0
  C  C127  1  0.25812000  0.09100000  0.37740000  1.0
  C  C128  1  0.02314000  0.81367000  0.84016000  1.0
  C  C129  1  0.09132000  0.65037000  0.37734000  1.0
  C  C130  1  0.00381000  0.58719000  0.99853000  1.0
  C  C131  1  0.31726000  0.01422000  0.49906000  1.0
  C  C132  1  0.62994000  0.27458000  0.70422000  1.0
  C  C133  1  0.69388000  0.73501000  0.85312000  1.0
  C  C134  1  0.91001000  0.07974000  0.83611000  1.0
  C  C135  1  0.22859000  0.08928000  0.08331000  1.0
  C  C136  1  0.86699000  0.60327000  0.21428000  1.0
  C  C137  1  0.86638000  0.60690000  0.85891000  1.0
  C  C138  1  0.23813000  0.40213000  0.26660000  1.0
  C  C139  1  0.73492000  0.57131000  0.85302000  1.0
  C  C140  1  0.31630000  0.01423000  0.58332000  1.0
  C  C141  1  0.66845000  0.31718000  0.49889000  1.0
  C  C142  1  0.93452000  0.68457000  0.45760000  1.0
  C  C143  1  0.81500000  0.16492000  0.23869000  1.0
  C  C144  1  0.60679000  0.52696000  0.85873000  1.0
  C  C145  1  0.93199000  0.70930000  0.70417000  1.0
  C  C146  1  0.01448000  0.66842000  0.49902000  1.0
  C  C147  1  0.31458000  0.93012000  0.99757000  1.0
  C  C148  1  0.66040000  0.23974000  0.99635000  1.0
  C  C149  1  0.09565000  0.62998000  0.70436000  1.0
  C  C150  1  0.39409000  0.03104000  0.08346000  1.0
  C  C151  1  0.38020000  0.93558000  0.37857000  1.0
  C  C152  1  0.47605000  0.38831000  0.27292000  1.0
  C  C153  1  0.68207000  0.22867000  0.08311000  1.0
  C  C154  1  0.23958000  0.09989000  0.99653000  1.0
  C  C155  1  0.07964000  0.01036000  0.83611000  1.0
  C  C156  1  0.09850000  0.62859000  0.62533000  1.0
  C  C157  1  0.70899000  0.35920000  0.70401000  1.0
  C  C158  1  0.99117000  0.08934000  0.24218000  1.0
  C  C159  1  0.27451000  0.09552000  0.70432000  1.0
  C  C160  1  0.58701000  0.40908000  0.99840000  1.0
  C  C161  1  0.57474000  0.39414000  0.08326000  1.0
  C  C162  1  0.16500000  0.01990000  0.23882000  1.0
  C  C163  1  0.35855000  0.92989000  0.62513000  1.0
  C  C164  1  0.25463000  0.09370000  0.45650000  1.0
  C  C165  1  0.09404000  0.65125000  0.45645000  1.0
  C  C166  1  0.01444000  0.66949000  0.58328000  1.0
  C  C167  1  0.68413000  0.38012000  0.37837000  1.0
  C  C168  1  0.30474000  0.42929000  0.82046000  1.0
  C  C169  1  0.93573000  0.68427000  0.37851000  1.0
  C  C170  1  0.57119000  0.69399000  0.85298000  1.0
  C  C171  1  0.62864000  0.27304000  0.62519000  1.0
  C  C172  1  0.74266000  0.33631000  0.08380000  1.0
  C  C173  1  0.91074000  0.08048000  0.24208000  1.0
  C  C174  1  0.01027000  0.91013000  0.83627000  1.0
  C  C175  1  0.60335000  0.52968000  0.21424000  1.0
  C  C176  1  0.92099000  0.74261000  0.08390000  1.0
  C  C177  1  0.38122000  0.93435000  0.45766000  1.0
  C  C178  1  0.73338000  0.57059000  0.22095000  1.0
  C  C179  1  0.59975000  0.76287000  0.22087000  1.0
  C  C180  1  0.63945000  0.59821000  0.85313000  1.0
  C  C181  1  0.26435000  0.30684000  0.26619000  1.0
  C  C182  1  0.76295000  0.63729000  0.22079000  1.0
  C  C183  1  0.33617000  0.92103000  0.08393000  1.0
  C  C184  1  0.26594000  0.30487000  0.82050000  1.0
  C  C185  1  0.13557000  0.47589000  0.27295000  1.0
  N  N186  1  0.31845000  0.01368000  0.74278000  1.0
  N  N187  1  0.32086000  0.01136000  0.96660000  1.0
  N  N188  1  0.01377000  0.66797000  0.74277000  1.0
  N  N189  1  0.31971000  0.01286000  0.33939000  1.0
  N  N190  1  0.31945000  0.01316000  0.11453000  1.0
  N  N191  1  0.66726000  0.31953000  0.11437000  1.0
  N  N192  1  0.66772000  0.32101000  0.96643000  1.0
  N  N193  1  0.66731000  0.31964000  0.33923000  1.0
  N  N194  1  0.66784000  0.31857000  0.74260000  1.0
  N  N195  1  0.01312000  0.66711000  0.33933000  1.0
  N  N196  1  0.01321000  0.66725000  0.11453000  1.0
  N  N197  1  0.01134000  0.66781000  0.96657000  1.0
  O  O198  1  0.46433000  0.44949000  0.76150000  1.0
  O  O199  1  0.15441000  0.10411000  0.83933000  1.0
  O  O200  1  0.80736000  0.24737000  0.23341000  1.0
  O  O201  1  0.33731000  0.11583000  0.22622000  1.0
  O  O202  1  0.15685000  0.10064000  0.23887000  1.0
  O  O203  1  0.44283000  0.88742000  0.22739000  1.0
  O  O204  1  0.11603000  0.54660000  0.22620000  1.0
  O  O205  1  0.52078000  0.55647000  0.19539000  1.0
  O  O206  1  0.11162000  0.54410000  0.85803000  1.0
  O  O207  1  0.46828000  0.44908000  0.31812000  1.0
  O  O208  1  0.44932000  0.08624000  0.76172000  1.0
  O  O209  1  0.43939000  0.88456000  0.85285000  1.0
  O  O210  1  0.08250000  0.46810000  0.31806000  1.0
  O  O211  1  0.54402000  0.34443000  0.85787000  1.0
  O  O212  1  0.08605000  0.46460000  0.76170000  1.0
  O  O213  1  0.24569000  0.94846000  0.84688000  1.0
  O  O214  1  0.66965000  0.44278000  0.22724000  1.0
  O  O215  1  0.34421000  0.11175000  0.85803000  1.0
  O  O216  1  0.80579000  0.24580000  0.84672000  1.0
  O  O217  1  0.67615000  0.43952000  0.85265000  1.0
  O  O218  1  0.54669000  0.33730000  0.22608000  1.0
  O  O219  1  0.74241000  0.15676000  0.23869000  1.0
  O  O220  1  0.44917000  0.08239000  0.31824000  1.0
  O  O221  1  0.92279000  0.52076000  0.19532000  1.0
  O  O222  1  0.10411000  0.74162000  0.83942000  1.0
  O  O223  1  0.88447000  0.67624000  0.85275000  1.0
  O  O224  1  0.92442000  0.52316000  0.87102000  1.0
  O  O225  1  0.55258000  0.92446000  0.87106000  1.0
  O  O226  1  0.88757000  0.66957000  0.22739000  1.0
  O  O227  1  0.10075000  0.74238000  0.23891000  1.0
  O  O228  1  0.55648000  0.92270000  0.19562000  1.0
  O  O229  1  0.74147000  0.15449000  0.83918000  1.0
  O  O230  1  0.94518000  0.80730000  0.23357000  1.0
  O  O231  1  0.24747000  0.94508000  0.23359000  1.0
  O  O232  1  0.52303000  0.55267000  0.87080000  1.0
  O  O233  1  0.94848000  0.80588000  0.84693000  1.0
