# generated using pymatgen
data_Cd3H22C20N14(ClO2)2
_symmetry_space_group_name_H-M   'P 1'
_cell_length_a   6.92566000
_cell_length_b   9.00452000
_cell_length_c   12.89260000
_cell_angle_alpha   76.31200000
_cell_angle_beta   87.03710000
_cell_angle_gamma   73.51870000
_symmetry_Int_Tables_number   1
_chemical_formula_structural   Cd3H22C20N14(ClO2)2
_chemical_formula_sum   'Cd3 H22 C20 N14 Cl2 O4'
_cell_volume   748.97688369
_cell_formula_units_Z   1
loop_
 _symmetry_equiv_pos_site_id
 _symmetry_equiv_pos_as_xyz
  1  'x, y, z'
loop_
 _atom_site_type_symbol
 _atom_site_label
 _atom_site_symmetry_multiplicity
 _atom_site_fract_x
 _atom_site_fract_y
 _atom_site_fract_z
 _atom_site_occupancy
  Cd  Cd0  1  0.50000000  0.00000000  0.50000000  1.0
  Cd  Cd1  1  0.92772000  0.09098000  0.60484000  1.0
  Cd  Cd2  1  0.07228000  0.90902000  0.39516000  1.0
  H  H3  1  0.27447000  0.48553000  0.42598000  1.0
  H  H4  1  0.72553000  0.51447000  0.57403000  1.0
  H  H5  1  0.72506000  0.77843000  0.27797000  1.0
  H  H6  1  0.27494000  0.22157000  0.72203000  1.0
  H  H7  1  0.58844000  0.47104000  0.33422000  1.0
  H  H8  1  0.41156000  0.52896000  0.66578000  1.0
  H  H9  1  0.78365000  0.34078000  0.27698000  1.0
  H  H10  1  0.21636000  0.65921000  0.72302000  1.0
  H  H11  1  0.35491000  0.70028000  0.21953000  1.0
  H  H12  1  0.64509000  0.29972000  0.78047000  1.0
  H  H13  1  0.23016000  0.85180000  0.03821000  1.0
  H  H14  1  0.76984000  0.14819000  0.96179000  1.0
  H  H15  1  0.76698000  0.59342000  0.90419000  1.0
  H  H16  1  0.23302000  0.40658000  0.09581000  1.0
  H  H17  1  0.89192000  0.43927000  0.08653000  1.0
  H  H18  1  0.10808000  0.56073000  0.91347000  1.0
  H  H19  1  0.94631000  0.93637000  0.81953000  1.0
  H  H20  1  0.05369000  0.06363000  0.18047000  1.0
  H  H21  1  0.73813000  0.92269000  0.77858000  1.0
  H  H22  1  0.26187000  0.07731000  0.22142000  1.0
  H  H23  1  0.12044000  0.20174000  0.42048000  1.0
  H  H24  1  0.87956000  0.79827000  0.57952000  1.0
  C  C25  1  0.12917000  0.52666000  0.38482000  1.0
  C  C26  1  0.87083000  0.47334000  0.61518000  1.0
  C  C27  1  0.85226000  0.67830000  0.31022000  1.0
  C  C28  1  0.14774000  0.32170000  0.68978000  1.0
  C  C29  1  0.70918000  0.46603000  0.27546000  1.0
  C  C30  1  0.29083000  0.53397000  0.72454000  1.0
  C  C31  1  0.63161000  0.55899000  0.16528000  1.0
  C  C32  1  0.36840000  0.44101000  0.83472000  1.0
  C  C33  1  0.44523000  0.67482000  0.15077000  1.0
  C  C34  1  0.55477000  0.32518000  0.84923000  1.0
  C  C35  1  0.37483000  0.76104000  0.04858000  1.0
  C  C36  1  0.62517000  0.23896000  0.95142000  1.0
  C  C37  1  0.49122000  0.73259000  0.95941000  1.0
  C  C38  1  0.50878000  0.26742000  0.04059000  1.0
  C  C39  1  0.67966000  0.61774000  0.97406000  1.0
  C  C40  1  0.32034000  0.38226000  0.02594000  1.0
  C  C41  1  0.74848000  0.53172000  0.07598000  1.0
  C  C42  1  0.25153000  0.46828000  0.92402000  1.0
  C  C43  1  0.41913000  0.81644000  0.85108000  1.0
  C  C44  1  0.58087000  0.18356000  0.14892000  1.0
  N  N45  1  0.01952000  0.68252000  0.35533000  1.0
  N  N46  1  0.98048000  0.31748000  0.64467000  1.0
  N  N47  1  0.03843000  0.42785000  0.35956000  1.0
  N  N48  1  0.96157000  0.57215000  0.64044000  1.0
  N  N49  1  0.86230000  0.52669000  0.31225000  1.0
  N  N50  1  0.13770000  0.47331000  0.68775000  1.0
  N  N51  1  0.22469000  0.87799000  0.81875000  1.0
  N  N52  1  0.77531000  0.12201000  0.18125000  1.0
  N  N53  1  0.23138000  0.93793000  0.71332000  1.0
  N  N54  1  0.76862000  0.06207000  0.28668000  1.0
  N  N55  1  0.42043000  0.91473000  0.68332000  1.0
  N  N56  1  0.57956000  0.08528000  0.31668000  1.0
  N  N57  1  0.54267000  0.83833000  0.76757000  1.0
  N  N58  1  0.45733000  0.16167000  0.23243000  1.0
  Cl  Cl59  1  0.55887000  0.26527000  0.53840000  1.0
  Cl  Cl60  1  0.44113000  0.73473000  0.46159000  1.0
  O  O61  1  0.15649000  0.09275000  0.46620000  1.0
  O  O62  1  0.84351000  0.90725000  0.53380000  1.0
  O  O63  1  0.81741000  0.99852000  0.78166000  1.0
  O  O64  1  0.18259000  0.00148000  0.21834000  1.0
