# generated using pymatgen
data_AlCdB5H18C5(N2O5)2
_symmetry_space_group_name_H-M   'P 1'
_cell_length_a   8.53829000
_cell_length_b   8.70732000
_cell_length_c   10.55440000
_cell_angle_alpha   90.00000000
_cell_angle_beta   91.74890000
_cell_angle_gamma   89.99990000
_symmetry_Int_Tables_number   1
_chemical_formula_structural   AlCdB5H18C5(N2O5)2
_chemical_formula_sum   'Al2 Cd2 B10 H36 C10 N8 O20'
_cell_volume   784.30792740
_cell_formula_units_Z   2
loop_
 _symmetry_equiv_pos_site_id
 _symmetry_equiv_pos_as_xyz
  1  'x, y, z'
loop_
 _atom_site_type_symbol
 _atom_site_label
 _atom_site_symmetry_multiplicity
 _atom_site_fract_x
 _atom_site_fract_y
 _atom_site_fract_z
 _atom_site_occupancy
  Al  Al0  1  0.81064000  0.26044000  0.07052000  1.0
  Al  Al1  1  0.31064000  0.73956000  0.57052000  1.0
  Cd  Cd2  1  0.46406000  0.26548000  0.82350000  1.0
  Cd  Cd3  1  0.96406000  0.73452000  0.32350000  1.0
  B  B4  1  0.69960000  0.02326000  0.89268000  1.0
  B  B5  1  0.19960000  0.97674000  0.39268000  1.0
  B  B6  1  0.55820000  0.87472000  0.72727000  1.0
  B  B7  1  0.05820000  0.12528000  0.22727000  1.0
  B  B8  1  0.81105000  0.77150000  0.82401000  1.0
  B  B9  1  0.31105000  0.22850000  0.32402000  1.0
  B  B10  1  0.91803000  0.52557000  0.91710000  1.0
  B  B11  1  0.41803000  0.47443000  0.41710000  1.0
  B  B12  1  0.06568000  0.66086000  0.75664000  1.0
  B  B13  1  0.56568000  0.33914000  0.25664000  1.0
  H  H14  1  0.03647000  0.07141000  0.72559000  1.0
  H  H15  1  0.53647000  0.92859000  0.22559000  1.0
  H  H16  1  0.06893000  0.25241000  0.80283000  1.0
  H  H17  1  0.56893000  0.74759000  0.30283000  1.0
  H  H18  1  0.24913000  0.95665000  0.85854000  1.0
  H  H19  1  0.74913000  0.04335000  0.35853000  1.0
  H  H20  1  0.08403000  0.01915000  0.94415000  1.0
  H  H21  1  0.58403000  0.98085000  0.44415000  1.0
  H  H22  1  0.76834000  0.12733000  0.66121000  1.0
  H  H23  1  0.26834000  0.87267000  0.16121000  1.0
  H  H24  1  0.83359000  0.30401000  0.72427000  1.0
  H  H25  1  0.33359000  0.69599000  0.22426000  1.0
  H  H26  1  0.97003000  0.21137000  0.52247000  1.0
  H  H27  1  0.47002000  0.78863000  0.02246000  1.0
  H  H28  1  0.79017000  0.24143000  0.43936000  1.0
  H  H29  1  0.29016000  0.75856000  0.93936000  1.0
  H  H30  1  0.79712000  0.52020000  0.51547000  1.0
  H  H31  1  0.29712000  0.47980000  0.01547000  1.0
  H  H32  1  0.99205000  0.48722000  0.57147000  1.0
  H  H33  1  0.49205000  0.51278000  0.07146000  1.0
  H  H34  1  0.22439000  0.26308000  0.62259000  1.0
  H  H35  1  0.72439000  0.73692000  0.12259000  1.0
  H  H36  1  0.29634000  0.08881000  0.64576000  1.0
  H  H37  1  0.79634000  0.91119000  0.14576000  1.0
  H  H38  1  0.36299000  0.08915000  0.02877000  1.0
  H  H39  1  0.86299000  0.91085000  0.52877000  1.0
  H  H40  1  0.23415000  0.22569000  0.02588000  1.0
  H  H41  1  0.73415000  0.77431000  0.52588000  1.0
  H  H42  1  0.54674000  0.25449000  0.56688000  1.0
  H  H43  1  0.04674000  0.74551000  0.06689000  1.0
  H  H44  1  0.60503000  0.42298000  0.61872000  1.0
  H  H45  1  0.10503000  0.57702000  0.11873000  1.0
  H  H46  1  0.88046000  0.43412000  0.30816000  1.0
  H  H47  1  0.38046000  0.56588000  0.80816000  1.0
  H  H48  1  0.06555000  0.42871000  0.36309000  1.0
  H  H49  1  0.56555000  0.57129000  0.86309000  1.0
  C  C50  1  0.12473000  0.14495000  0.77357000  1.0
  C  C51  1  0.62473000  0.85505000  0.27357000  1.0
  C  C52  1  0.18508000  0.05803000  0.89054000  1.0
  C  C53  1  0.68507000  0.94197000  0.39054000  1.0
  C  C54  1  0.77281000  0.25118000  0.64208000  1.0
  C  C55  1  0.27281000  0.74881000  0.14208000  1.0
  C  C56  1  0.86198000  0.28064000  0.52143000  1.0
  C  C57  1  0.36197000  0.71936000  0.02142000  1.0
  C  C58  1  0.90175000  0.44931000  0.50202000  1.0
  C  C59  1  0.40175000  0.55069000  0.00202000  1.0
  N  N60  1  0.25485000  0.18438000  0.69091000  1.0
  N  N61  1  0.75485000  0.81562000  0.19091000  1.0
  N  N62  1  0.29445000  0.15345000  0.96815000  1.0
  N  N63  1  0.79445000  0.84655000  0.46815000  1.0
  N  N64  1  0.60994000  0.30774000  0.63839000  1.0
  N  N65  1  0.10994000  0.69225000  0.13839000  1.0
  N  N66  1  0.95851000  0.48070000  0.37404000  1.0
  N  N67  1  0.45850000  0.51930000  0.87403000  1.0
  O  O68  1  0.56958000  0.00294000  0.80880000  1.0
  O  O69  1  0.06959000  0.99706000  0.30880000  1.0
  O  O70  1  0.67154000  0.76410000  0.73611000  1.0
  O  O71  1  0.17154000  0.23590000  0.23611000  1.0
  O  O72  1  0.81146000  0.91344000  0.90349000  1.0
  O  O73  1  0.31146000  0.08655000  0.40349000  1.0
  O  O74  1  0.80360000  0.63711000  0.91043000  1.0
  O  O75  1  0.30360000  0.36289000  0.41044000  1.0
  O  O76  1  0.04940000  0.53756000  0.84122000  1.0
  O  O77  1  0.54940000  0.46244000  0.34122000  1.0
  O  O78  1  0.95269000  0.77215000  0.74781000  1.0
  O  O79  1  0.45268000  0.22785000  0.24781000  1.0
  O  O80  1  0.69614000  0.16075000  0.95484000  1.0
  O  O81  1  0.19614000  0.83925000  0.45484000  1.0
  O  O82  1  0.43550000  0.87334000  0.64422000  1.0
  O  O83  1  0.93550000  0.12667000  0.14422000  1.0
  O  O84  1  0.91417000  0.40510000  0.99729000  1.0
  O  O85  1  0.41417000  0.59490000  0.49729000  1.0
  O  O86  1  0.19740000  0.66029000  0.68835000  1.0
  O  O87  1  0.69740000  0.33972000  0.18835000  1.0
