# generated using pymatgen
data_GdH5C10O9
_symmetry_space_group_name_H-M   'P 1'
_cell_length_a   6.25297000
_cell_length_b   9.25069000
_cell_length_c   9.61201000
_cell_angle_alpha   87.87550000
_cell_angle_beta   73.77370000
_cell_angle_gamma   77.01170000
_symmetry_Int_Tables_number   1
_chemical_formula_structural   GdH5C10O9
_chemical_formula_sum   'Gd2 H10 C20 O18'
_cell_volume   519.99704420
_cell_formula_units_Z   2
loop_
 _symmetry_equiv_pos_site_id
 _symmetry_equiv_pos_as_xyz
  1  'x, y, z'
loop_
 _atom_site_type_symbol
 _atom_site_label
 _atom_site_symmetry_multiplicity
 _atom_site_fract_x
 _atom_site_fract_y
 _atom_site_fract_z
 _atom_site_occupancy
  Gd  Gd0  1  0.34935000  0.94145000  0.21905000  1.0
  Gd  Gd1  1  0.65065000  0.05856000  0.78095000  1.0
  H  H2  1  0.23491000  0.98581000  0.72088000  1.0
  H  H3  1  0.76509000  0.01419000  0.27912000  1.0
  H  H4  1  0.23069000  0.93368000  0.87916000  1.0
  H  H5  1  0.76931000  0.06632000  0.12084000  1.0
  H  H6  1  0.81532000  0.34031000  0.39295000  1.0
  H  H7  1  0.18468000  0.65969000  0.60705000  1.0
  H  H8  1  0.29835000  0.43615000  0.12904000  1.0
  H  H9  1  0.70165000  0.56385000  0.87096000  1.0
  H  H10  1  0.47994000  0.57733000  0.23827000  1.0
  H  H11  1  0.52006000  0.42267000  0.76173000  1.0
  C  C12  1  0.89592000  0.40961000  0.44175000  1.0
  C  C13  1  0.10408000  0.59039000  0.55824000  1.0
  C  C14  1  0.83859000  0.79828000  0.91427000  1.0
  C  C15  1  0.16141000  0.20172000  0.08572000  1.0
  C  C16  1  0.19928000  0.72563000  0.08206000  1.0
  C  C17  1  0.80071000  0.27437000  0.91794000  1.0
  C  C18  1  0.83655000  0.56441000  0.42877000  1.0
  C  C19  1  0.16345000  0.43559000  0.57123000  1.0
  C  C20  1  0.92589000  0.64756000  0.96420000  1.0
  C  C21  1  0.07411000  0.35244000  0.03579000  1.0
  C  C22  1  0.89110000  0.82599000  0.47784000  1.0
  C  C23  1  0.10889000  0.17401000  0.52216000  1.0
  C  C24  1  0.16792000  0.46404000  0.07156000  1.0
  C  C25  1  0.83208000  0.53596000  0.92844000  1.0
  C  C26  1  0.09614000  0.61167000  0.03697000  1.0
  C  C27  1  0.90386000  0.38833000  0.96303000  1.0
  C  C28  1  0.94171000  0.65753000  0.48758000  1.0
  C  C29  1  0.05829000  0.34247000  0.51242000  1.0
  C  C30  1  0.66227000  0.62679000  0.35176000  1.0
  C  C31  1  0.33774000  0.37319000  0.64824000  1.0
  O  O32  1  0.13998000  0.86154000  0.05413000  1.0
  O  O33  1  0.86002000  0.13846000  0.94586000  1.0
  O  O34  1  0.34708000  0.68606000  0.15344000  1.0
  O  O35  1  0.65292000  0.31394000  0.84656000  1.0
  O  O36  1  0.95184000  0.84484000  0.79832000  1.0
  O  O37  1  0.04815000  0.15516000  0.20168000  1.0
  O  O38  1  0.63723000  0.87080000  0.98065000  1.0
  O  O39  1  0.36276000  0.12920000  0.01935000  1.0
  O  O40  1  0.59156000  0.76304000  0.34169000  1.0
  O  O41  1  0.40843000  0.23696000  0.65832000  1.0
  O  O42  1  0.73443000  0.89996000  0.57866000  1.0
  O  O43  1  0.26559000  0.10003000  0.42133000  1.0
  O  O44  1  0.59025000  0.52532000  0.29471000  1.0
  O  O45  1  0.40974000  0.47468000  0.70529000  1.0
  O  O46  1  0.01515000  0.88132000  0.37069000  1.0
  O  O47  1  0.98485000  0.11868000  0.62931000  1.0
  O  O48  1  0.67127000  0.03645000  0.21160000  1.0
  O  O49  1  0.32874000  0.96355000  0.78840000  1.0
