# generated using pymatgen
data_Zn2H25C32S2Br(N7O4)2
_symmetry_space_group_name_H-M   'P 1'
_cell_length_a   12.81570000
_cell_length_b   16.13760000
_cell_length_c   17.31290000
_cell_angle_alpha   95.31390000
_cell_angle_beta   90.30300000
_cell_angle_gamma   92.94480000
_symmetry_Int_Tables_number   1
_chemical_formula_structural   Zn2H25C32S2Br(N7O4)2
_chemical_formula_sum   'Zn2 H25 C32 S2 Br1 N14 O8'
_cell_volume   3560.28331894
_cell_formula_units_Z   1
loop_
 _symmetry_equiv_pos_site_id
 _symmetry_equiv_pos_as_xyz
  1  'x, y, z'
loop_
 _atom_site_type_symbol
 _atom_site_label
 _atom_site_symmetry_multiplicity
 _atom_site_fract_x
 _atom_site_fract_y
 _atom_site_fract_z
 _atom_site_occupancy
  Zn  Zn0  1  0.49589000  0.40707000  0.49651000  1.0
  Zn  Zn1  1  0.50054000  0.59004000  0.49969000  1.0
  H  H2  1  0.39990000  0.71632000  0.42365000  1.0
  H  H3  1  0.39339000  0.87277000  0.43038000  1.0
  H  H4  1  0.35244000  0.10687000  0.40734000  1.0
  H  H5  1  0.60762000  0.11942000  0.57166000  1.0
  H  H6  1  0.50328000  0.61777000  0.26087000  1.0
  H  H7  1  0.50812000  0.61595000  0.11564000  1.0
  H  H8  1  0.52070000  0.65829000  0.89805000  1.0
  H  H9  1  0.49510000  0.39159000  0.88964000  1.0
  H  H10  1  0.86748000  0.63253000  0.49959000  1.0
  H  H11  1  0.65884000  0.66261000  0.58463000  1.0
  H  H12  1  0.66200000  0.74340000  0.65542000  1.0
  H  H13  1  0.66035000  0.95840000  0.61106000  1.0
  H  H14  1  0.72255000  0.86843000  0.62461000  1.0
  H  H15  1  0.34011000  0.33198000  0.41801000  1.0
  H  H16  1  0.29621000  0.23705000  0.37317000  1.0
  H  H17  1  0.65144000  0.34291000  0.56689000  1.0
  H  H18  1  0.68436000  0.25445000  0.60839000  1.0
  H  H19  1  0.50521000  0.33465000  0.30454000  1.0
  H  H20  1  0.53463000  0.28561000  0.21492000  1.0
  H  H21  1  0.48838000  0.33642000  0.03182000  1.0
  H  H22  1  0.44972000  0.28484000  0.10939000  1.0
  H  H23  1  0.49805000  0.66374000  0.69093000  1.0
  H  H24  1  0.49698000  0.71927000  0.78197000  1.0
  H  H25  1  0.48477000  0.35773000  0.68062000  1.0
  H  H26  1  0.47849000  0.31359000  0.77020000  1.0
  C  C27  1  0.50199000  0.49110000  0.34742000  1.0
  C  C28  1  0.29287000  0.49832000  0.49554000  1.0
  C  C29  1  0.49661000  0.50930000  0.65131000  1.0
  C  C30  1  0.70599000  0.50203000  0.50482000  1.0
  C  C31  1  0.45079000  0.75758000  0.46241000  1.0
  C  C32  1  0.44704000  0.84275000  0.46640000  1.0
  C  C33  1  0.51635000  0.89219000  0.51761000  1.0
  C  C34  1  0.58576000  0.85279000  0.56398000  1.0
  C  C35  1  0.58401000  0.76352000  0.55631000  1.0
  C  C36  1  0.41105000  0.14322000  0.44362000  1.0
  C  C37  1  0.47847000  0.10319000  0.48961000  1.0
  C  C38  1  0.55338000  0.14980000  0.53644000  1.0
  C  C39  1  0.55842000  0.23674000  0.53597000  1.0
  C  C40  1  0.41908000  0.23078000  0.44628000  1.0
  C  C41  1  0.50063000  0.48461000  0.26127000  1.0
  C  C42  1  0.50280000  0.55936000  0.22394000  1.0
  C  C43  1  0.50558000  0.55878000  0.14447000  1.0
  C  C44  1  0.50308000  0.48172000  0.09815000  1.0
  C  C45  1  0.49910000  0.40620000  0.13342000  1.0
  C  C46  1  0.49997000  0.40710000  0.21591000  1.0
  C  C47  1  0.51324000  0.59835000  0.86327000  1.0
  C  C48  1  0.50669000  0.52560000  0.90129000  1.0
  C  C49  1  0.49879000  0.44764000  0.85905000  1.0
  C  C50  1  0.49693000  0.44096000  0.77771000  1.0
  C  C51  1  0.50211000  0.51511000  0.73672000  1.0
  C  C52  1  0.51079000  0.59437000  0.78201000  1.0
  C  C53  1  0.10439000  0.43035000  0.50347000  1.0
  C  C54  1  0.89181000  0.56922000  0.50198000  1.0
  C  C55  1  0.17758000  0.49613000  0.49904000  1.0
  C  C56  1  0.82096000  0.50206000  0.50506000  1.0
  C  C57  1  0.99554000  0.54327000  0.50168000  1.0
  C  C58  1  0.00095000  0.45666000  0.50476000  1.0
  S  S59  1  0.11868000  0.59105000  0.49776000  1.0
  S  S60  1  0.87926000  0.40719000  0.50759000  1.0
  Br  Br61  1  0.13079000  0.31748000  0.51025000  1.0
  N  N62  1  0.51738000  0.71843000  0.50711000  1.0
  N  N63  1  0.52774000  0.97923000  0.52411000  1.0
  N  N64  1  0.46368000  0.01516000  0.48383000  1.0
  N  N65  1  0.49132000  0.27721000  0.49220000  1.0
  N  N66  1  0.50070000  0.47190000  0.01720000  1.0
  N  N67  1  0.51015000  0.53848000  0.98332000  1.0
  N  N68  1  0.65702000  0.72565000  0.59744000  1.0
  N  N69  1  0.65450000  0.89599000  0.61569000  1.0
  N  N70  1  0.35549000  0.27139000  0.40117000  1.0
  N  N71  1  0.62946000  0.28456000  0.58148000  1.0
  N  N72  1  0.49544000  0.33061000  0.24573000  1.0
  N  N73  1  0.49820000  0.32986000  0.08937000  1.0
  N  N74  1  0.51931000  0.66876000  0.74812000  1.0
  N  N75  1  0.49162000  0.36315000  0.73941000  1.0
  O  O76  1  0.50878000  0.42384000  0.38139000  1.0
  O  O77  1  0.49685000  0.56337000  0.38350000  1.0
  O  O78  1  0.33882000  0.57044000  0.50174000  1.0
  O  O79  1  0.33645000  0.42874000  0.48647000  1.0
  O  O80  1  0.50309000  0.57671000  0.61663000  1.0
  O  O81  1  0.48548000  0.43710000  0.61299000  1.0
  O  O82  1  0.65750000  0.43105000  0.50760000  1.0
  O  O83  1  0.66381000  0.57114000  0.50134000  1.0
