# generated using pymatgen
data_CdH24C28(S2N3)2
_symmetry_space_group_name_H-M   'P 1'
_cell_length_a   5.41247000
_cell_length_b   15.64380000
_cell_length_c   17.64100000
_cell_angle_alpha   90.00000000
_cell_angle_beta   89.97910000
_cell_angle_gamma   90.00000000
_symmetry_Int_Tables_number   1
_chemical_formula_structural   CdH24C28(S2N3)2
_chemical_formula_sum   'Cd2 H48 C56 S8 N12'
_cell_volume   1493.69156422
_cell_formula_units_Z   2
loop_
 _symmetry_equiv_pos_site_id
 _symmetry_equiv_pos_as_xyz
  1  'x, y, z'
loop_
 _atom_site_type_symbol
 _atom_site_label
 _atom_site_symmetry_multiplicity
 _atom_site_fract_x
 _atom_site_fract_y
 _atom_site_fract_z
 _atom_site_occupancy
  Cd  Cd0  1  0.50000000  0.50000000  0.50000000  1.0
  Cd  Cd1  1  0.50001000  0.00000000  0.00000000  1.0
  H  H2  1  0.77082000  0.16065000  0.51501000  1.0
  H  H3  1  0.22917000  0.66066000  0.98499000  1.0
  H  H4  1  0.22922000  0.83934000  0.48499000  1.0
  H  H5  1  0.77081000  0.33934000  0.01501000  1.0
  H  H6  1  0.45303000  0.33676000  0.57429000  1.0
  H  H7  1  0.54697000  0.83676000  0.92571000  1.0
  H  H8  1  0.54699000  0.66323000  0.42572000  1.0
  H  H9  1  0.45301000  0.16324000  0.07428000  1.0
  H  H10  1  0.74495000  0.08554000  0.38714000  1.0
  H  H11  1  0.25504000  0.58555000  0.11286000  1.0
  H  H12  1  0.25506000  0.91445000  0.61286000  1.0
  H  H13  1  0.74496000  0.41445000  0.88714000  1.0
  H  H14  1  0.00779000  0.04714000  0.27633000  1.0
  H  H15  1  0.99222000  0.54714000  0.22367000  1.0
  H  H16  1  0.99223000  0.95287000  0.72367000  1.0
  H  H17  1  0.00780000  0.45286000  0.77633000  1.0
  H  H18  1  0.37783000  0.13502000  0.24466000  1.0
  H  H19  1  0.62216000  0.63501000  0.25535000  1.0
  H  H20  1  0.62217000  0.86499000  0.75534000  1.0
  H  H21  1  0.37786000  0.36498000  0.74466000  1.0
  H  H22  1  0.47914000  0.26270000  0.32384000  1.0
  H  H23  1  0.52085000  0.76270000  0.17616000  1.0
  H  H24  1  0.52087000  0.73730000  0.67616000  1.0
  H  H25  1  0.47915000  0.23730000  0.82384000  1.0
  H  H26  1  0.21843000  0.30057000  0.43398000  1.0
  H  H27  1  0.78156000  0.80057000  0.06602000  1.0
  H  H28  1  0.78160000  0.69943000  0.56602000  1.0
  H  H29  1  0.21843000  0.19942000  0.93398000  1.0
  H  H30  1  0.26821000  0.15863000  0.58884000  1.0
  H  H31  1  0.73179000  0.65863000  0.91115000  1.0
  H  H32  1  0.73181000  0.84137000  0.41117000  1.0
  H  H33  1  0.26820000  0.34138000  0.08883000  1.0
  H  H34  1  0.31098000  0.04493000  0.68804000  1.0
  H  H35  1  0.68898000  0.54494000  0.81195000  1.0
  H  H36  1  0.68905000  0.95507000  0.31197000  1.0
  H  H37  1  0.31095000  0.45507000  0.18803000  1.0
  H  H38  1  0.67036000  0.04692000  0.77560000  1.0
  H  H39  1  0.32959000  0.54694000  0.72440000  1.0
  H  H40  1  0.32967000  0.95307000  0.22440000  1.0
  H  H41  1  0.67033000  0.45308000  0.27560000  1.0
  H  H42  1  0.98321000  0.16265000  0.76658000  1.0
  H  H43  1  0.01673000  0.66267000  0.73342000  1.0
  H  H44  1  0.01683000  0.83733000  0.23342000  1.0
  H  H45  1  0.98317000  0.33734000  0.26658000  1.0
  H  H46  1  0.93946000  0.27617000  0.66768000  1.0
  H  H47  1  0.06051000  0.77618000  0.83234000  1.0
  H  H48  1  0.06059000  0.72382000  0.33233000  1.0
  H  H49  1  0.93944000  0.22383000  0.16767000  1.0
  C  C50  1  0.97710000  0.55295000  0.39650000  1.0
  C  C51  1  0.02291000  0.05296000  0.10351000  1.0
  C  C52  1  0.02288000  0.44704000  0.60350000  1.0
  C  C53  1  0.97710000  0.94703000  0.89650000  1.0
  C  C54  1  0.70423000  0.28620000  0.49995000  1.0
  C  C55  1  0.29577000  0.78621000  0.00006000  1.0
  C  C56  1  0.29579000  0.71379000  0.50006000  1.0
  C  C57  1  0.70423000  0.21379000  0.99995000  1.0
  C  C58  1  0.96867000  0.19425000  0.41801000  1.0
  C  C59  1  0.03133000  0.69425000  0.08199000  1.0
  C  C60  1  0.03135000  0.80575000  0.58199000  1.0
  C  C61  1  0.96866000  0.30575000  0.91801000  1.0
  C  C62  1  0.90988000  0.12276000  0.37378000  1.0
  C  C63  1  0.09011000  0.62276000  0.12622000  1.0
  C  C64  1  0.09013000  0.87724000  0.62622000  1.0
  C  C65  1  0.90989000  0.37723000  0.87378000  1.0
  C  C66  1  0.05699000  0.10173000  0.31156000  1.0
  C  C67  1  0.94302000  0.60173000  0.18844000  1.0
  C  C68  1  0.94303000  0.89827000  0.68844000  1.0
  C  C69  1  0.05699000  0.39827000  0.81155000  1.0
  C  C70  1  0.26206000  0.15182000  0.29306000  1.0
  C  C71  1  0.73794000  0.65182000  0.20694000  1.0
  C  C72  1  0.73795000  0.84819000  0.70694000  1.0
  C  C73  1  0.26208000  0.34818000  0.79306000  1.0
  C  C74  1  0.31841000  0.22348000  0.33711000  1.0
  C  C75  1  0.68158000  0.72348000  0.16289000  1.0
  C  C76  1  0.68160000  0.77652000  0.66289000  1.0
  C  C77  1  0.31842000  0.27652000  0.83711000  1.0
  C  C78  1  0.17304000  0.24492000  0.39964000  1.0
  C  C79  1  0.82695000  0.74492000  0.10036000  1.0
  C  C80  1  0.82698000  0.75508000  0.60035000  1.0
  C  C81  1  0.17305000  0.25508000  0.89964000  1.0
  C  C82  1  0.60283000  0.22296000  0.62240000  1.0
  C  C83  1  0.39716000  0.72297000  0.87760000  1.0
  C  C84  1  0.39720000  0.77704000  0.37760000  1.0
  C  C85  1  0.60281000  0.27704000  0.12239000  1.0
  C  C86  1  0.42519000  0.15820000  0.62758000  1.0
  C  C87  1  0.57480000  0.65821000  0.87241000  1.0
  C  C88  1  0.57483000  0.84180000  0.37242000  1.0
  C  C89  1  0.42518000  0.34180000  0.12758000  1.0
  C  C90  1  0.45037000  0.09486000  0.68288000  1.0
  C  C91  1  0.54960000  0.59487000  0.81711000  1.0
  C  C92  1  0.54965000  0.90514000  0.31713000  1.0
  C  C93  1  0.45035000  0.40515000  0.18288000  1.0
  C  C94  1  0.65174000  0.09616000  0.73228000  1.0
  C  C95  1  0.34821000  0.59616000  0.76771000  1.0
  C  C96  1  0.34829000  0.90384000  0.26772000  1.0
  C  C97  1  0.65172000  0.40385000  0.23228000  1.0
  C  C98  1  0.82818000  0.16114000  0.72720000  1.0
  C  C99  1  0.17178000  0.66115000  0.77280000  1.0
  C  C100  1  0.17185000  0.83885000  0.27280000  1.0
  C  C101  1  0.82815000  0.33886000  0.22720000  1.0
  C  C102  1  0.80448000  0.22468000  0.67219000  1.0
  C  C103  1  0.19549000  0.72469000  0.82782000  1.0
  C  C104  1  0.19556000  0.77531000  0.32781000  1.0
  C  C105  1  0.80446000  0.27532000  0.17218000  1.0
  S  S106  1  0.22466000  0.50703000  0.36430000  1.0
  S  S107  1  0.77534000  0.00704000  0.13570000  1.0
  S  S108  1  0.77534000  0.49296000  0.63570000  1.0
  S  S109  1  0.22467000  0.99296000  0.86430000  1.0
  S  S110  1  0.70989000  0.36949000  0.43830000  1.0
  S  S111  1  0.29010000  0.86949000  0.06171000  1.0
  S  S112  1  0.29012000  0.63051000  0.56170000  1.0
  S  S113  1  0.70990000  0.13051000  0.93830000  1.0
  N  N114  1  0.79353000  0.58535000  0.42010000  1.0
  N  N115  1  0.20647000  0.08536000  0.07991000  1.0
  N  N116  1  0.20649000  0.41463000  0.57990000  1.0
  N  N117  1  0.79352000  0.91464000  0.92010000  1.0
  N  N118  1  0.82220000  0.21187000  0.48300000  1.0
  N  N119  1  0.17778000  0.71187000  0.01701000  1.0
  N  N120  1  0.17783000  0.78813000  0.51701000  1.0
  N  N121  1  0.82220000  0.28813000  0.98299000  1.0
  N  N122  1  0.58063000  0.28815000  0.56596000  1.0
  N  N123  1  0.41937000  0.78815000  0.93405000  1.0
  N  N124  1  0.41940000  0.71185000  0.43405000  1.0
  N  N125  1  0.58061000  0.21185000  0.06595000  1.0
