# generated using pymatgen
data_GdH18C14ClO6
_symmetry_space_group_name_H-M   'P 1'
_cell_length_a   8.58628000
_cell_length_b   9.88252000
_cell_length_c   10.29230000
_cell_angle_alpha   103.85900000
_cell_angle_beta   109.13700000
_cell_angle_gamma   96.68540000
_symmetry_Int_Tables_number   1
_chemical_formula_structural   GdH18C14ClO6
_chemical_formula_sum   'Gd2 H36 C28 Cl2 O12'
_cell_volume   782.75953716
_cell_formula_units_Z   2
loop_
 _symmetry_equiv_pos_site_id
 _symmetry_equiv_pos_as_xyz
  1  'x, y, z'
loop_
 _atom_site_type_symbol
 _atom_site_label
 _atom_site_symmetry_multiplicity
 _atom_site_fract_x
 _atom_site_fract_y
 _atom_site_fract_z
 _atom_site_occupancy
  Gd  Gd0  1  0.56995000  0.12157000  0.23066000  1.0
  Gd  Gd1  1  0.43005000  0.87843000  0.76934000  1.0
  H  H2  1  0.31805000  0.82325000  0.33200000  1.0
  H  H3  1  0.68195000  0.17675000  0.66800000  1.0
  H  H4  1  0.44571000  0.78655000  0.22608000  1.0
  H  H5  1  0.55429000  0.21345000  0.77391000  1.0
  H  H6  1  0.15745000  0.96414000  0.00516000  1.0
  H  H7  1  0.84254000  0.03586000  0.99484000  1.0
  H  H8  1  0.11362000  0.04570000  0.16085000  1.0
  H  H9  1  0.88638000  0.95430000  0.83915000  1.0
  H  H10  1  0.19495000  0.13589000  0.40981000  1.0
  H  H11  1  0.80505000  0.86411000  0.59019000  1.0
  H  H12  1  0.95718000  0.37003000  0.28184000  1.0
  H  H13  1  0.04282000  0.62997000  0.71816000  1.0
  H  H14  1  0.87708000  0.43401000  0.41866000  1.0
  H  H15  1  0.12292000  0.56599000  0.58133000  1.0
  H  H16  1  0.96765000  0.66055000  0.38545000  1.0
  H  H17  1  0.03235000  0.33945000  0.61454000  1.0
  H  H18  1  0.93023000  0.58029000  0.20129000  1.0
  H  H19  1  0.06977000  0.41971000  0.79871000  1.0
  H  H20  1  0.67751000  0.67713000  0.18371000  1.0
  H  H21  1  0.32249000  0.32287000  0.81629000  1.0
  H  H22  1  0.66137000  0.62588000  0.33412000  1.0
  H  H23  1  0.33863000  0.37412000  0.66588000  1.0
  H  H24  1  0.19862000  0.68262000  0.00531000  1.0
  H  H25  1  0.80138000  0.31738000  0.99469000  1.0
  H  H26  1  0.13104000  0.61802000  0.12986000  1.0
  H  H27  1  0.86896000  0.38198000  0.87014000  1.0
  H  H28  1  0.98993000  0.81999000  0.17198000  1.0
  H  H29  1  0.01007000  0.18001000  0.82802000  1.0
  H  H30  1  0.93748000  0.77363000  0.98300000  1.0
  H  H31  1  0.06252000  0.22637000  0.01700000  1.0
  H  H32  1  0.47365000  0.41923000  0.13549000  1.0
  H  H33  1  0.52635000  0.58077000  0.86451000  1.0
  H  H34  1  0.60763000  0.42804000  0.03570000  1.0
  H  H35  1  0.39236000  0.57196000  0.96430000  1.0
  H  H36  1  0.21924000  0.48343000  0.30143000  1.0
  H  H37  1  0.78076000  0.51657000  0.69857000  1.0
  C  C38  1  0.93789000  0.07348000  0.39552000  1.0
  C  C39  1  0.06211000  0.92652000  0.60448000  1.0
  C  C40  1  0.82177000  0.99070000  0.44891000  1.0
  C  C41  1  0.17823000  0.00930000  0.55109000  1.0
  C  C42  1  0.59459000  0.38991000  0.49182000  1.0
  C  C43  1  0.40541000  0.61009000  0.50818000  1.0
  C  C44  1  0.42543000  0.37970000  0.37344000  1.0
  C  C45  1  0.57457000  0.62030000  0.62656000  1.0
  C  C46  1  0.32551000  0.81339000  0.22561000  1.0
  C  C47  1  0.67449000  0.18661000  0.77440000  1.0
  C  C48  1  0.15136000  0.95271000  0.10699000  1.0
  C  C49  1  0.84864000  0.04729000  0.89301000  1.0
  C  C50  1  0.11124000  0.07802000  0.44760000  1.0
  C  C51  1  0.88876000  0.92198000  0.55240000  1.0
  C  C52  1  0.86743000  0.43072000  0.30893000  1.0
  C  C53  1  0.13257000  0.56928000  0.69106000  1.0
  C  C54  1  0.88217000  0.57808000  0.28756000  1.0
  C  C55  1  0.11783000  0.42192000  0.71244000  1.0
  C  C56  1  0.69932000  0.59634000  0.24071000  1.0
  C  C57  1  0.30067000  0.40366000  0.75928000  1.0
  C  C58  1  0.17130000  0.71444000  0.10403000  1.0
  C  C59  1  0.82870000  0.28556000  0.89597000  1.0
  C  C60  1  0.04292000  0.81047000  0.08730000  1.0
  C  C61  1  0.95708000  0.18953000  0.91270000  1.0
  C  C62  1  0.60481000  0.44733000  0.14463000  1.0
  C  C63  1  0.39519000  0.55267000  0.85537000  1.0
  C  C64  1  0.33888000  0.49060000  0.38605000  1.0
  C  C65  1  0.66112000  0.50940000  0.61395000  1.0
  Cl  Cl66  1  0.60795000  0.87747000  0.04773000  1.0
  Cl  Cl67  1  0.39205000  0.12253000  0.95226000  1.0
  O  O68  1  0.86441000  0.13520000  0.30399000  1.0
  O  O69  1  0.13559000  0.86480000  0.69601000  1.0
  O  O70  1  0.66538000  0.98951000  0.39248000  1.0
  O  O71  1  0.33462000  0.01050000  0.60752000  1.0
  O  O72  1  0.69691000  0.35101000  0.21174000  1.0
  O  O73  1  0.30309000  0.64899000  0.78826000  1.0
  O  O74  1  0.32336000  0.95253000  0.19915000  1.0
  O  O75  1  0.67664000  0.04747000  0.80085000  1.0
  O  O76  1  0.37488000  0.26669000  0.26677000  1.0
  O  O77  1  0.62513000  0.73332000  0.73323000  1.0
  O  O78  1  0.66599000  0.28549000  0.46880000  1.0
  O  O79  1  0.33402000  0.71451000  0.53120000  1.0
