# generated using pymatgen
data_CoH32C34Br4(N2O3)2
_symmetry_space_group_name_H-M   'P 1'
_cell_length_a   9.17437000
_cell_length_b   9.57212000
_cell_length_c   11.25360000
_cell_angle_alpha   99.00550000
_cell_angle_beta   94.32260000
_cell_angle_gamma   118.06800000
_symmetry_Int_Tables_number   1
_chemical_formula_structural   CoH32C34Br4(N2O3)2
_chemical_formula_sum   'Co1 H32 C34 Br4 N4 O6'
_cell_volume   848.60571296
_cell_formula_units_Z   1
loop_
 _symmetry_equiv_pos_site_id
 _symmetry_equiv_pos_as_xyz
  1  'x, y, z'
loop_
 _atom_site_type_symbol
 _atom_site_label
 _atom_site_symmetry_multiplicity
 _atom_site_fract_x
 _atom_site_fract_y
 _atom_site_fract_z
 _atom_site_occupancy
  Co  Co0  1  0.50000000  0.00000000  0.00000000  1.0
  H  H1  1  0.20081000  0.92943000  0.04795000  1.0
  H  H2  1  0.79919000  0.07058000  0.95204000  1.0
  H  H3  1  0.15068000  0.88289000  0.89791000  1.0
  H  H4  1  0.84932000  0.11711000  0.10209000  1.0
  H  H5  1  0.03912000  0.81075000  0.33513000  1.0
  H  H6  1  0.96088000  0.18925000  0.66487000  1.0
  H  H7  1  0.88702000  0.60885000  0.32176000  1.0
  H  H8  1  0.11298000  0.39115000  0.67825000  1.0
  H  H9  1  0.11325000  0.64375000  0.49243000  1.0
  H  H10  1  0.88675000  0.35625000  0.50757000  1.0
  H  H11  1  0.80202000  0.86490000  0.55163000  1.0
  H  H12  1  0.19798000  0.13509000  0.44838000  1.0
  H  H13  1  0.36778000  0.19202000  0.11698000  1.0
  H  H14  1  0.63222000  0.80799000  0.88303000  1.0
  H  H15  1  0.82193000  0.89893000  0.35095000  1.0
  H  H16  1  0.17808000  0.10108000  0.64905000  1.0
  H  H17  1  0.66666667  0.69759000  0.34388000  1.0
  H  H18  1  0.33338000  0.30241000  0.65612000  1.0
  H  H19  1  0.78719000  0.29397000  0.95521000  1.0
  H  H20  1  0.21280000  0.70603000  0.04478000  1.0
  H  H21  1  0.90046000  0.59113000  0.02461000  1.0
  H  H22  1  0.09953000  0.40887000  0.97538000  1.0
  H  H23  1  0.87268000  0.89021000  0.77218000  1.0
  H  H24  1  0.12732000  0.10978000  0.22782000  1.0
  H  H25  1  0.17928000  0.68580000  0.71768000  1.0
  H  H26  1  0.82073000  0.31420000  0.28232000  1.0
  H  H27  1  0.46197000  0.48259000  0.19117000  1.0
  H  H28  1  0.53803000  0.51742000  0.80884000  1.0
  H  H29  1  0.67021000  0.77984000  0.14320000  1.0
  H  H30  1  0.32980000  0.22016000  0.85680000  1.0
  H  H31  1  0.87733000  0.81564000  0.14354000  1.0
  H  H32  1  0.12268000  0.18437000  0.85646000  1.0
  C  C33  1  0.39071000  0.97657000  0.24142000  1.0
  C  C34  1  0.60928000  0.02344000  0.75858000  1.0
  C  C35  1  0.44635000  0.99037000  0.37587000  1.0
  C  C36  1  0.55365000  0.00963000  0.62413000  1.0
  C  C37  1  0.69344000  0.56477000  0.11807000  1.0
  C  C38  1  0.30656000  0.43524000  0.88193000  1.0
  C  C39  1  0.92005000  0.73405000  0.36473000  1.0
  C  C40  1  0.07996000  0.26595000  0.63527000  1.0
  C  C41  1  0.52330000  0.13912000  0.46090000  1.0
  C  C42  1  0.47669000  0.86088000  0.53910000  1.0
  C  C43  1  0.05837000  0.70058000  0.55152000  1.0
  C  C44  1  0.94164000  0.29942000  0.44848000  1.0
  C  C45  1  0.88414000  0.82031000  0.58304000  1.0
  C  C46  1  0.11586000  0.17968000  0.41697000  1.0
  C  C47  1  0.57750000  0.14859000  0.58319000  1.0
  C  C48  1  0.42250000  0.85141000  0.41680000  1.0
  C  C49  1  0.48567000  0.28383000  0.09914000  1.0
  C  C50  1  0.51432000  0.71617000  0.90086000  1.0
  C  C51  1  0.78642000  0.77175000  0.31453000  1.0
  C  C52  1  0.21359000  0.22826000  0.68547000  1.0
  C  C53  1  0.72006000  0.34093000  0.00922000  1.0
  C  C54  1  0.27993000  0.65907000  0.99078000  1.0
  C  C55  1  0.95249000  0.75225000  0.50084000  1.0
  C  C56  1  0.04752000  0.24775000  0.49916000  1.0
  C  C57  1  0.78182000  0.50698000  0.04829000  1.0
  C  C58  1  0.21817000  0.49302000  0.95171000  1.0
  C  C59  1  0.92359000  0.83430000  0.70807000  1.0
  C  C60  1  0.07641000  0.16570000  0.29193000  1.0
  C  C61  1  0.09314000  0.72106000  0.67718000  1.0
  C  C62  1  0.90686000  0.27893000  0.32282000  1.0
  C  C63  1  0.53966000  0.44718000  0.13961000  1.0
  C  C64  1  0.46034000  0.55282000  0.86039000  1.0
  C  C65  1  0.75916000  0.74084000  0.17402000  1.0
  C  C66  1  0.24084000  0.25917000  0.82599000  1.0
  Br  Br67  1  0.55281000  0.32839000  0.40851000  1.0
  Br  Br68  1  0.44719000  0.67161000  0.59148000  1.0
  Br  Br69  1  0.69219000  0.35248000  0.69607000  1.0
  Br  Br70  1  0.30781000  0.64753000  0.30393000  1.0
  N  N71  1  0.57554000  0.22897000  0.03660000  1.0
  N  N72  1  0.42446000  0.77103000  0.96340000  1.0
  N  N73  1  0.02721000  0.78691000  0.75586000  1.0
  N  N74  1  0.97280000  0.21308000  0.24414000  1.0
  O  O75  1  0.23881000  0.95871000  0.97108000  1.0
  O  O76  1  0.76119000  0.04129000  0.02892000  1.0
  O  O77  1  0.24035000  0.93856000  0.20751000  1.0
  O  O78  1  0.75965000  0.06144000  0.79249000  1.0
  O  O79  1  0.50667000  0.00334000  0.17771000  1.0
  O  O80  1  0.49332000  0.99666000  0.82229000  1.0
