# generated using pymatgen
data_CdH26C22(IN2)2
_symmetry_space_group_name_H-M   'P 1'
_cell_length_a   9.21364000
_cell_length_b   10.46020000
_cell_length_c   14.03870000
_cell_angle_alpha   86.26940000
_cell_angle_beta   76.68430000
_cell_angle_gamma   70.73830000
_symmetry_Int_Tables_number   1
_chemical_formula_structural   CdH26C22(IN2)2
_chemical_formula_sum   'Cd2 H52 C44 I4 N8'
_cell_volume   1242.83641276
_cell_formula_units_Z   2
loop_
 _symmetry_equiv_pos_site_id
 _symmetry_equiv_pos_as_xyz
  1  'x, y, z'
loop_
 _atom_site_type_symbol
 _atom_site_label
 _atom_site_symmetry_multiplicity
 _atom_site_fract_x
 _atom_site_fract_y
 _atom_site_fract_z
 _atom_site_occupancy
  Cd  Cd0  1  0.76880000  0.36361000  0.21320000  1.0
  Cd  Cd1  1  0.23119000  0.63639000  0.78680000  1.0
  H  H2  1  0.62878000  0.28610000  0.02946000  1.0
  H  H3  1  0.37122000  0.71390000  0.97054000  1.0
  H  H4  1  0.94803000  0.03218000  0.26977000  1.0
  H  H5  1  0.05198000  0.96782000  0.73023000  1.0
  H  H6  1  0.90013000  0.78111000  0.99135000  1.0
  H  H7  1  0.09988000  0.21889000  0.00865000  1.0
  H  H8  1  0.78966000  0.98417000  0.87396000  1.0
  H  H9  1  0.21034000  0.01583000  0.12604000  1.0
  H  H10  1  0.63133000  0.14004000  0.89713000  1.0
  H  H11  1  0.36867000  0.85996000  0.10287000  1.0
  H  H12  1  0.41703000  0.55790000  0.33468000  1.0
  H  H13  1  0.58296000  0.44209000  0.66532000  1.0
  H  H14  1  0.81843000  0.12387000  0.40107000  1.0
  H  H15  1  0.18156000  0.87613000  0.59893000  1.0
  H  H16  1  0.29769000  0.29343000  0.64163000  1.0
  H  H17  1  0.70231000  0.70656000  0.35837000  1.0
  H  H18  1  0.37849000  0.11125000  0.74479000  1.0
  H  H19  1  0.62151000  0.88875000  0.25521000  1.0
  H  H20  1  0.58301000  0.02048000  0.73122000  1.0
  H  H21  1  0.41699000  0.97952000  0.26878000  1.0
  H  H22  1  0.46727000  0.95920000  0.67364000  1.0
  H  H23  1  0.53273000  0.04080000  0.32636000  1.0
  H  H24  1  0.10971000  0.35786000  0.51678000  1.0
  H  H25  1  0.89028000  0.64214000  0.48322000  1.0
  H  H26  1  0.11264000  0.43896000  0.40271000  1.0
  H  H27  1  0.88736000  0.56104000  0.59729000  1.0
  H  H28  1  0.17592000  0.62819000  0.47159000  1.0
  H  H29  1  0.82408000  0.37181000  0.52841000  1.0
  H  H30  1  0.17861000  0.54219000  0.58375000  1.0
  H  H31  1  0.82139000  0.45781000  0.41625000  1.0
  H  H32  1  0.07003000  0.57914000  0.03908000  1.0
  H  H33  1  0.92996000  0.42086000  0.96092000  1.0
  H  H34  1  0.03580000  0.56003000  0.16767000  1.0
  H  H35  1  0.96420000  0.43998000  0.83233000  1.0
  H  H36  1  0.20844000  0.59184000  0.10427000  1.0
  H  H37  1  0.79156000  0.40815000  0.89572000  1.0
  H  H38  1  0.06378000  0.67864000  0.30467000  1.0
  H  H39  1  0.93622000  0.32136000  0.69533000  1.0
  H  H40  1  0.10021000  0.82935000  0.32912000  1.0
  H  H41  1  0.89980000  0.17066000  0.67088000  1.0
  H  H42  1  0.23012000  0.71510000  0.23414000  1.0
  H  H43  1  0.76988000  0.28490000  0.76587000  1.0
  H  H44  1  0.89760000  0.93205000  0.49523000  1.0
  H  H45  1  0.10240000  0.06794000  0.50478000  1.0
  H  H46  1  0.73996000  0.86736000  0.54281000  1.0
  H  H47  1  0.26004000  0.13264000  0.45719000  1.0
  H  H48  1  0.81264000  0.94016000  0.62292000  1.0
  H  H49  1  0.18735000  0.05984000  0.37708000  1.0
  H  H50  1  0.53053000  0.95045000  0.89389000  1.0
  H  H51  1  0.46947000  0.04955000  0.10611000  1.0
  H  H52  1  0.63094000  0.86136000  0.98295000  1.0
  H  H53  1  0.36906000  0.13865000  0.01705000  1.0
  C  C54  1  0.70135000  0.19278000  0.05659000  1.0
  C  C55  1  0.29865000  0.80722000  0.94341000  1.0
  C  C56  1  0.83376000  0.97478000  0.06561000  1.0
  C  C57  1  0.16625000  0.02522000  0.93439000  1.0
  C  C58  1  0.84620000  0.04685000  0.14329000  1.0
  C  C59  1  0.15381000  0.95315000  0.85671000  1.0
  C  C60  1  0.93420000  0.97766000  0.21077000  1.0
  C  C61  1  0.06581000  0.02234000  0.78923000  1.0
  C  C62  1  0.00862000  0.83805000  0.19943000  1.0
  C  C63  1  0.99139000  0.16195000  0.80056000  1.0
  C  C64  1  0.99707000  0.76688000  0.11954000  1.0
  C  C65  1  0.00294000  0.23312000  0.88045000  1.0
  C  C66  1  0.90837000  0.83553000  0.05252000  1.0
  C  C67  1  0.09164000  0.16447000  0.94748000  1.0
  C  C68  1  0.68658000  0.04212000  0.92886000  1.0
  C  C69  1  0.31342000  0.95789000  0.07114000  1.0
  C  C70  1  0.45340000  0.47023000  0.38026000  1.0
  C  C71  1  0.54660000  0.52977000  0.61974000  1.0
  C  C72  1  0.44464000  0.32685000  0.50315000  1.0
  C  C73  1  0.55535000  0.67315000  0.49685000  1.0
  C  C74  1  0.59077000  0.28040000  0.43528000  1.0
  C  C75  1  0.40922000  0.71960000  0.56472000  1.0
  C  C76  1  0.70434000  0.15958000  0.45208000  1.0
  C  C77  1  0.29565000  0.84042000  0.54792000  1.0
  C  C78  1  0.66901000  0.08477000  0.53495000  1.0
  C  C79  1  0.33099000  0.91523000  0.46505000  1.0
  C  C80  1  0.52138000  0.13329000  0.60368000  1.0
  C  C81  1  0.47862000  0.86670000  0.39632000  1.0
  C  C82  1  0.40887000  0.25560000  0.58797000  1.0
  C  C83  1  0.59113000  0.74439000  0.41203000  1.0
  C  C84  1  0.48524000  0.05238000  0.69313000  1.0
  C  C85  1  0.51475000  0.94762000  0.30687000  1.0
  C  C86  1  0.08619000  0.45803000  0.48208000  1.0
  C  C87  1  0.91381000  0.54197000  0.51792000  1.0
  C  C88  1  0.19670000  0.52737000  0.50454000  1.0
  C  C89  1  0.80329000  0.47263000  0.49546000  1.0
  C  C90  1  0.08166000  0.61772000  0.10670000  1.0
  C  C91  1  0.91834000  0.38228000  0.89330000  1.0
  C  C92  1  0.10527000  0.76196000  0.27077000  1.0
  C  C93  1  0.89474000  0.23805000  0.72922000  1.0
  C  C94  1  0.78618000  0.95009000  0.54981000  1.0
  C  C95  1  0.21382000  0.04991000  0.45019000  1.0
  C  C96  1  0.57020000  0.96387000  0.95959000  1.0
  C  C97  1  0.42980000  0.03613000  0.04041000  1.0
  I  I98  1  0.07360000  0.28758000  0.23919000  1.0
  I  I99  1  0.92639000  0.71242000  0.76082000  1.0
  I  I100  1  0.61681000  0.60149000  0.12924000  1.0
  I  I101  1  0.38319000  0.39851000  0.87077000  1.0
  N  N102  1  0.76172000  0.18349000  0.13535000  1.0
  N  N103  1  0.23828000  0.81651000  0.86464000  1.0
  N  N104  1  0.74152000  0.07079000  0.01198000  1.0
  N  N105  1  0.25849000  0.92922000  0.98802000  1.0
  N  N106  1  0.59226000  0.37278000  0.35924000  1.0
  N  N107  1  0.40773000  0.62722000  0.64076000  1.0
  N  N108  1  0.36095000  0.44852000  0.46602000  1.0
  N  N109  1  0.63904000  0.55148000  0.53398000  1.0
