# generated using pymatgen
data_ZnH21C19N5O4
_symmetry_space_group_name_H-M   'P 1'
_cell_length_a   9.13782000
_cell_length_b   9.54960000
_cell_length_c   11.10170000
_cell_angle_alpha   89.99980000
_cell_angle_beta   89.23050000
_cell_angle_gamma   89.99950000
_symmetry_Int_Tables_number   1
_chemical_formula_structural   ZnH21C19N5O4
_chemical_formula_sum   'Zn2 H42 C38 N10 O8'
_cell_volume   968.67501536
_cell_formula_units_Z   2
loop_
 _symmetry_equiv_pos_site_id
 _symmetry_equiv_pos_as_xyz
  1  'x, y, z'
loop_
 _atom_site_type_symbol
 _atom_site_label
 _atom_site_symmetry_multiplicity
 _atom_site_fract_x
 _atom_site_fract_y
 _atom_site_fract_z
 _atom_site_occupancy
  Zn  Zn0  1  0.75000000  0.84718000  0.25000000  1.0
  Zn  Zn1  1  0.25000000  0.15282000  0.75000000  1.0
  H  H2  1  0.05226000  0.74232000  0.39521000  1.0
  H  H3  1  0.44773000  0.74232000  0.10479000  1.0
  H  H4  1  0.94773000  0.25768000  0.60479000  1.0
  H  H5  1  0.55228000  0.25768000  0.89521000  1.0
  H  H6  1  0.31024000  0.80430000  0.51154000  1.0
  H  H7  1  0.18976000  0.80429000  0.98846000  1.0
  H  H8  1  0.68977000  0.19571000  0.48846000  1.0
  H  H9  1  0.81024000  0.19571000  0.01154000  1.0
  H  H10  1  0.37134000  0.98023000  0.49715000  1.0
  H  H11  1  0.12866000  0.98022000  0.00285000  1.0
  H  H12  1  0.62866000  0.01978000  0.50285000  1.0
  H  H13  1  0.87135000  0.01977000  0.99715000  1.0
  H  H14  1  0.40056000  0.85865000  0.37805000  1.0
  H  H15  1  0.09944000  0.85864000  0.12194000  1.0
  H  H16  1  0.59945000  0.14135000  0.62195000  1.0
  H  H17  1  0.90056000  0.14135000  0.87806000  1.0
  H  H18  1  0.18852000  0.16580000  0.37701000  1.0
  H  H19  1  0.31147000  0.16579000  0.12298000  1.0
  H  H20  1  0.81148000  0.83420000  0.62298000  1.0
  H  H21  1  0.68854000  0.83420000  0.87701000  1.0
  H  H22  1  0.96540000  0.34617000  0.32850000  1.0
  H  H23  1  0.53458000  0.34616000  0.17150000  1.0
  H  H24  1  0.03460000  0.65383000  0.67150000  1.0
  H  H25  1  0.46542000  0.65384000  0.82850000  1.0
  H  H26  1  0.74999000  0.47689000  0.25000000  1.0
  H  H27  1  0.25001000  0.52312000  0.75000000  1.0
  H  H28  1  0.91837000  0.70319000  0.89641000  1.0
  H  H29  1  0.58163000  0.70320000  0.60358000  1.0
  H  H30  1  0.08163000  0.29680000  0.10359000  1.0
  H  H31  1  0.41836000  0.29681000  0.39642000  1.0
  H  H32  1  0.76603000  0.59431000  0.86004000  1.0
  H  H33  1  0.73396000  0.59432000  0.63996000  1.0
  H  H34  1  0.23397000  0.40568000  0.13996000  1.0
  H  H35  1  0.26602000  0.40569000  0.36005000  1.0
  H  H36  1  0.86442000  0.40592000  0.99172000  1.0
  H  H37  1  0.63557000  0.40593000  0.50829000  1.0
  H  H38  1  0.13557000  0.59407000  0.00829000  1.0
  H  H39  1  0.36443000  0.59408000  0.49171000  1.0
  H  H40  1  0.98207000  0.44719000  0.87026000  1.0
  H  H41  1  0.51792000  0.44720000  0.62973000  1.0
  H  H42  1  0.01792000  0.55279000  0.12974000  1.0
  H  H43  1  0.48207000  0.55280000  0.37026000  1.0
  C  C44  1  0.32278000  0.89208000  0.44863000  1.0
  C  C45  1  0.17721000  0.89207000  0.05137000  1.0
  C  C46  1  0.67722000  0.10792000  0.55137000  1.0
  C  C47  1  0.82279000  0.10792000  0.94863000  1.0
  C  C48  1  0.17967000  0.93586000  0.39913000  1.0
  C  C49  1  0.32032000  0.93585000  0.10087000  1.0
  C  C50  1  0.82033000  0.06414000  0.60087000  1.0
  C  C51  1  0.67969000  0.06415000  0.89913000  1.0
  C  C52  1  0.12873000  0.06873000  0.36887000  1.0
  C  C53  1  0.37126000  0.06872000  0.13113000  1.0
  C  C54  1  0.87127000  0.93127000  0.63113000  1.0
  C  C55  1  0.62874000  0.93128000  0.86886000  1.0
  C  C56  1  0.98557000  0.04893000  0.32694000  1.0
  C  C57  1  0.51442000  0.04893000  0.17306000  1.0
  C  C58  1  0.01443000  0.95107000  0.67305000  1.0
  C  C59  1  0.48559000  0.95107000  0.82694000  1.0
  C  C60  1  0.86936000  0.14337000  0.28781000  1.0
  C  C61  1  0.63063000  0.14337000  0.21219000  1.0
  C  C62  1  0.13064000  0.85663000  0.71218000  1.0
  C  C63  1  0.36938000  0.85664000  0.78781000  1.0
  C  C64  1  0.87211000  0.29007000  0.29184000  1.0
  C  C65  1  0.62787000  0.29007000  0.20816000  1.0
  C  C66  1  0.12789000  0.70993000  0.70816000  1.0
  C  C67  1  0.37213000  0.70993000  0.79184000  1.0
  C  C68  1  0.74999000  0.36272000  0.25000000  1.0
  C  C69  1  0.25001000  0.63729000  0.75000000  1.0
  C  C70  1  0.76384000  0.67141000  0.04190000  1.0
  C  C71  1  0.73618000  0.67140000  0.45810000  1.0
  C  C72  1  0.23616000  0.32859000  0.95810000  1.0
  C  C73  1  0.26384000  0.32859000  0.54190000  1.0
  C  C74  1  0.84610000  0.61922000  0.92999000  1.0
  C  C75  1  0.65389000  0.61922000  0.57001000  1.0
  C  C76  1  0.15389000  0.38078000  0.07001000  1.0
  C  C77  1  0.34609000  0.38078000  0.43000000  1.0
  C  C78  1  0.93765000  0.48785000  0.95596000  1.0
  C  C79  1  0.56234000  0.48786000  0.54405000  1.0
  C  C80  1  0.06234000  0.51214000  0.04405000  1.0
  C  C81  1  0.43765000  0.51215000  0.45595000  1.0
  N  N82  1  0.06877000  0.84551000  0.37298000  1.0
  N  N83  1  0.43122000  0.84550000  0.12702000  1.0
  N  N84  1  0.93123000  0.15450000  0.62702000  1.0
  N  N85  1  0.56878000  0.15449000  0.87298000  1.0
  N  N86  1  0.95147000  0.91175000  0.33000000  1.0
  N  N87  1  0.54853000  0.91174000  0.17000000  1.0
  N  N88  1  0.04853000  0.08825000  0.66999000  1.0
  N  N89  1  0.45148000  0.08826000  0.83000000  1.0
  N  N90  1  0.74999000  0.07479000  0.25000000  1.0
  N  N91  1  0.25001000  0.92522000  0.75000000  1.0
  O  O92  1  0.83985000  0.75570000  0.10836000  1.0
  O  O93  1  0.66017000  0.75569000  0.39163000  1.0
  O  O94  1  0.16015000  0.24429000  0.89164000  1.0
  O  O95  1  0.33984000  0.24432000  0.60837000  1.0
  O  O96  1  0.63583000  0.63061000  0.06408000  1.0
  O  O97  1  0.86418000  0.63061000  0.43593000  1.0
  O  O98  1  0.36416000  0.36939000  0.93592000  1.0
  O  O99  1  0.13582000  0.36939000  0.56408000  1.0
