# generated using pymatgen
data_Zn3H22(C16O9)2
_symmetry_space_group_name_H-M   'P 1'
_cell_length_a   6.72840000
_cell_length_b   14.49160000
_cell_length_c   15.72000000
_cell_angle_alpha   90.00000000
_cell_angle_beta   98.37330000
_cell_angle_gamma   90.00000000
_symmetry_Int_Tables_number   1
_chemical_formula_structural   Zn3H22(C16O9)2
_chemical_formula_sum   'Zn6 H44 C64 O36'
_cell_volume   1516.44401805
_cell_formula_units_Z   2
loop_
 _symmetry_equiv_pos_site_id
 _symmetry_equiv_pos_as_xyz
  1  'x, y, z'
loop_
 _atom_site_type_symbol
 _atom_site_label
 _atom_site_symmetry_multiplicity
 _atom_site_fract_x
 _atom_site_fract_y
 _atom_site_fract_z
 _atom_site_occupancy
  Zn  Zn0  1  0.50000000  0.50000000  0.00000000  1.0
  Zn  Zn1  1  0.50000000  0.00000000  0.50000000  1.0
  Zn  Zn2  1  0.06164000  0.52587000  0.09414000  1.0
  Zn  Zn3  1  0.93836000  0.02587000  0.40586000  1.0
  Zn  Zn4  1  0.93836000  0.47413000  0.90586000  1.0
  Zn  Zn5  1  0.06164000  0.97413000  0.59414000  1.0
  H  H6  1  0.52232000  0.17012000  0.28442000  1.0
  H  H7  1  0.47770000  0.67012000  0.21558000  1.0
  H  H8  1  0.47768000  0.82988000  0.71558000  1.0
  H  H9  1  0.52231000  0.32988000  0.78442000  1.0
  H  H10  1  0.43738000  0.29363000  0.17806000  1.0
  H  H11  1  0.56263000  0.79363000  0.32194000  1.0
  H  H12  1  0.56262000  0.70637000  0.82194000  1.0
  H  H13  1  0.43738000  0.20637000  0.67806000  1.0
  H  H14  1  0.76960000  0.68979000  0.43905000  1.0
  H  H15  1  0.23040000  0.18979000  0.06095000  1.0
  H  H16  1  0.23040000  0.31021000  0.56095000  1.0
  H  H17  1  0.76960000  0.81021000  0.93905000  1.0
  H  H18  1  0.89095000  0.73121000  0.59216000  1.0
  H  H19  1  0.10904000  0.23121000  0.90784000  1.0
  H  H20  1  0.10905000  0.26879000  0.40784000  1.0
  H  H21  1  0.89096000  0.76879000  0.09216000  1.0
  H  H22  1  0.92552000  0.60785000  0.70471000  1.0
  H  H23  1  0.07448000  0.10785000  0.79529000  1.0
  H  H24  1  0.07448000  0.39215000  0.29529000  1.0
  H  H25  1  0.92552000  0.89215000  0.20471000  1.0
  H  H26  1  0.83905000  0.44499000  0.66245000  1.0
  H  H27  1  0.16095000  0.94499000  0.83755000  1.0
  H  H28  1  0.16095000  0.55501000  0.33755000  1.0
  H  H29  1  0.83906000  0.05501000  0.16245000  1.0
  H  H30  1  0.21773000  0.39587000  0.00892000  1.0
  H  H31  1  0.78226000  0.89587000  0.49108000  1.0
  H  H32  1  0.78226000  0.60413000  0.99108000  1.0
  H  H33  1  0.21773000  0.10413000  0.50892000  1.0
  H  H34  1  0.90937000  0.36567000  0.07444000  1.0
  H  H35  1  0.09063000  0.86567000  0.42556000  1.0
  H  H36  1  0.09063000  0.63433000  0.92556000  1.0
  H  H37  1  0.90937000  0.13433000  0.57444000  1.0
  H  H38  1  0.80209000  0.41579000  0.14260000  1.0
  H  H39  1  0.19791000  0.91579000  0.35739000  1.0
  H  H40  1  0.19791000  0.58421000  0.85739000  1.0
  H  H41  1  0.80209000  0.08421000  0.64260000  1.0
  H  H42  1  0.76083000  0.57492000  0.16600000  1.0
  H  H43  1  0.23918000  0.07492000  0.33400000  1.0
  H  H44  1  0.23917000  0.42508000  0.83400000  1.0
  H  H45  1  0.76083000  0.92508000  0.66600000  1.0
  H  H46  1  0.93278000  0.61191000  0.23430000  1.0
  H  H47  1  0.06722000  0.11191000  0.26570000  1.0
  H  H48  1  0.06722000  0.38809000  0.76570000  1.0
  H  H49  1  0.93278000  0.88809000  0.73430000  1.0
  C  C50  1  0.61799000  0.26323000  0.39005000  1.0
  C  C51  1  0.38202000  0.76323000  0.10995000  1.0
  C  C52  1  0.38200000  0.73677000  0.60995000  1.0
  C  C53  1  0.61799000  0.23677000  0.89004000  1.0
  C  C54  1  0.54377000  0.24173000  0.30455000  1.0
  C  C55  1  0.45624000  0.74173000  0.19546000  1.0
  C  C56  1  0.45624000  0.75827000  0.69545000  1.0
  C  C57  1  0.54377000  0.25827000  0.80454000  1.0
  C  C58  1  0.49715000  0.31152000  0.24423000  1.0
  C  C59  1  0.50285000  0.81153000  0.25577000  1.0
  C  C60  1  0.50284000  0.68847000  0.75577000  1.0
  C  C61  1  0.49716000  0.18847000  0.74423000  1.0
  C  C62  1  0.52865000  0.40416000  0.26749000  1.0
  C  C63  1  0.47135000  0.90417000  0.23251000  1.0
  C  C64  1  0.47135000  0.59583000  0.73250000  1.0
  C  C65  1  0.52865000  0.09583000  0.76749000  1.0
  C  C66  1  0.78669000  0.63716000  0.48902000  1.0
  C  C67  1  0.21332000  0.13716000  0.01098000  1.0
  C  C68  1  0.21332000  0.36284000  0.51098000  1.0
  C  C69  1  0.78669000  0.86284000  0.98902000  1.0
  C  C70  1  0.85441000  0.65977000  0.57455000  1.0
  C  C71  1  0.14560000  0.15977000  0.92545000  1.0
  C  C72  1  0.14560000  0.34023000  0.42545000  1.0
  C  C73  1  0.85440000  0.84023000  0.07455000  1.0
  C  C74  1  0.87559000  0.59060000  0.63743000  1.0
  C  C75  1  0.12442000  0.09060000  0.86257000  1.0
  C  C76  1  0.12442000  0.40940000  0.36257000  1.0
  C  C77  1  0.87558000  0.90940000  0.13743000  1.0
  C  C78  1  0.82900000  0.49942000  0.61438000  1.0
  C  C79  1  0.17101000  0.99942000  0.88562000  1.0
  C  C80  1  0.17100000  0.50057000  0.38562000  1.0
  C  C81  1  0.82899000  0.00058000  0.11438000  1.0
  C  C82  1  0.71974000  0.37797000  0.50596000  1.0
  C  C83  1  0.28026000  0.87797000  0.99404000  1.0
  C  C84  1  0.28026000  0.62203000  0.49404000  1.0
  C  C85  1  0.71974000  0.12204000  0.00596000  1.0
  C  C86  1  0.67070000  0.52282000  0.37429000  1.0
  C  C87  1  0.32930000  0.02282000  0.12571000  1.0
  C  C88  1  0.32930000  0.47718000  0.62571000  1.0
  C  C89  1  0.67070000  0.97718000  0.87429000  1.0
  C  C90  1  0.74038000  0.54559000  0.46536000  1.0
  C  C91  1  0.25961000  0.04559000  0.03464000  1.0
  C  C92  1  0.25962000  0.45441000  0.53464000  1.0
  C  C93  1  0.74039000  0.95441000  0.96536000  1.0
  C  C94  1  0.76253000  0.47592000  0.52874000  1.0
  C  C95  1  0.23747000  0.97592000  0.97127000  1.0
  C  C96  1  0.23747000  0.52408000  0.47126000  1.0
  C  C97  1  0.76253000  0.02408000  0.02874000  1.0
  C  C98  1  0.64924000  0.35573000  0.41449000  1.0
  C  C99  1  0.35077000  0.85573000  0.08551000  1.0
  C  C100  1  0.35076000  0.64427000  0.58551000  1.0
  C  C101  1  0.64923000  0.14427000  0.91449000  1.0
  C  C102  1  0.61086000  0.42649000  0.35227000  1.0
  C  C103  1  0.38914000  0.92649000  0.14773000  1.0
  C  C104  1  0.38914000  0.57351000  0.64773000  1.0
  C  C105  1  0.61085000  0.07351000  0.85227000  1.0
  C  C106  1  0.46453000  0.47368000  0.19781000  1.0
  C  C107  1  0.53547000  0.97369000  0.30219000  1.0
  C  C108  1  0.53546000  0.52632000  0.80219000  1.0
  C  C109  1  0.46454000  0.02632000  0.69781000  1.0
  C  C110  1  0.66901000  0.18305000  0.44994000  1.0
  C  C111  1  0.33099000  0.68304000  0.05007000  1.0
  C  C112  1  0.33099000  0.81695000  0.55006000  1.0
  C  C113  1  0.66901000  0.31696000  0.94993000  1.0
  O  O114  1  0.66906000  0.58209000  0.31691000  1.0
  O  O115  1  0.33093000  0.08209000  0.18309000  1.0
  O  O116  1  0.33093000  0.41791000  0.68309000  1.0
  O  O117  1  0.66906000  0.91792000  0.81691000  1.0
  O  O118  1  0.73886000  0.31655000  0.56139000  1.0
  O  O119  1  0.26114000  0.81655000  0.93861000  1.0
  O  O120  1  0.26114000  0.68345000  0.43861000  1.0
  O  O121  1  0.73886000  0.18345000  0.06139000  1.0
  O  O122  1  0.85183000  0.15566000  0.45984000  1.0
  O  O123  1  0.14817000  0.65566000  0.04016000  1.0
  O  O124  1  0.14817000  0.84434000  0.54016000  1.0
  O  O125  1  0.85183000  0.34434000  0.95984000  1.0
  O  O126  1  0.52531000  0.14307000  0.47854000  1.0
  O  O127  1  0.47469000  0.64307000  0.02146000  1.0
  O  O128  1  0.47469000  0.85693000  0.52146000  1.0
  O  O129  1  0.52530000  0.35693000  0.97854000  1.0
  O  O130  1  0.29694000  0.51308000  0.19641000  1.0
  O  O131  1  0.70306000  0.01309000  0.30358000  1.0
  O  O132  1  0.70305000  0.48691000  0.80359000  1.0
  O  O133  1  0.29694000  0.98692000  0.69641000  1.0
  O  O134  1  0.57963000  0.48058000  0.13971000  1.0
  O  O135  1  0.42037000  0.98058000  0.36029000  1.0
  O  O136  1  0.42037000  0.51942000  0.86029000  1.0
  O  O137  1  0.57963000  0.01942000  0.63971000  1.0
  O  O138  1  0.20256000  0.46249000  0.00199000  1.0
  O  O139  1  0.79744000  0.96249000  0.49801000  1.0
  O  O140  1  0.79744000  0.53751000  0.99801000  1.0
  O  O141  1  0.20256000  0.03751000  0.50199000  1.0
  O  O142  1  0.93801000  0.39706000  0.13111000  1.0
  O  O143  1  0.06199000  0.89706000  0.36889000  1.0
  O  O144  1  0.06198000  0.60294000  0.86889000  1.0
  O  O145  1  0.93801000  0.10294000  0.63111000  1.0
  O  O146  1  0.89326000  0.60573000  0.17242000  1.0
  O  O147  1  0.10674000  0.10573000  0.32758000  1.0
  O  O148  1  0.10674000  0.39427000  0.82758000  1.0
  O  O149  1  0.89326000  0.89427000  0.67242000  1.0
