# generated using pymatgen
data_LaH11C15O8
_symmetry_space_group_name_H-M   'P 1'
_cell_length_a   13.26150000
_cell_length_b   13.92630000
_cell_length_c   15.03670000
_cell_angle_alpha   96.76720000
_cell_angle_beta   90.00680000
_cell_angle_gamma   118.40100000
_symmetry_Int_Tables_number   1
_chemical_formula_structural   LaH11C15O8
_chemical_formula_sum   'La4 H44 C60 O32'
_cell_volume   2420.75115081
_cell_formula_units_Z   4
loop_
 _symmetry_equiv_pos_site_id
 _symmetry_equiv_pos_as_xyz
  1  'x, y, z'
loop_
 _atom_site_type_symbol
 _atom_site_label
 _atom_site_symmetry_multiplicity
 _atom_site_fract_x
 _atom_site_fract_y
 _atom_site_fract_z
 _atom_site_occupancy
  La  La0  1  0.88203000  0.34170000  0.97045000  1.0
  La  La1  1  0.54026000  0.65840000  0.52965000  1.0
  La  La2  1  0.11796000  0.65830000  0.02955000  1.0
  La  La3  1  0.45974000  0.34159000  0.47035000  1.0
  H  H4  1  0.67495000  0.43607000  0.20432000  1.0
  H  H5  1  0.23863000  0.56423000  0.29630000  1.0
  H  H6  1  0.32506000  0.56395000  0.79568000  1.0
  H  H7  1  0.76137000  0.43577000  0.70370000  1.0
  H  H8  1  0.66393000  0.73779000  0.28055000  1.0
  H  H9  1  0.92619000  0.26250000  0.21983000  1.0
  H  H10  1  0.33610000  0.26223000  0.71945000  1.0
  H  H11  1  0.07381000  0.73750000  0.78018000  1.0
  H  H12  1  0.85922000  0.71024000  0.05815000  1.0
  H  H13  1  0.14898000  0.28977000  0.44215000  1.0
  H  H14  1  0.14080000  0.28977000  0.94184000  1.0
  H  H15  1  0.85103000  0.71023000  0.55785000  1.0
  H  H16  1  0.61777000  0.82508000  0.17502000  1.0
  H  H17  1  0.79270000  0.17552000  0.32549000  1.0
  H  H18  1  0.38225000  0.17493000  0.82499000  1.0
  H  H19  1  0.20730000  0.82448000  0.67450000  1.0
  H  H20  1  0.64629000  0.99561000  0.11521000  1.0
  H  H21  1  0.65071000  0.00499000  0.38516000  1.0
  H  H22  1  0.35373000  0.00440000  0.88481000  1.0
  H  H23  1  0.34928000  0.99502000  0.61484000  1.0
  H  H24  1  0.98682000  0.06543000  0.04909000  1.0
  H  H25  1  0.92120000  0.93463000  0.45107000  1.0
  H  H26  1  0.01318000  0.93457000  0.95091000  1.0
  H  H27  1  0.07879000  0.06536000  0.54893000  1.0
  H  H28  1  0.95993000  0.89535000  0.10685000  1.0
  H  H29  1  0.06437000  0.10487000  0.39357000  1.0
  H  H30  1  0.04008000  0.10465000  0.89314000  1.0
  H  H31  1  0.93562000  0.89512000  0.60643000  1.0
  H  H32  1  0.62119000  0.23459000  0.92082000  1.0
  H  H33  1  0.38651000  0.76563000  0.57883000  1.0
  H  H34  1  0.37881000  0.76541000  0.07920000  1.0
  H  H35  1  0.61346000  0.23435000  0.42118000  1.0
  H  H36  1  0.68891000  0.30999000  0.84892000  1.0
  H  H37  1  0.37843000  0.69023000  0.65084000  1.0
  H  H38  1  0.31107000  0.69000000  0.15109000  1.0
  H  H39  1  0.62158000  0.30976000  0.34917000  1.0
  H  H40  1  0.90116000  0.17565000  0.85258000  1.0
  H  H41  1  0.72524000  0.82431000  0.64760000  1.0
  H  H42  1  0.09883000  0.82433000  0.14742000  1.0
  H  H43  1  0.27477000  0.17570000  0.35240000  1.0
  H  H44  1  0.83747000  0.19709000  0.77471000  1.0
  H  H45  1  0.64001000  0.80282000  0.72535000  1.0
  H  H46  1  0.16251000  0.80289000  0.22530000  1.0
  H  H47  1  0.35998000  0.19718000  0.27465000  1.0
  C  C48  1  0.81067000  0.49938000  0.06754000  1.0
  C  C49  1  0.31120000  0.50073000  0.43277000  1.0
  C  C50  1  0.18933000  0.50062000  0.93245000  1.0
  C  C51  1  0.68880000  0.49927000  0.56722000  1.0
  C  C52  1  0.77224000  0.56762000  0.12643000  1.0
  C  C53  1  0.20438000  0.43252000  0.37406000  1.0
  C  C54  1  0.22777000  0.43239000  0.87357000  1.0
  C  C55  1  0.79562000  0.56748000  0.62594000  1.0
  C  C56  1  0.70111000  0.52090000  0.19502000  1.0
  C  C57  1  0.17993000  0.47937000  0.30556000  1.0
  C  C58  1  0.29890000  0.47911000  0.80498000  1.0
  C  C59  1  0.82007000  0.52063000  0.69443000  1.0
  C  C60  1  0.66524000  0.58391000  0.25181000  1.0
  C  C61  1  0.08116000  0.41639000  0.24869000  1.0
  C  C62  1  0.33477000  0.41609000  0.74820000  1.0
  C  C63  1  0.91882000  0.58361000  0.75131000  1.0
  C  C64  1  0.69468000  0.69104000  0.23611000  1.0
  C  C65  1  0.00353000  0.30926000  0.26436000  1.0
  C  C66  1  0.30534000  0.30897000  0.76389000  1.0
  C  C67  1  0.99647000  0.69073000  0.73563000  1.0
  C  C68  1  0.76279000  0.73765000  0.16563000  1.0
  C  C69  1  0.02504000  0.26263000  0.33483000  1.0
  C  C70  1  0.23722000  0.26236000  0.83437000  1.0
  C  C71  1  0.97496000  0.73738000  0.66518000  1.0
  C  C72  1  0.80480000  0.67588000  0.11282000  1.0
  C  C73  1  0.12877000  0.32426000  0.38763000  1.0
  C  C74  1  0.19521000  0.32413000  0.88718000  1.0
  C  C75  1  0.87123000  0.67574000  0.61236000  1.0
  C  C76  1  0.59561000  0.53820000  0.32948000  1.0
  C  C77  1  0.05737000  0.46202000  0.17083000  1.0
  C  C78  1  0.40439000  0.46181000  0.67052000  1.0
  C  C79  1  0.94262000  0.53798000  0.82916000  1.0
  C  C80  1  0.78548000  0.84627000  0.14276000  1.0
  C  C81  1  0.93909000  0.15411000  0.35771000  1.0
  C  C82  1  0.21453000  0.15374000  0.85723000  1.0
  C  C83  1  0.06091000  0.84589000  0.64229000  1.0
  C  C84  1  0.69917000  0.87799000  0.14772000  1.0
  C  C85  1  0.82115000  0.12250000  0.35273000  1.0
  C  C86  1  0.30084000  0.12202000  0.85229000  1.0
  C  C87  1  0.17884000  0.87750000  0.64727000  1.0
  C  C88  1  0.71432000  0.97266000  0.11414000  1.0
  C  C89  1  0.74162000  0.02778000  0.38621000  1.0
  C  C90  1  0.28568000  0.02734000  0.88587000  1.0
  C  C91  1  0.25837000  0.97222000  0.61379000  1.0
  C  C92  1  0.81684000  0.03829000  0.07540000  1.0
  C  C93  1  0.77838000  0.96192000  0.42479000  1.0
  C  C94  1  0.18316000  0.96171000  0.92460000  1.0
  C  C95  1  0.22160000  0.03808000  0.57521000  1.0
  C  C96  1  0.90611000  0.01146000  0.07622000  1.0
  C  C97  1  0.89445000  0.98867000  0.42400000  1.0
  C  C98  1  0.09391000  0.98854000  0.92377000  1.0
  C  C99  1  0.10553000  0.01132000  0.57600000  1.0
  C  C100  1  0.89071000  0.91668000  0.10926000  1.0
  C  C101  1  0.97383000  0.08355000  0.39114000  1.0
  C  C102  1  0.10931000  0.08332000  0.89074000  1.0
  C  C103  1  0.02617000  0.91645000  0.60887000  1.0
  C  C104  1  0.82986000  0.13192000  0.02916000  1.0
  C  C105  1  0.69768000  0.86825000  0.47094000  1.0
  C  C106  1  0.17014000  0.86808000  0.97084000  1.0
  C  C107  1  0.30231000  0.13176000  0.52907000  1.0
  O  O108  1  0.67810000  0.24580000  0.87652000  1.0
  O  O109  1  0.43197000  0.75443000  0.62338000  1.0
  O  O110  1  0.32189000  0.75419000  0.12349000  1.0
  O  O111  1  0.56802000  0.24556000  0.37663000  1.0
  O  O112  1  0.90224000  0.23260000  0.81905000  1.0
  O  O113  1  0.66950000  0.76734000  0.68117000  1.0
  O  O114  1  0.09776000  0.76738000  0.18095000  1.0
  O  O115  1  0.33051000  0.23266000  0.31884000  1.0
  O  O116  1  0.74571000  0.39610000  0.05079000  1.0
  O  O117  1  0.34940000  0.60400000  0.44962000  1.0
  O  O118  1  0.25428000  0.60390000  0.94920000  1.0
  O  O119  1  0.65059000  0.39599000  0.55038000  1.0
  O  O120  1  0.91019000  0.54689000  0.03515000  1.0
  O  O121  1  0.36345000  0.45320000  0.46481000  1.0
  O  O122  1  0.08981000  0.45310000  0.96484000  1.0
  O  O123  1  0.63656000  0.54680000  0.53518000  1.0
  O  O124  1  0.56991000  0.44058000  0.34330000  1.0
  O  O125  1  0.12922000  0.55961000  0.15693000  1.0
  O  O126  1  0.43011000  0.55944000  0.65671000  1.0
  O  O127  1  0.87078000  0.44039000  0.84306000  1.0
  O  O128  1  0.56612000  0.60095000  0.37780000  1.0
  O  O129  1  0.96533000  0.39914000  0.12236000  1.0
  O  O130  1  0.43387000  0.39905000  0.62219000  1.0
  O  O131  1  0.03466000  0.60085000  0.87763000  1.0
  O  O132  1  0.75485000  0.16466000  0.03499000  1.0
  O  O133  1  0.58998000  0.83548000  0.46494000  1.0
  O  O134  1  0.24513000  0.83534000  0.96501000  1.0
  O  O135  1  0.41001000  0.16452000  0.53506000  1.0
  O  O136  1  0.91842000  0.17841000  0.98243000  1.0
  O  O137  1  0.73971000  0.82173000  0.51772000  1.0
  O  O138  1  0.08159000  0.82159000  0.01756000  1.0
  O  O139  1  0.26028000  0.17826000  0.48227000  1.0
