# generated using pymatgen
data_La2Ni3H30C24(NO4)6
_symmetry_space_group_name_H-M   'P 1'
_cell_length_a   7.46910000
_cell_length_b   13.34820000
_cell_length_c   13.34800000
_cell_angle_alpha   59.99851305
_cell_angle_beta   89.99809997
_cell_angle_gamma   89.99820000
_symmetry_Int_Tables_number   1
_chemical_formula_structural   La2Ni3H30C24(NO4)6
_chemical_formula_sum   'La2 Ni3 H30 C24 N6 O24'
_cell_volume   1152.47443751
_cell_formula_units_Z   1
loop_
 _symmetry_equiv_pos_site_id
 _symmetry_equiv_pos_as_xyz
  1  'x, y, z'
loop_
 _atom_site_type_symbol
 _atom_site_label
 _atom_site_symmetry_multiplicity
 _atom_site_fract_x
 _atom_site_fract_y
 _atom_site_fract_z
 _atom_site_occupancy
  La  La0  1  0.66168000  0.33333333  0.33333333  1.0
  La  La1  1  0.33832000  0.66666667  0.66666667  1.0
  Ni  Ni2  1  0.00000000  0.50000000  0.00000000  1.0
  Ni  Ni3  1  0.00000000  0.50000000  0.50000000  1.0
  Ni  Ni4  1  0.00000000  0.00000000  0.50000000  1.0
  H  H5  1  0.29309000  0.55900000  0.17967000  1.0
  H  H6  1  0.29311000  0.26132000  0.55902000  1.0
  H  H7  1  0.29310000  0.17966000  0.26132000  1.0
  H  H8  1  0.70692000  0.44100000  0.82033000  1.0
  H  H9  1  0.70689000  0.73868000  0.44098000  1.0
  H  H10  1  0.70689000  0.82035000  0.73868000  1.0
  H  H11  1  0.40766000  0.61215000  0.04648000  1.0
  H  H12  1  0.40764000  0.34137000  0.61215000  1.0
  H  H13  1  0.40764000  0.04646000  0.34139000  1.0
  H  H14  1  0.59234000  0.38785000  0.95351000  1.0
  H  H15  1  0.59236000  0.65864000  0.38784000  1.0
  H  H16  1  0.59236000  0.95354000  0.65861000  1.0
  H  H17  1  0.15810000  0.68272000  0.95049000  1.0
  H  H18  1  0.15808000  0.36677000  0.68273000  1.0
  H  H19  1  0.15808000  0.95049000  0.36679000  1.0
  H  H20  1  0.84189000  0.31728000  0.04951000  1.0
  H  H21  1  0.84192000  0.63323000  0.31727000  1.0
  H  H22  1  0.84192000  0.04951000  0.63321000  1.0
  H  H23  1  0.91171000  0.72016000  0.02617000  1.0
  H  H24  1  0.91169000  0.25367000  0.72016000  1.0
  H  H25  1  0.91172000  0.02618000  0.25364000  1.0
  H  H26  1  0.08828000  0.27984000  0.97383000  1.0
  H  H27  1  0.08831000  0.74634000  0.27983000  1.0
  H  H28  1  0.08828000  0.97382000  0.74636000  1.0
  H  H29  1  0.06813000  0.68664000  0.13930000  1.0
  H  H30  1  0.06811000  0.17405000  0.68664000  1.0
  H  H31  1  0.06816000  0.13931000  0.17404000  1.0
  H  H32  1  0.93187000  0.31336000  0.86069000  1.0
  H  H33  1  0.93189000  0.82595000  0.31336000  1.0
  H  H34  1  0.93184000  0.86069000  0.82596000  1.0
  C  C35  1  0.31525000  0.43854000  0.11938000  1.0
  C  C36  1  0.31525000  0.44206000  0.43855000  1.0
  C  C37  1  0.31521000  0.11939000  0.44207000  1.0
  C  C38  1  0.68475000  0.56146000  0.88062000  1.0
  C  C39  1  0.68475000  0.55794000  0.56145000  1.0
  C  C40  1  0.68479000  0.88062000  0.55793000  1.0
  C  C41  1  0.29081000  0.56122000  0.09613000  1.0
  C  C42  1  0.29080000  0.34265000  0.56122000  1.0
  C  C43  1  0.29079000  0.09613000  0.34265000  1.0
  C  C44  1  0.70919000  0.43879000  0.90386000  1.0
  C  C45  1  0.70920000  0.65736000  0.43877000  1.0
  C  C46  1  0.70921000  0.90388000  0.65735000  1.0
  C  C47  1  0.99781000  0.65160000  0.09084000  1.0
  C  C48  1  0.99778000  0.25756000  0.65160000  1.0
  C  C49  1  0.99781000  0.09084000  0.25754000  1.0
  C  C50  1  0.00219000  0.34840000  0.90916000  1.0
  C  C51  1  0.00221000  0.74244000  0.34840000  1.0
  C  C52  1  0.00219000  0.90916000  0.74246000  1.0
  C  C53  1  0.87398000  0.55422000  0.17412000  1.0
  C  C54  1  0.87396000  0.27167000  0.55421000  1.0
  C  C55  1  0.87397000  0.17413000  0.27162000  1.0
  C  C56  1  0.12603000  0.44578000  0.82588000  1.0
  C  C57  1  0.12603000  0.72833000  0.44579000  1.0
  C  C58  1  0.12603000  0.82587000  0.72838000  1.0
  N  N59  1  0.12390000  0.61429000  0.03130000  1.0
  N  N60  1  0.12389000  0.35440000  0.61429000  1.0
  N  N61  1  0.12388000  0.03131000  0.35440000  1.0
  N  N62  1  0.87610000  0.38572000  0.96869000  1.0
  N  N63  1  0.87611000  0.64560000  0.38571000  1.0
  N  N64  1  0.87612000  0.96869000  0.64560000  1.0
  O  O65  1  0.44917000  0.38142000  0.17795000  1.0
  O  O66  1  0.44917000  0.44059000  0.38145000  1.0
  O  O67  1  0.44911000  0.17796000  0.44060000  1.0
  O  O68  1  0.55083000  0.61858000  0.82205000  1.0
  O  O69  1  0.55083000  0.55941000  0.61855000  1.0
  O  O70  1  0.55089000  0.82204000  0.55940000  1.0
  O  O71  1  0.20037000  0.39795000  0.07789000  1.0
  O  O72  1  0.20039000  0.52416000  0.39794000  1.0
  O  O73  1  0.20033000  0.07790000  0.52415000  1.0
  O  O74  1  0.79963000  0.60205000  0.92211000  1.0
  O  O75  1  0.79961000  0.47584000  0.60206000  1.0
  O  O76  1  0.79967000  0.92211000  0.47585000  1.0
  O  O77  1  0.88813000  0.45582000  0.17990000  1.0
  O  O78  1  0.88812000  0.36428000  0.45581000  1.0
  O  O79  1  0.88814000  0.17995000  0.36422000  1.0
  O  O80  1  0.11188000  0.54418000  0.82010000  1.0
  O  O81  1  0.11188000  0.63572000  0.54419000  1.0
  O  O82  1  0.11186000  0.82005000  0.63578000  1.0
  O  O83  1  0.76023000  0.57411000  0.23204000  1.0
  O  O84  1  0.76021000  0.19385000  0.57411000  1.0
  O  O85  1  0.76021000  0.23204000  0.19380000  1.0
  O  O86  1  0.23978000  0.42589000  0.76796000  1.0
  O  O87  1  0.23978000  0.80615000  0.42589000  1.0
  O  O88  1  0.23979000  0.76796000  0.80620000  1.0
