# generated using pymatgen
data_LiH4(CO2)2
_symmetry_space_group_name_H-M   'P 1'
_cell_length_a   6.09810000
_cell_length_b   7.29273000
_cell_length_c   8.95746000
_cell_angle_alpha   104.36100000
_cell_angle_beta   90.95890000
_cell_angle_gamma   99.96140000
_symmetry_Int_Tables_number   1
_chemical_formula_structural   LiH4(CO2)2
_chemical_formula_sum   'Li4 H16 C8 O16'
_cell_volume   379.34567265
_cell_formula_units_Z   4
loop_
 _symmetry_equiv_pos_site_id
 _symmetry_equiv_pos_as_xyz
  1  'x, y, z'
loop_
 _atom_site_type_symbol
 _atom_site_label
 _atom_site_symmetry_multiplicity
 _atom_site_fract_x
 _atom_site_fract_y
 _atom_site_fract_z
 _atom_site_occupancy
  Li  Li0  1  0.34954000  0.10656000  0.10448000  1.0
  Li  Li1  1  0.65045000  0.89343000  0.89552000  1.0
  Li  Li2  1  0.65920000  0.49855000  0.27221000  1.0
  Li  Li3  1  0.34080000  0.50145000  0.72779000  1.0
  H  H4  1  0.05103000  0.19590000  0.94496000  1.0
  H  H5  1  0.94897000  0.80410000  0.05504000  1.0
  H  H6  1  0.27899000  0.33797000  0.97955000  1.0
  H  H7  1  0.72101000  0.66203000  0.02045000  1.0
  H  H8  1  0.02327000  0.01223000  0.29863000  1.0
  H  H9  1  0.97673000  0.98777000  0.70137000  1.0
  H  H10  1  0.63698000  0.20491000  0.35170000  1.0
  H  H11  1  0.36302000  0.79509000  0.64830000  1.0
  H  H12  1  0.39922000  0.26751000  0.39278000  1.0
  H  H13  1  0.60078000  0.73249000  0.60722000  1.0
  H  H14  1  0.04458000  0.42700000  0.14937000  1.0
  H  H15  1  0.95542000  0.57300000  0.85063000  1.0
  H  H16  1  0.24499000  0.58526000  0.37313000  1.0
  H  H17  1  0.75501000  0.41474000  0.62687000  1.0
  H  H18  1  0.35328000  0.91793000  0.37286000  1.0
  H  H19  1  0.64672000  0.08207000  0.62715000  1.0
  C  C20  1  0.11712000  0.65571000  0.33345000  1.0
  C  C21  1  0.88288000  0.34429000  0.66655000  1.0
  C  C22  1  0.24368000  0.82315000  0.27438000  1.0
  C  C23  1  0.75632000  0.17685000  0.72562000  1.0
  C  C24  1  0.39754000  0.75468000  0.14581000  1.0
  C  C25  1  0.60245000  0.24532000  0.85419000  1.0
  C  C26  1  0.99339000  0.73576000  0.47602000  1.0
  C  C27  1  0.00661000  0.26424000  0.52398000  1.0
  O  O28  1  0.16129000  0.26960000  0.03261000  1.0
  O  O29  1  0.83871000  0.73040000  0.96739000  1.0
  O  O30  1  0.10430000  0.93086000  0.21599000  1.0
  O  O31  1  0.89570000  0.06914000  0.78401000  1.0
  O  O32  1  0.51147000  0.25460000  0.31197000  1.0
  O  O33  1  0.48852000  0.74540000  0.68803000  1.0
  O  O34  1  0.51109000  0.62989000  0.16037000  1.0
  O  O35  1  0.48891000  0.37011000  0.83963000  1.0
  O  O36  1  0.96558000  0.52225000  0.21994000  1.0
  O  O37  1  0.03442000  0.47775000  0.78006000  1.0
  O  O38  1  0.11284000  0.85237000  0.58999000  1.0
  O  O39  1  0.88716000  0.14763000  0.41001000  1.0
  O  O40  1  0.40539000  0.83454000  0.03495000  1.0
  O  O41  1  0.59460000  0.16545000  0.96505000  1.0
  O  O42  1  0.78325000  0.68354000  0.47047000  1.0
  O  O43  1  0.21675000  0.31646000  0.52954000  1.0
