# generated using pymatgen
data_CoH16C22N4(ClO2)2
_symmetry_space_group_name_H-M   'P 1'
_cell_length_a   9.05316000
_cell_length_b   9.39412000
_cell_length_c   13.80750000
_cell_angle_alpha   85.82190000
_cell_angle_beta   83.66650000
_cell_angle_gamma   65.19860000
_symmetry_Int_Tables_number   1
_chemical_formula_structural   CoH16C22N4(ClO2)2
_chemical_formula_sum   'Co2 H32 C44 N8 Cl4 O8'
_cell_volume   1059.00615582
_cell_formula_units_Z   2
loop_
 _symmetry_equiv_pos_site_id
 _symmetry_equiv_pos_as_xyz
  1  'x, y, z'
loop_
 _atom_site_type_symbol
 _atom_site_label
 _atom_site_symmetry_multiplicity
 _atom_site_fract_x
 _atom_site_fract_y
 _atom_site_fract_z
 _atom_site_occupancy
  Co  Co0  1  0.26856000  0.23457000  0.09135000  1.0
  Co  Co1  1  0.73144000  0.76543000  0.90865000  1.0
  H  H2  1  0.96966000  0.31729000  0.81618000  1.0
  H  H3  1  0.03034000  0.68271000  0.18382000  1.0
  H  H4  1  0.44287000  0.97429000  0.60042000  1.0
  H  H5  1  0.55712000  0.02571000  0.39958000  1.0
  H  H6  1  0.41603000  0.44278000  0.19960000  1.0
  H  H7  1  0.58397000  0.55722000  0.80041000  1.0
  H  H8  1  0.31127000  0.85439000  0.46449000  1.0
  H  H9  1  0.68873000  0.14561000  0.53551000  1.0
  H  H10  1  0.07104000  0.41017000  0.27527000  1.0
  H  H11  1  0.92897000  0.58983000  0.72472000  1.0
  H  H12  1  0.99845000  0.07666000  0.12046000  1.0
  H  H13  1  0.00155000  0.92334000  0.87954000  1.0
  H  H14  1  0.21768000  0.79204000  0.98029000  1.0
  H  H15  1  0.78232000  0.20796000  0.01971000  1.0
  H  H16  1  0.32173000  0.86787000  0.12004000  1.0
  H  H17  1  0.67827000  0.13213000  0.87996000  1.0
  H  H18  1  0.52034000  0.72892000  0.08416000  1.0
  H  H19  1  0.47966000  0.27108000  0.91584000  1.0
  H  H20  1  0.13898000  0.53745000  0.95785000  1.0
  H  H21  1  0.86102000  0.46254000  0.04215000  1.0
  H  H22  1  0.23630000  0.91069000  0.29355000  1.0
  H  H23  1  0.76370000  0.08931000  0.70645000  1.0
  H  H24  1  0.67527000  0.51488000  0.19996000  1.0
  H  H25  1  0.32473000  0.48512000  0.80004000  1.0
  H  H26  1  0.56338000  0.62345000  0.50455000  1.0
  H  H27  1  0.43662000  0.37655000  0.49545000  1.0
  H  H28  1  0.75868000  0.17777000  0.27671000  1.0
  H  H29  1  0.24132000  0.82223000  0.72329000  1.0
  H  H30  1  0.86628000  0.45154000  0.41816000  1.0
  H  H31  1  0.13372000  0.54846000  0.58184000  1.0
  H  H32  1  0.75611000  0.33462000  0.43558000  1.0
  H  H33  1  0.24389000  0.66538000  0.56441000  1.0
  C  C34  1  0.06642000  0.25683000  0.66830000  1.0
  C  C35  1  0.93357000  0.74317000  0.33171000  1.0
  C  C36  1  0.21346000  0.12504000  0.91948000  1.0
  C  C37  1  0.78654000  0.87497000  0.08052000  1.0
  C  C38  1  0.20035000  0.16172000  0.60634000  1.0
  C  C39  1  0.79964000  0.83828000  0.39366000  1.0
  C  C40  1  0.34634000  0.03479000  0.74805000  1.0
  C  C41  1  0.65366000  0.96521000  0.25195000  1.0
  C  C42  1  0.07387000  0.24194000  0.76910000  1.0
  C  C43  1  0.92612000  0.75806000  0.23091000  1.0
  C  C44  1  0.21371000  0.13301000  0.80978000  1.0
  C  C45  1  0.78629000  0.86700000  0.19022000  1.0
  C  C46  1  0.33785000  0.04996000  0.64700000  1.0
  C  C47  1  0.66215000  0.95005000  0.35300000  1.0
  C  C48  1  0.49952000  0.91217000  0.78580000  1.0
  C  C49  1  0.50048000  0.08783000  0.21420000  1.0
  C  C50  1  0.35299000  0.50168000  0.13627000  1.0
  C  C51  1  0.64701000  0.49832000  0.86373000  1.0
  C  C52  1  0.38945000  0.77701000  0.40700000  1.0
  C  C53  1  0.61055000  0.22299000  0.59300000  1.0
  C  C54  1  0.01862000  0.33487000  0.25247000  1.0
  C  C55  1  0.98138000  0.66513000  0.74753000  1.0
  C  C56  1  0.97805000  0.16015000  0.17619000  1.0
  C  C57  1  0.02195000  0.83985000  0.82381000  1.0
  C  C58  1  0.44986000  0.71415000  0.23627000  1.0
  C  C59  1  0.55014000  0.28585000  0.76373000  1.0
  C  C60  1  0.24681000  0.68090000  0.02001000  1.0
  C  C61  1  0.75319000  0.31910000  0.97999000  1.0
  C  C62  1  0.40926000  0.74644000  0.13197000  1.0
  C  C63  1  0.59074000  0.25356000  0.86803000  1.0
  C  C64  1  0.63494000  0.55121000  0.35506000  1.0
  C  C65  1  0.36507000  0.44879000  0.64494000  1.0
  C  C66  1  0.20910000  0.55583000  0.01045000  1.0
  C  C67  1  0.79090000  0.44416000  0.98955000  1.0
  C  C68  1  0.34766000  0.80970000  0.31088000  1.0
  C  C69  1  0.65233000  0.19030000  0.68912000  1.0
  C  C70  1  0.59431000  0.58654000  0.25905000  1.0
  C  C71  1  0.40569000  0.41346000  0.74095000  1.0
  C  C72  1  0.53128000  0.64803000  0.42936000  1.0
  C  C73  1  0.46872000  0.35197000  0.57064000  1.0
  C  C74  1  0.85923000  0.20940000  0.25270000  1.0
  C  C75  1  0.14077000  0.79060000  0.74730000  1.0
  C  C76  1  0.78801000  0.41229000  0.38232000  1.0
  C  C77  1  0.21200000  0.58771000  0.61768000  1.0
  N  N78  1  0.07653000  0.24001000  0.17703000  1.0
  N  N79  1  0.92347000  0.75999000  0.82297000  1.0
  N  N80  1  0.88714000  0.31940000  0.30027000  1.0
  N  N81  1  0.11286000  0.68060000  0.69973000  1.0
  N  N82  1  0.27602000  0.44446000  0.08329000  1.0
  N  N83  1  0.72398000  0.55554000  0.91671000  1.0
  N  N84  1  0.33736000  0.64483000  0.09977000  1.0
  N  N85  1  0.66264000  0.35517000  0.90023000  1.0
  Cl  Cl86  1  0.89263000  0.39659000  0.62173000  1.0
  Cl  Cl87  1  0.10737000  0.60341000  0.37827000  1.0
  Cl  Cl88  1  0.20077000  0.18543000  0.48104000  1.0
  Cl  Cl89  1  0.79922000  0.81457000  0.51896000  1.0
  O  O90  1  0.52954000  0.93466000  0.87174000  1.0
  O  O91  1  0.47046000  0.06534000  0.12826000  1.0
  O  O92  1  0.58956000  0.79699000  0.73481000  1.0
  O  O93  1  0.41044000  0.20301000  0.26519000  1.0
  O  O94  1  0.18113000  0.02374000  0.96870000  1.0
  O  O95  1  0.81887000  0.97627000  0.03130000  1.0
  O  O96  1  0.23989000  0.23635000  0.95350000  1.0
  O  O97  1  0.76011000  0.76365000  0.04650000  1.0
