# generated using pymatgen
data_ZnH14C20(N2O3)2
_symmetry_space_group_name_H-M   'P 1'
_cell_length_a   10.43300000
_cell_length_b   13.24040000
_cell_length_c   19.34900000
_cell_angle_alpha   89.99990000
_cell_angle_beta   89.99780000
_cell_angle_gamma   70.90700000
_symmetry_Int_Tables_number   1
_chemical_formula_structural   ZnH14C20(N2O3)2
_chemical_formula_sum   'Zn4 H56 C80 N16 O24'
_cell_volume   2525.78009489
_cell_formula_units_Z   4
loop_
 _symmetry_equiv_pos_site_id
 _symmetry_equiv_pos_as_xyz
  1  'x, y, z'
loop_
 _atom_site_type_symbol
 _atom_site_label
 _atom_site_symmetry_multiplicity
 _atom_site_fract_x
 _atom_site_fract_y
 _atom_site_fract_z
 _atom_site_occupancy
  Zn  Zn0  1  0.07289000  0.32529000  0.59764000  1.0
  Zn  Zn1  1  0.92708000  0.17472000  0.09763000  1.0
  Zn  Zn2  1  0.92711000  0.67471000  0.40237000  1.0
  Zn  Zn3  1  0.07289000  0.82529000  0.90237000  1.0
  H  H4  1  0.15385000  0.93120000  0.65016000  1.0
  H  H5  1  0.84618000  0.56880000  0.15016000  1.0
  H  H6  1  0.84611000  0.06880000  0.34983000  1.0
  H  H7  1  0.15388000  0.43120000  0.84983000  1.0
  H  H8  1  0.44454000  0.44995000  0.28162000  1.0
  H  H9  1  0.55549000  0.04997000  0.78161000  1.0
  H  H10  1  0.55548000  0.54999000  0.71838000  1.0
  H  H11  1  0.44448000  0.95002000  0.21838000  1.0
  H  H12  1  0.56974000  0.30188000  0.62836000  1.0
  H  H13  1  0.43024000  0.19812000  0.12835000  1.0
  H  H14  1  0.43027000  0.69812000  0.37165000  1.0
  H  H15  1  0.56975000  0.80188000  0.87165000  1.0
  H  H16  1  0.34324000  0.38431000  0.43968000  1.0
  H  H17  1  0.65678000  0.11566000  0.93967000  1.0
  H  H18  1  0.65677000  0.61567000  0.56033000  1.0
  H  H19  1  0.34321000  0.88434000  0.06033000  1.0
  H  H20  1  0.75537000  0.38938000  0.44988000  1.0
  H  H21  1  0.24464000  0.11061000  0.94987000  1.0
  H  H22  1  0.24463000  0.61062000  0.55012000  1.0
  H  H23  1  0.75535000  0.88939000  0.05013000  1.0
  H  H24  1  0.22213000  0.95477000  0.81044000  1.0
  H  H25  1  0.77789000  0.54522000  0.31045000  1.0
  H  H26  1  0.77785000  0.04523000  0.18955000  1.0
  H  H27  1  0.22212000  0.45479000  0.68955000  1.0
  H  H28  1  0.82231000  0.94521000  0.80272000  1.0
  H  H29  1  0.17769000  0.55482000  0.30270000  1.0
  H  H30  1  0.17766000  0.05480000  0.19727000  1.0
  H  H31  1  0.82231000  0.44519000  0.69730000  1.0
  H  H32  1  0.83844000  0.11835000  0.72185000  1.0
  H  H33  1  0.16157000  0.38168000  0.22183000  1.0
  H  H34  1  0.16155000  0.88166000  0.27814000  1.0
  H  H35  1  0.83843000  0.61833000  0.77817000  1.0
  H  H36  1  0.19795000  0.12517000  0.74543000  1.0
  H  H37  1  0.80207000  0.37483000  0.24544000  1.0
  H  H38  1  0.80204000  0.87483000  0.25457000  1.0
  H  H39  1  0.19793000  0.62518000  0.75456000  1.0
  H  H40  1  0.03167000  0.20991000  0.72153000  1.0
  H  H41  1  0.96836000  0.29010000  0.22152000  1.0
  H  H42  1  0.96833000  0.79009000  0.27847000  1.0
  H  H43  1  0.03164000  0.70991000  0.77848000  1.0
  H  H44  1  0.20088000  0.83572000  0.51257000  1.0
  H  H45  1  0.79912000  0.66429000  0.01257000  1.0
  H  H46  1  0.79907000  0.16429000  0.48743000  1.0
  H  H47  1  0.20096000  0.33570000  0.98742000  1.0
  H  H48  1  0.21157000  0.89015000  0.39092000  1.0
  H  H49  1  0.78840000  0.60986000  0.89093000  1.0
  H  H50  1  0.78839000  0.10985000  0.60907000  1.0
  H  H51  1  0.21167000  0.39014000  0.10907000  1.0
  H  H52  1  0.18189000  0.07911000  0.36022000  1.0
  H  H53  1  0.81807000  0.42090000  0.86022000  1.0
  H  H54  1  0.81812000  0.92088000  0.63978000  1.0
  H  H55  1  0.18195000  0.57910000  0.13978000  1.0
  H  H56  1  0.14296000  0.21945000  0.45242000  1.0
  H  H57  1  0.85700000  0.28056000  0.95243000  1.0
  H  H58  1  0.85708000  0.78054000  0.54757000  1.0
  H  H59  1  0.14297000  0.71945000  0.04758000  1.0
  C  C60  1  0.80513000  0.32862000  0.58348000  1.0
  C  C61  1  0.19485000  0.17139000  0.08346000  1.0
  C  C62  1  0.19488000  0.67138000  0.41653000  1.0
  C  C63  1  0.80513000  0.82862000  0.91654000  1.0
  C  C64  1  0.32414000  0.32766000  0.57358000  1.0
  C  C65  1  0.67586000  0.17233000  0.07357000  1.0
  C  C66  1  0.67589000  0.67233000  0.42643000  1.0
  C  C67  1  0.32413000  0.82767000  0.92642000  1.0
  C  C68  1  0.55112000  0.41581000  0.36195000  1.0
  C  C69  1  0.44889000  0.08416000  0.86194000  1.0
  C  C70  1  0.44888000  0.58418000  0.63806000  1.0
  C  C71  1  0.55108000  0.91583000  0.13806000  1.0
  C  C72  1  0.67638000  0.34416000  0.54335000  1.0
  C  C73  1  0.32361000  0.15584000  0.04333000  1.0
  C  C74  1  0.32363000  0.65584000  0.45667000  1.0
  C  C75  1  0.67637000  0.84416000  0.95667000  1.0
  C  C76  1  0.56469000  0.32640000  0.57443000  1.0
  C  C77  1  0.43530000  0.17359000  0.07441000  1.0
  C  C78  1  0.43533000  0.67360000  0.42559000  1.0
  C  C79  1  0.56469000  0.82640000  0.92558000  1.0
  C  C80  1  0.44474000  0.34158000  0.53729000  1.0
  C  C81  1  0.55526000  0.15840000  0.03728000  1.0
  C  C82  1  0.55528000  0.65841000  0.46272000  1.0
  C  C83  1  0.44473000  0.84159000  0.96272000  1.0
  C  C84  1  0.43756000  0.37178000  0.46776000  1.0
  C  C85  1  0.56245000  0.12819000  0.96775000  1.0
  C  C86  1  0.56245000  0.62821000  0.53226000  1.0
  C  C87  1  0.43753000  0.87180000  0.03225000  1.0
  C  C88  1  0.55072000  0.38674000  0.43574000  1.0
  C  C89  1  0.44930000  0.11324000  0.93573000  1.0
  C  C90  1  0.44929000  0.61326000  0.56427000  1.0
  C  C91  1  0.55069000  0.88675000  0.06427000  1.0
  C  C92  1  0.66881000  0.37474000  0.47397000  1.0
  C  C93  1  0.33120000  0.12525000  0.97396000  1.0
  C  C94  1  0.33120000  0.62526000  0.52604000  1.0
  C  C95  1  0.66879000  0.87474000  0.02604000  1.0
  C  C96  1  0.11582000  0.97384000  0.79714000  1.0
  C  C97  1  0.88419000  0.52617000  0.29715000  1.0
  C  C98  1  0.88416000  0.02617000  0.20285000  1.0
  C  C99  1  0.11581000  0.47384000  0.70286000  1.0
  C  C100  1  0.90650000  0.97345000  0.79139000  1.0
  C  C101  1  0.09350000  0.52657000  0.29137000  1.0
  C  C102  1  0.09348000  0.02656000  0.20860000  1.0
  C  C103  1  0.90650000  0.47344000  0.70863000  1.0
  C  C104  1  0.91272000  0.05781000  0.75196000  1.0
  C  C105  1  0.08730000  0.44221000  0.25194000  1.0
  C  C106  1  0.08727000  0.94220000  0.24803000  1.0
  C  C107  1  0.91271000  0.55781000  0.74806000  1.0
  C  C108  1  0.10299000  0.12786000  0.71953000  1.0
  C  C109  1  0.89703000  0.37214000  0.21953000  1.0
  C  C110  1  0.89700000  0.87214000  0.28047000  1.0
  C  C111  1  0.10297000  0.62787000  0.78047000  1.0
  C  C112  1  0.12713000  0.09662000  0.64531000  1.0
  C  C113  1  0.87288000  0.40339000  0.14532000  1.0
  C  C114  1  0.87287000  0.90338000  0.35468000  1.0
  C  C115  1  0.12713000  0.59662000  0.85469000  1.0
  C  C116  1  0.16656000  0.99716000  0.54987000  1.0
  C  C117  1  0.83344000  0.50285000  0.04987000  1.0
  C  C118  1  0.83343000  0.00284000  0.45013000  1.0
  C  C119  1  0.16659000  0.49716000  0.95013000  1.0
  C  C120  1  0.18861000  0.91823000  0.49955000  1.0
  C  C121  1  0.81139000  0.58177000  0.99955000  1.0
  C  C122  1  0.81137000  0.08177000  0.50045000  1.0
  C  C123  1  0.18866000  0.41823000  0.00045000  1.0
  C  C124  1  0.19433000  0.95036000  0.43139000  1.0
  C  C125  1  0.80564000  0.54964000  0.93140000  1.0
  C  C126  1  0.80564000  0.04964000  0.56860000  1.0
  C  C127  1  0.19441000  0.45035000  0.06860000  1.0
  C  C128  1  0.17752000  0.05754000  0.41439000  1.0
  C  C129  1  0.82244000  0.44247000  0.91440000  1.0
  C  C130  1  0.82248000  0.94246000  0.58560000  1.0
  C  C131  1  0.17758000  0.55753000  0.08560000  1.0
  C  C132  1  0.15525000  0.13654000  0.46490000  1.0
  C  C133  1  0.84472000  0.36347000  0.96490000  1.0
  C  C134  1  0.84477000  0.86346000  0.53510000  1.0
  C  C135  1  0.15528000  0.63653000  0.03510000  1.0
  C  C136  1  0.15005000  0.10477000  0.53350000  1.0
  C  C137  1  0.84993000  0.39524000  0.03350000  1.0
  C  C138  1  0.84995000  0.89523000  0.46650000  1.0
  C  C139  1  0.15006000  0.60477000  0.96650000  1.0
  N  N140  1  0.12550000  0.16392000  0.59453000  1.0
  N  N141  1  0.87449000  0.33609000  0.09453000  1.0
  N  N142  1  0.87451000  0.83608000  0.40547000  1.0
  N  N143  1  0.12550000  0.66392000  0.90547000  1.0
  N  N144  1  0.15288000  0.99520000  0.62114000  1.0
  N  N145  1  0.84714000  0.50480000  0.12114000  1.0
  N  N146  1  0.84711000  0.00480000  0.37886000  1.0
  N  N147  1  0.15289000  0.49520000  0.87885000  1.0
  N  N148  1  0.04569000  0.05699000  0.75648000  1.0
  N  N149  1  0.95433000  0.44302000  0.25647000  1.0
  N  N150  1  0.95430000  0.94302000  0.24352000  1.0
  N  N151  1  0.04567000  0.55699000  0.74353000  1.0
  N  N152  1  0.03355000  0.92186000  0.81907000  1.0
  N  N153  1  0.96646000  0.57814000  0.31907000  1.0
  N  N154  1  0.96643000  0.07814000  0.18092000  1.0
  N  N155  1  0.03354000  0.42186000  0.68094000  1.0
  O  O156  1  0.89366000  0.36114000  0.55177000  1.0
  O  O157  1  0.10633000  0.13887000  0.05176000  1.0
  O  O158  1  0.10635000  0.63887000  0.44824000  1.0
  O  O159  1  0.89365000  0.86115000  0.94824000  1.0
  O  O160  1  0.81954000  0.28642000  0.64246000  1.0
  O  O161  1  0.18044000  0.21360000  0.14244000  1.0
  O  O162  1  0.18048000  0.71359000  0.35755000  1.0
  O  O163  1  0.81955000  0.78641000  0.85756000  1.0
  O  O164  1  0.33534000  0.29438000  0.63474000  1.0
  O  O165  1  0.66464000  0.20561000  0.13473000  1.0
  O  O166  1  0.66468000  0.70562000  0.36528000  1.0
  O  O167  1  0.33535000  0.79438000  0.86527000  1.0
  O  O168  1  0.21208000  0.35397000  0.53822000  1.0
  O  O169  1  0.78792000  0.14604000  0.03820000  1.0
  O  O170  1  0.78794000  0.64602000  0.46180000  1.0
  O  O171  1  0.21206000  0.85398000  0.96179000  1.0
  O  O172  1  0.65010000  0.42356000  0.33060000  1.0
  O  O173  1  0.34992000  0.07641000  0.83059000  1.0
  O  O174  1  0.34989000  0.57644000  0.66941000  1.0
  O  O175  1  0.65006000  0.92359000  0.16941000  1.0
  O  O176  1  0.42991000  0.43303000  0.32966000  1.0
  O  O177  1  0.57012000  0.06691000  0.82966000  1.0
  O  O178  1  0.57010000  0.56692000  0.67034000  1.0
  O  O179  1  0.42986000  0.93307000  0.17034000  1.0
