# generated using pymatgen
data_ZnH20C18(NO2)2
_symmetry_space_group_name_H-M   'P 1'
_cell_length_a   10.23190000
_cell_length_b   11.56290000
_cell_length_c   17.17570000
_cell_angle_alpha   90.00000000
_cell_angle_beta   90.00040000
_cell_angle_gamma   89.99960000
_symmetry_Int_Tables_number   1
_chemical_formula_structural   ZnH20C18(NO2)2
_chemical_formula_sum   'Zn4 H80 C72 N8 O16'
_cell_volume   2032.06456427
_cell_formula_units_Z   4
loop_
 _symmetry_equiv_pos_site_id
 _symmetry_equiv_pos_as_xyz
  1  'x, y, z'
loop_
 _atom_site_type_symbol
 _atom_site_label
 _atom_site_symmetry_multiplicity
 _atom_site_fract_x
 _atom_site_fract_y
 _atom_site_fract_z
 _atom_site_occupancy
  Zn  Zn0  1  0.09256000  0.75000000  0.24999000  1.0
  Zn  Zn1  1  0.40743000  0.75000000  0.75000000  1.0
  Zn  Zn2  1  0.90742000  0.24999000  0.75000000  1.0
  Zn  Zn3  1  0.59257000  0.25000000  0.25000000  1.0
  H  H4  1  0.93254000  0.05051000  0.37106000  1.0
  H  H5  1  0.56749000  0.05050000  0.62894000  1.0
  H  H6  1  0.56745000  0.44949000  0.87106000  1.0
  H  H7  1  0.93252000  0.44950000  0.12893000  1.0
  H  H8  1  0.06746000  0.94950000  0.62894000  1.0
  H  H9  1  0.43254000  0.94948000  0.37106000  1.0
  H  H10  1  0.43251000  0.55051000  0.12894000  1.0
  H  H11  1  0.06748000  0.55049000  0.87106000  1.0
  H  H12  1  0.79331000  0.96694000  0.39504000  1.0
  H  H13  1  0.70672000  0.96693000  0.60497000  1.0
  H  H14  1  0.70668000  0.53306000  0.89503000  1.0
  H  H15  1  0.79330000  0.53307000  0.10496000  1.0
  H  H16  1  0.20670000  0.03306000  0.60497000  1.0
  H  H17  1  0.29332000  0.03305000  0.39504000  1.0
  H  H18  1  0.29329000  0.46694000  0.10496000  1.0
  H  H19  1  0.20670000  0.46692000  0.89504000  1.0
  H  H20  1  0.86922000  0.06112000  0.51424000  1.0
  H  H21  1  0.63079000  0.06111000  0.48576000  1.0
  H  H22  1  0.63079000  0.43887000  0.01424000  1.0
  H  H23  1  0.86921000  0.43887000  0.98576000  1.0
  H  H24  1  0.13079000  0.93888000  0.48576000  1.0
  H  H25  1  0.36922000  0.93887000  0.51424000  1.0
  H  H26  1  0.36922000  0.56111000  0.98576000  1.0
  H  H27  1  0.13078000  0.56112000  0.01423000  1.0
  H  H28  1  0.89550000  0.91015000  0.52184000  1.0
  H  H29  1  0.60452000  0.91014000  0.47816000  1.0
  H  H30  1  0.60450000  0.58984000  0.02184000  1.0
  H  H31  1  0.89549000  0.58984000  0.97815000  1.0
  H  H32  1  0.10451000  0.08985000  0.47816000  1.0
  H  H33  1  0.39551000  0.08984000  0.52184000  1.0
  H  H34  1  0.39548000  0.41014000  0.97816000  1.0
  H  H35  1  0.10451000  0.41014000  0.02184000  1.0
  H  H36  1  0.24921000  0.81615000  0.38832000  1.0
  H  H37  1  0.25079000  0.81615000  0.61168000  1.0
  H  H38  1  0.25078000  0.68384000  0.88831000  1.0
  H  H39  1  0.24922000  0.68386000  0.11169000  1.0
  H  H40  1  0.75078000  0.18385000  0.61168000  1.0
  H  H41  1  0.74922000  0.18385000  0.38832000  1.0
  H  H42  1  0.74922000  0.31615000  0.11168000  1.0
  H  H43  1  0.75078000  0.31615000  0.88831000  1.0
  H  H44  1  0.43015000  0.73191000  0.46953000  1.0
  H  H45  1  0.06984000  0.73192000  0.53047000  1.0
  H  H46  1  0.06985000  0.76808000  0.96953000  1.0
  H  H47  1  0.43016000  0.76809000  0.03047000  1.0
  H  H48  1  0.56983000  0.26809000  0.53047000  1.0
  H  H49  1  0.93017000  0.26809000  0.46953000  1.0
  H  H50  1  0.93016000  0.23192000  0.03047000  1.0
  H  H51  1  0.56984000  0.23192000  0.96952000  1.0
  H  H52  1  0.38597000  0.41561000  0.33864000  1.0
  H  H53  1  0.11404000  0.41562000  0.66135000  1.0
  H  H54  1  0.11404000  0.08439000  0.83865000  1.0
  H  H55  1  0.38597000  0.08440000  0.16136000  1.0
  H  H56  1  0.61404000  0.58440000  0.66135000  1.0
  H  H57  1  0.88596000  0.58439000  0.33865000  1.0
  H  H58  1  0.88596000  0.91560000  0.16135000  1.0
  H  H59  1  0.61404000  0.91561000  0.83866000  1.0
  H  H60  1  0.20949000  0.51431000  0.26090000  1.0
  H  H61  1  0.29052000  0.51431000  0.73909000  1.0
  H  H62  1  0.29051000  0.98569000  0.76091000  1.0
  H  H63  1  0.20948000  0.98570000  0.23909000  1.0
  H  H64  1  0.79051000  0.48569000  0.73909000  1.0
  H  H65  1  0.70949000  0.48569000  0.26090000  1.0
  H  H66  1  0.70949000  0.01431000  0.23909000  1.0
  H  H67  1  0.79052000  0.01431000  0.76091000  1.0
  H  H68  1  0.61239000  0.56738000  0.46212000  1.0
  H  H69  1  0.88761000  0.56738000  0.53787000  1.0
  H  H70  1  0.88762000  0.93262000  0.96212000  1.0
  H  H71  1  0.61239000  0.93262000  0.03788000  1.0
  H  H72  1  0.38761000  0.43262000  0.53788000  1.0
  H  H73  1  0.11239000  0.43262000  0.46212000  1.0
  H  H74  1  0.11239000  0.06738000  0.03788000  1.0
  H  H75  1  0.38761000  0.06739000  0.96212000  1.0
  H  H76  1  0.55520000  0.42859000  0.43210000  1.0
  H  H77  1  0.94480000  0.42859000  0.56790000  1.0
  H  H78  1  0.94480000  0.07141000  0.93210000  1.0
  H  H79  1  0.55521000  0.07142000  0.06791000  1.0
  H  H80  1  0.44478000  0.57141000  0.56790000  1.0
  H  H81  1  0.05521000  0.57141000  0.43209000  1.0
  H  H82  1  0.05521000  0.92859000  0.06791000  1.0
  H  H83  1  0.44479000  0.92860000  0.93210000  1.0
  C  C84  1  0.96092000  0.86672000  0.36897000  1.0
  C  C85  1  0.53911000  0.86672000  0.63103000  1.0
  C  C86  1  0.53907000  0.63328000  0.86898000  1.0
  C  C87  1  0.96091000  0.63328000  0.13102000  1.0
  C  C88  1  0.03909000  0.13328000  0.63103000  1.0
  C  C89  1  0.46092000  0.13328000  0.36898000  1.0
  C  C90  1  0.46089000  0.36672000  0.13103000  1.0
  C  C91  1  0.03909000  0.36671000  0.86898000  1.0
  C  C92  1  0.89959000  0.97483000  0.40444000  1.0
  C  C93  1  0.60044000  0.97482000  0.59556000  1.0
  C  C94  1  0.60040000  0.52516000  0.90444000  1.0
  C  C95  1  0.89958000  0.52517000  0.09555000  1.0
  C  C96  1  0.10042000  0.02517000  0.59556000  1.0
  C  C97  1  0.39960000  0.02516000  0.40444000  1.0
  C  C98  1  0.39957000  0.47483000  0.09556000  1.0
  C  C99  1  0.10042000  0.47482000  0.90444000  1.0
  C  C100  1  0.92784000  0.98882000  0.49128000  1.0
  C  C101  1  0.57217000  0.98881000  0.50872000  1.0
  C  C102  1  0.57216000  0.51116000  0.99128000  1.0
  C  C103  1  0.92783000  0.51117000  0.00872000  1.0
  C  C104  1  0.07217000  0.01118000  0.50872000  1.0
  C  C105  1  0.42785000  0.01116000  0.49128000  1.0
  C  C106  1  0.42783000  0.48881000  0.00873000  1.0
  C  C107  1  0.07216000  0.48882000  0.99128000  1.0
  C  C108  1  0.28391000  0.72810000  0.37891000  1.0
  C  C109  1  0.21608000  0.72810000  0.62109000  1.0
  C  C110  1  0.21608000  0.77190000  0.87890000  1.0
  C  C111  1  0.28393000  0.77191000  0.12110000  1.0
  C  C112  1  0.71608000  0.27191000  0.62109000  1.0
  C  C113  1  0.78392000  0.27190000  0.37891000  1.0
  C  C114  1  0.78392000  0.22810000  0.12109000  1.0
  C  C115  1  0.71607000  0.22810000  0.87890000  1.0
  C  C116  1  0.38339000  0.68114000  0.42363000  1.0
  C  C117  1  0.11660000  0.68114000  0.57637000  1.0
  C  C118  1  0.11661000  0.81886000  0.92364000  1.0
  C  C119  1  0.38340000  0.81887000  0.07637000  1.0
  C  C120  1  0.61660000  0.31887000  0.57636000  1.0
  C  C121  1  0.88340000  0.31887000  0.42363000  1.0
  C  C122  1  0.88340000  0.18114000  0.07637000  1.0
  C  C123  1  0.61659000  0.18114000  0.92363000  1.0
  C  C124  1  0.42269000  0.56678000  0.40955000  1.0
  C  C125  1  0.07731000  0.56678000  0.59045000  1.0
  C  C126  1  0.07732000  0.93322000  0.90955000  1.0
  C  C127  1  0.42269000  0.93324000  0.09045000  1.0
  C  C128  1  0.57731000  0.43324000  0.59045000  1.0
  C  C129  1  0.92269000  0.43323000  0.40955000  1.0
  C  C130  1  0.92269000  0.06677000  0.09045000  1.0
  C  C131  1  0.57730000  0.06678000  0.90955000  1.0
  C  C132  1  0.35886000  0.50492000  0.35075000  1.0
  C  C133  1  0.14113000  0.50493000  0.64925000  1.0
  C  C134  1  0.14114000  0.99508000  0.85076000  1.0
  C  C135  1  0.35887000  0.99509000  0.14925000  1.0
  C  C136  1  0.64114000  0.49509000  0.64924000  1.0
  C  C137  1  0.85886000  0.49508000  0.35075000  1.0
  C  C138  1  0.85887000  0.00492000  0.14925000  1.0
  C  C139  1  0.64113000  0.00492000  0.85076000  1.0
  C  C140  1  0.26126000  0.55871000  0.30774000  1.0
  C  C141  1  0.23874000  0.55871000  0.69226000  1.0
  C  C142  1  0.23874000  0.94130000  0.80774000  1.0
  C  C143  1  0.26126000  0.94131000  0.19226000  1.0
  C  C144  1  0.73875000  0.44130000  0.69226000  1.0
  C  C145  1  0.76126000  0.44129000  0.30774000  1.0
  C  C146  1  0.76126000  0.05871000  0.19226000  1.0
  C  C147  1  0.73874000  0.05870000  0.80774000  1.0
  C  C148  1  0.52595000  0.51098000  0.45846000  1.0
  C  C149  1  0.97405000  0.51099000  0.54154000  1.0
  C  C150  1  0.97405000  0.98901000  0.95846000  1.0
  C  C151  1  0.52596000  0.98902000  0.04154000  1.0
  C  C152  1  0.47404000  0.48902000  0.54154000  1.0
  C  C153  1  0.02596000  0.48902000  0.45846000  1.0
  C  C154  1  0.02596000  0.01098000  0.04154000  1.0
  C  C155  1  0.47404000  0.01099000  0.95846000  1.0
  N  N156  1  0.22409000  0.66856000  0.32157000  1.0
  N  N157  1  0.27590000  0.66857000  0.67842000  1.0
  N  N158  1  0.27590000  0.83144000  0.82157000  1.0
  N  N159  1  0.22410000  0.83145000  0.17843000  1.0
  N  N160  1  0.77590000  0.33144000  0.67842000  1.0
  N  N161  1  0.72410000  0.33144000  0.32158000  1.0
  N  N162  1  0.72411000  0.16857000  0.17843000  1.0
  N  N163  1  0.77590000  0.16856000  0.82157000  1.0
  O  O164  1  0.00745000  0.88193000  0.29886000  1.0
  O  O165  1  0.49257000  0.88192000  0.70114000  1.0
  O  O166  1  0.49256000  0.61809000  0.79887000  1.0
  O  O167  1  0.00744000  0.61808000  0.20113000  1.0
  O  O168  1  0.99257000  0.11808000  0.70114000  1.0
  O  O169  1  0.50745000  0.11807000  0.29887000  1.0
  O  O170  1  0.50744000  0.38192000  0.20114000  1.0
  O  O171  1  0.99256000  0.38191000  0.79887000  1.0
  O  O172  1  0.96310000  0.77326000  0.40522000  1.0
  O  O173  1  0.53691000  0.77325000  0.59478000  1.0
  O  O174  1  0.53686000  0.72674000  0.90524000  1.0
  O  O175  1  0.96312000  0.72675000  0.09476000  1.0
  O  O176  1  0.03689000  0.22675000  0.59477000  1.0
  O  O177  1  0.46311000  0.22674000  0.40523000  1.0
  O  O178  1  0.46310000  0.27326000  0.09479000  1.0
  O  O179  1  0.03688000  0.27324000  0.90524000  1.0
