# generated using pymatgen
data_V2Co2H16C22N4O11
_symmetry_space_group_name_H-M   'P 1'
_cell_length_a   9.72144000
_cell_length_b   10.84650000
_cell_length_c   13.69860000
_cell_angle_alpha   99.03750000
_cell_angle_beta   106.55400000
_cell_angle_gamma   102.06500000
_symmetry_Int_Tables_number   1
_chemical_formula_structural   V2Co2H16C22N4O11
_chemical_formula_sum   'V4 Co4 H32 C44 N8 O22'
_cell_volume   1317.32251391
_cell_formula_units_Z   2
loop_
 _symmetry_equiv_pos_site_id
 _symmetry_equiv_pos_as_xyz
  1  'x, y, z'
loop_
 _atom_site_type_symbol
 _atom_site_label
 _atom_site_symmetry_multiplicity
 _atom_site_fract_x
 _atom_site_fract_y
 _atom_site_fract_z
 _atom_site_occupancy
  V  V0  1  0.93242000  0.81684000  0.87888000  1.0
  V  V1  1  0.06761000  0.18311000  0.12117000  1.0
  V  V2  1  0.25956000  0.02710000  0.99785000  1.0
  V  V3  1  0.74035000  0.97304000  0.00211000  1.0
  Co  Co4  1  0.54529000  0.93936000  0.17847000  1.0
  Co  Co5  1  0.45471000  0.06063000  0.82153000  1.0
  Co  Co6  1  0.88279000  0.96249000  0.65427000  1.0
  Co  Co7  1  0.11723000  0.03752000  0.34575000  1.0
  H  H8  1  0.54089000  0.31161000  0.43859000  1.0
  H  H9  1  0.45914000  0.68838000  0.56145000  1.0
  H  H10  1  0.92410000  0.39525000  0.33268000  1.0
  H  H11  1  0.07593000  0.60476000  0.66733000  1.0
  H  H12  1  0.83571000  0.16870000  0.22793000  1.0
  H  H13  1  0.16427000  0.83131000  0.77205000  1.0
  H  H14  1  0.72632000  0.69809000  0.65964000  1.0
  H  H15  1  0.27366000  0.30192000  0.34037000  1.0
  H  H16  1  0.67033000  0.46759000  0.57035000  1.0
  H  H17  1  0.32977000  0.53241000  0.42973000  1.0
  H  H18  1  0.91048000  0.59673000  0.36673000  1.0
  H  H19  1  0.08956000  0.40320000  0.63331000  1.0
  H  H20  1  0.96257000  0.81974000  0.46890000  1.0
  H  H21  1  0.03740000  0.18024000  0.53105000  1.0
  H  H22  1  0.32951000  0.34768000  0.82763000  1.0
  H  H23  1  0.67053000  0.65227000  0.17236000  1.0
  H  H24  1  0.97034000  0.37459000  0.95029000  1.0
  H  H25  1  0.02970000  0.62538000  0.04971000  1.0
  H  H26  1  0.81656000  0.16974000  0.81816000  1.0
  H  H27  1  0.18341000  0.83029000  0.18178000  1.0
  H  H28  1  0.45924000  0.80092000  0.95660000  1.0
  H  H29  1  0.54072000  0.19908000  0.04338000  1.0
  H  H30  1  0.31472000  0.58384000  0.84180000  1.0
  H  H31  1  0.68527000  0.41611000  0.15822000  1.0
  H  H32  1  0.22129000  0.47222000  0.11112000  1.0
  H  H33  1  0.77875000  0.52774000  0.88888000  1.0
  H  H34  1  0.38215000  0.69249000  0.21684000  1.0
  H  H35  1  0.61781000  0.30751000  0.78316000  1.0
  H  H36  1  0.69499000  0.99047000  0.49351000  1.0
  H  H37  1  0.30502000  0.00948000  0.50647000  1.0
  H  H38  1  0.83808000  0.02551000  0.46072000  1.0
  H  H39  1  0.16193000  0.97447000  0.53926000  1.0
  C  C40  1  0.57141000  0.16079000  0.33357000  1.0
  C  C41  1  0.42860000  0.83922000  0.66644000  1.0
  C  C42  1  0.61195000  0.28591000  0.39455000  1.0
  C  C43  1  0.38807000  0.71406000  0.60549000  1.0
  C  C44  1  0.73984000  0.37580000  0.39590000  1.0
  C  C45  1  0.26017000  0.62417000  0.60414000  1.0
  C  C46  1  0.82204000  0.33245000  0.33471000  1.0
  C  C47  1  0.17797000  0.66754000  0.66532000  1.0
  C  C48  1  0.77423000  0.20544000  0.27577000  1.0
  C  C49  1  0.22575000  0.79455000  0.72423000  1.0
  C  C50  1  0.43446000  0.05982000  0.32737000  1.0
  C  C51  1  0.56551000  0.94019000  0.67261000  1.0
  C  C52  1  0.76346000  0.67103000  0.59366000  1.0
  C  C53  1  0.23654000  0.32899000  0.40635000  1.0
  C  C54  1  0.73185000  0.54229000  0.54240000  1.0
  C  C55  1  0.26815000  0.45772000  0.45761000  1.0
  C  C56  1  0.78107000  0.51038000  0.45709000  1.0
  C  C57  1  0.21893000  0.48959000  0.54294000  1.0
  C  C58  1  0.86751000  0.61316000  0.43153000  1.0
  C  C59  1  0.13248000  0.38682000  0.56848000  1.0
  C  C60  1  0.89544000  0.73928000  0.48765000  1.0
  C  C61  1  0.10456000  0.26071000  0.51235000  1.0
  C  C62  1  0.12585000  0.19717000  0.76232000  1.0
  C  C63  1  0.87416000  0.80282000  0.23766000  1.0
  C  C64  1  0.21623000  0.31457000  0.82851000  1.0
  C  C65  1  0.78378000  0.68543000  0.17147000  1.0
  C  C66  1  0.16195000  0.38320000  0.89752000  1.0
  C  C67  1  0.83805000  0.61681000  0.10246000  1.0
  C  C68  1  0.01735000  0.32791000  0.89625000  1.0
  C  C69  1  0.98265000  0.67210000  0.10372000  1.0
  C  C70  1  0.93102000  0.21296000  0.82366000  1.0
  C  C71  1  0.06898000  0.78706000  0.17630000  1.0
  C  C72  1  0.18557000  0.11476000  0.69600000  1.0
  C  C73  1  0.81443000  0.88525000  0.30397000  1.0
  C  C74  1  0.40819000  0.72431000  0.98826000  1.0
  C  C75  1  0.59180000  0.27569000  0.01174000  1.0
  C  C76  1  0.32657000  0.60326000  0.92468000  1.0
  C  C77  1  0.67344000  0.39673000  0.07533000  1.0
  C  C78  1  0.25496000  0.50957000  0.96671000  1.0
  C  C79  1  0.74506000  0.49041000  0.03330000  1.0
  C  C80  1  0.27389000  0.54165000  0.07390000  1.0
  C  C81  1  0.72614000  0.45832000  0.92610000  1.0
  C  C82  1  0.36236000  0.66371000  0.13302000  1.0
  C  C83  1  0.63763000  0.33629000  0.86698000  1.0
  N  N84  1  0.65060000  0.12136000  0.27439000  1.0
  N  N85  1  0.34936000  0.87865000  0.72558000  1.0
  N  N86  1  0.84215000  0.76943000  0.56620000  1.0
  N  N87  1  0.15791000  0.23058000  0.43384000  1.0
  N  N88  1  0.98323000  0.14863000  0.75632000  1.0
  N  N89  1  0.01679000  0.85137000  0.24366000  1.0
  N  N90  1  0.42729000  0.75445000  0.09131000  1.0
  N  N91  1  0.57271000  0.24555000  0.90870000  1.0
  O  O92  1  0.41421000  0.94609000  0.27458000  1.0
  O  O93  1  0.58580000  0.05393000  0.72538000  1.0
  O  O94  1  0.35114000  0.09585000  0.37573000  1.0
  O  O95  1  0.64880000  0.90417000  0.62422000  1.0
  O  O96  1  0.09112000  0.01001000  0.63403000  1.0
  O  O97  1  0.90886000  0.99001000  0.36595000  1.0
  O  O98  1  0.32086000  0.14836000  0.70303000  1.0
  O  O99  1  0.67912000  0.85166000  0.29691000  1.0
  O  O100  1  0.91740000  0.89824000  0.78314000  1.0
  O  O101  1  0.08242000  0.10178000  0.21696000  1.0
  O  O102  1  0.90038000  0.66207000  0.82864000  1.0
  O  O103  1  0.09959000  0.33784000  0.17140000  1.0
  O  O104  1  0.19419000  0.15715000  0.05094000  1.0
  O  O105  1  0.80587000  0.84298000  0.94910000  1.0
  O  O106  1  0.12304000  0.87678000  0.96862000  1.0
  O  O107  1  0.87700000  0.12333000  0.03148000  1.0
  O  O108  1  0.41539000  0.01844000  0.08508000  1.0
  O  O109  1  0.58446000  0.98155000  0.91479000  1.0
  O  O110  1  0.70114000  0.94743000  0.11030000  1.0
  O  O111  1  0.29895000  0.05265000  0.88970000  1.0
  O  O112  1  0.79900000  0.04106000  0.52080000  1.0
  O  O113  1  0.20099000  0.95892000  0.47917000  1.0
