# generated using pymatgen
data_Ga3P4H13C9NO12F
_symmetry_space_group_name_H-M   'P 1'
_cell_length_a   8.34424000
_cell_length_b   11.75300000
_cell_length_c   11.76240000
_cell_angle_alpha   71.68210000
_cell_angle_beta   77.17340000
_cell_angle_gamma   70.63600000
_symmetry_Int_Tables_number   1
_chemical_formula_structural   Ga3P4H13C9NO12F
_chemical_formula_sum   'Ga6 P8 H26 C18 N2 O24 F2'
_cell_volume   1024.16206974
_cell_formula_units_Z   2
loop_
 _symmetry_equiv_pos_site_id
 _symmetry_equiv_pos_as_xyz
  1  'x, y, z'
loop_
 _atom_site_type_symbol
 _atom_site_label
 _atom_site_symmetry_multiplicity
 _atom_site_fract_x
 _atom_site_fract_y
 _atom_site_fract_z
 _atom_site_occupancy
  Ga  Ga0  1  0.12614000  0.30473000  0.47040000  1.0
  Ga  Ga1  1  0.87386000  0.69527000  0.52960000  1.0
  Ga  Ga2  1  0.34313000  0.51080000  0.16093000  1.0
  Ga  Ga3  1  0.65687000  0.48920000  0.83907000  1.0
  Ga  Ga4  1  0.45452000  0.12068000  0.28559000  1.0
  Ga  Ga5  1  0.54548000  0.87932000  0.71440000  1.0
  P  P6  1  0.24250000  0.01095000  0.54314000  1.0
  P  P7  1  0.75750000  0.98905000  0.45686000  1.0
  P  P8  1  0.25060000  0.54191000  0.43533000  1.0
  P  P9  1  0.74940000  0.45809000  0.56467000  1.0
  P  P10  1  0.11938000  0.32553000  0.20399000  1.0
  P  P11  1  0.88062000  0.67447000  0.79601000  1.0
  P  P12  1  0.66540000  0.31025000  0.08921000  1.0
  P  P13  1  0.33460000  0.68975000  0.91079000  1.0
  H  H14  1  0.78845000  0.96424000  0.18745000  1.0
  H  H15  1  0.21155000  0.03576000  0.81255000  1.0
  H  H16  1  0.28094000  0.97683000  0.21575000  1.0
  H  H17  1  0.71906000  0.02317000  0.78425000  1.0
  H  H18  1  0.66635000  0.70484000  0.05152000  1.0
  H  H19  1  0.33365000  0.29516000  0.94848000  1.0
  H  H20  1  0.35836000  0.80031000  0.11728000  1.0
  H  H21  1  0.64164000  0.19969000  0.88272000  1.0
  H  H22  1  0.88954000  0.78655000  0.09051000  1.0
  H  H23  1  0.11045000  0.21345000  0.90949000  1.0
  H  H24  1  0.93773000  0.16733000  0.13670000  1.0
  H  H25  1  0.06227000  0.83267000  0.86330000  1.0
  H  H26  1  0.81814000  0.23609000  0.25458000  1.0
  H  H27  1  0.18185000  0.76391000  0.74542000  1.0
  H  H28  1  0.86815000  0.44748000  0.11726000  1.0
  H  H29  1  0.13185000  0.55252000  0.88274000  1.0
  H  H30  1  0.01567000  0.36302000  0.01955000  1.0
  H  H31  1  0.98433000  0.63698000  0.98045000  1.0
  H  H32  1  0.43520000  0.64477000  0.46190000  1.0
  H  H33  1  0.56480000  0.35523000  0.53810000  1.0
  H  H34  1  0.36404000  0.54895000  0.60047000  1.0
  H  H35  1  0.63596000  0.45105000  0.39953000  1.0
  H  H36  1  0.11049000  0.86282000  0.53733000  1.0
  H  H37  1  0.88951000  0.13718000  0.46268000  1.0
  H  H38  1  0.98649000  0.95243000  0.63904000  1.0
  H  H39  1  0.01351000  0.04757000  0.36096000  1.0
  C  C40  1  0.69887000  0.92486000  0.16902000  1.0
  C  C41  1  0.30112000  0.07514000  0.83098000  1.0
  C  C42  1  0.41322000  0.93132000  0.18550000  1.0
  C  C43  1  0.58678000  0.06868000  0.81450000  1.0
  C  C44  1  0.63001000  0.78038000  0.09548000  1.0
  C  C45  1  0.36999000  0.21963000  0.90452000  1.0
  C  C46  1  0.45726000  0.83387000  0.13147000  1.0
  C  C47  1  0.54274000  0.16613000  0.86853000  1.0
  C  C48  1  0.75287000  0.82617000  0.11534000  1.0
  C  C49  1  0.24713000  0.17383000  0.88466000  1.0
  C  C50  1  0.85905000  0.25610000  0.15678000  1.0
  C  C51  1  0.14095000  0.74390000  0.84322000  1.0
  C  C52  1  0.95576000  0.35492000  0.11369000  1.0
  C  C53  1  0.04424000  0.64508000  0.88631000  1.0
  C  C54  1  0.41576000  0.55181000  0.50539000  1.0
  C  C55  1  0.58424000  0.44819000  0.49461000  1.0
  C  C56  1  0.05843000  0.95863000  0.54794000  1.0
  C  C57  1  0.94157000  0.04137000  0.45206000  1.0
  N  N58  1  0.53218000  0.97619000  0.20306000  1.0
  N  N59  1  0.46781000  0.02381000  0.79694000  1.0
  O  O60  1  0.56058000  0.21791000  0.13275000  1.0
  O  O61  1  0.43942000  0.78209000  0.86725000  1.0
  O  O62  1  0.34949000  0.01011000  0.41941000  1.0
  O  O63  1  0.65051000  0.98989000  0.58059000  1.0
  O  O64  1  0.20736000  0.41829000  0.50630000  1.0
  O  O65  1  0.79264000  0.58171000  0.49370000  1.0
  O  O66  1  0.17738000  0.14260000  0.56712000  1.0
  O  O67  1  0.82262000  0.85740000  0.43288000  1.0
  O  O68  1  0.33317000  0.91802000  0.64979000  1.0
  O  O69  1  0.66683000  0.08198000  0.35021000  1.0
  O  O70  1  0.23785000  0.19355000  0.20924000  1.0
  O  O71  1  0.76215000  0.80645000  0.79076000  1.0
  O  O72  1  0.02504000  0.34567000  0.32876000  1.0
  O  O73  1  0.97496000  0.65433000  0.67124000  1.0
  O  O74  1  0.33333333  0.54346000  0.30340000  1.0
  O  O75  1  0.66666667  0.45654000  0.69660000  1.0
  O  O76  1  0.09644000  0.65721000  0.43457000  1.0
  O  O77  1  0.90356000  0.34279000  0.56544000  1.0
  O  O78  1  0.71791000  0.33363000  0.94954000  1.0
  O  O79  1  0.28209000  0.66637000  0.05046000  1.0
  O  O80  1  0.20546000  0.43145000  0.13440000  1.0
  O  O81  1  0.79454000  0.56855000  0.86560000  1.0
  O  O82  1  0.57266000  0.43813000  0.11996000  1.0
  O  O83  1  0.42734000  0.56187000  0.88004000  1.0
  F  F84  1  0.36021000  0.26427000  0.36092000  1.0
  F  F85  1  0.63979000  0.73573000  0.63908000  1.0
