# generated using pymatgen
data_ZnH25C29(N3O2)2
_symmetry_space_group_name_H-M   'P 1'
_cell_length_a   10.09590000
_cell_length_b   11.90540000
_cell_length_c   11.96120000
_cell_angle_alpha   84.61870000
_cell_angle_beta   67.32490000
_cell_angle_gamma   83.21440000
_symmetry_Int_Tables_number   1
_chemical_formula_structural   ZnH25C29(N3O2)2
_chemical_formula_sum   'Zn2 H50 C58 N12 O8'
_cell_volume   1315.44147989
_cell_formula_units_Z   2
loop_
 _symmetry_equiv_pos_site_id
 _symmetry_equiv_pos_as_xyz
  1  'x, y, z'
loop_
 _atom_site_type_symbol
 _atom_site_label
 _atom_site_symmetry_multiplicity
 _atom_site_fract_x
 _atom_site_fract_y
 _atom_site_fract_z
 _atom_site_occupancy
  Zn  Zn0  1  0.56091000  0.31066000  0.37991000  1.0
  Zn  Zn1  1  0.43909000  0.68934000  0.62009000  1.0
  H  H2  1  0.36001000  0.18138000  0.33089000  1.0
  H  H3  1  0.63999000  0.81862000  0.66912000  1.0
  H  H4  1  0.34662000  0.98176000  0.28601000  1.0
  H  H5  1  0.65338000  0.01824000  0.71399000  1.0
  H  H6  1  0.55865000  0.84079000  0.25741000  1.0
  H  H7  1  0.44135000  0.15921000  0.74259000  1.0
  H  H8  1  0.77488000  0.10511000  0.32097000  1.0
  H  H9  1  0.22512000  0.89489000  0.67903000  1.0
  H  H10  1  0.94202000  0.73451000  0.20246000  1.0
  H  H11  1  0.05798000  0.26549000  0.79754000  1.0
  H  H12  1  0.79780000  0.77726000  0.15096000  1.0
  H  H13  1  0.20220000  0.22274000  0.84904000  1.0
  H  H14  1  0.76259000  0.70767000  0.29689000  1.0
  H  H15  1  0.23741000  0.29233000  0.70311000  1.0
  H  H16  1  0.85846000  0.91126000  0.53399000  1.0
  H  H17  1  0.14154000  0.08874000  0.46601000  1.0
  H  H18  1  0.00891000  0.90526000  0.57888000  1.0
  H  H19  1  0.99109000  0.09474000  0.42112000  1.0
  H  H20  1  0.91573000  0.78344000  0.60040000  1.0
  H  H21  1  0.08427000  0.21656000  0.39960000  1.0
  H  H22  1  0.18073000  0.78522000  0.57548000  1.0
  H  H23  1  0.81927000  0.21478000  0.42452000  1.0
  H  H24  1  0.54806000  0.59049000  0.37463000  1.0
  H  H25  1  0.45194000  0.40951000  0.62537000  1.0
  H  H26  1  0.23291000  0.70376000  0.21621000  1.0
  H  H27  1  0.76709000  0.29624000  0.78379000  1.0
  H  H28  1  0.15123000  0.46893000  0.62417000  1.0
  H  H29  1  0.84877000  0.53107000  0.37583000  1.0
  H  H30  1  0.89906000  0.56289000  0.71159000  1.0
  H  H31  1  0.10094000  0.43711000  0.28841000  1.0
  H  H32  1  0.46551000  0.59137000  0.20263000  1.0
  H  H33  1  0.53449000  0.40863000  0.79737000  1.0
  H  H34  1  0.73877000  0.56398000  0.08951000  1.0
  H  H35  1  0.26123000  0.43602000  0.91050000  1.0
  H  H36  1  0.90530000  0.66943000  0.90619000  1.0
  H  H37  1  0.09470000  0.33057000  0.09381000  1.0
  H  H38  1  0.39805000  0.32808000  0.04043000  1.0
  H  H39  1  0.60195000  0.67192000  0.95957000  1.0
  H  H40  1  0.60287000  0.37647000  0.08861000  1.0
  H  H41  1  0.39713000  0.62353000  0.91139000  1.0
  H  H42  1  0.82137000  0.23493000  0.04761000  1.0
  H  H43  1  0.17863000  0.76507000  0.95238000  1.0
  H  H44  1  0.60908000  0.01857000  0.91475000  1.0
  H  H45  1  0.39092000  0.98143000  0.08525000  1.0
  H  H46  1  0.95600000  0.86827000  0.88092000  1.0
  H  H47  1  0.04400000  0.13173000  0.11907000  1.0
  H  H48  1  0.84994000  0.94903000  0.80669000  1.0
  H  H49  1  0.15006000  0.05097000  0.19331000  1.0
  H  H50  1  0.76210000  0.87609000  0.94720000  1.0
  H  H51  1  0.23790000  0.12391000  0.05280000  1.0
  C  C52  1  0.44764000  0.11567000  0.32138000  1.0
  C  C53  1  0.55236000  0.88433000  0.67861000  1.0
  C  C54  1  0.44271000  0.00562000  0.29500000  1.0
  C  C55  1  0.55729000  0.99438000  0.70501000  1.0
  C  C56  1  0.56125000  0.92681000  0.27988000  1.0
  C  C57  1  0.43875000  0.07319000  0.72012000  1.0
  C  C58  1  0.68269000  0.96023000  0.29318000  1.0
  C  C59  1  0.31731000  0.03977000  0.70682000  1.0
  C  C60  1  0.68003000  0.07376000  0.31713000  1.0
  C  C61  1  0.31997000  0.92624000  0.68286000  1.0
  C  C62  1  0.80946000  0.88065000  0.28427000  1.0
  C  C63  1  0.19054000  0.11935000  0.71573000  1.0
  C  C64  1  0.82903000  0.76885000  0.22984000  1.0
  C  C65  1  0.17097000  0.23115000  0.77016000  1.0
  C  C66  1  0.04937000  0.82293000  0.41387000  1.0
  C  C67  1  0.95063000  0.17707000  0.58613000  1.0
  C  C68  1  0.95240000  0.85795000  0.53882000  1.0
  C  C69  1  0.04760000  0.14205000  0.46118000  1.0
  C  C70  1  0.18908000  0.75793000  0.39560000  1.0
  C  C71  1  0.81092000  0.24207000  0.60440000  1.0
  C  C72  1  0.24219000  0.74910000  0.48833000  1.0
  C  C73  1  0.75781000  0.25090000  0.51167000  1.0
  C  C74  1  0.44764000  0.63760000  0.37726000  1.0
  C  C75  1  0.55236000  0.36239000  0.62274000  1.0
  C  C76  1  0.27190000  0.70094000  0.28965000  1.0
  C  C77  1  0.72810000  0.29906000  0.71035000  1.0
  C  C78  1  0.28979000  0.39147000  0.39747000  1.0
  C  C79  1  0.71021000  0.60853000  0.60253000  1.0
  C  C80  1  0.13984000  0.44709000  0.45162000  1.0
  C  C81  1  0.86016000  0.55291000  0.54838000  1.0
  C  C82  1  0.08385000  0.48252000  0.57083000  1.0
  C  C83  1  0.91615000  0.51748000  0.42917000  1.0
  C  C84  1  0.94470000  0.53505000  0.61901000  1.0
  C  C85  1  0.05530000  0.46495000  0.38099000  1.0
  C  C86  1  0.40120000  0.63975000  0.28143000  1.0
  C  C87  1  0.59880000  0.36025000  0.71857000  1.0
  C  C88  1  0.90777000  0.44171000  0.10191000  1.0
  C  C89  1  0.09223000  0.55829000  0.89809000  1.0
  C  C90  1  0.80975000  0.37571000  0.20805000  1.0
  C  C91  1  0.19025000  0.62429000  0.79195000  1.0
  C  C92  1  0.85340000  0.53684000  0.04933000  1.0
  C  C93  1  0.14660000  0.46316000  0.95067000  1.0
  C  C94  1  0.94505000  0.59483000  0.94801000  1.0
  C  C95  1  0.05495000  0.40517000  0.05199000  1.0
  C  C96  1  0.49531000  0.26958000  0.02062000  1.0
  C  C97  1  0.50470000  0.73042000  0.97939000  1.0
  C  C98  1  0.61031000  0.29699000  0.04750000  1.0
  C  C99  1  0.38969000  0.70301000  0.95250000  1.0
  C  C100  1  0.72999000  0.21897000  0.02628000  1.0
  C  C101  1  0.27001000  0.78103000  0.97373000  1.0
  C  C102  1  0.73235000  0.11480000  0.97870000  1.0
  C  C103  1  0.26765000  0.88520000  0.02130000  1.0
  C  C104  1  0.61287000  0.09784000  0.95160000  1.0
  C  C105  1  0.38713000  0.90216000  0.04840000  1.0
  C  C106  1  0.85242000  0.02559000  0.96067000  1.0
  C  C107  1  0.14758000  0.97441000  0.03933000  1.0
  C  C108  1  0.85676000  0.92318000  0.89513000  1.0
  C  C109  1  0.14324000  0.07682000  0.10486000  1.0
  N  N110  1  0.36898000  0.69250000  0.47883000  1.0
  N  N111  1  0.63102000  0.30749000  0.52117000  1.0
  N  N112  1  0.56568000  0.14909000  0.33188000  1.0
  N  N113  1  0.43432000  0.85091000  0.66812000  1.0
  N  N114  1  0.89563000  0.91268000  0.33013000  1.0
  N  N115  1  0.10437000  0.08732000  0.66987000  1.0
  N  N116  1  0.01758000  0.84573000  0.31834000  1.0
  N  N117  1  0.98242000  0.15427000  0.68166000  1.0
  N  N118  1  0.49629000  0.17233000  0.97190000  1.0
  N  N119  1  0.50371000  0.82767000  0.02810000  1.0
  N  N120  1  0.94512000  0.04260000  0.00773000  1.0
  N  N121  1  0.05488000  0.95740000  0.99227000  1.0
  O  O122  1  0.35920000  0.37058000  0.47029000  1.0
  O  O123  1  0.64080000  0.62942000  0.52971000  1.0
  O  O124  1  0.34207000  0.36724000  0.28835000  1.0
  O  O125  1  0.65793000  0.63276000  0.71165000  1.0
  O  O126  1  0.67648000  0.41861000  0.25456000  1.0
  O  O127  1  0.32351000  0.58139000  0.74544000  1.0
  O  O128  1  0.85716000  0.28341000  0.24429000  1.0
  O  O129  1  0.14284000  0.71659000  0.75571000  1.0
