# generated using pymatgen
data_AlH15C24(NO2)3
_symmetry_space_group_name_H-M   'P 1'
_cell_length_a   3.99904000
_cell_length_b   28.91758708
_cell_length_c   28.91720000
_cell_angle_alpha   59.99932841
_cell_angle_beta   89.99880000
_cell_angle_gamma   89.99930001
_symmetry_Int_Tables_number   1
_chemical_formula_structural   AlH15C24(NO2)3
_chemical_formula_sum   'Al2 H30 C48 N6 O12'
_cell_volume   2896.02116478
_cell_formula_units_Z   2
loop_
 _symmetry_equiv_pos_site_id
 _symmetry_equiv_pos_as_xyz
  1  'x, y, z'
loop_
 _atom_site_type_symbol
 _atom_site_label
 _atom_site_symmetry_multiplicity
 _atom_site_fract_x
 _atom_site_fract_y
 _atom_site_fract_z
 _atom_site_occupancy
  Al  Al0  1  0.00645000  0.50000000  0.00000000  1.0
  Al  Al1  1  0.00784000  0.16666000  0.66668000  1.0
  H  H2  1  0.84440000  0.30552000  0.52265000  1.0
  H  H3  1  0.87844000  0.35487000  0.42285000  1.0
  H  H4  1  0.23496000  0.18544000  0.51808000  1.0
  H  H5  1  0.23429000  0.48120000  0.14861000  1.0
  H  H6  1  0.84342000  0.36111000  0.14398000  1.0
  H  H7  1  0.87804000  0.31180000  0.24378000  1.0
  H  H8  1  0.84443000  0.17182000  0.80553000  1.0
  H  H9  1  0.87848000  0.22227000  0.85487000  1.0
  H  H10  1  0.23494000  0.29648000  0.68546000  1.0
  H  H11  1  0.23427000  0.37019000  0.98121000  1.0
  H  H12  1  0.84340000  0.49491000  0.86110000  1.0
  H  H13  1  0.87800000  0.44442000  0.81180000  1.0
  H  H14  1  0.84445000  0.02266000  0.67183000  1.0
  H  H15  1  0.87850000  0.92286000  0.72228000  1.0
  H  H16  1  0.23493000  0.01806000  0.79650000  1.0
  H  H17  1  0.23429000  0.64861000  0.87018000  1.0
  H  H18  1  0.84344000  0.64398000  0.99490000  1.0
  H  H19  1  0.87806000  0.74377000  0.94442000  1.0
  H  H20  1  0.22278000  0.25367000  0.37276000  1.0
  H  H21  1  0.06507000  0.20225000  0.42959000  1.0
  H  H22  1  0.22296000  0.41303000  0.29390000  1.0
  H  H23  1  0.06499000  0.46443000  0.23709000  1.0
  H  H24  1  0.22283000  0.37357000  0.75368000  1.0
  H  H25  1  0.06508000  0.36816000  0.70226000  1.0
  H  H26  1  0.22292000  0.29307000  0.91303000  1.0
  H  H27  1  0.06498000  0.29848000  0.96443000  1.0
  H  H28  1  0.22287000  0.87274000  0.87359000  1.0
  H  H29  1  0.06510000  0.92957000  0.86818000  1.0
  H  H30  1  0.22301000  0.79391000  0.79305000  1.0
  H  H31  1  0.06505000  0.73710000  0.79846000  1.0
  C  C32  1  0.51160000  0.58181000  0.96443000  1.0
  C  C33  1  0.51162000  0.45376000  0.08181000  1.0
  C  C34  1  0.51163000  0.46443000  0.95376000  1.0
  C  C35  1  0.51303000  0.21284000  0.58486000  1.0
  C  C36  1  0.51301000  0.20230000  0.71285000  1.0
  C  C37  1  0.51300000  0.08485000  0.70231000  1.0
  C  C38  1  0.53758000  0.24265000  0.52557000  1.0
  C  C39  1  0.71900000  0.29060000  0.49932000  1.0
  C  C40  1  0.73848000  0.31764000  0.44403000  1.0
  C  C41  1  0.58670000  0.29714000  0.41401000  1.0
  C  C42  1  0.40478000  0.24819000  0.44086000  1.0
  C  C43  1  0.38087000  0.22206000  0.49661000  1.0
  C  C44  1  0.60708000  0.32387000  0.35762000  1.0
  C  C45  1  0.60709000  0.34281000  0.30904000  1.0
  C  C46  1  0.58649000  0.36954000  0.25263000  1.0
  C  C47  1  0.40453000  0.41848000  0.22581000  1.0
  C  C48  1  0.38026000  0.44460000  0.17004000  1.0
  C  C49  1  0.53676000  0.42399000  0.14108000  1.0
  C  C50  1  0.71826000  0.37605000  0.16733000  1.0
  C  C51  1  0.73799000  0.34903000  0.22261000  1.0
  C  C52  1  0.53757000  0.23177000  0.74266000  1.0
  C  C53  1  0.71901000  0.21008000  0.79061000  1.0
  C  C54  1  0.73851000  0.23832000  0.81765000  1.0
  C  C55  1  0.58670000  0.28884000  0.79716000  1.0
  C  C56  1  0.40480000  0.31095000  0.74820000  1.0
  C  C57  1  0.38088000  0.28132000  0.72207000  1.0
  C  C58  1  0.60709000  0.31850000  0.82389000  1.0
  C  C59  1  0.60709000  0.34815000  0.84281000  1.0
  C  C60  1  0.58648000  0.37782000  0.86954000  1.0
  C  C61  1  0.40450000  0.35571000  0.91848000  1.0
  C  C62  1  0.38027000  0.38536000  0.94459000  1.0
  C  C63  1  0.53675000  0.43492000  0.92399000  1.0
  C  C64  1  0.71824000  0.45662000  0.87605000  1.0
  C  C65  1  0.73795000  0.42836000  0.84903000  1.0
  C  C66  1  0.53757000  0.02557000  0.73178000  1.0
  C  C67  1  0.71902000  0.99932000  0.71009000  1.0
  C  C68  1  0.73849000  0.94403000  0.73834000  1.0
  C  C69  1  0.58674000  0.91401000  0.78885000  1.0
  C  C70  1  0.40481000  0.94085000  0.81096000  1.0
  C  C71  1  0.38085000  0.99660000  0.78134000  1.0
  C  C72  1  0.60708000  0.85760000  0.81852000  1.0
  C  C73  1  0.60710000  0.80903000  0.84816000  1.0
  C  C74  1  0.58649000  0.75264000  0.87782000  1.0
  C  C75  1  0.40453000  0.72580000  0.85571000  1.0
  C  C76  1  0.38029000  0.67004000  0.88535000  1.0
  C  C77  1  0.53672000  0.64109000  0.93492000  1.0
  C  C78  1  0.71826000  0.66733000  0.95661000  1.0
  C  C79  1  0.73799000  0.72260000  0.92836000  1.0
  N  N80  1  0.26313000  0.22685000  0.41201000  1.0
  N  N81  1  0.26312000  0.43984000  0.25467000  1.0
  N  N82  1  0.26315000  0.36114000  0.72686000  1.0
  N  N83  1  0.26310000  0.30549000  0.93985000  1.0
  N  N84  1  0.26316000  0.91199000  0.86116000  1.0
  N  N85  1  0.26314000  0.75467000  0.80548000  1.0
  O  O86  1  0.26764000  0.45283000  0.98619000  1.0
  O  O87  1  0.26762000  0.56097000  0.95283000  1.0
  O  O88  1  0.26762000  0.48619000  0.06097000  1.0
  O  O89  1  0.73726000  0.49908000  0.94542000  1.0
  O  O90  1  0.73724000  0.44542000  0.05549000  1.0
  O  O91  1  0.73724000  0.55550000  0.99908000  1.0
  O  O92  1  0.26927000  0.10573000  0.71390000  1.0
  O  O93  1  0.26928000  0.18037000  0.60574000  1.0
  O  O94  1  0.26928000  0.21389000  0.68038000  1.0
  O  O95  1  0.73888000  0.11112000  0.66769000  1.0
  O  O96  1  0.73888000  0.16768000  0.72120000  1.0
  O  O97  1  0.73888000  0.22120000  0.61112000  1.0
