# generated using pymatgen
data_CuH16C25SN4O5
_symmetry_space_group_name_H-M   'P 1'
_cell_length_a   8.87937000
_cell_length_b   10.75270000
_cell_length_c   13.36120000
_cell_angle_alpha   75.84710000
_cell_angle_beta   85.70500000
_cell_angle_gamma   66.33590000
_symmetry_Int_Tables_number   1
_chemical_formula_structural   CuH16C25SN4O5
_chemical_formula_sum   'Cu2 H32 C50 S2 N8 O10'
_cell_volume   1132.56890012
_cell_formula_units_Z   2
loop_
 _symmetry_equiv_pos_site_id
 _symmetry_equiv_pos_as_xyz
  1  'x, y, z'
loop_
 _atom_site_type_symbol
 _atom_site_label
 _atom_site_symmetry_multiplicity
 _atom_site_fract_x
 _atom_site_fract_y
 _atom_site_fract_z
 _atom_site_occupancy
  Cu  Cu0  1  0.49079000  0.36011000  0.19622000  1.0
  Cu  Cu1  1  0.50921000  0.63988000  0.80378000  1.0
  H  H2  1  0.21384000  0.55957000  0.51137000  1.0
  H  H3  1  0.78617000  0.44043000  0.48863000  1.0
  H  H4  1  0.16407000  0.37037000  0.64445000  1.0
  H  H5  1  0.83593000  0.62963000  0.35555000  1.0
  H  H6  1  0.16825000  0.16255000  0.59184000  1.0
  H  H7  1  0.83174000  0.83746000  0.40816000  1.0
  H  H8  1  0.23420000  0.13723000  0.41185000  1.0
  H  H9  1  0.76579000  0.86278000  0.58815000  1.0
  H  H10  1  0.57766000  0.21399000  0.87718000  1.0
  H  H11  1  0.42234000  0.78602000  0.12282000  1.0
  H  H12  1  0.49664000  0.14171000  0.73281000  1.0
  H  H13  1  0.50336000  0.85830000  0.26719000  1.0
  H  H14  1  0.26447000  0.06661000  0.75115000  1.0
  H  H15  1  0.73554000  0.93339000  0.24885000  1.0
  H  H16  1  0.10653000  0.05998000  0.91368000  1.0
  H  H17  1  0.89347000  0.94002000  0.08632000  1.0
  H  H18  1  0.54255000  0.29565000  0.44183000  1.0
  H  H19  1  0.45745000  0.70434000  0.55817000  1.0
  H  H20  1  0.76202000  0.14812000  0.57109000  1.0
  H  H21  1  0.23798000  0.85187000  0.42891000  1.0
  H  H22  1  0.05664000  0.97566000  0.32533000  1.0
  H  H23  1  0.94336000  0.02433000  0.67468000  1.0
  H  H24  1  0.82546000  0.13158000  0.20709000  1.0
  H  H25  1  0.17454000  0.86841000  0.79291000  1.0
  H  H26  1  0.70858000  0.48580000  0.24502000  1.0
  H  H27  1  0.29142000  0.51420000  0.75499000  1.0
  H  H28  1  0.94063000  0.54534000  0.16840000  1.0
  H  H29  1  0.05937000  0.45466000  0.83160000  1.0
  H  H30  1  0.87748000  0.40780000  0.89998000  1.0
  H  H31  1  0.12252000  0.59221000  0.10002000  1.0
  H  H32  1  0.65173000  0.35557000  0.98844000  1.0
  H  H33  1  0.34827000  0.64443000  0.01156000  1.0
  C  C34  1  0.24907000  0.45441000  0.38933000  1.0
  C  C35  1  0.75093000  0.54559000  0.61066000  1.0
  C  C36  1  0.21930000  0.46535000  0.49165000  1.0
  C  C37  1  0.78070000  0.53465000  0.50834000  1.0
  C  C38  1  0.19177000  0.36024000  0.56530000  1.0
  C  C39  1  0.80823000  0.63977000  0.43470000  1.0
  C  C40  1  0.19382000  0.24357000  0.53578000  1.0
  C  C41  1  0.80618000  0.75644000  0.46421000  1.0
  C  C42  1  0.22790000  0.22965000  0.43479000  1.0
  C  C43  1  0.77210000  0.77035000  0.56521000  1.0
  C  C44  1  0.25685000  0.33420000  0.36003000  1.0
  C  C45  1  0.74315000  0.66581000  0.63998000  1.0
  C  C46  1  0.27261000  0.20587000  0.13750000  1.0
  C  C47  1  0.72738000  0.79412000  0.86250000  1.0
  C  C48  1  0.40136000  0.21923000  0.06906000  1.0
  C  C49  1  0.59863000  0.78078000  0.93094000  1.0
  C  C50  1  0.38735000  0.17567000  0.97528000  1.0
  C  C51  1  0.61265000  0.82433000  0.02472000  1.0
  C  C52  1  0.47709000  0.17895000  0.88558000  1.0
  C  C53  1  0.52291000  0.82105000  0.11443000  1.0
  C  C54  1  0.43046000  0.13867000  0.80488000  1.0
  C  C55  1  0.56954000  0.86133000  0.19512000  1.0
  C  C56  1  0.29880000  0.09638000  0.81542000  1.0
  C  C57  1  0.70120000  0.90362000  0.18458000  1.0
  C  C58  1  0.20958000  0.09206000  0.90649000  1.0
  C  C59  1  0.79042000  0.90794000  0.09351000  1.0
  C  C60  1  0.25572000  0.13230000  0.98637000  1.0
  C  C61  1  0.74428000  0.86770000  0.01363000  1.0
  C  C62  1  0.18382000  0.14177000  0.09078000  1.0
  C  C63  1  0.81617000  0.85824000  0.90922000  1.0
  C  C64  1  0.65734000  0.22137000  0.41918000  1.0
  C  C65  1  0.34266000  0.77862000  0.58082000  1.0
  C  C66  1  0.78212000  0.13658000  0.49215000  1.0
  C  C67  1  0.21789000  0.86342000  0.50785000  1.0
  C  C68  1  0.93192000  0.04462000  0.46200000  1.0
  C  C69  1  0.06808000  0.95538000  0.53800000  1.0
  C  C70  1  0.94582000  0.04287000  0.35685000  1.0
  C  C71  1  0.05418000  0.95712000  0.64316000  1.0
  C  C72  1  0.81419000  0.13043000  0.28897000  1.0
  C  C73  1  0.18582000  0.86955000  0.71104000  1.0
  C  C74  1  0.75178000  0.46989000  0.16885000  1.0
  C  C75  1  0.24822000  0.53011000  0.83115000  1.0
  C  C76  1  0.88133000  0.50323000  0.12483000  1.0
  C  C77  1  0.11867000  0.49677000  0.87517000  1.0
  C  C78  1  0.93180000  0.48301000  0.02553000  1.0
  C  C79  1  0.06820000  0.51700000  0.97446000  1.0
  C  C80  1  0.84660000  0.42887000  0.97624000  1.0
  C  C81  1  0.15339000  0.57113000  0.02376000  1.0
  C  C82  1  0.71837000  0.39832000  0.02549000  1.0
  C  C83  1  0.28163000  0.60168000  0.97452000  1.0
  S  S84  1  0.25178000  0.60409000  0.29581000  1.0
  S  S85  1  0.74822000  0.39592000  0.70419000  1.0
  N  N86  1  0.30009000  0.31530000  0.25856000  1.0
  N  N87  1  0.69991000  0.68471000  0.74144000  1.0
  N  N88  1  0.23329000  0.24460000  0.22646000  1.0
  N  N89  1  0.76670000  0.75540000  0.77354000  1.0
  N  N90  1  0.67113000  0.21885000  0.31858000  1.0
  N  N91  1  0.32887000  0.78114000  0.68142000  1.0
  N  N92  1  0.67091000  0.41780000  0.12038000  1.0
  N  N93  1  0.32910000  0.58220000  0.87963000  1.0
  O  O94  1  0.50985000  0.26036000  0.08442000  1.0
  O  O95  1  0.49014000  0.73965000  0.91558000  1.0
  O  O96  1  0.07508000  0.10225000  0.12821000  1.0
  O  O97  1  0.92490000  0.89776000  0.87178000  1.0
  O  O98  1  0.26892000  0.69856000  0.35127000  1.0
  O  O99  1  0.73110000  0.30144000  0.64873000  1.0
  O  O100  1  0.09805000  0.65836000  0.23595000  1.0
  O  O101  1  0.90196000  0.34165000  0.76404000  1.0
  O  O102  1  0.40082000  0.55014000  0.23310000  1.0
  O  O103  1  0.59918000  0.44985000  0.76690000  1.0
