# generated using pymatgen
data_HgH16C22Br2N6(ClO)2
_symmetry_space_group_name_H-M   'P 1'
_cell_length_a   3.93094000
_cell_length_b   14.84070000
_cell_length_c   20.49620000
_cell_angle_alpha   89.93530000
_cell_angle_beta   89.99910000
_cell_angle_gamma   89.99920000
_symmetry_Int_Tables_number   1
_chemical_formula_structural   HgH16C22Br2N6(ClO)2
_chemical_formula_sum   'Hg2 H32 C44 Br4 N12 Cl4 O4'
_cell_volume   1195.70452915
_cell_formula_units_Z   2
loop_
 _symmetry_equiv_pos_site_id
 _symmetry_equiv_pos_as_xyz
  1  'x, y, z'
loop_
 _atom_site_type_symbol
 _atom_site_label
 _atom_site_symmetry_multiplicity
 _atom_site_fract_x
 _atom_site_fract_y
 _atom_site_fract_z
 _atom_site_occupancy
  Hg  Hg0  1  0.00000000  0.00000000  0.00000000  1.0
  Hg  Hg1  1  0.50001000  0.50000000  0.50000000  1.0
  H  H2  1  0.14658000  0.57694000  0.17444000  1.0
  H  H3  1  0.64664000  0.92307000  0.32555000  1.0
  H  H4  1  0.85340000  0.42306000  0.82556000  1.0
  H  H5  1  0.35340000  0.07694000  0.67444000  1.0
  H  H6  1  0.68122000  0.45799000  0.04270000  1.0
  H  H7  1  0.18125000  0.04202000  0.45730000  1.0
  H  H8  1  0.31878000  0.54201000  0.95730000  1.0
  H  H9  1  0.81878000  0.95798000  0.54270000  1.0
  H  H10  1  0.81188000  0.77267000  0.02468000  1.0
  H  H11  1  0.31184000  0.72734000  0.47531000  1.0
  H  H12  1  0.18812000  0.22733000  0.97532000  1.0
  H  H13  1  0.68815000  0.27268000  0.52468000  1.0
  H  H14  1  0.31200000  0.94730000  0.15066000  1.0
  H  H15  1  0.81199000  0.55269000  0.34934000  1.0
  H  H16  1  0.68802000  0.05269000  0.84935000  1.0
  H  H17  1  0.18802000  0.44731000  0.65066000  1.0
  H  H18  1  0.14364000  0.27338000  0.22493000  1.0
  H  H19  1  0.64370000  0.22661000  0.27506000  1.0
  H  H20  1  0.85637000  0.72661000  0.77507000  1.0
  H  H21  1  0.35630000  0.77340000  0.72494000  1.0
  H  H22  1  0.61706000  0.29308000  0.04090000  1.0
  H  H23  1  0.11706000  0.20693000  0.45909000  1.0
  H  H24  1  0.38293000  0.70692000  0.95910000  1.0
  H  H25  1  0.88293000  0.79307000  0.54091000  1.0
  H  H26  1  0.85340000  0.19870000  0.13160000  1.0
  H  H27  1  0.35344000  0.30130000  0.36840000  1.0
  H  H28  1  0.14659000  0.80129000  0.86840000  1.0
  H  H29  1  0.64656000  0.69870000  0.63161000  1.0
  H  H30  1  0.41618000  0.81822000  0.22960000  1.0
  H  H31  1  0.91619000  0.68178000  0.27040000  1.0
  H  H32  1  0.58383000  0.18177000  0.77040000  1.0
  H  H33  1  0.08380000  0.31822000  0.72960000  1.0
  C  C34  1  0.00644000  0.71151000  0.11385000  1.0
  C  C35  1  0.50646000  0.78849000  0.38614000  1.0
  C  C36  1  0.99352000  0.28848000  0.88615000  1.0
  C  C37  1  0.49355000  0.21152000  0.61385000  1.0
  C  C38  1  0.87443000  0.61928000  0.09709000  1.0
  C  C39  1  0.37443000  0.88072000  0.40291000  1.0
  C  C40  1  0.12556000  0.38071000  0.90292000  1.0
  C  C41  1  0.62558000  0.11929000  0.59709000  1.0
  C  C42  1  0.94600000  0.46065000  0.13479000  1.0
  C  C43  1  0.44603000  0.03934000  0.36521000  1.0
  C  C44  1  0.05398000  0.53934000  0.86521000  1.0
  C  C45  1  0.55397000  0.96066000  0.63479000  1.0
  C  C46  1  0.07090000  0.40650000  0.18603000  1.0
  C  C47  1  0.57094000  0.09350000  0.31397000  1.0
  C  C48  1  0.92909000  0.59350000  0.81397000  1.0
  C  C49  1  0.42907000  0.90651000  0.68603000  1.0
  C  C50  1  0.78236000  0.41760000  0.08238000  1.0
  C  C51  1  0.28240000  0.08241000  0.41762000  1.0
  C  C52  1  0.21763000  0.58240000  0.91762000  1.0
  C  C53  1  0.71764000  0.91760000  0.58238000  1.0
  C  C54  1  0.94669000  0.78294000  0.07057000  1.0
  C  C55  1  0.44665000  0.71707000  0.42942000  1.0
  C  C56  1  0.05331000  0.21706000  0.92943000  1.0
  C  C57  1  0.55334000  0.28294000  0.57058000  1.0
  C  C58  1  0.22147000  0.87912000  0.14061000  1.0
  C  C59  1  0.72146000  0.62088000  0.35938000  1.0
  C  C60  1  0.77856000  0.12087000  0.85939000  1.0
  C  C61  1  0.27855000  0.37913000  0.64062000  1.0
  C  C62  1  0.04021000  0.31329000  0.18503000  1.0
  C  C63  1  0.54024000  0.18671000  0.31497000  1.0
  C  C64  1  0.95979000  0.68671000  0.81497000  1.0
  C  C65  1  0.45974000  0.81330000  0.68503000  1.0
  C  C66  1  0.74939000  0.32425000  0.08170000  1.0
  C  C67  1  0.24940000  0.17575000  0.41830000  1.0
  C  C68  1  0.25061000  0.67575000  0.91830000  1.0
  C  C69  1  0.75059000  0.82425000  0.58170000  1.0
  C  C70  1  0.87812000  0.27174000  0.13246000  1.0
  C  C71  1  0.37814000  0.22826000  0.36753000  1.0
  C  C72  1  0.12188000  0.72826000  0.86754000  1.0
  C  C73  1  0.62186000  0.77174000  0.63247000  1.0
  C  C74  1  0.28042000  0.80776000  0.18367000  1.0
  C  C75  1  0.78042000  0.69224000  0.31633000  1.0
  C  C76  1  0.71959000  0.19223000  0.81634000  1.0
  C  C77  1  0.21958000  0.30776000  0.68367000  1.0
  Br  Br78  1  0.28469000  0.46116000  0.25988000  1.0
  Br  Br79  1  0.78472000  0.03885000  0.24012000  1.0
  Br  Br80  1  0.71530000  0.53884000  0.74012000  1.0
  Br  Br81  1  0.21525000  0.96117000  0.75988000  1.0
  N  N82  1  0.99290000  0.55384000  0.13781000  1.0
  N  N83  1  0.49295000  0.94616000  0.36218000  1.0
  N  N84  1  0.00706000  0.44615000  0.86219000  1.0
  N  N85  1  0.50708000  0.05384000  0.63781000  1.0
  N  N86  1  0.17547000  0.72396000  0.17012000  1.0
  N  N87  1  0.67548000  0.77604000  0.32988000  1.0
  N  N88  1  0.82452000  0.27603000  0.82988000  1.0
  N  N89  1  0.32453000  0.22396000  0.67012000  1.0
  N  N90  1  0.05586000  0.86605000  0.08430000  1.0
  N  N91  1  0.55584000  0.63395000  0.41570000  1.0
  N  N92  1  0.94416000  0.13395000  0.91570000  1.0
  N  N93  1  0.44415000  0.36606000  0.58430000  1.0
  Cl  Cl94  1  0.39757000  0.08672000  0.06529000  1.0
  Cl  Cl95  1  0.89757000  0.41328000  0.43471000  1.0
  Cl  Cl96  1  0.60244000  0.91328000  0.93471000  1.0
  Cl  Cl97  1  0.10244000  0.58672000  0.56529000  1.0
  O  O98  1  0.67538000  0.60899000  0.05089000  1.0
  O  O99  1  0.17539000  0.89101000  0.44910000  1.0
  O  O100  1  0.32457000  0.39100000  0.94911000  1.0
  O  O101  1  0.82464000  0.10899000  0.55089000  1.0
