# generated using pymatgen
data_AlH13C18O5
_symmetry_space_group_name_H-M   'P 1'
_cell_length_a   6.64216000
_cell_length_b   24.01550000
_cell_length_c   25.35170000
_cell_angle_alpha   90.01910000
_cell_angle_beta   90.96300000
_cell_angle_gamma   90.67470000
_symmetry_Int_Tables_number   1
_chemical_formula_structural   AlH13C18O5
_chemical_formula_sum   'Al4 H52 C72 O20'
_cell_volume   4043.11909443
_cell_formula_units_Z   4
loop_
 _symmetry_equiv_pos_site_id
 _symmetry_equiv_pos_as_xyz
  1  'x, y, z'
loop_
 _atom_site_type_symbol
 _atom_site_label
 _atom_site_symmetry_multiplicity
 _atom_site_fract_x
 _atom_site_fract_y
 _atom_site_fract_z
 _atom_site_occupancy
  Al  Al0  1  0.07269000  0.99931000  0.50232000  1.0
  Al  Al1  1  0.57252000  0.00066000  0.50072000  1.0
  Al  Al2  1  0.92807000  0.49936000  0.99981000  1.0
  Al  Al3  1  0.42837000  0.50061000  0.99862000  1.0
  H  H4  1  0.83000000  0.07403000  0.50087000  1.0
  H  H5  1  0.31827000  0.93191000  0.47871000  1.0
  H  H6  1  0.67080000  0.42881000  0.98313000  1.0
  H  H7  1  0.18231000  0.56937000  0.01923000  1.0
  H  H8  1  0.45367000  0.42445000  0.85699000  1.0
  H  H9  1  0.49200000  0.35372000  0.78578000  1.0
  H  H10  1  0.92834000  0.27853000  0.83106000  1.0
  H  H11  1  0.57593000  0.22083000  0.66972000  1.0
  H  H12  1  0.04627000  0.07622000  0.64308000  1.0
  H  H13  1  0.00968000  0.14680000  0.71454000  1.0
  H  H14  1  0.97265000  0.63995000  0.08799000  1.0
  H  H15  1  0.00238000  0.71421000  0.15647000  1.0
  H  H16  1  0.45552000  0.65234000  0.22587000  1.0
  H  H17  1  0.04340000  0.84760000  0.27409000  1.0
  H  H18  1  0.52969000  0.85948000  0.41283000  1.0
  H  H19  1  0.49871000  0.78533000  0.34430000  1.0
  H  H20  1  0.39965000  0.63880000  0.89780000  1.0
  H  H21  1  0.41957000  0.71304000  0.82901000  1.0
  H  H22  1  0.99960000  0.65134000  0.78472000  1.0
  H  H23  1  0.50067000  0.84908000  0.71596000  1.0
  H  H24  1  0.10096000  0.86199000  0.60304000  1.0
  H  H25  1  0.08135000  0.78771000  0.67178000  1.0
  H  H26  1  0.47224000  0.36015000  0.08740000  1.0
  H  H27  1  0.50138000  0.28658000  0.15660000  1.0
  H  H28  1  0.93721000  0.33999000  0.22008000  1.0
  H  H29  1  0.55503000  0.15937000  0.27875000  1.0
  H  H30  1  0.02609000  0.13902000  0.41291000  1.0
  H  H31  1  0.99101000  0.21161000  0.34314000  1.0
  H  H32  1  0.74451000  0.30958000  0.90004000  1.0
  H  H33  1  0.87087000  0.34717000  0.95170000  1.0
  H  H34  1  0.73355000  0.38343000  0.90270000  1.0
  H  H35  1  0.76386000  0.11492000  0.59534000  1.0
  H  H36  1  0.62952000  0.15477000  0.54879000  1.0
  H  H37  1  0.76186000  0.18880000  0.60162000  1.0
  H  H38  1  0.41040000  0.52644000  0.14580000  1.0
  H  H39  1  0.31653000  0.56585000  0.19962000  1.0
  H  H40  1  0.24414000  0.58165000  0.13375000  1.0
  H  H41  1  0.26322000  0.91552000  0.36106000  1.0
  H  H42  1  0.16878000  0.93805000  0.29905000  1.0
  H  H43  1  0.09660000  0.97205000  0.35832000  1.0
  H  H44  1  0.12337000  0.57202000  0.88825000  1.0
  H  H45  1  0.97496000  0.52330000  0.85322000  1.0
  H  H46  1  0.12944000  0.57120000  0.81797000  1.0
  H  H47  1  0.37041000  0.92922000  0.68271000  1.0
  H  H48  1  0.52478000  0.97719000  0.64751000  1.0
  H  H49  1  0.37700000  0.92839000  0.61244000  1.0
  H  H50  1  0.76691000  0.41566000  0.18820000  1.0
  H  H51  1  0.90048000  0.46688000  0.15117000  1.0
  H  H52  1  0.75396000  0.41652000  0.11789000  1.0
  H  H53  1  0.74317000  0.08337000  0.38159000  1.0
  H  H54  1  0.59959000  0.03331000  0.34705000  1.0
  H  H55  1  0.73242000  0.08571000  0.31136000  1.0
  C  C56  1  0.31793000  0.06902000  0.43055000  1.0
  C  C57  1  0.33125000  0.06652000  0.57359000  1.0
  C  C58  1  0.82292000  0.93384000  0.57348000  1.0
  C  C59  1  0.81392000  0.93418000  0.42800000  1.0
  C  C60  1  0.18301000  0.43113000  0.06980000  1.0
  C  C61  1  0.16908000  0.43350000  0.92681000  1.0
  C  C62  1  0.67760000  0.56685000  0.92741000  1.0
  C  C63  1  0.68762000  0.56529000  0.07268000  1.0
  C  C64  1  0.17065000  0.39174000  0.88336000  1.0
  C  C65  1  0.33888000  0.39230000  0.85046000  1.0
  C  C66  1  0.36075000  0.35308000  0.81099000  1.0
  C  C67  1  0.21283000  0.31093000  0.80417000  1.0
  C  C68  1  0.04219000  0.31122000  0.83653000  1.0
  C  C69  1  0.01644000  0.35112000  0.87592000  1.0
  C  C70  1  0.23839000  0.26843000  0.76636000  1.0
  C  C71  1  0.26564000  0.23142000  0.73431000  1.0
  C  C72  1  0.29046000  0.18896000  0.69641000  1.0
  C  C73  1  0.46123000  0.18841000  0.66409000  1.0
  C  C74  1  0.48605000  0.14861000  0.62455000  1.0
  C  C75  1  0.33068000  0.10831000  0.61703000  1.0
  C  C76  1  0.16219000  0.10803000  0.64985000  1.0
  C  C77  1  0.14123000  0.14719000  0.68941000  1.0
  C  C78  1  0.69493000  0.60608000  0.11701000  1.0
  C  C79  1  0.85915000  0.64355000  0.11831000  1.0
  C  C80  1  0.87618000  0.68482000  0.15631000  1.0
  C  C81  1  0.72774000  0.68879000  0.19525000  1.0
  C  C82  1  0.56686000  0.64995000  0.19480000  1.0
  C  C83  1  0.54579000  0.60862000  0.15614000  1.0
  C  C84  1  0.74205000  0.73113000  0.23396000  1.0
  C  C85  1  0.75789000  0.76854000  0.26646000  1.0
  C  C86  1  0.77244000  0.81091000  0.30513000  1.0
  C  C87  1  0.93274000  0.84990000  0.30533000  1.0
  C  C88  1  0.95423000  0.89126000  0.34399000  1.0
  C  C89  1  0.80639000  0.89362000  0.38343000  1.0
  C  C90  1  0.64239000  0.85603000  0.38230000  1.0
  C  C91  1  0.62478000  0.81478000  0.34431000  1.0
  C  C92  1  0.69037000  0.60531000  0.88144000  1.0
  C  C93  1  0.53122000  0.64242000  0.87283000  1.0
  C  C94  1  0.54182000  0.68365000  0.83462000  1.0
  C  C95  1  0.71510000  0.68810000  0.80338000  1.0
  C  C96  1  0.86925000  0.64874000  0.81027000  1.0
  C  C97  1  0.86168000  0.60724000  0.84871000  1.0
  C  C98  1  0.73748000  0.73138000  0.76610000  1.0
  C  C99  1  0.76331000  0.76920000  0.73463000  1.0
  C  C100  1  0.78556000  0.81251000  0.69736000  1.0
  C  C101  1  0.63119000  0.85179000  0.69049000  1.0
  C  C102  1  0.63863000  0.89332000  0.65206000  1.0
  C  C103  1  0.81011000  0.89536000  0.61940000  1.0
  C  C104  1  0.96948000  0.85832000  0.62801000  1.0
  C  C105  1  0.95892000  0.81704000  0.66617000  1.0
  C  C106  1  0.18762000  0.38984000  0.11375000  1.0
  C  C107  1  0.35497000  0.35468000  0.11656000  1.0
  C  C108  1  0.37163000  0.31390000  0.15495000  1.0
  C  C109  1  0.21899000  0.30805000  0.19265000  1.0
  C  C110  1  0.05293000  0.34410000  0.19023000  1.0
  C  C111  1  0.03272000  0.38498000  0.15131000  1.0
  C  C112  1  0.23514000  0.26703000  0.23247000  1.0
  C  C113  1  0.25449000  0.23139000  0.26648000  1.0
  C  C114  1  0.27289000  0.19068000  0.30650000  1.0
  C  C115  1  0.44054000  0.15516000  0.30891000  1.0
  C  C116  1  0.46406000  0.11477000  0.34817000  1.0
  C  C117  1  0.31091000  0.10983000  0.38623000  1.0
  C  C118  1  0.14206000  0.14447000  0.38341000  1.0
  C  C119  1  0.12192000  0.18471000  0.34464000  1.0
  C  C120  1  0.83151000  0.34751000  0.90940000  1.0
  C  C121  1  0.67047000  0.15205000  0.59091000  1.0
  C  C122  1  0.37081000  0.56830000  0.15902000  1.0
  C  C123  1  0.12886000  0.93166000  0.34050000  1.0
  C  C124  1  0.03175000  0.56641000  0.85219000  1.0
  C  C125  1  0.46833000  0.93405000  0.64854000  1.0
  C  C126  1  0.85374000  0.42286000  0.15234000  1.0
  C  C127  1  0.64462000  0.07749000  0.34685000  1.0
  O  O128  1  0.14865000  0.05228000  0.44806000  1.0
  O  O129  1  0.49946000  0.05017000  0.55638000  1.0
  O  O130  1  0.65657000  0.94825000  0.55221000  1.0
  O  O131  1  0.98565000  0.94758000  0.44770000  1.0
  O  O132  1  0.99675000  0.94820000  0.55713000  1.0
  O  O133  1  0.64482000  0.95125000  0.44435000  1.0
  O  O134  1  0.49012000  0.05482000  0.44870000  1.0
  O  O135  1  0.15935000  0.05014000  0.55615000  1.0
  O  O136  1  0.82500000  0.03379000  0.50154000  1.0
  O  O137  1  0.32152000  0.96578000  0.49952000  1.0
  O  O138  1  0.01160000  0.44497000  0.05099000  1.0
  O  O139  1  0.34080000  0.44942000  0.94485000  1.0
  O  O140  1  0.50367000  0.55211000  0.94344000  1.0
  O  O141  1  0.85639000  0.54775000  0.05660000  1.0
  O  O142  1  0.84426000  0.55298000  0.94892000  1.0
  O  O143  1  0.51616000  0.55191000  0.05287000  1.0
  O  O144  1  0.35290000  0.44837000  0.05323000  1.0
  O  O145  1  0.00043000  0.45029000  0.94342000  1.0
  O  O146  1  0.67575000  0.46579000  0.99836000  1.0
  O  O147  1  0.17944000  0.53413000  0.00063000  1.0
