# generated using pymatgen
data_EuH22C24N3O8
_symmetry_space_group_name_H-M   'P 1'
_cell_length_a   9.50229000
_cell_length_b   12.61180000
_cell_length_c   21.11050000
_cell_angle_alpha   89.99910000
_cell_angle_beta   95.65640000
_cell_angle_gamma   89.99670000
_symmetry_Int_Tables_number   1
_chemical_formula_structural   EuH22C24N3O8
_chemical_formula_sum   'Eu4 H88 C96 N12 O32'
_cell_volume   2517.58457449
_cell_formula_units_Z   4
loop_
 _symmetry_equiv_pos_site_id
 _symmetry_equiv_pos_as_xyz
  1  'x, y, z'
loop_
 _atom_site_type_symbol
 _atom_site_label
 _atom_site_symmetry_multiplicity
 _atom_site_fract_x
 _atom_site_fract_y
 _atom_site_fract_z
 _atom_site_occupancy
  Eu  Eu0  1  0.74785000  0.46087000  0.00107000  1.0
  Eu  Eu1  1  0.75215000  0.96087000  0.49893000  1.0
  Eu  Eu2  1  0.25215000  0.53913000  0.99893000  1.0
  Eu  Eu3  1  0.24785000  0.03913000  0.50107000  1.0
  H  H4  1  0.70255000  0.77620000  0.13925000  1.0
  H  H5  1  0.79745000  0.27620000  0.36075000  1.0
  H  H6  1  0.29745000  0.22380000  0.86075000  1.0
  H  H7  1  0.20255000  0.72380000  0.63925000  1.0
  H  H8  1  0.86142000  0.84184000  0.02491000  1.0
  H  H9  1  0.63857000  0.34184000  0.47509000  1.0
  H  H10  1  0.13858000  0.15816000  0.97509000  1.0
  H  H11  1  0.36143000  0.65816000  0.52491000  1.0
  H  H12  1  0.88386000  0.02623000  0.00568000  1.0
  H  H13  1  0.61614000  0.52624000  0.49432000  1.0
  H  H14  1  0.11614000  0.97377000  0.99432000  1.0
  H  H15  1  0.38385000  0.47376000  0.50568000  1.0
  H  H16  1  0.83095000  0.25826000  0.13933000  1.0
  H  H17  1  0.66905000  0.75827000  0.36067000  1.0
  H  H18  1  0.16904000  0.74174000  0.86067000  1.0
  H  H19  1  0.33095000  0.24173000  0.63933000  1.0
  H  H20  1  0.75898000  0.12431000  0.21811000  1.0
  H  H21  1  0.74102000  0.62432000  0.28189000  1.0
  H  H22  1  0.24102000  0.87569000  0.78189000  1.0
  H  H23  1  0.25898000  0.37568000  0.71811000  1.0
  H  H24  1  0.75254000  0.93134000  0.18731000  1.0
  H  H25  1  0.74746000  0.43134000  0.31269000  1.0
  H  H26  1  0.24746000  0.06866000  0.81269000  1.0
  H  H27  1  0.25254000  0.56866000  0.68731000  1.0
  H  H28  1  0.70345000  0.73825000  0.92197000  1.0
  H  H29  1  0.79655000  0.23826000  0.57803000  1.0
  H  H30  1  0.29655000  0.26175000  0.07803000  1.0
  H  H31  1  0.20345000  0.76174000  0.42197000  1.0
  H  H32  1  0.43220000  0.86590000  0.93684000  1.0
  H  H33  1  0.06780000  0.36588000  0.56316000  1.0
  H  H34  1  0.56780000  0.13410000  0.06316000  1.0
  H  H35  1  0.93220000  0.63412000  0.43684000  1.0
  H  H36  1  0.47171000  0.05952000  0.94452000  1.0
  H  H37  1  0.02829000  0.55951000  0.55548000  1.0
  H  H38  1  0.52829000  0.94048000  0.05548000  1.0
  H  H39  1  0.97171000  0.44049000  0.44452000  1.0
  H  H40  1  0.82153000  0.20447000  0.88129000  1.0
  H  H41  1  0.67846000  0.70448000  0.61871000  1.0
  H  H42  1  0.17847000  0.79553000  0.11871000  1.0
  H  H43  1  0.32154000  0.29552000  0.38129000  1.0
  H  H44  1  0.91737000  0.03116000  0.84641000  1.0
  H  H45  1  0.58263000  0.53117000  0.65359000  1.0
  H  H46  1  0.08263000  0.96884000  0.15359000  1.0
  H  H47  1  0.41737000  0.46883000  0.34641000  1.0
  H  H48  1  0.78901000  0.86423000  0.86881000  1.0
  H  H49  1  0.71099000  0.36423000  0.63119000  1.0
  H  H50  1  0.21099000  0.13577000  0.13119000  1.0
  H  H51  1  0.28900000  0.63576000  0.36881000  1.0
  H  H52  1  0.03631000  0.32612000  0.18726000  1.0
  H  H53  1  0.46371000  0.82613000  0.31275000  1.0
  H  H54  1  0.96369000  0.67388000  0.81274000  1.0
  H  H55  1  0.53630000  0.17388000  0.68725000  1.0
  H  H56  1  0.30790000  0.43294000  0.14972000  1.0
  H  H57  1  0.19209000  0.93294000  0.35028000  1.0
  H  H58  1  0.69210000  0.56706000  0.85028000  1.0
  H  H59  1  0.80791000  0.06706000  0.64972000  1.0
  H  H60  1  0.52814000  0.37515000  0.19919000  1.0
  H  H61  1  0.97185000  0.87515000  0.30081000  1.0
  H  H62  1  0.47186000  0.62485000  0.80081000  1.0
  H  H63  1  0.02815000  0.12485000  0.69919000  1.0
  H  H64  1  0.57446000  0.11992000  0.32307000  1.0
  H  H65  1  0.92555000  0.61993000  0.17694000  1.0
  H  H66  1  0.42554000  0.88008000  0.67693000  1.0
  H  H67  1  0.07445000  0.38007000  0.82306000  1.0
  H  H68  1  0.31292000  0.10088000  0.32347000  1.0
  H  H69  1  0.18710000  0.60089000  0.17654000  1.0
  H  H70  1  0.68708000  0.89912000  0.67653000  1.0
  H  H71  1  0.81291000  0.39911000  0.82346000  1.0
  H  H72  1  0.15394000  0.22072000  0.25547000  1.0
  H  H73  1  0.34606000  0.72071000  0.24453000  1.0
  H  H74  1  0.84606000  0.77928000  0.74453000  1.0
  H  H75  1  0.65394000  0.27929000  0.75547000  1.0
  H  H76  1  0.88271000  0.24562000  0.01628000  1.0
  H  H77  1  0.61730000  0.74563000  0.48372000  1.0
  H  H78  1  0.11729000  0.75437000  0.98372000  1.0
  H  H79  1  0.38270000  0.25437000  0.51628000  1.0
  H  H80  1  0.98590000  0.31950000  0.97869000  1.0
  H  H81  1  0.51411000  0.81951000  0.52132000  1.0
  H  H82  1  0.01410000  0.68050000  0.02131000  1.0
  H  H83  1  0.48589000  0.18049000  0.47868000  1.0
  H  H84  1  0.61051000  0.28196000  0.91911000  1.0
  H  H85  1  0.88949000  0.78196000  0.58089000  1.0
  H  H86  1  0.38949000  0.71804000  0.08089000  1.0
  H  H87  1  0.11052000  0.21804000  0.41912000  1.0
  H  H88  1  0.50554000  0.38088000  0.91087000  1.0
  H  H89  1  0.99446000  0.88087000  0.58913000  1.0
  H  H90  1  0.49446000  0.61912000  0.08913000  1.0
  H  H91  1  0.00554000  0.11913000  0.41087000  1.0
  C  C92  1  0.75849000  0.66317000  0.06730000  1.0
  C  C93  1  0.74151000  0.16318000  0.43270000  1.0
  C  C94  1  0.24151000  0.33682000  0.93270000  1.0
  C  C95  1  0.25848000  0.83682000  0.56730000  1.0
  C  C96  1  0.75600000  0.76994000  0.09601000  1.0
  C  C97  1  0.74400000  0.26994000  0.40398000  1.0
  C  C98  1  0.24400000  0.23006000  0.90398000  1.0
  C  C99  1  0.25600000  0.73006000  0.59602000  1.0
  C  C100  1  0.81337000  0.85452000  0.06930000  1.0
  C  C101  1  0.68663000  0.35452000  0.43070000  1.0
  C  C102  1  0.18664000  0.14548000  0.93070000  1.0
  C  C103  1  0.31337000  0.64548000  0.56930000  1.0
  C  C104  1  0.81595000  0.96284000  0.09309000  1.0
  C  C105  1  0.68405000  0.46285000  0.40691000  1.0
  C  C106  1  0.18405000  0.03716000  0.90691000  1.0
  C  C107  1  0.31595000  0.53715000  0.59309000  1.0
  C  C108  1  0.85701000  0.04475000  0.05365000  1.0
  C  C109  1  0.64299000  0.54476000  0.44635000  1.0
  C  C110  1  0.14299000  0.95525000  0.94635000  1.0
  C  C111  1  0.35701000  0.45524000  0.55365000  1.0
  C  C112  1  0.82884000  0.17361000  0.12869000  1.0
  C  C113  1  0.67117000  0.67362000  0.37131000  1.0
  C  C114  1  0.17116000  0.82639000  0.87131000  1.0
  C  C115  1  0.32883000  0.32638000  0.62869000  1.0
  C  C116  1  0.78795000  0.09825000  0.17190000  1.0
  C  C117  1  0.71206000  0.59826000  0.32811000  1.0
  C  C118  1  0.21206000  0.90175000  0.82810000  1.0
  C  C119  1  0.28794000  0.40174000  0.67190000  1.0
  C  C120  1  0.78189000  0.99199000  0.15418000  1.0
  C  C121  1  0.71811000  0.49200000  0.34582000  1.0
  C  C122  1  0.21811000  0.00801000  0.84582000  1.0
  C  C123  1  0.28189000  0.50800000  0.65418000  1.0
  C  C124  1  0.50801000  0.66062000  0.94236000  1.0
  C  C125  1  0.99199000  0.16061000  0.55764000  1.0
  C  C126  1  0.49199000  0.33938000  0.05764000  1.0
  C  C127  1  0.00801000  0.83939000  0.44236000  1.0
  C  C128  1  0.59323000  0.75467000  0.92852000  1.0
  C  C129  1  0.90676000  0.25467000  0.57147000  1.0
  C  C130  1  0.40677000  0.24533000  0.07148000  1.0
  C  C131  1  0.09324000  0.74533000  0.42853000  1.0
  C  C132  1  0.54118000  0.85405000  0.92607000  1.0
  C  C133  1  0.95882000  0.35405000  0.57392000  1.0
  C  C134  1  0.45883000  0.14595000  0.07393000  1.0
  C  C135  1  0.04118000  0.64595000  0.42608000  1.0
  C  C136  1  0.62118000  0.94765000  0.91085000  1.0
  C  C137  1  0.87882000  0.44764000  0.58915000  1.0
  C  C138  1  0.37882000  0.05235000  0.08915000  1.0
  C  C139  1  0.12118000  0.55235000  0.41085000  1.0
  C  C140  1  0.57187000  0.04991000  0.92380000  1.0
  C  C141  1  0.92813000  0.54991000  0.57620000  1.0
  C  C142  1  0.42813000  0.95009000  0.07620000  1.0
  C  C143  1  0.07187000  0.45009000  0.42380000  1.0
  C  C144  1  0.76521000  0.13065000  0.88716000  1.0
  C  C145  1  0.73478000  0.63065000  0.61284000  1.0
  C  C146  1  0.23479000  0.86935000  0.11284000  1.0
  C  C147  1  0.26522000  0.36935000  0.38716000  1.0
  C  C148  1  0.82000000  0.03348000  0.86950000  1.0
  C  C149  1  0.68000000  0.53349000  0.63050000  1.0
  C  C150  1  0.18000000  0.96652000  0.13050000  1.0
  C  C151  1  0.32000000  0.46651000  0.36950000  1.0
  C  C152  1  0.74823000  0.94117000  0.88189000  1.0
  C  C153  1  0.75177000  0.44118000  0.61811000  1.0
  C  C154  1  0.25177000  0.05883000  0.11811000  1.0
  C  C155  1  0.24823000  0.55882000  0.38189000  1.0
  C  C156  1  0.03348000  0.44084000  0.10941000  1.0
  C  C157  1  0.46652000  0.94084000  0.39059000  1.0
  C  C158  1  0.96652000  0.55916000  0.89059000  1.0
  C  C159  1  0.53348000  0.05916000  0.60941000  1.0
  C  C160  1  0.10502000  0.37788000  0.16262000  1.0
  C  C161  1  0.39498000  0.87788000  0.33738000  1.0
  C  C162  1  0.89498000  0.62212000  0.83737000  1.0
  C  C163  1  0.60502000  0.12212000  0.66262000  1.0
  C  C164  1  0.24658000  0.37865000  0.17671000  1.0
  C  C165  1  0.25342000  0.87865000  0.32329000  1.0
  C  C166  1  0.75342000  0.62135000  0.82329000  1.0
  C  C167  1  0.74658000  0.12135000  0.67671000  1.0
  C  C168  1  0.32838000  0.30821000  0.22086000  1.0
  C  C169  1  0.17163000  0.80821000  0.27914000  1.0
  C  C170  1  0.67162000  0.69179000  0.77914000  1.0
  C  C171  1  0.82837000  0.19179000  0.72086000  1.0
  C  C172  1  0.47727000  0.31441000  0.22617000  1.0
  C  C173  1  0.02273000  0.81441000  0.27383000  1.0
  C  C174  1  0.52272000  0.68559000  0.77383000  1.0
  C  C175  1  0.97727000  0.18559000  0.72617000  1.0
  C  C176  1  0.50285000  0.17321000  0.29465000  1.0
  C  C177  1  0.99716000  0.67321000  0.20535000  1.0
  C  C178  1  0.49715000  0.82679000  0.70535000  1.0
  C  C179  1  0.00284000  0.32679000  0.79465000  1.0
  C  C180  1  0.35644000  0.16088000  0.29390000  1.0
  C  C181  1  0.14358000  0.66089000  0.20610000  1.0
  C  C182  1  0.64356000  0.83912000  0.70610000  1.0
  C  C183  1  0.85642000  0.33911000  0.79390000  1.0
  C  C184  1  0.26848000  0.22884000  0.25651000  1.0
  C  C185  1  0.23153000  0.72884000  0.24349000  1.0
  C  C186  1  0.73152000  0.77116000  0.74349000  1.0
  C  C187  1  0.76847000  0.27116000  0.75651000  1.0
  N  N188  1  0.86420000  0.14682000  0.07070000  1.0
  N  N189  1  0.63581000  0.64683000  0.42930000  1.0
  N  N190  1  0.13580000  0.85318000  0.92930000  1.0
  N  N191  1  0.36419000  0.35317000  0.57070000  1.0
  N  N192  1  0.64208000  0.13923000  0.91300000  1.0
  N  N193  1  0.85792000  0.63923000  0.58701000  1.0
  N  N194  1  0.35792000  0.86077000  0.08700000  1.0
  N  N195  1  0.14208000  0.36076000  0.41299000  1.0
  N  N196  1  0.56357000  0.24917000  0.26179000  1.0
  N  N197  1  0.93644000  0.74918000  0.23821000  1.0
  N  N198  1  0.43643000  0.75083000  0.73821000  1.0
  N  N199  1  0.06356000  0.25082000  0.76179000  1.0
  O  O200  1  0.67546000  0.59151000  0.08503000  1.0
  O  O201  1  0.82454000  0.09150000  0.41497000  1.0
  O  O202  1  0.32454000  0.40849000  0.91497000  1.0
  O  O203  1  0.17546000  0.90850000  0.58503000  1.0
  O  O204  1  0.84125000  0.64314000  0.02433000  1.0
  O  O205  1  0.65876000  0.14314000  0.47567000  1.0
  O  O206  1  0.15875000  0.35686000  0.97567000  1.0
  O  O207  1  0.34124000  0.85686000  0.52433000  1.0
  O  O208  1  0.57204000  0.57173000  0.95027000  1.0
  O  O209  1  0.92797000  0.07172000  0.54973000  1.0
  O  O210  1  0.42796000  0.42828000  0.04973000  1.0
  O  O211  1  0.07203000  0.92828000  0.45027000  1.0
  O  O212  1  0.37584000  0.67129000  0.94569000  1.0
  O  O213  1  0.12415000  0.17128000  0.55431000  1.0
  O  O214  1  0.62416000  0.32871000  0.05430000  1.0
  O  O215  1  0.87585000  0.82872000  0.44569000  1.0
  O  O216  1  0.90041000  0.42887000  0.09789000  1.0
  O  O217  1  0.59959000  0.92887000  0.40211000  1.0
  O  O218  1  0.09959000  0.57113000  0.90211000  1.0
  O  O219  1  0.40041000  0.07114000  0.59789000  1.0
  O  O220  1  0.10763000  0.50131000  0.07746000  1.0
  O  O221  1  0.39237000  0.00130000  0.42254000  1.0
  O  O222  1  0.89237000  0.49870000  0.92254000  1.0
  O  O223  1  0.60763000  0.99870000  0.57746000  1.0
  O  O224  1  0.88491000  0.30348000  0.98335000  1.0
  O  O225  1  0.61510000  0.80348000  0.51665000  1.0
  O  O226  1  0.11509000  0.69652000  0.01665000  1.0
  O  O227  1  0.38490000  0.19652000  0.48335000  1.0
  O  O228  1  0.60728000  0.36110000  0.91602000  1.0
  O  O229  1  0.89272000  0.86110000  0.58398000  1.0
  O  O230  1  0.39272000  0.63890000  0.08398000  1.0
  O  O231  1  0.10728000  0.13890000  0.41602000  1.0
