# generated using pymatgen
data_NiH10(C3O4)2
_symmetry_space_group_name_H-M   'P 1'
_cell_length_a   6.42060000
_cell_length_b   10.69060000
_cell_length_c   10.69250000
_cell_angle_alpha   75.20880000
_cell_angle_beta   73.34800000
_cell_angle_gamma   73.25340000
_symmetry_Int_Tables_number   1
_chemical_formula_structural   NiH10(C3O4)2
_chemical_formula_sum   'Ni3 H30 C18 O24'
_cell_volume   661.29139162
_cell_formula_units_Z   3
loop_
 _symmetry_equiv_pos_site_id
 _symmetry_equiv_pos_as_xyz
  1  'x, y, z'
loop_
 _atom_site_type_symbol
 _atom_site_label
 _atom_site_symmetry_multiplicity
 _atom_site_fract_x
 _atom_site_fract_y
 _atom_site_fract_z
 _atom_site_occupancy
  Ni  Ni0  1  0.22657000  0.03911000  0.44181000  1.0
  Ni  Ni1  1  0.77310000  0.55833000  0.96076000  1.0
  Ni  Ni2  1  0.99972000  0.58909000  0.41048000  1.0
  H  H3  1  0.49909000  0.92550000  0.07600000  1.0
  H  H4  1  0.29568000  0.34338000  0.92406000  1.0
  H  H5  1  0.70325000  0.07695000  0.65865000  1.0
  H  H6  1  0.00197000  0.19145000  0.80677000  1.0
  H  H7  1  0.20823000  0.77334000  0.96169000  1.0
  H  H8  1  0.79238000  0.03813000  0.22444000  1.0
  H  H9  1  0.02732000  0.25014000  0.32308000  1.0
  H  H10  1  0.97114000  0.67894000  0.75077000  1.0
  H  H11  1  0.54454000  0.18509000  0.30555000  1.0
  H  H12  1  0.45651000  0.69392000  0.81426000  1.0
  H  H13  1  0.91558000  0.90688000  0.58354000  1.0
  H  H14  1  0.08225000  0.41650000  0.09417000  1.0
  H  H15  1  0.58228000  0.83531000  0.40981000  1.0
  H  H16  1  0.41681000  0.58794000  0.16410000  1.0
  H  H17  1  0.31187000  0.57705000  0.54275000  1.0
  H  H18  1  0.68720000  0.45652000  0.42398000  1.0
  H  H19  1  0.32820000  0.38095000  0.46803000  1.0
  H  H20  1  0.67292000  0.53305000  0.61922000  1.0
  H  H21  1  0.29804000  0.72241000  0.45716000  1.0
  H  H22  1  0.70093000  0.54112000  0.27812000  1.0
  H  H23  1  0.13465000  0.33250000  0.43472000  1.0
  H  H24  1  0.86684000  0.56704000  0.66674000  1.0
  H  H25  1  0.52959000  0.16177000  0.46075000  1.0
  H  H26  1  0.47443000  0.53841000  0.83640000  1.0
  H  H27  1  0.92696000  0.90974000  0.43119000  1.0
  H  H28  1  0.06999000  0.56896000  0.09163000  1.0
  H  H29  1  0.85366000  0.23620000  0.47303000  1.0
  H  H30  1  0.14661000  0.52933000  0.76456000  1.0
  H  H31  1  0.43005000  0.83144000  0.56082000  1.0
  H  H32  1  0.57148000  0.43734000  0.16703000  1.0
  C  C33  1  0.25722000  0.15041000  0.15370000  1.0
  C  C34  1  0.74081000  0.84754000  0.85075000  1.0
  C  C35  1  0.38197000  0.13597000  0.01468000  1.0
  C  C36  1  0.61632000  0.98658000  0.86562000  1.0
  C  C37  1  0.49921000  0.00865000  0.99273000  1.0
  C  C38  1  0.38467000  0.24347000  0.90795000  1.0
  C  C39  1  0.61401000  0.09338000  0.75829000  1.0
  C  C40  1  0.49958000  0.22232000  0.77923000  1.0
  C  C41  1  0.50032000  0.33652000  0.66479000  1.0
  C  C42  1  0.23012000  0.95442000  0.73036000  1.0
  C  C43  1  0.77216000  0.26879000  0.04372000  1.0
  C  C44  1  0.11655000  0.97970000  0.86845000  1.0
  C  C45  1  0.88597000  0.13065000  0.01840000  1.0
  C  C46  1  0.00151000  0.10824000  0.89029000  1.0
  C  C47  1  0.11828000  0.87354000  0.97614000  1.0
  C  C48  1  0.88303000  0.02307000  0.12463000  1.0
  C  C49  1  0.00028000  0.89516000  0.10365000  1.0
  C  C50  1  0.99941000  0.78263000  0.21655000  1.0
  O  O51  1  0.28716000  0.04643000  0.24287000  1.0
  O  O52  1  0.71076000  0.75786000  0.95416000  1.0
  O  O53  1  0.12708000  0.26216000  0.17601000  1.0
  O  O54  1  0.87095000  0.82575000  0.73895000  1.0
  O  O55  1  0.01160000  0.22793000  0.42500000  1.0
  O  O56  1  0.98842000  0.57677000  0.77220000  1.0
  O  O57  1  0.50958000  0.12343000  0.39237000  1.0
  O  O58  1  0.49187000  0.60685000  0.87581000  1.0
  O  O59  1  0.94309000  0.96061000  0.49123000  1.0
  O  O60  1  0.05451000  0.50894000  0.04046000  1.0
  O  O61  1  0.42711000  0.84282000  0.46333000  1.0
  O  O62  1  0.57247000  0.53510000  0.15670000  1.0
  O  O63  1  0.17904000  0.04902000  0.63601000  1.0
  O  O64  1  0.82294000  0.36348000  0.94964000  1.0
  O  O65  1  0.36525000  0.84248000  0.71429000  1.0
  O  O66  1  0.63678000  0.28448000  0.15554000  1.0
  O  O67  1  0.11922000  0.66563000  0.20156000  1.0
  O  O68  1  0.87910000  0.79843000  0.33307000  1.0
  O  O69  1  0.23628000  0.64212000  0.47667000  1.0
  O  O70  1  0.76326000  0.52192000  0.35821000  1.0
  O  O71  1  0.20913000  0.40810000  0.41885000  1.0
  O  O72  1  0.79187000  0.58225000  0.59140000  1.0
  O  O73  1  0.43378000  0.45605000  0.68703000  1.0
  O  O74  1  0.56750000  0.31363000  0.54555000  1.0
