# generated using pymatgen
data_Zr3H14C31NO18F5
_symmetry_space_group_name_H-M   'P 1'
_cell_length_a   14.84297746
_cell_length_b   14.84459215
_cell_length_c   14.86260000
_cell_angle_alpha   119.85476186
_cell_angle_beta   90.02740563
_cell_angle_gamma   119.98572384
_symmetry_Int_Tables_number   1
_chemical_formula_structural   Zr3H14C31NO18F5
_chemical_formula_sum   'Zr6 H28 C62 N2 O36 F10'
_cell_volume   2320.64806805
_cell_formula_units_Z   2
loop_
 _symmetry_equiv_pos_site_id
 _symmetry_equiv_pos_as_xyz
  1  'x, y, z'
loop_
 _atom_site_type_symbol
 _atom_site_label
 _atom_site_symmetry_multiplicity
 _atom_site_fract_x
 _atom_site_fract_y
 _atom_site_fract_z
 _atom_site_occupancy
  Zr  Zr0  1  0.62270000  0.74052000  0.12069000  1.0
  Zr  Zr1  1  0.38302000  0.26461000  0.88332000  1.0
  Zr  Zr2  1  0.62107000  0.50024000  0.88022000  1.0
  Zr  Zr3  1  0.38574000  0.50316000  0.12123000  1.0
  Zr  Zr4  1  0.38590000  0.50455000  0.88270000  1.0
  Zr  Zr5  1  0.62462000  0.50325000  0.11910000  1.0
  H  H6  1  0.59520000  0.68773000  0.90451000  1.0
  H  H7  1  0.22276000  0.31521000  0.90729000  1.0
  H  H8  1  0.59488000  0.31311000  0.90595000  1.0
  H  H9  1  0.59851000  0.68925000  0.28170000  1.0
  H  H10  1  0.27016000  0.70233000  0.80643000  1.0
  H  H11  1  0.37927000  0.73010000  0.74967000  1.0
  H  H12  1  0.37452000  0.89690000  0.74762000  1.0
  H  H13  1  0.26747000  0.87083000  0.80704000  1.0
  H  H14  1  0.94144000  0.70319000  0.39535000  1.0
  H  H15  1  0.86150000  0.72650000  0.48183000  1.0
  H  H16  1  0.03496000  0.89439000  0.64762000  1.0
  H  H17  1  0.11567000  0.87591000  0.56026000  1.0
  H  H18  1  0.15704000  0.63943000  0.25997000  1.0
  H  H19  1  0.07108000  0.47396000  0.20195000  1.0
  H  H20  1  0.90418000  0.48089000  0.20437000  1.0
  H  H21  1  0.99024000  0.64516000  0.25644000  1.0
  H  H22  1  0.24170000  0.37730000  0.34897000  1.0
  H  H23  1  0.31769000  0.54622000  0.43419000  1.0
  H  H24  1  0.31230000  0.54284000  0.60236000  1.0
  H  H25  1  0.23820000  0.37465000  0.51756000  1.0
  H  H26  1  0.74232000  0.93813000  0.01119000  1.0
  H  H27  1  0.73996000  0.09688000  0.00066000  1.0
  H  H28  1  0.07479000  0.26725000  0.00218000  1.0
  H  H29  1  0.90630000  0.26082000  0.99388000  1.0
  H  H30  1  0.66533000  0.12452000  0.37230000  1.0
  H  H31  1  0.74654000  0.12364000  0.45964000  1.0
  H  H32  1  0.74269000  0.29268000  0.62611000  1.0
  H  H33  1  0.66030000  0.29216000  0.53863000  1.0
  C  C34  1  0.50182000  0.80809000  0.00892000  1.0
  C  C35  1  0.20417000  0.20388000  0.69830000  1.0
  C  C36  1  0.49818000  0.20224000  0.00771000  1.0
  C  C37  1  0.81014000  0.80593000  0.29926000  1.0
  C  C38  1  0.80868000  0.80415000  0.00318000  1.0
  C  C39  1  0.49702000  0.80168000  0.29960000  1.0
  C  C40  1  0.20475000  0.20327000  0.01004000  1.0
  C  C41  1  0.49288000  0.19604000  0.69417000  1.0
  C  C42  1  0.49921000  0.49218000  0.69336000  1.0
  C  C43  1  0.80583000  0.50240000  0.99700000  1.0
  C  C44  1  0.50249000  0.49156000  0.29653000  1.0
  C  C45  1  0.20355000  0.50513000  0.00121000  1.0
  C  C46  1  0.49862000  0.90865000  0.01326000  1.0
  C  C47  1  0.49605000  0.10355000  0.01235000  1.0
  C  C48  1  0.43179000  0.88224000  0.92515000  1.0
  C  C49  1  0.56191000  0.13136000  0.10327000  1.0
  C  C50  1  0.43069000  0.97523000  0.92454000  1.0
  C  C51  1  0.56341000  0.03771000  0.10337000  1.0
  C  C52  1  0.34802000  0.77619000  0.81076000  1.0
  C  C53  1  0.34633000  0.88158000  0.81015000  1.0
  C  C54  1  0.90981000  0.90761000  0.39972000  1.0
  C  C55  1  0.10513000  0.10533000  0.59750000  1.0
  C  C56  1  0.95400000  0.88159000  0.45937000  1.0
  C  C57  1  0.06011000  0.13298000  0.53932000  1.0
  C  C58  1  0.04769000  0.97584000  0.55306000  1.0
  C  C59  1  0.96687000  0.03814000  0.44402000  1.0
  C  C60  1  0.93715000  0.77559000  0.46568000  1.0
  C  C61  1  0.04524000  0.88221000  0.57002000  1.0
  C  C62  1  0.09974000  0.49731000  0.99558000  1.0
  C  C63  1  0.90227000  0.49532000  0.99284000  1.0
  C  C64  1  0.05832000  0.51847000  0.08303000  1.0
  C  C65  1  0.94013000  0.46765000  0.90195000  1.0
  C  C66  1  0.96435000  0.51813000  0.08175000  1.0
  C  C67  1  0.03560000  0.46951000  0.90353000  1.0
  C  C68  1  0.07904000  0.54940000  0.19788000  1.0
  C  C69  1  0.97363000  0.55161000  0.19718000  1.0
  C  C70  1  0.50018000  0.48409000  0.39269000  1.0
  C  C71  1  0.49773000  0.48429000  0.58950000  1.0
  C  C72  1  0.41616000  0.47433000  0.43827000  1.0
  C  C73  1  0.58162000  0.49070000  0.54243000  1.0
  C  C74  1  0.41473000  0.47428000  0.53203000  1.0
  C  C75  1  0.58293000  0.49085000  0.44811000  1.0
  C  C76  1  0.30963000  0.46417000  0.42511000  1.0
  C  C77  1  0.30721000  0.46268000  0.53071000  1.0
  C  C78  1  0.90890000  0.90648000  0.00267000  1.0
  C  C79  1  0.90845000  0.00394000  0.00538000  1.0
  C  C80  1  0.00221000  0.90702000  0.00034000  1.0
  C  C81  1  0.81401000  0.00647000  0.00509000  1.0
  C  C82  1  0.81340000  0.09673000  0.00058000  1.0
  C  C83  1  0.10243000  0.10306000  0.01093000  1.0
  C  C84  1  0.10068000  0.00915000  0.01149000  1.0
  C  C85  1  0.00516000  0.10036000  0.00454000  1.0
  C  C86  1  0.00131000  0.19187000  0.99980000  1.0
  C  C87  1  0.90732000  0.18949000  0.99709000  1.0
  C  C88  1  0.49279000  0.89931000  0.39771000  1.0
  C  C89  1  0.48951000  0.09452000  0.59244000  1.0
  C  C90  1  0.57130000  0.02964000  0.44967000  1.0
  C  C91  1  0.40930000  0.96320000  0.54034000  1.0
  C  C92  1  0.56955000  0.12270000  0.54236000  1.0
  C  C93  1  0.41114000  0.86975000  0.44735000  1.0
  C  C94  1  0.67520000  0.12602000  0.44621000  1.0
  C  C95  1  0.67267000  0.23139000  0.55069000  1.0
  N  N96  1  0.20519000  0.02230000  0.03210000  1.0
  N  N97  1  0.99871000  0.80060000  0.99086000  1.0
  O  O98  1  0.58002000  0.84318000  0.08219000  1.0
  O  O99  1  0.23888000  0.16324000  0.73770000  1.0
  O  O100  1  0.42119000  0.16273000  0.93007000  1.0
  O  O101  1  0.76756000  0.84048000  0.25982000  1.0
  O  O102  1  0.77028000  0.68996000  0.92603000  1.0
  O  O103  1  0.42271000  0.68495000  0.25935000  1.0
  O  O104  1  0.24390000  0.31811000  0.08578000  1.0
  O  O105  1  0.57146000  0.31026000  0.73181000  1.0
  O  O106  1  0.42482000  0.49864000  0.73351000  1.0
  O  O107  1  0.77054000  0.50650000  0.07648000  1.0
  O  O108  1  0.58056000  0.49704000  0.25831000  1.0
  O  O109  1  0.24763000  0.51166000  0.92922000  1.0
  O  O110  1  0.76548000  0.50357000  0.92214000  1.0
  O  O111  1  0.42648000  0.49505000  0.26137000  1.0
  O  O112  1  0.24014000  0.50419000  0.07847000  1.0
  O  O113  1  0.57567000  0.49446000  0.73593000  1.0
  O  O114  1  0.77149000  0.84262000  0.08052000  1.0
  O  O115  1  0.41924000  0.16197000  0.73729000  1.0
  O  O116  1  0.23760000  0.16223000  0.92939000  1.0
  O  O117  1  0.57571000  0.84222000  0.26378000  1.0
  O  O118  1  0.77349000  0.69121000  0.26138000  1.0
  O  O119  1  0.42718000  0.69362000  0.92942000  1.0
  O  O120  1  0.24577000  0.32021000  0.73869000  1.0
  O  O121  1  0.57834000  0.31759000  0.07836000  1.0
  O  O122  1  0.57164000  0.63656000  0.20198000  1.0
  O  O123  1  0.56921000  0.36735000  0.93278000  1.0
  O  O124  1  0.30262000  0.36935000  0.93602000  1.0
  O  O125  1  0.57123000  0.63703000  0.93373000  1.0
  O  O126  1  0.45302000  0.40336000  0.85310000  1.0
  O  O127  1  0.45481000  0.60181000  0.05104000  1.0
  O  O128  1  0.45471000  0.40409000  0.05084000  1.0
  O  O129  1  0.65173000  0.60103000  0.04903000  1.0
  O  O130  1  0.28901000  0.13178000  0.09712000  1.0
  O  O131  1  0.20228000  0.92434000  0.98564000  1.0
  O  O132  1  0.97777000  0.71254000  0.89808000  1.0
  O  O133  1  0.01477000  0.80897000  0.07733000  1.0
  F  F134  1  0.62665000  0.25031000  0.19619000  1.0
  F  F135  1  0.63082000  0.07828000  0.19602000  1.0
  F  F136  1  0.10511000  0.25363000  0.57209000  1.0
  F  F137  1  0.93502000  0.07971000  0.39661000  1.0
  F  F138  1  0.88463000  0.43476000  0.80698000  1.0
  F  F139  1  0.06155000  0.43989000  0.81033000  1.0
  F  F140  1  0.66753000  0.49965000  0.58709000  1.0
  F  F141  1  0.67005000  0.50062000  0.41467000  1.0
  F  F142  1  0.32563000  0.91959000  0.57816000  1.0
  F  F143  1  0.32939000  0.74797000  0.40804000  1.0
