# generated using pymatgen
data_LiH18C15N
_symmetry_space_group_name_H-M   'P 1'
_cell_length_a   9.81040000
_cell_length_b   10.14790000
_cell_length_c   13.37300000
_cell_angle_alpha   90.00000000
_cell_angle_beta   90.00000000
_cell_angle_gamma   108.77700000
_symmetry_Int_Tables_number   1
_chemical_formula_structural   LiH18C15N
_chemical_formula_sum   'Li4 H72 C60 N4'
_cell_volume   1260.49215966
_cell_formula_units_Z   4
loop_
 _symmetry_equiv_pos_site_id
 _symmetry_equiv_pos_as_xyz
  1  'x, y, z'
loop_
 _atom_site_type_symbol
 _atom_site_label
 _atom_site_symmetry_multiplicity
 _atom_site_fract_x
 _atom_site_fract_y
 _atom_site_fract_z
 _atom_site_occupancy
  Li  Li0  1  0.34663000  0.38202000  0.27629000  1.0
  Li  Li1  1  0.15337000  0.61798000  0.77629000  1.0
  Li  Li2  1  0.65337000  0.61798000  0.72371000  1.0
  Li  Li3  1  0.84663000  0.38202000  0.22371000  1.0
  H  H4  1  0.99007000  0.21415000  0.42274000  1.0
  H  H5  1  0.50993000  0.78585000  0.92274000  1.0
  H  H6  1  0.00993000  0.78585000  0.57726000  1.0
  H  H7  1  0.49007000  0.21415000  0.07726000  1.0
  H  H8  1  0.16702000  0.10422000  0.48764000  1.0
  H  H9  1  0.33298000  0.89578000  0.98764000  1.0
  H  H10  1  0.83298000  0.89578000  0.51236000  1.0
  H  H11  1  0.66702000  0.10422000  0.01236000  1.0
  H  H12  1  0.34984000  0.17419000  0.44593000  1.0
  H  H13  1  0.15016000  0.82581000  0.94593000  1.0
  H  H14  1  0.65017000  0.82581000  0.55407000  1.0
  H  H15  1  0.84983000  0.17419000  0.05407000  1.0
  H  H16  1  0.21701000  0.06727000  0.36440000  1.0
  H  H17  1  0.28299000  0.93273000  0.86440000  1.0
  H  H18  1  0.78299000  0.93273000  0.63560000  1.0
  H  H19  1  0.71701000  0.06727000  0.13560000  1.0
  H  H20  1  0.18368000  0.33989000  0.53256000  1.0
  H  H21  1  0.31632000  0.66011000  0.03256000  1.0
  H  H22  1  0.81632000  0.66011000  0.46744000  1.0
  H  H23  1  0.68368000  0.33989000  0.96744000  1.0
  H  H24  1  0.22447000  0.47213000  0.43884000  1.0
  H  H25  1  0.27553000  0.52787000  0.93884000  1.0
  H  H26  1  0.77553000  0.52787000  0.56116000  1.0
  H  H27  1  0.72446000  0.47213000  0.06116000  1.0
  H  H28  1  0.36189000  0.40598000  0.48214000  1.0
  H  H29  1  0.13811000  0.59402000  0.98214000  1.0
  H  H30  1  0.63811000  0.59402000  0.51786000  1.0
  H  H31  1  0.86189000  0.40598000  0.01786000  1.0
  H  H32  1  0.17889000  0.18602000  0.17535000  1.0
  H  H33  1  0.32111000  0.81398000  0.67535000  1.0
  H  H34  1  0.82111000  0.81398000  0.82465000  1.0
  H  H35  1  0.67889000  0.18602000  0.32465000  1.0
  H  H36  1  0.08268000  0.98405000  0.06503000  1.0
  H  H37  1  0.41732000  0.01595000  0.56503000  1.0
  H  H38  1  0.91732000  0.01595000  0.93497000  1.0
  H  H39  1  0.58268000  0.98405000  0.43497000  1.0
  H  H40  1  0.76810000  0.67166000  0.12791000  1.0
  H  H41  1  0.73190000  0.32834000  0.62791000  1.0
  H  H42  1  0.23190000  0.32834000  0.87209000  1.0
  H  H43  1  0.26810000  0.67166000  0.37209000  1.0
  H  H44  1  0.91671000  0.73695000  0.04395000  1.0
  H  H45  1  0.58329000  0.26305000  0.54395000  1.0
  H  H46  1  0.08329000  0.26305000  0.95605000  1.0
  H  H47  1  0.41671000  0.73695000  0.45605000  1.0
  H  H48  1  0.76096000  0.78769000  0.03117000  1.0
  H  H49  1  0.73905000  0.21232000  0.53117000  1.0
  H  H50  1  0.23905000  0.21232000  0.96883000  1.0
  H  H51  1  0.26096000  0.78769000  0.46883000  1.0
  H  H52  1  0.72602000  0.81335000  0.26430000  1.0
  H  H53  1  0.77398000  0.18665000  0.76430000  1.0
  H  H54  1  0.27398000  0.18665000  0.73570000  1.0
  H  H55  1  0.22602000  0.81335000  0.23570000  1.0
  H  H56  1  0.82352000  0.01594000  0.37665000  1.0
  H  H57  1  0.67648000  0.98406000  0.87665000  1.0
  H  H58  1  0.17648000  0.98406000  0.62335000  1.0
  H  H59  1  0.32352000  0.01594000  0.12335000  1.0
  H  H60  1  0.13530000  0.39462000  0.15808000  1.0
  H  H61  1  0.36470000  0.60538000  0.65808000  1.0
  H  H62  1  0.86470000  0.60538000  0.84192000  1.0
  H  H63  1  0.63530000  0.39462000  0.34192000  1.0
  H  H64  1  0.06492000  0.62843000  0.14683000  1.0
  H  H65  1  0.43508000  0.37157000  0.64683000  1.0
  H  H66  1  0.93508000  0.37157000  0.85317000  1.0
  H  H67  1  0.56492000  0.62843000  0.35317000  1.0
  H  H68  1  0.92899000  0.65501000  0.31625000  1.0
  H  H69  1  0.57101000  0.34499000  0.81625000  1.0
  H  H70  1  0.07101000  0.34499000  0.68375000  1.0
  H  H71  1  0.42899000  0.65501000  0.18375000  1.0
  H  H72  1  0.91966000  0.43649000  0.43641000  1.0
  H  H73  1  0.58034000  0.56351000  0.93641000  1.0
  H  H74  1  0.08034000  0.56351000  0.56359000  1.0
  H  H75  1  0.41966000  0.43649000  0.06359000  1.0
  C  C76  1  0.05638000  0.24242000  0.35384000  1.0
  C  C77  1  0.44362000  0.75758000  0.85384000  1.0
  C  C78  1  0.94362000  0.75758000  0.64616000  1.0
  C  C79  1  0.55637000  0.24242000  0.14616000  1.0
  C  C80  1  0.23691000  0.14717000  0.42253000  1.0
  C  C81  1  0.26309000  0.85283000  0.92253000  1.0
  C  C82  1  0.76309000  0.85283000  0.57747000  1.0
  C  C83  1  0.73691000  0.14717000  0.07747000  1.0
  C  C84  1  0.24696000  0.37858000  0.46399000  1.0
  C  C85  1  0.25304000  0.62142000  0.96399000  1.0
  C  C86  1  0.75304000  0.62142000  0.53601000  1.0
  C  C87  1  0.74696000  0.37858000  0.03601000  1.0
  C  C88  1  0.00641000  0.11789000  0.28430000  1.0
  C  C89  1  0.49360000  0.88212000  0.78430000  1.0
  C  C90  1  0.99360000  0.88212000  0.71570000  1.0
  C  C91  1  0.50641000  0.11788000  0.21570000  1.0
  C  C92  1  0.07829000  0.10602000  0.19586000  1.0
  C  C93  1  0.42171000  0.89398000  0.69586000  1.0
  C  C94  1  0.92171000  0.89398000  0.80414000  1.0
  C  C95  1  0.57829000  0.10602000  0.30414000  1.0
  C  C96  1  0.02432000  0.99105000  0.13321000  1.0
  C  C97  1  0.47568000  0.00895000  0.63321000  1.0
  C  C98  1  0.97568000  0.00895000  0.86679000  1.0
  C  C99  1  0.52432000  0.99105000  0.36679000  1.0
  C  C100  1  0.89613000  0.88439000  0.15564000  1.0
  C  C101  1  0.60387000  0.11561000  0.65563000  1.0
  C  C102  1  0.10387000  0.11560000  0.84437000  1.0
  C  C103  1  0.39613000  0.88439000  0.34436000  1.0
  C  C104  1  0.83313000  0.76351000  0.08622000  1.0
  C  C105  1  0.66687000  0.23649000  0.58622000  1.0
  C  C106  1  0.16687000  0.23649000  0.91378000  1.0
  C  C107  1  0.33313000  0.76351000  0.41378000  1.0
  C  C108  1  0.82546000  0.89536000  0.24473000  1.0
  C  C109  1  0.67454000  0.10464000  0.74472000  1.0
  C  C110  1  0.17455000  0.10464000  0.75528000  1.0
  C  C111  1  0.32546000  0.89536000  0.25527000  1.0
  C  C112  1  0.88045000  0.00966000  0.30771000  1.0
  C  C113  1  0.61955000  0.99034000  0.80771000  1.0
  C  C114  1  0.11955000  0.99034000  0.69229000  1.0
  C  C115  1  0.38045000  0.00965000  0.19229000  1.0
  C  C116  1  0.03283000  0.37054000  0.31065000  1.0
  C  C117  1  0.46717000  0.62946000  0.81065000  1.0
  C  C118  1  0.96717000  0.62946000  0.68935000  1.0
  C  C119  1  0.53283000  0.37054000  0.18935000  1.0
  C  C120  1  0.08165000  0.43409000  0.21652000  1.0
  C  C121  1  0.41835000  0.56591000  0.71652000  1.0
  C  C122  1  0.91835000  0.56591000  0.78349000  1.0
  C  C123  1  0.58165000  0.43409000  0.28348000  1.0
  C  C124  1  0.04443000  0.55783000  0.21026000  1.0
  C  C125  1  0.45557000  0.44217000  0.71026000  1.0
  C  C126  1  0.95557000  0.44217000  0.78974000  1.0
  C  C127  1  0.54443000  0.55783000  0.28974000  1.0
  C  C128  1  0.97269000  0.57167000  0.29966000  1.0
  C  C129  1  0.52731000  0.42833000  0.79966000  1.0
  C  C130  1  0.02731000  0.42833000  0.70034000  1.0
  C  C131  1  0.47269000  0.57167000  0.20034000  1.0
  C  C132  1  0.96554000  0.45635000  0.36168000  1.0
  C  C133  1  0.53446000  0.54365000  0.86168000  1.0
  C  C134  1  0.03446000  0.54365000  0.63832000  1.0
  C  C135  1  0.46554000  0.45635000  0.13832000  1.0
  N  N136  1  0.21103000  0.27282000  0.38426000  1.0
  N  N137  1  0.28897000  0.72719000  0.88426000  1.0
  N  N138  1  0.78897000  0.72718000  0.61574000  1.0
  N  N139  1  0.71103000  0.27282000  0.11574000  1.0
