# generated using pymatgen
data_CuH8C7N3O4
_symmetry_space_group_name_H-M   'P 1'
_cell_length_a   9.97701135
_cell_length_b   10.01750000
_cell_length_c   16.68790000
_cell_angle_alpha   89.97320000
_cell_angle_beta   89.98396300
_cell_angle_gamma   60.30454061
_symmetry_Int_Tables_number   1
_chemical_formula_structural   CuH8C7N3O4
_chemical_formula_sum   'Cu6 H48 C42 N18 O24'
_cell_volume   1448.82746049
_cell_formula_units_Z   6
loop_
 _symmetry_equiv_pos_site_id
 _symmetry_equiv_pos_as_xyz
  1  'x, y, z'
loop_
 _atom_site_type_symbol
 _atom_site_label
 _atom_site_symmetry_multiplicity
 _atom_site_fract_x
 _atom_site_fract_y
 _atom_site_fract_z
 _atom_site_occupancy
  Cu  Cu0  1  0.38974000  0.76136000  0.19391000  1.0
  Cu  Cu1  1  0.84899000  0.39218000  0.52761000  1.0
  Cu  Cu2  1  0.75828000  0.85105000  0.86061000  1.0
  Cu  Cu3  1  0.24042000  0.60759000  0.47215000  1.0
  Cu  Cu4  1  0.60888000  0.14983000  0.13902000  1.0
  Cu  Cu5  1  0.15116000  0.23827000  0.80567000  1.0
  H  H6  1  0.49386000  0.63940000  0.90042000  1.0
  H  H7  1  0.86809000  0.49340000  0.23411000  1.0
  H  H8  1  0.63905000  0.86787000  0.56764000  1.0
  H  H9  1  0.36143000  0.50632000  0.76595000  1.0
  H  H10  1  0.50685000  0.13211000  0.43214000  1.0
  H  H11  1  0.13351000  0.35967000  0.09940000  1.0
  H  H12  1  0.12056000  0.58070000  0.21550000  1.0
  H  H13  1  0.29584000  0.11770000  0.54852000  1.0
  H  H14  1  0.58606000  0.29664000  0.88153000  1.0
  H  H15  1  0.41654000  0.88033000  0.45095000  1.0
  H  H16  1  0.88254000  0.70435000  0.11834000  1.0
  H  H17  1  0.70196000  0.41938000  0.78418000  1.0
  H  H18  1  0.10545000  0.60798000  0.06877000  1.0
  H  H19  1  0.28246000  0.10394000  0.40169000  1.0
  H  H20  1  0.61173000  0.28443000  0.73515000  1.0
  H  H21  1  0.38848000  0.89476000  0.59776000  1.0
  H  H22  1  0.89567000  0.71744000  0.26474000  1.0
  H  H23  1  0.71425000  0.39178000  0.93094000  1.0
  H  H24  1  0.07325000  0.78098000  0.11443000  1.0
  H  H25  1  0.14076000  0.07220000  0.44756000  1.0
  H  H26  1  0.78551000  0.14506000  0.78061000  1.0
  H  H27  1  0.21567000  0.92561000  0.55182000  1.0
  H  H28  1  0.92945000  0.85755000  0.21911000  1.0
  H  H29  1  0.85421000  0.21892000  0.88520000  1.0
  H  H30  1  0.28928000  0.55316000  0.93230000  1.0
  H  H31  1  0.15499000  0.28353000  0.26514000  1.0
  H  H32  1  0.55535000  0.15624000  0.59912000  1.0
  H  H33  1  0.43754000  0.71759000  0.73477000  1.0
  H  H34  1  0.71500000  0.84535000  0.40119000  1.0
  H  H35  1  0.84347000  0.44511000  0.06751000  1.0
  H  H36  1  0.55382000  0.74508000  0.02035000  1.0
  H  H37  1  0.70243000  0.55675000  0.35446000  1.0
  H  H38  1  0.74482000  0.70308000  0.68754000  1.0
  H  H39  1  0.26064000  0.44101000  0.64544000  1.0
  H  H40  1  0.44502000  0.29671000  0.31176000  1.0
  H  H41  1  0.29862000  0.25575000  0.97924000  1.0
  H  H42  1  0.09172000  0.09721000  0.19836000  1.0
  H  H43  1  0.78108000  0.12359000  0.55357000  1.0
  H  H44  1  0.09661000  0.77237000  0.89236000  1.0
  H  H45  1  0.90301000  0.90142000  0.46413000  1.0
  H  H46  1  0.87459000  0.22239000  0.11094000  1.0
  H  H47  1  0.17912000  0.90237000  0.80947000  1.0
  H  H48  1  0.24789000  0.08175000  0.16927000  1.0
  H  H49  1  0.67326000  0.25091000  0.49465000  1.0
  H  H50  1  0.07442000  0.68564000  0.82182000  1.0
  H  H51  1  0.91913000  0.74907000  0.49822000  1.0
  H  H52  1  0.75259000  0.32158000  0.17424000  1.0
  H  H53  1  0.32609000  0.91520000  0.82991000  1.0
  C  C54  1  0.21807000  0.57958000  0.18417000  1.0
  C  C55  1  0.20085000  0.21534000  0.51734000  1.0
  C  C56  1  0.58306000  0.20152000  0.85058000  1.0
  C  C57  1  0.41848000  0.78274000  0.48215000  1.0
  C  C58  1  0.78450000  0.79923000  0.14919000  1.0
  C  C59  1  0.79832000  0.42053000  0.81548000  1.0
  C  C60  1  0.16151000  0.66080000  0.10255000  1.0
  C  C61  1  0.17415000  0.16001000  0.43571000  1.0
  C  C62  1  0.66476000  0.17624000  0.76895000  1.0
  C  C63  1  0.33649000  0.83818000  0.56374000  1.0
  C  C64  1  0.84036000  0.82545000  0.23079000  1.0
  C  C65  1  0.82279000  0.33912000  0.89709000  1.0
  C  C66  1  0.28460000  0.65975000  0.05206000  1.0
  C  C67  1  0.05347000  0.28359000  0.38553000  1.0
  C  C68  1  0.66275000  0.05509000  0.71869000  1.0
  C  C69  1  0.33912000  0.71457000  0.61404000  1.0
  C  C70  1  0.71698000  0.94608000  0.28095000  1.0
  C  C71  1  0.94479000  0.34030000  0.94751000  1.0
  C  C72  1  0.32436000  0.61390000  0.97362000  1.0
  C  C73  1  0.05993000  0.32288000  0.30712000  1.0
  C  C74  1  0.61552000  0.06111000  0.64053000  1.0
  C  C75  1  0.38356000  0.67649000  0.69263000  1.0
  C  C76  1  0.67690000  0.94006000  0.35927000  1.0
  C  C77  1  0.93895000  0.38546000  0.02607000  1.0
  C  C78  1  0.46852000  0.70819000  0.01977000  1.0
  C  C79  1  0.82340000  0.46989000  0.35371000  1.0
  C  C80  1  0.70899000  0.82432000  0.68682000  1.0
  C  C81  1  0.29474000  0.52820000  0.64609000  1.0
  C  C82  1  0.53129000  0.17593000  0.31258000  1.0
  C  C83  1  0.17670000  0.29234000  0.97980000  1.0
  C  C84  1  0.27569000  0.64740000  0.31138000  1.0
  C  C85  1  0.07612000  0.27447000  0.64487000  1.0
  C  C86  1  0.65013000  0.07636000  0.97827000  1.0
  C  C87  1  0.35149000  0.72457000  0.35472000  1.0
  C  C88  1  0.72647000  0.92423000  0.02140000  1.0
  C  C89  1  0.92357000  0.35136000  0.68824000  1.0
  C  C90  1  0.33504000  0.40888000  0.16952000  1.0
  C  C91  1  0.25721000  0.33116000  0.50293000  1.0
  C  C92  1  0.41118000  0.25629000  0.83648000  1.0
  C  C93  1  0.59001000  0.66700000  0.49679000  1.0
  C  C94  1  0.66779000  0.74361000  0.16334000  1.0
  C  C95  1  0.74510000  0.59123000  0.83025000  1.0
  N  N96  1  0.27882000  0.65742000  0.23270000  1.0
  N  N97  1  0.06277000  0.27688000  0.56622000  1.0
  N  N98  1  0.65897000  0.06395000  0.89968000  1.0
  N  N99  1  0.34161000  0.72116000  0.43336000  1.0
  N  N100  1  0.72277000  0.93674000  0.09997000  1.0
  N  N101  1  0.93653000  0.34289000  0.76688000  1.0
  N  N102  1  0.37679000  0.71676000  0.08001000  1.0
  N  N103  1  0.90529000  0.37745000  0.41379000  1.0
  N  N104  1  0.71958000  0.90679000  0.74680000  1.0
  N  N105  1  0.28537000  0.61986000  0.58582000  1.0
  N  N106  1  0.62407000  0.09385000  0.25258000  1.0
  N  N107  1  0.09356000  0.28399000  0.91949000  1.0
  N  N108  1  0.43988000  0.64637000  0.95486000  1.0
  N  N109  1  0.91390000  0.43969000  0.28861000  1.0
  N  N110  1  0.64651000  0.91437000  0.62209000  1.0
  N  N111  1  0.35400000  0.55961000  0.71134000  1.0
  N  N112  1  0.56046000  0.08599000  0.37761000  1.0
  N  N113  1  0.08656000  0.35343000  0.04480000  1.0
  O  O114  1  0.47735000  0.37084000  0.16477000  1.0
  O  O115  1  0.15428000  0.47268000  0.49844000  1.0
  O  O116  1  0.37229000  0.15292000  0.83187000  1.0
  O  O117  1  0.62847000  0.52517000  0.50105000  1.0
  O  O118  1  0.52581000  0.84660000  0.16749000  1.0
  O  O119  1  0.84916000  0.62995000  0.83454000  1.0
  O  O120  1  0.28329000  0.31711000  0.16135000  1.0
  O  O121  1  0.40079000  0.27915000  0.49497000  1.0
  O  O122  1  0.32037000  0.39914000  0.82898000  1.0
  O  O123  1  0.68161000  0.71914000  0.50530000  1.0
  O  O124  1  0.71967000  0.60073000  0.17121000  1.0
  O  O125  1  0.60209000  0.68246000  0.83898000  1.0
  O  O126  1  0.22051000  0.57747000  0.35269000  1.0
  O  O127  1  0.20098000  0.21917000  0.68617000  1.0
  O  O128  1  0.58262000  0.19995000  0.02004000  1.0
  O  O129  1  0.42037000  0.78089000  0.31329000  1.0
  O  O130  1  0.78309000  0.80057000  0.97960000  1.0
  O  O131  1  0.79869000  0.41975000  0.64678000  1.0
  O  O132  1  0.18553000  0.03144000  0.16803000  1.0
  O  O133  1  0.78129000  0.17344000  0.50330000  1.0
  O  O134  1  0.05273000  0.78800000  0.83852000  1.0
  O  O135  1  0.96683000  0.81384000  0.49867000  1.0
  O  O136  1  0.83224000  0.21589000  0.16265000  1.0
  O  O137  1  0.21365000  0.97139000  0.83079000  1.0
