# generated using pymatgen
data_H5PbC8NO7
_symmetry_space_group_name_H-M   'P 1'
_cell_length_a   7.09404000
_cell_length_b   7.48615000
_cell_length_c   9.76390000
_cell_angle_alpha   89.11200000
_cell_angle_beta   82.45370000
_cell_angle_gamma   76.84200000
_symmetry_Int_Tables_number   1
_chemical_formula_structural   H5PbC8NO7
_chemical_formula_sum   'H10 Pb2 C16 N2 O14'
_cell_volume   500.48964022
_cell_formula_units_Z   2
loop_
 _symmetry_equiv_pos_site_id
 _symmetry_equiv_pos_as_xyz
  1  'x, y, z'
loop_
 _atom_site_type_symbol
 _atom_site_label
 _atom_site_symmetry_multiplicity
 _atom_site_fract_x
 _atom_site_fract_y
 _atom_site_fract_z
 _atom_site_occupancy
  H  H0  1  0.75558000  0.17841000  0.66106000  1.0
  H  H1  1  0.24440000  0.82159000  0.33893000  1.0
  H  H2  1  0.73819000  0.76031000  0.36528000  1.0
  H  H3  1  0.26182000  0.23969000  0.63472000  1.0
  H  H4  1  0.76019000  0.53045000  0.55250000  1.0
  H  H5  1  0.23983000  0.46956000  0.44750000  1.0
  H  H6  1  0.73902000  0.76513000  0.11696000  1.0
  H  H7  1  0.26098000  0.23487000  0.88303000  1.0
  H  H8  1  0.51992000  0.75376000  0.14438000  1.0
  H  H9  1  0.48008000  0.24624000  0.85562000  1.0
  Pb  Pb10  1  0.77011000  0.36005000  0.08741000  1.0
  Pb  Pb11  1  0.22988000  0.63994000  0.91258000  1.0
  C  C12  1  0.77424000  0.72341000  0.71153000  1.0
  C  C13  1  0.22577000  0.27658000  0.28848000  1.0
  C  C14  1  0.77088000  0.90748000  0.74332000  1.0
  C  C15  1  0.22911000  0.09253000  0.25668000  1.0
  C  C16  1  0.75948000  0.03587000  0.63791000  1.0
  C  C17  1  0.24051000  0.96414000  0.36210000  1.0
  C  C18  1  0.75166000  0.97989000  0.50377000  1.0
  C  C19  1  0.24834000  0.02012000  0.49624000  1.0
  C  C20  1  0.75115000  0.79901000  0.47043000  1.0
  C  C21  1  0.24886000  0.20099000  0.52957000  1.0
  C  C22  1  0.76248000  0.67171000  0.57591000  1.0
  C  C23  1  0.23754000  0.32829000  0.42408000  1.0
  C  C24  1  0.77849000  0.58021000  0.82172000  1.0
  C  C25  1  0.22152000  0.41978000  0.17827000  1.0
  C  C26  1  0.77586000  0.97145000  0.88852000  1.0
  C  C27  1  0.22413000  0.02855000  0.11149000  1.0
  N  N28  1  0.73958000  0.11565000  0.39495000  1.0
  N  N29  1  0.26042000  0.88435000  0.60505000  1.0
  O  O30  1  0.61537000  0.55926000  0.88232000  1.0
  O  O31  1  0.38464000  0.44072000  0.11766000  1.0
  O  O32  1  0.94081000  0.48285000  0.84766000  1.0
  O  O33  1  0.05920000  0.51715000  0.15233000  1.0
  O  O34  1  0.86594000  0.85995000  0.96961000  1.0
  O  O35  1  0.13406000  0.14005000  0.03040000  1.0
  O  O36  1  0.68719000  0.13707000  0.91869000  1.0
  O  O37  1  0.31280000  0.86293000  0.08132000  1.0
  O  O38  1  0.75431000  0.27374000  0.42170000  1.0
  O  O39  1  0.24569000  0.72627000  0.57831000  1.0
  O  O40  1  0.71519000  0.06706000  0.27809000  1.0
  O  O41  1  0.28481000  0.93295000  0.72191000  1.0
  O  O42  1  0.65123000  0.69657000  0.17091000  1.0
  O  O43  1  0.34877000  0.30343000  0.82908000  1.0
