# generated using pymatgen
data_ZnH4C5BrN7
_symmetry_space_group_name_H-M   'P 1'
_cell_length_a   6.05221000
_cell_length_b   7.65860000
_cell_length_c   21.16360000
_cell_angle_alpha   90.00000000
_cell_angle_beta   89.99980000
_cell_angle_gamma   99.48880000
_symmetry_Int_Tables_number   1
_chemical_formula_structural   ZnH4C5BrN7
_chemical_formula_sum   'Zn4 H16 C20 Br4 N28'
_cell_volume   967.54196751
_cell_formula_units_Z   4
loop_
 _symmetry_equiv_pos_site_id
 _symmetry_equiv_pos_as_xyz
  1  'x, y, z'
loop_
 _atom_site_type_symbol
 _atom_site_label
 _atom_site_symmetry_multiplicity
 _atom_site_fract_x
 _atom_site_fract_y
 _atom_site_fract_z
 _atom_site_occupancy
  Zn  Zn0  1  0.74111000  0.93759000  0.48147000  1.0
  Zn  Zn1  1  0.25889000  0.56241000  0.98147000  1.0
  Zn  Zn2  1  0.25889000  0.06241000  0.51853000  1.0
  Zn  Zn3  1  0.74110000  0.43759000  0.01853000  1.0
  H  H4  1  0.97173000  0.85603000  0.36270000  1.0
  H  H5  1  0.02828000  0.64398000  0.86270000  1.0
  H  H6  1  0.02826000  0.14397000  0.63730000  1.0
  H  H7  1  0.97174000  0.35603000  0.13729000  1.0
  H  H8  1  0.49753000  0.47296000  0.26104000  1.0
  H  H9  1  0.50247000  0.02704000  0.76104000  1.0
  H  H10  1  0.50246000  0.52703000  0.73896000  1.0
  H  H11  1  0.49754000  0.97297000  0.23896000  1.0
  H  H12  1  0.23302000  0.47611000  0.35222000  1.0
  H  H13  1  0.76698000  0.02389000  0.85222000  1.0
  H  H14  1  0.76699000  0.52388000  0.64779000  1.0
  H  H15  1  0.23301000  0.97611000  0.14778000  1.0
  H  H16  1  0.35276000  0.67027000  0.44495000  1.0
  H  H17  1  0.64725000  0.82973000  0.94496000  1.0
  H  H18  1  0.64727000  0.32972000  0.55504000  1.0
  H  H19  1  0.35275000  0.17027000  0.05504000  1.0
  C  C20  1  0.80953000  0.77035000  0.35877000  1.0
  C  C21  1  0.19047000  0.72965000  0.85877000  1.0
  C  C22  1  0.19049000  0.22965000  0.64123000  1.0
  C  C23  1  0.80951000  0.27035000  0.14122000  1.0
  C  C24  1  0.75349000  0.66458000  0.30561000  1.0
  C  C25  1  0.24652000  0.83541000  0.80561000  1.0
  C  C26  1  0.24655000  0.33543000  0.69440000  1.0
  C  C27  1  0.75348000  0.16458000  0.19439000  1.0
  C  C28  1  0.54533000  0.55564000  0.30221000  1.0
  C  C29  1  0.45467000  0.94436000  0.80221000  1.0
  C  C30  1  0.45468000  0.44437000  0.69780000  1.0
  C  C31  1  0.54532000  0.05564000  0.19779000  1.0
  C  C32  1  0.39827000  0.55753000  0.35284000  1.0
  C  C33  1  0.60172000  0.94248000  0.85283000  1.0
  C  C34  1  0.60172000  0.44248000  0.64718000  1.0
  C  C35  1  0.39827000  0.05753000  0.14717000  1.0
  C  C36  1  0.46315000  0.66555000  0.40451000  1.0
  C  C37  1  0.53684000  0.83445000  0.90450000  1.0
  C  C38  1  0.53686000  0.33445000  0.59550000  1.0
  C  C39  1  0.46314000  0.16555000  0.09549000  1.0
  Br  Br40  1  0.96671000  0.66861000  0.24009000  1.0
  Br  Br41  1  0.03328000  0.83140000  0.74009000  1.0
  Br  Br42  1  0.03329000  0.33140000  0.75991000  1.0
  Br  Br43  1  0.96670000  0.16861000  0.25991000  1.0
  N  N44  1  0.98211000  0.15407000  0.47358000  1.0
  N  N45  1  0.01789000  0.34593000  0.97357000  1.0
  N  N46  1  0.01789000  0.84593000  0.52643000  1.0
  N  N47  1  0.98211000  0.65407000  0.02642000  1.0
  N  N48  1  0.95570000  0.29529000  0.45150000  1.0
  N  N49  1  0.04429000  0.20472000  0.95150000  1.0
  N  N50  1  0.04430000  0.70472000  0.54850000  1.0
  N  N51  1  0.95569000  0.79528000  0.04850000  1.0
  N  N52  1  0.92978000  0.42997000  0.43045000  1.0
  N  N53  1  0.07022000  0.07002000  0.93044000  1.0
  N  N54  1  0.07023000  0.57002000  0.56955000  1.0
  N  N55  1  0.92977000  0.92997000  0.06956000  1.0
  N  N56  1  0.52113000  0.89698000  0.55323000  1.0
  N  N57  1  0.47886000  0.60302000  0.05323000  1.0
  N  N58  1  0.47887000  0.10302000  0.44677000  1.0
  N  N59  1  0.52113000  0.39698000  0.94677000  1.0
  N  N60  1  0.57859000  0.88913000  0.60777000  1.0
  N  N61  1  0.42141000  0.61086000  0.10777000  1.0
  N  N62  1  0.42141000  0.11087000  0.39223000  1.0
  N  N63  1  0.57859000  0.38913000  0.89223000  1.0
  N  N64  1  0.62870000  0.88170000  0.66056000  1.0
  N  N65  1  0.37129000  0.61829000  0.16056000  1.0
  N  N66  1  0.37129000  0.11829000  0.33944000  1.0
  N  N67  1  0.62870000  0.38171000  0.83944000  1.0
  N  N68  1  0.66566000  0.77018000  0.40716000  1.0
  N  N69  1  0.33433000  0.72981000  0.90715000  1.0
  N  N70  1  0.33434000  0.22979000  0.59283000  1.0
  N  N71  1  0.66565000  0.27019000  0.09283000  1.0
