# generated using pymatgen
data_GdH6C5O8
_symmetry_space_group_name_H-M   'P 1'
_cell_length_a   9.51395000
_cell_length_b   9.51389000
_cell_length_c   13.86370000
_cell_angle_alpha   100.04600000
_cell_angle_beta   100.05100000
_cell_angle_gamma   119.38300000
_symmetry_Int_Tables_number   1
_chemical_formula_structural   GdH6C5O8
_chemical_formula_sum   'Gd4 H24 C20 O32'
_cell_volume   1026.00750970
_cell_formula_units_Z   4
loop_
 _symmetry_equiv_pos_site_id
 _symmetry_equiv_pos_as_xyz
  1  'x, y, z'
loop_
 _atom_site_type_symbol
 _atom_site_label
 _atom_site_symmetry_multiplicity
 _atom_site_fract_x
 _atom_site_fract_y
 _atom_site_fract_z
 _atom_site_occupancy
  Gd  Gd0  1  0.00268000  0.25267000  0.00530000  1.0
  Gd  Gd1  1  0.24731000  0.49732000  0.49470000  1.0
  Gd  Gd2  1  0.99732000  0.74732000  0.99470000  1.0
  Gd  Gd3  1  0.75270000  0.50270000  0.50531000  1.0
  H  H4  1  0.03976000  0.43080000  0.84085000  1.0
  H  H5  1  0.80185000  0.91042000  0.84060000  1.0
  H  H6  1  0.06922000  0.46025000  0.65916000  1.0
  H  H7  1  0.58958000  0.69815000  0.65940000  1.0
  H  H8  1  0.96023000  0.56920000  0.15915000  1.0
  H  H9  1  0.19815000  0.08958000  0.15940000  1.0
  H  H10  1  0.93079000  0.53976000  0.34084000  1.0
  H  H11  1  0.41042000  0.30186000  0.34060000  1.0
  H  H12  1  0.03733000  0.26764000  0.78655000  1.0
  H  H13  1  0.74959000  0.01914000  0.78627000  1.0
  H  H14  1  0.23237000  0.46267000  0.71345000  1.0
  H  H15  1  0.48089000  0.75041000  0.71372000  1.0
  H  H16  1  0.96265000  0.73234000  0.21345000  1.0
  H  H17  1  0.25038000  0.98084000  0.21372000  1.0
  H  H18  1  0.76761000  0.53730000  0.28655000  1.0
  H  H19  1  0.51910000  0.24956000  0.28628000  1.0
  H  H20  1  0.47209000  0.90684000  0.06654000  1.0
  H  H21  1  0.59423000  0.65953000  0.06631000  1.0
  H  H22  1  0.59314000  0.02791000  0.43345000  1.0
  H  H23  1  0.84045000  0.90575000  0.43367000  1.0
  H  H24  1  0.52790000  0.09313000  0.93344000  1.0
  H  H25  1  0.40578000  0.34047000  0.93370000  1.0
  H  H26  1  0.40687000  0.97211000  0.56655000  1.0
  H  H27  1  0.15955000  0.09424000  0.56633000  1.0
  C  C28  1  0.29925000  0.64308000  0.06079000  1.0
  C  C29  1  0.76133000  0.91768000  0.06065000  1.0
  C  C30  1  0.85691000  0.20075000  0.43922000  1.0
  C  C31  1  0.58230000  0.73864000  0.43933000  1.0
  C  C32  1  0.70075000  0.35691000  0.93921000  1.0
  C  C33  1  0.23867000  0.08232000  0.93936000  1.0
  C  C34  1  0.14310000  0.79925000  0.56079000  1.0
  C  C35  1  0.41770000  0.26137000  0.56067000  1.0
  C  C36  1  0.46643000  0.78977000  0.06776000  1.0
  C  C37  1  0.60113000  0.77788000  0.06767000  1.0
  C  C38  1  0.71023000  0.03358000  0.43224000  1.0
  C  C39  1  0.72210000  0.89885000  0.43231000  1.0
  C  C40  1  0.53358000  0.21024000  0.93224000  1.0
  C  C41  1  0.39886000  0.22211000  0.93233000  1.0
  C  C42  1  0.28978000  0.96644000  0.56776000  1.0
  C  C43  1  0.27790000  0.10115000  0.56769000  1.0
  C  C44  1  0.17200000  0.32801000  0.25001000  1.0
  C  C45  1  0.07797000  0.42202000  0.25000000  1.0
  C  C46  1  0.82801000  0.67200000  0.74999000  1.0
  C  C47  1  0.92200000  0.57795000  0.74999000  1.0
  O  O48  1  0.17558000  0.66482000  0.04864000  1.0
  O  O49  1  0.87275000  0.88369000  0.04837000  1.0
  O  O50  1  0.83519000  0.32443000  0.45138000  1.0
  O  O51  1  0.61631000  0.62722000  0.45160000  1.0
  O  O52  1  0.82441000  0.33517000  0.95136000  1.0
  O  O53  1  0.12724000  0.11630000  0.95162000  1.0
  O  O54  1  0.16483000  0.67558000  0.54863000  1.0
  O  O55  1  0.38368000  0.37278000  0.54840000  1.0
  O  O56  1  0.07290000  0.34867000  0.85294000  1.0
  O  O57  1  0.78136000  0.00502000  0.85270000  1.0
  O  O58  1  0.15134000  0.42711000  0.64707000  1.0
  O  O59  1  0.49498000  0.71865000  0.64729000  1.0
  O  O60  1  0.92710000  0.65134000  0.14706000  1.0
  O  O61  1  0.21865000  0.99498000  0.14730000  1.0
  O  O62  1  0.84867000  0.57290000  0.35293000  1.0
  O  O63  1  0.50502000  0.28136000  0.35271000  1.0
  O  O64  1  0.28211000  0.50314000  0.06371000  1.0
  O  O65  1  0.78149000  0.06064000  0.06365000  1.0
  O  O66  1  0.99685000  0.21787000  0.43630000  1.0
  O  O67  1  0.43935000  0.71850000  0.43635000  1.0
  O  O68  1  0.71789000  0.49685000  0.93630000  1.0
  O  O69  1  0.21851000  0.93936000  0.93635000  1.0
  O  O70  1  0.00315000  0.78213000  0.56370000  1.0
  O  O71  1  0.56065000  0.28153000  0.56365000  1.0
  O  O72  1  0.15675000  0.24266000  0.16356000  1.0
  O  O73  1  0.00685000  0.42098000  0.16354000  1.0
  O  O74  1  0.25734000  0.34325000  0.33644000  1.0
  O  O75  1  0.07901000  0.49313000  0.33644000  1.0
  O  O76  1  0.84324000  0.75733000  0.83645000  1.0
  O  O77  1  0.99313000  0.57902000  0.83645000  1.0
  O  O78  1  0.74267000  0.65676000  0.66355000  1.0
  O  O79  1  0.92100000  0.50688000  0.66356000  1.0
