# generated using pymatgen
data_Zn2H11C24N2(ClO4)3
_symmetry_space_group_name_H-M   'P 1'
_cell_length_a   9.84548000
_cell_length_b   10.97270000
_cell_length_c   14.00030000
_cell_angle_alpha   95.85030000
_cell_angle_beta   99.28780000
_cell_angle_gamma   94.16960000
_symmetry_Int_Tables_number   1
_chemical_formula_structural   Zn2H11C24N2(ClO4)3
_chemical_formula_sum   'Zn2 H11 C24 N2 Cl3 O12'
_cell_volume   1478.73462146
_cell_formula_units_Z   1
loop_
 _symmetry_equiv_pos_site_id
 _symmetry_equiv_pos_as_xyz
  1  'x, y, z'
loop_
 _atom_site_type_symbol
 _atom_site_label
 _atom_site_symmetry_multiplicity
 _atom_site_fract_x
 _atom_site_fract_y
 _atom_site_fract_z
 _atom_site_occupancy
  Zn  Zn0  1  0.36059000  0.48013000  0.49347000  1.0
  Zn  Zn1  1  0.65427000  0.50801000  0.51085000  1.0
  H  H2  1  0.36429000  0.43821000  0.96773000  1.0
  H  H3  1  0.72384000  0.79597000  0.45819000  1.0
  H  H4  1  0.14629000  0.09549000  0.44551000  1.0
  H  H5  1  0.17567000  0.45564000  0.64061000  1.0
  H  H6  1  0.09527000  0.59535000  0.29238000  1.0
  H  H7  1  0.05956000  0.43118000  0.26451000  1.0
  H  H8  1  0.65703000  0.57210000  0.03236000  1.0
  H  H9  1  0.25322000  0.86703000  0.61402000  1.0
  H  H10  1  0.28080000  0.09705000  0.63926000  1.0
  H  H11  1  0.70704000  0.42577000  0.28945000  1.0
  H  H12  1  0.81385000  0.06230000  0.46141000  1.0
  C  C13  1  0.51628000  0.26485000  0.50904000  1.0
  C  C14  1  0.26650000  0.06076000  0.56170000  1.0
  C  C15  1  0.92035000  0.51258000  0.42573000  1.0
  C  C16  1  0.46717000  0.46269000  0.30788000  1.0
  C  C17  1  0.96220000  0.48211000  0.58350000  1.0
  C  C18  1  0.10203000  0.47111000  0.57706000  1.0
  C  C19  1  0.05765000  0.49999000  0.41814000  1.0
  C  C20  1  0.04063000  0.51276000  0.31090000  1.0
  C  C21  1  0.88181000  0.52248000  0.31577000  1.0
  C  C22  1  0.50801000  0.72793000  0.49272000  1.0
  C  C23  1  0.52748000  0.53431000  0.68947000  1.0
  C  C24  1  0.45790000  0.46216000  0.20414000  1.0
  C  C25  1  0.54649000  0.54253000  0.79441000  1.0
  C  C26  1  0.56380000  0.53241000  0.98232000  1.0
  C  C27  1  0.45719000  0.47735000  0.01839000  1.0
  C  C28  1  0.45888000  0.46929000  0.11779000  1.0
  C  C29  1  0.55673000  0.53946000  0.88219000  1.0
  C  C30  1  0.40260000  0.05521000  0.52255000  1.0
  C  C31  1  0.51876000  0.12948000  0.50812000  1.0
  C  C32  1  0.63247000  0.06665000  0.48860000  1.0
  C  C33  1  0.62664000  0.93532000  0.48240000  1.0
  C  C34  1  0.50963000  0.86270000  0.49723000  1.0
  C  C35  1  0.39812000  0.92825000  0.51739000  1.0
  C  C36  1  0.25977000  0.91323000  0.54885000  1.0
  N  N37  1  0.86725000  0.50467000  0.50699000  1.0
  N  N38  1  0.15146000  0.48013000  0.49335000  1.0
  Cl  Cl39  1  0.82834000  0.67515000  0.29255000  1.0
  Cl  Cl40  1  0.11848000  0.84190000  0.45748000  1.0
  Cl  Cl41  1  0.91159000  0.46580000  0.69229000  1.0
  O  O42  1  0.39822000  0.30226000  0.48143000  1.0
  O  O43  1  0.75071000  0.12585000  0.47215000  1.0
  O  O44  1  0.74218000  0.88798000  0.46051000  1.0
  O  O45  1  0.15547000  0.11882000  0.51548000  1.0
  O  O46  1  0.62934000  0.33266000  0.53651000  1.0
  O  O47  1  0.35978000  0.48180000  0.34417000  1.0
  O  O48  1  0.58583000  0.44500000  0.35577000  1.0
  O  O49  1  0.40084000  0.66770000  0.50811000  1.0
  O  O50  1  0.61849000  0.67920000  0.47356000  1.0
  O  O51  1  0.40863000  0.48880000  0.64438000  1.0
  O  O52  1  0.62969000  0.57102000  0.65114000  1.0
  O  O53  1  0.79600000  0.42942000  0.26171000  1.0
