# generated using pymatgen
data_Zr3H7C27(Cl5O8)2
_symmetry_space_group_name_H-M   'P 1'
_cell_length_a   14.74783047
_cell_length_b   14.75440000
_cell_length_c   14.77521452
_cell_angle_alpha   90.50390569
_cell_angle_beta   119.58649116
_cell_angle_gamma   119.55600417
_symmetry_Int_Tables_number   1
_chemical_formula_structural   Zr3H7C27(Cl5O8)2
_chemical_formula_sum   'Zr6 H14 C54 Cl20 O32'
_cell_volume   2292.70145108
_cell_formula_units_Z   2
loop_
 _symmetry_equiv_pos_site_id
 _symmetry_equiv_pos_as_xyz
  1  'x, y, z'
loop_
 _atom_site_type_symbol
 _atom_site_label
 _atom_site_symmetry_multiplicity
 _atom_site_fract_x
 _atom_site_fract_y
 _atom_site_fract_z
 _atom_site_occupancy
  Zr  Zr0  1  0.23805000  0.61394000  0.11722000  1.0
  Zr  Zr1  1  0.76127000  0.37958000  0.88040000  1.0
  Zr  Zr2  1  0.00075000  0.38257000  0.12255000  1.0
  Zr  Zr3  1  0.99955000  0.62042000  0.88332000  1.0
  Zr  Zr4  1  0.00018000  0.62017000  0.12001000  1.0
  Zr  Zr5  1  0.99610000  0.37830000  0.87724000  1.0
  H  H6  1  0.19078000  0.59434000  0.28244000  1.0
  H  H7  1  0.80781000  0.59196000  0.90888000  1.0
  H  H8  1  0.80786000  0.21699000  0.90383000  1.0
  H  H9  1  0.18767000  0.58851000  0.90503000  1.0
  H  H10  1  0.43380000  0.69287000  0.41630000  1.0
  H  H11  1  0.60656000  0.86506000  0.57261000  1.0
  H  H12  1  0.78176000  0.70595000  0.74871000  1.0
  H  H13  1  0.78360000  0.87242000  0.73877000  1.0
  H  H14  1  0.48693000  0.26811000  0.42139000  1.0
  H  H15  1  0.59237000  0.31659000  0.56713000  1.0
  H  H16  1  0.42646000  0.23318000  0.50283000  1.0
  H  H17  1  0.24931000  0.22499000  0.34506000  1.0
  H  H18  1  0.22190000  0.29122000  0.24507000  1.0
  H  H19  1  0.33404000  0.25845000  0.28460000  1.0
  C  C20  1  0.30788000  0.80840000  0.29477000  1.0
  C  C21  1  0.68987000  0.47974000  0.00616000  1.0
  C  C22  1  0.69718000  0.20291000  0.68857000  1.0
  C  C23  1  0.29078000  0.47362000  0.99988000  1.0
  C  C24  1  0.30008000  0.49094000  0.29929000  1.0
  C  C25  1  0.30058000  0.80206000  0.00104000  1.0
  C  C26  1  0.69882000  0.49982000  0.69470000  1.0
  C  C27  1  0.70195000  0.20481000  0.01269000  1.0
  C  C28  1  0.01528000  0.52349000  0.31390000  1.0
  C  C29  1  0.99426000  0.19400000  0.99495000  1.0
  C  C30  1  0.00326000  0.51051000  0.69878000  1.0
  C  C31  1  0.99991000  0.80393000  0.00982000  1.0
  C  C32  1  0.59609000  0.10252000  0.58557000  1.0
  C  C33  1  0.40978000  0.91158000  0.39569000  1.0
  C  C34  1  0.50422000  0.00589000  0.58617000  1.0
  C  C35  1  0.50165000  0.00794000  0.39512000  1.0
  C  C36  1  0.41201000  0.91073000  0.49179000  1.0
  C  C37  1  0.59427000  0.10346000  0.48955000  1.0
  C  C38  1  0.57847000  0.46359000  0.00189000  1.0
  C  C39  1  0.38251000  0.45561000  0.99926000  1.0
  C  C40  1  0.47887000  0.45566000  0.90526000  1.0
  C  C41  1  0.48218000  0.46253000  0.09599000  1.0
  C  C42  1  0.37113000  0.43300000  0.89950000  1.0
  C  C43  1  0.56772000  0.44917000  0.09077000  1.0
  C  C44  1  0.99300000  0.09117000  0.99500000  1.0
  C  C45  1  0.99719000  0.90440000  0.00961000  1.0
  C  C46  1  0.10606000  0.10001000  0.03481000  1.0
  C  C47  1  0.88280000  0.89424000  0.96650000  1.0
  C  C48  1  0.10958000  0.00754000  0.04766000  1.0
  C  C49  1  0.88078000  0.98814000  0.95828000  1.0
  C  C50  1  0.03059000  0.54253000  0.42218000  1.0
  C  C51  1  0.01606000  0.52772000  0.60431000  1.0
  C  C52  1  0.95231000  0.56541000  0.43144000  1.0
  C  C53  1  0.12251000  0.54521000  0.61172000  1.0
  C  C54  1  0.93075000  0.53959000  0.51357000  1.0
  C  C55  1  0.12061000  0.53679000  0.51603000  1.0
  C  C56  1  0.40258000  0.49272000  0.40097000  1.0
  C  C57  1  0.50427000  0.59542000  0.49071000  1.0
  C  C58  1  0.40000000  0.39726000  0.40641000  1.0
  C  C59  1  0.50800000  0.69353000  0.48897000  1.0
  C  C60  1  0.60586000  0.79096000  0.57647000  1.0
  C  C61  1  0.59912000  0.49932000  0.59149000  1.0
  C  C62  1  0.50184000  0.40167000  0.50174000  1.0
  C  C63  1  0.60422000  0.59891000  0.58773000  1.0
  C  C64  1  0.70379000  0.70107000  0.67602000  1.0
  C  C65  1  0.70521000  0.79490000  0.67029000  1.0
  C  C66  1  0.60180000  0.10508000  0.01670000  1.0
  C  C67  1  0.40187000  0.90353000  0.00007000  1.0
  C  C68  1  0.62493000  0.02881000  0.06223000  1.0
  C  C69  1  0.37883000  0.98014000  0.95456000  1.0
  C  C70  1  0.52485000  0.92741000  0.04955000  1.0
  C  C71  1  0.47858000  0.08066000  0.96567000  1.0
  C  C72  1  0.50260000  0.30009000  0.49887000  1.0
  C  C73  1  0.29545000  0.28802000  0.31481000  1.0
  Cl  Cl74  1  0.50482000  0.00176000  0.70276000  1.0
  Cl  Cl75  1  0.50115000  0.01006000  0.27860000  1.0
  Cl  Cl76  1  0.30498000  0.79175000  0.49615000  1.0
  Cl  Cl77  1  0.70252000  0.22194000  0.48566000  1.0
  Cl  Cl78  1  0.48348000  0.46883000  0.79178000  1.0
  Cl  Cl79  1  0.49515000  0.47740000  0.21806000  1.0
  Cl  Cl80  1  0.23107000  0.37271000  0.77214000  1.0
  Cl  Cl81  1  0.64624000  0.40187000  0.18280000  1.0
  Cl  Cl82  1  0.23859000  0.22258000  0.06465000  1.0
  Cl  Cl83  1  0.74663000  0.76738000  0.92453000  1.0
  Cl  Cl84  1  0.25145000  0.02064000  0.11516000  1.0
  Cl  Cl85  1  0.73952000  0.97640000  0.89453000  1.0
  Cl  Cl86  1  0.89209000  0.63153000  0.35428000  1.0
  Cl  Cl87  1  0.25933000  0.59285000  0.74001000  1.0
  Cl  Cl88  1  0.80511000  0.52934000  0.50408000  1.0
  Cl  Cl89  1  0.23629000  0.53229000  0.51897000  1.0
  Cl  Cl90  1  0.77338000  0.05450000  0.13372000  1.0
  Cl  Cl91  1  0.23127000  0.95598000  0.88239000  1.0
  Cl  Cl92  1  0.55593000  0.83136000  0.08935000  1.0
  Cl  Cl93  1  0.44663000  0.17437000  0.91955000  1.0
  O  O94  1  0.34558000  0.76213000  0.26296000  1.0
  O  O95  1  0.65945000  0.40793000  0.92910000  1.0
  O  O96  1  0.65942000  0.24187000  0.72806000  1.0
  O  O97  1  0.33635000  0.55841000  0.07307000  1.0
  O  O98  1  0.18385000  0.41880000  0.26326000  1.0
  O  O99  1  0.18520000  0.76245000  0.92569000  1.0
  O  O100  1  0.81554000  0.57639000  0.73702000  1.0
  O  O101  1  0.81801000  0.25311000  0.09347000  1.0
  O  O102  1  0.00987000  0.59426000  0.26616000  1.0
  O  O103  1  0.98948000  0.22868000  0.91571000  1.0
  O  O104  1  0.99659000  0.42791000  0.72775000  1.0
  O  O105  1  0.99680000  0.76332000  0.08443000  1.0
  O  O106  1  0.00068000  0.23559000  0.07555000  1.0
  O  O107  1  0.00173000  0.58415000  0.74196000  1.0
  O  O108  1  0.00358000  0.76858000  0.93382000  1.0
  O  O109  1  0.00586000  0.43936000  0.27687000  1.0
  O  O110  1  0.33506000  0.56315000  0.25496000  1.0
  O  O111  1  0.66297000  0.23067000  0.92609000  1.0
  O  O112  1  0.66106000  0.42470000  0.73551000  1.0
  O  O113  1  0.33712000  0.76352000  0.07831000  1.0
  O  O114  1  0.17374000  0.40400000  0.92279000  1.0
  O  O115  1  0.19439000  0.77620000  0.25323000  1.0
  O  O116  1  0.80052000  0.56204000  0.08074000  1.0
  O  O117  1  0.81185000  0.23874000  0.72841000  1.0
  O  O118  1  0.13477000  0.56326000  0.93265000  1.0
  O  O119  1  0.86340000  0.29726000  0.93150000  1.0
  O  O120  1  0.86323000  0.56683000  0.93567000  1.0
  O  O121  1  0.13657000  0.56830000  0.20227000  1.0
  O  O122  1  0.90253000  0.45171000  0.05112000  1.0
  O  O123  1  0.09900000  0.64639000  0.05018000  1.0
  O  O124  1  0.90074000  0.45122000  0.85094000  1.0
  O  O125  1  0.09491000  0.44607000  0.04741000  1.0
