# generated using pymatgen
data_ZnH17C15N5O6
_symmetry_space_group_name_H-M   'P 1'
_cell_length_a   8.98289000
_cell_length_b   9.59549000
_cell_length_c   11.74910000
_cell_angle_alpha   113.56000000
_cell_angle_beta   89.99990000
_cell_angle_gamma   90.00000000
_symmetry_Int_Tables_number   1
_chemical_formula_structural   ZnH17C15N5O6
_chemical_formula_sum   'Zn2 H34 C30 N10 O12'
_cell_volume   928.29838022
_cell_formula_units_Z   2
loop_
 _symmetry_equiv_pos_site_id
 _symmetry_equiv_pos_as_xyz
  1  'x, y, z'
loop_
 _atom_site_type_symbol
 _atom_site_label
 _atom_site_symmetry_multiplicity
 _atom_site_fract_x
 _atom_site_fract_y
 _atom_site_fract_z
 _atom_site_occupancy
  Zn  Zn0  1  0.65764000  0.20777000  0.07499000  1.0
  Zn  Zn1  1  0.15764000  0.79223000  0.92501000  1.0
  H  H2  1  0.51744000  0.41662000  0.25908000  1.0
  H  H3  1  0.01744000  0.58338000  0.74092000  1.0
  H  H4  1  0.49569000  0.24762000  0.26386000  1.0
  H  H5  1  0.99569000  0.75238000  0.73614000  1.0
  H  H6  1  0.65925000  0.59889000  0.93699000  1.0
  H  H7  1  0.15925000  0.40111000  0.06301000  1.0
  H  H8  1  0.80547000  0.49627000  0.56259000  1.0
  H  H9  1  0.30547000  0.50373000  0.43740000  1.0
  H  H10  1  0.65472000  0.93730000  0.16994000  1.0
  H  H11  1  0.15472000  0.06270000  0.83006000  1.0
  H  H12  1  0.79022000  0.68552000  0.16603000  1.0
  H  H13  1  0.29022000  0.31448000  0.83397000  1.0
  H  H14  1  0.98751000  0.68245000  0.15414000  1.0
  H  H15  1  0.48750000  0.31755000  0.84586000  1.0
  H  H16  1  0.98584000  0.53139000  0.93607000  1.0
  H  H17  1  0.48583000  0.46861000  0.06392000  1.0
  H  H18  1  0.98899000  0.09180000  0.99792000  1.0
  H  H19  1  0.48899000  0.90820000  0.00208000  1.0
  H  H20  1  0.55667000  0.43929000  0.70281000  1.0
  H  H21  1  0.05667000  0.56072000  0.29719000  1.0
  H  H22  1  0.60612000  0.63182000  0.74955000  1.0
  H  H23  1  0.10612000  0.36819000  0.25045000  1.0
  H  H24  1  0.75890000  0.44677000  0.35055000  1.0
  H  H25  1  0.25890000  0.55323000  0.64945000  1.0
  H  H26  1  0.74861000  0.25955000  0.34227000  1.0
  H  H27  1  0.24861000  0.74045000  0.65773000  1.0
  H  H28  1  0.93489000  0.88560000  0.46506000  1.0
  H  H29  1  0.43490000  0.11441000  0.53494000  1.0
  H  H30  1  0.95422000  0.20100000  0.55451000  1.0
  H  H31  1  0.45422000  0.79901000  0.44549000  1.0
  H  H32  1  0.34791000  0.82727000  0.22127000  1.0
  H  H33  1  0.84791000  0.17273000  0.77874000  1.0
  H  H34  1  0.19659000  0.25096000  0.43447000  1.0
  H  H35  1  0.69660000  0.74904000  0.56553000  1.0
  C  C36  1  0.85835000  0.40683000  0.01747000  1.0
  C  C37  1  0.35835000  0.59317000  0.98253000  1.0
  C  C38  1  0.87449000  0.83454000  0.09001000  1.0
  C  C39  1  0.37449000  0.16546000  0.90999000  1.0
  C  C40  1  0.75926000  0.93821000  0.12374000  1.0
  C  C41  1  0.25926000  0.06179000  0.87626000  1.0
  C  C42  1  0.88388000  0.68875000  0.10663000  1.0
  C  C43  1  0.38388000  0.31124000  0.89337000  1.0
  C  C44  1  0.60459000  0.41538000  0.48036000  1.0
  C  C45  1  0.10458000  0.58461000  0.51964000  1.0
  C  C46  1  0.77934000  0.49191000  0.77841000  1.0
  C  C47  1  0.27934000  0.50809000  0.22159000  1.0
  C  C48  1  0.87880000  0.54450000  0.98388000  1.0
  C  C49  1  0.37880000  0.45549000  0.01612000  1.0
  C  C50  1  0.93046000  0.02026000  0.03481000  1.0
  C  C51  1  0.43046000  0.97974000  0.96519000  1.0
  C  C52  1  0.64916000  0.51496000  0.70411000  1.0
  C  C53  1  0.14916000  0.48504000  0.29589000  1.0
  C  C54  1  0.68096000  0.36003000  0.35364000  1.0
  C  C55  1  0.18096000  0.63997000  0.64636000  1.0
  C  C56  1  0.01107000  0.95992000  0.44410000  1.0
  C  C57  1  0.51108000  0.04008000  0.55590000  1.0
  C  C58  1  0.02403000  0.11560000  0.48607000  1.0
  C  C59  1  0.52403000  0.88441000  0.51393000  1.0
  C  C60  1  0.20598000  0.00174000  0.34825000  1.0
  C  C61  1  0.70598000  0.99826000  0.65175000  1.0
  C  C62  1  0.33243000  0.95241000  0.26680000  1.0
  C  C63  1  0.83243000  0.04759000  0.73320000  1.0
  C  C64  1  0.14958000  0.14241000  0.42442000  1.0
  C  C65  1  0.64958000  0.85759000  0.57558000  1.0
  N  N66  1  0.98279000  0.88792000  0.03297000  1.0
  N  N67  1  0.48279000  0.11208000  0.96703000  1.0
  N  N68  1  0.57351000  0.31949000  0.25181000  1.0
  N  N69  1  0.07351000  0.68051000  0.74819000  1.0
  N  N70  1  0.76305000  0.55506000  0.90172000  1.0
  N  N71  1  0.26305000  0.44494000  0.09828000  1.0
  N  N72  1  0.79558000  0.05525000  0.08816000  1.0
  N  N73  1  0.29558000  0.94475000  0.91184000  1.0
  N  N74  1  0.69608000  0.47858000  0.57786000  1.0
  N  N75  1  0.19608000  0.52142000  0.42214000  1.0
  O  O76  1  0.72219000  0.36520000  0.01836000  1.0
  O  O77  1  0.22219000  0.63480000  0.98164000  1.0
  O  O78  1  0.96941000  0.34838000  0.04569000  1.0
  O  O79  1  0.46941000  0.65162000  0.95431000  1.0
  O  O80  1  0.46808000  0.39790000  0.49073000  1.0
  O  O81  1  0.96808000  0.60210000  0.50927000  1.0
  O  O82  1  0.89448000  0.42230000  0.72423000  1.0
  O  O83  1  0.39447000  0.57770000  0.27577000  1.0
  O  O84  1  0.42116000  0.04026000  0.24861000  1.0
  O  O85  1  0.92116000  0.95974000  0.75139000  1.0
  O  O86  1  0.11984000  0.88876000  0.36091000  1.0
  O  O87  1  0.61985000  0.11124000  0.63910000  1.0
