# generated using pymatgen
data_Al2H20(C3O)11
_symmetry_space_group_name_H-M   'P 1'
_cell_length_a   6.66515000
_cell_length_b   22.46550000
_cell_length_c   23.81560000
_cell_angle_alpha   67.30300000
_cell_angle_beta   89.95160000
_cell_angle_gamma   89.80460000
_symmetry_Int_Tables_number   1
_chemical_formula_structural   Al2H20(C3O)11
_chemical_formula_sum   'Al4 H40 C66 O22'
_cell_volume   3289.87032132
_cell_formula_units_Z   2
loop_
 _symmetry_equiv_pos_site_id
 _symmetry_equiv_pos_as_xyz
  1  'x, y, z'
loop_
 _atom_site_type_symbol
 _atom_site_label
 _atom_site_symmetry_multiplicity
 _atom_site_fract_x
 _atom_site_fract_y
 _atom_site_fract_z
 _atom_site_occupancy
  Al  Al0  1  0.88477000  0.50080000  0.49955000  1.0
  Al  Al1  1  0.38585000  0.49841000  0.50282000  1.0
  Al  Al2  1  0.30602000  0.99922000  0.00093000  1.0
  Al  Al3  1  0.80591000  0.00171000  0.99754000  1.0
  H  H4  1  0.38435000  0.91061000  0.88288000  1.0
  H  H5  1  0.39787000  0.84689000  0.81755000  1.0
  H  H6  1  0.75641000  0.82243000  0.83359000  1.0
  H  H7  1  0.74488000  0.88951000  0.89589000  1.0
  H  H8  1  0.79870000  0.82030000  0.74101000  1.0
  H  H9  1  0.81326000  0.75324000  0.68063000  1.0
  H  H10  1  0.39123000  0.67999000  0.75844000  1.0
  H  H11  1  0.37649000  0.74708000  0.81879000  1.0
  H  H12  1  0.43399000  0.67852000  0.66567000  1.0
  H  H13  1  0.44740000  0.61185000  0.60300000  1.0
  H  H14  1  0.80765000  0.59068000  0.61520000  1.0
  H  H15  1  0.79250000  0.65383000  0.68104000  1.0
  H  H16  1  0.43529000  0.62038000  0.32383000  1.0
  H  H17  1  0.70758000  0.78915000  0.27333000  1.0
  H  H18  1  0.46506000  0.71426000  0.22489000  1.0
  H  H19  1  0.73862000  0.87878000  0.17210000  1.0
  H  H20  1  0.33146000  0.81505000  0.15029000  1.0
  H  H21  1  0.35053000  0.32328000  0.65262000  1.0
  H  H22  1  0.96187000  0.37288000  0.67200000  1.0
  H  H23  1  0.20265000  0.22317000  0.72964000  1.0
  H  H24  1  0.98956000  0.27867000  0.77121000  1.0
  H  H25  1  0.23052000  0.12904000  0.82883000  1.0
  H  H26  1  0.84152000  0.17901000  0.84820000  1.0
  H  H27  1  0.88434000  0.09949000  0.10684000  1.0
  H  H28  1  0.89999000  0.16647000  0.16898000  1.0
  H  H29  1  0.25396000  0.17011000  0.17410000  1.0
  H  H30  1  0.24185000  0.10470000  0.11029000  1.0
  H  H31  1  0.30866000  0.26594000  0.17606000  1.0
  H  H32  1  0.88215000  0.24506000  0.31493000  1.0
  H  H33  1  0.86872000  0.17601000  0.25646000  1.0
  H  H34  1  0.92239000  0.35844000  0.29968000  1.0
  H  H35  1  0.93919000  0.41739000  0.36979000  1.0
  H  H36  1  0.31585000  0.37755000  0.41334000  1.0
  H  H37  1  0.30197000  0.31377000  0.34822000  1.0
  H  H38  1  0.89175000  0.67537000  0.42115000  1.0
  H  H39  1  0.32506000  0.39160000  0.23891000  1.0
  H  H40  1  0.62473000  0.58331000  0.46120000  1.0
  H  H41  1  0.13428000  0.42183000  0.50081000  1.0
  H  H42  1  0.56181000  0.91555000  0.02600000  1.0
  H  H43  1  0.05955000  0.08498000  0.97936000  1.0
  C  C44  1  0.64067000  0.40907000  0.59763000  1.0
  C  C45  1  0.63443000  0.43686000  0.43703000  1.0
  C  C46  1  0.13889000  0.59279000  0.40432000  1.0
  C  C47  1  0.13469000  0.56083000  0.56490000  1.0
  C  C48  1  0.24794000  0.89106000  0.87152000  1.0
  C  C49  1  0.25442000  0.85489000  0.83561000  1.0
  C  C50  1  0.07824000  0.82932000  0.82121000  1.0
  C  C51  1  0.89435000  0.84275000  0.84313000  1.0
  C  C52  1  0.88691000  0.87961000  0.87845000  1.0
  C  C53  1  0.06395000  0.90352000  0.89353000  1.0
  C  C54  1  0.92806000  0.78883000  0.74582000  1.0
  C  C55  1  0.93623000  0.75076000  0.71165000  1.0
  C  C56  1  0.10344000  0.71121000  0.71464000  1.0
  C  C57  1  0.26189000  0.71148000  0.75354000  1.0
  C  C58  1  0.25363000  0.74954000  0.78773000  1.0
  C  C59  1  0.08664000  0.78919000  0.78466000  1.0
  C  C60  1  0.29643000  0.65815000  0.65594000  1.0
  C  C61  1  0.30502000  0.62149000  0.62045000  1.0
  C  C62  1  0.12823000  0.59762000  0.60513000  1.0
  C  C63  1  0.94378000  0.61003000  0.62694000  1.0
  C  C64  1  0.93628000  0.64594000  0.66309000  1.0
  C  C65  1  0.11222000  0.67133000  0.67785000  1.0
  C  C66  1  0.14783000  0.65027000  0.34558000  1.0
  C  C67  1  0.03880000  0.85255000  0.15546000  1.0
  C  C68  1  0.84339000  0.79450000  0.24648000  1.0
  C  C69  1  0.86068000  0.84427000  0.19037000  1.0
  C  C70  1  0.19433000  0.80880000  0.17698000  1.0
  C  C71  1  0.17691000  0.75504000  0.23294000  1.0
  C  C72  1  0.99986000  0.74812000  0.26963000  1.0
  C  C73  1  0.99188000  0.69566000  0.32791000  1.0
  C  C74  1  0.31699000  0.65656000  0.30799000  1.0
  C  C75  1  0.33210000  0.70827000  0.25330000  1.0
  C  C76  1  0.65321000  0.35292000  0.65696000  1.0
  C  C77  1  0.53876000  0.14923000  0.84407000  1.0
  C  C78  1  0.34085000  0.21399000  0.75619000  1.0
  C  C79  1  0.35612000  0.16181000  0.81064000  1.0
  C  C80  1  0.70181000  0.18962000  0.82229000  1.0
  C  C81  1  0.68814000  0.24476000  0.76741000  1.0
  C  C82  1  0.50382000  0.25732000  0.73347000  1.0
  C  C83  1  0.49006000  0.31254000  0.67862000  1.0
  C  C84  1  0.83605000  0.34022000  0.69029000  1.0
  C  C85  1  0.85130000  0.28798000  0.74468000  1.0
  C  C86  1  0.74742000  0.11532000  0.12204000  1.0
  C  C87  1  0.75479000  0.15224000  0.15725000  1.0
  C  C88  1  0.57786000  0.17342000  0.17613000  1.0
  C  C89  1  0.39298000  0.15532000  0.15900000  1.0
  C  C90  1  0.38499000  0.11850000  0.12368000  1.0
  C  C91  1  0.56235000  0.09848000  0.10447000  1.0
  C  C92  1  0.43382000  0.25903000  0.20747000  1.0
  C  C93  1  0.44114000  0.29919000  0.24015000  1.0
  C  C94  1  0.60369000  0.29455000  0.27998000  1.0
  C  C95  1  0.75688000  0.25002000  0.28401000  1.0
  C  C96  1  0.74855000  0.21085000  0.25103000  1.0
  C  C97  1  0.58594000  0.21427000  0.21205000  1.0
  C  C98  1  0.79135000  0.36109000  0.32611000  1.0
  C  C99  1  0.80024000  0.39463000  0.36447000  1.0
  C  C100  1  0.62854000  0.40081000  0.39594000  1.0
  C  C101  1  0.44837000  0.37257000  0.38868000  1.0
  C  C102  1  0.44059000  0.33799000  0.35135000  1.0
  C  C103  1  0.61134000  0.33208000  0.31899000  1.0
  C  C104  1  0.55636000  0.06114000  0.06457000  1.0
  C  C105  1  0.55141000  0.09315000  0.90353000  1.0
  C  C106  1  0.05813000  0.94038000  0.93380000  1.0
  C  C107  1  0.05267000  0.90766000  0.09531000  1.0
  C  C108  1  0.83504000  0.69243000  0.37356000  1.0
  C  C109  1  0.28430000  0.34951000  0.22760000  1.0
  O  O110  1  0.46525000  0.44988000  0.45473000  1.0
  O  O111  1  0.80695000  0.43312000  0.57323000  1.0
  O  O112  1  0.96704000  0.54946000  0.54541000  1.0
  O  O113  1  0.80624000  0.45132000  0.45167000  1.0
  O  O114  1  0.96549000  0.57065000  0.42457000  1.0
  O  O115  1  0.46768000  0.42830000  0.57509000  1.0
  O  O116  1  0.63383000  0.53913000  0.49056000  1.0
  O  O117  1  0.30605000  0.57022000  0.42921000  1.0
  O  O118  1  0.30613000  0.54442000  0.55183000  1.0
  O  O119  1  0.13468000  0.46136000  0.50808000  1.0
  O  O120  1  0.72488000  0.07310000  0.92532000  1.0
  O  O121  1  0.38464000  0.04584000  0.05073000  1.0
  O  O122  1  0.22621000  0.92706000  0.07344000  1.0
  O  O123  1  0.38490000  0.07010000  0.92857000  1.0
  O  O124  1  0.22663000  0.95315000  0.95172000  1.0
  O  O125  1  0.72506000  0.04846000  0.04645000  1.0
  O  O126  1  0.55735000  0.96215000  0.00692000  1.0
  O  O127  1  0.88634000  0.95530000  0.94818000  1.0
  O  O128  1  0.88591000  0.93075000  0.07017000  1.0
  O  O129  1  0.05665000  0.03856000  0.99219000  1.0
  O  O130  1  0.65928000  0.70938000  0.36264000  1.0
  O  O131  1  0.11981000  0.34746000  0.20510000  1.0
