# generated using pymatgen
data_ZnH12C7N8
_symmetry_space_group_name_H-M   'P 1'
_cell_length_a   9.77028000
_cell_length_b   9.77057000
_cell_length_c   20.55440000
_cell_angle_alpha   90.09590000
_cell_angle_beta   90.09420000
_cell_angle_gamma   60.39600000
_symmetry_Int_Tables_number   1
_chemical_formula_structural   ZnH12C7N8
_chemical_formula_sum   'Zn6 H72 C42 N48'
_cell_volume   1706.00674053
_cell_formula_units_Z   6
loop_
 _symmetry_equiv_pos_site_id
 _symmetry_equiv_pos_as_xyz
  1  'x, y, z'
loop_
 _atom_site_type_symbol
 _atom_site_label
 _atom_site_symmetry_multiplicity
 _atom_site_fract_x
 _atom_site_fract_y
 _atom_site_fract_z
 _atom_site_occupancy
  Zn  Zn0  1  0.48009000  0.00975000  0.41347000  1.0
  Zn  Zn1  1  0.51449000  0.47355000  0.74618000  1.0
  Zn  Zn2  1  0.01149000  0.51408000  0.07877000  1.0
  Zn  Zn3  1  0.99021000  0.51983000  0.58647000  1.0
  Zn  Zn4  1  0.52646000  0.48544000  0.25380000  1.0
  Zn  Zn5  1  0.48592000  0.98849000  0.92122000  1.0
  H  H6  1  0.31499000  0.01851000  0.54232000  1.0
  H  H7  1  0.67352000  0.30810000  0.87320000  1.0
  H  H8  1  0.02058000  0.66577000  0.21009000  1.0
  H  H9  1  0.98138000  0.68478000  0.45750000  1.0
  H  H10  1  0.69189000  0.32644000  0.12681000  1.0
  H  H11  1  0.33427000  0.97944000  0.78990000  1.0
  H  H12  1  0.14182000  0.15706000  0.57683000  1.0
  H  H13  1  0.70332000  0.13793000  0.90974000  1.0
  H  H14  1  0.16324000  0.69308000  0.24699000  1.0
  H  H15  1  0.84275000  0.85788000  0.42297000  1.0
  H  H16  1  0.86199000  0.29679000  0.09022000  1.0
  H  H17  1  0.30699000  0.83681000  0.75295000  1.0
  H  H18  1  0.93030000  0.98958000  0.24695000  1.0
  H  H19  1  0.12055000  0.89378000  0.56667000  1.0
  H  H20  1  0.98866000  0.14608000  0.88552000  1.0
  H  H21  1  0.01046000  0.06981000  0.75308000  1.0
  H  H22  1  0.10467000  0.88079000  0.43265000  1.0
  H  H23  1  0.85401000  0.01143000  0.11439000  1.0
  H  H24  1  0.84027000  0.17853000  0.21812000  1.0
  H  H25  1  0.00224000  0.81838000  0.54393000  1.0
  H  H26  1  0.17928000  0.00923000  0.87359000  1.0
  H  H27  1  0.82150000  0.15986000  0.78189000  1.0
  H  H28  1  0.18097000  0.99815000  0.45577000  1.0
  H  H29  1  0.99069000  0.82078000  0.12640000  1.0
  H  H30  1  0.29583000  0.46355000  0.34618000  1.0
  H  H31  1  0.23445000  0.28996000  0.68146000  1.0
  H  H32  1  0.46577000  0.24457000  0.01345000  1.0
  H  H33  1  0.53671000  0.70432000  0.65388000  1.0
  H  H34  1  0.71045000  0.76446000  0.31884000  1.0
  H  H35  1  0.75487000  0.53455000  0.98666000  1.0
  H  H36  1  0.41446000  0.47797000  0.40530000  1.0
  H  H37  1  0.10855000  0.41319000  0.74099000  1.0
  H  H38  1  0.47685000  0.11124000  0.07126000  1.0
  H  H39  1  0.52188000  0.58576000  0.59484000  1.0
  H  H40  1  0.58767000  0.89108000  0.25938000  1.0
  H  H41  1  0.88852000  0.52301000  0.92890000  1.0
  H  H42  1  0.08466000  0.13098000  0.29175000  1.0
  H  H43  1  0.77890000  0.09037000  0.61901000  1.0
  H  H44  1  0.12598000  0.78848000  0.95454000  1.0
  H  H45  1  0.86923000  0.91525000  0.70822000  1.0
  H  H46  1  0.90942000  0.22131000  0.38092000  1.0
  H  H47  1  0.21155000  0.87425000  0.04564000  1.0
  H  H48  1  0.92796000  0.31425000  0.26677000  1.0
  H  H49  1  0.74934000  0.93432000  0.59606000  1.0
  H  H50  1  0.30956000  0.76411000  0.93230000  1.0
  H  H51  1  0.68598000  0.07203000  0.73321000  1.0
  H  H52  1  0.06550000  0.25079000  0.40394000  1.0
  H  H53  1  0.23585000  0.69071000  0.06793000  1.0
  H  H54  1  0.04086000  0.69790000  0.33831000  1.0
  H  H55  1  0.24810000  0.04431000  0.66999000  1.0
  H  H56  1  0.71267000  0.24420000  0.00446000  1.0
  H  H57  1  0.30198000  0.95899000  0.66156000  1.0
  H  H58  1  0.95555000  0.75181000  0.32987000  1.0
  H  H59  1  0.75629000  0.28719000  0.99547000  1.0
  H  H60  1  0.09675000  0.43975000  0.29429000  1.0
  H  H61  1  0.45861000  0.10152000  0.62658000  1.0
  H  H62  1  0.43551000  0.47058000  0.95854000  1.0
  H  H63  1  0.56039000  0.90326000  0.70578000  1.0
  H  H64  1  0.89828000  0.54156000  0.37343000  1.0
  H  H65  1  0.52944000  0.56466000  0.04178000  1.0
  H  H66  1  0.17625000  0.29644000  0.23195000  1.0
  H  H67  1  0.51812000  0.18394000  0.56352000  1.0
  H  H68  1  0.29306000  0.53214000  0.89583000  1.0
  H  H69  1  0.70373000  0.82387000  0.76811000  1.0
  H  H70  1  0.81588000  0.48200000  0.43647000  1.0
  H  H71  1  0.46777000  0.70725000  0.10444000  1.0
  H  H72  1  0.25452000  0.24767000  0.31173000  1.0
  H  H73  1  0.49455000  0.25949000  0.64361000  1.0
  H  H74  1  0.24375000  0.50110000  0.97526000  1.0
  H  H75  1  0.75245000  0.74544000  0.68836000  1.0
  H  H76  1  0.74039000  0.50552000  0.35639000  1.0
  H  H77  1  0.49899000  0.75638000  0.02501000  1.0
  C  C78  1  0.22302000  0.23866000  0.50448000  1.0
  C  C79  1  0.53916000  0.21861000  0.83792000  1.0
  C  C80  1  0.24154000  0.53632000  0.17281000  1.0
  C  C81  1  0.76129000  0.77686000  0.49543000  1.0
  C  C82  1  0.78139000  0.46082000  0.16209000  1.0
  C  C83  1  0.46368000  0.75847000  0.82716000  1.0
  C  C84  1  0.29619000  0.35812000  0.43668000  1.0
  C  C85  1  0.34692000  0.29053000  0.77019000  1.0
  C  C86  1  0.35914000  0.34704000  0.10381000  1.0
  C  C87  1  0.64188000  0.70378000  0.56329000  1.0
  C  C88  1  0.70965000  0.65289000  0.22989000  1.0
  C  C89  1  0.65285000  0.64088000  0.89620000  1.0
  C  C90  1  0.38075000  0.39479000  0.38464000  1.0
  C  C91  1  0.22447000  0.37530000  0.71884000  1.0
  C  C92  1  0.39505000  0.22790000  0.05105000  1.0
  C  C93  1  0.60525000  0.61934000  0.61540000  1.0
  C  C94  1  0.62508000  0.77509000  0.28135000  1.0
  C  C95  1  0.77184000  0.60500000  0.94902000  1.0
  C  C96  1  0.52238000  0.26146000  0.35368000  1.0
  C  C97  1  0.21943000  0.51437000  0.68629000  1.0
  C  C98  1  0.26176000  0.22068000  0.01869000  1.0
  C  C99  1  0.73855000  0.47766000  0.64633000  1.0
  C  C100  1  0.48567000  0.78044000  0.31370000  1.0
  C  C101  1  0.77921000  0.73827000  0.98133000  1.0
  C  C102  1  0.72411000  0.13275000  0.29158000  1.0
  C  C103  1  0.14503000  0.71714000  0.62442000  1.0
  C  C104  1  0.13302000  0.15089000  0.95392000  1.0
  C  C105  1  0.86731000  0.27595000  0.70843000  1.0
  C  C106  1  0.28246000  0.85526000  0.37533000  1.0
  C  C107  1  0.84911000  0.86700000  0.04605000  1.0
  C  C108  1  0.02814000  0.25863000  0.30047000  1.0
  C  C109  1  0.70757000  0.03443000  0.62964000  1.0
  C  C110  1  0.25275000  0.71810000  0.96482000  1.0
  C  C111  1  0.74157000  0.97180000  0.69953000  1.0
  C  C112  1  0.96542000  0.29261000  0.37035000  1.0
  C  C113  1  0.28194000  0.74744000  0.03542000  1.0
  C  C114  1  0.14512000  0.31391000  0.28381000  1.0
  C  C115  1  0.53525000  0.15092000  0.61519000  1.0
  C  C116  1  0.30964000  0.54614000  0.94783000  1.0
  C  C117  1  0.68623000  0.85490000  0.71625000  1.0
  C  C118  1  0.84893000  0.46489000  0.38481000  1.0
  C  C119  1  0.45388000  0.69056000  0.05245000  1.0
  N  N120  1  0.13779000  0.39297000  0.51627000  1.0
  N  N121  1  0.46979000  0.13293000  0.84991000  1.0
  N  N122  1  0.39598000  0.46635000  0.18477000  1.0
  N  N123  1  0.60696000  0.86209000  0.48367000  1.0
  N  N124  1  0.86703000  0.53023000  0.15008000  1.0
  N  N125  1  0.53362000  0.60403000  0.81522000  1.0
  N  N126  1  0.18368000  0.47058000  0.47240000  1.0
  N  N127  1  0.34659000  0.17808000  0.80606000  1.0
  N  N128  1  0.47239000  0.34491000  0.14020000  1.0
  N  N129  1  0.52939000  0.81625000  0.52758000  1.0
  N  N130  1  0.82199000  0.65332000  0.19398000  1.0
  N  N131  1  0.65499000  0.52761000  0.85981000  1.0
  N  N132  1  0.32332000  0.21143000  0.45433000  1.0
  N  N133  1  0.46654000  0.31858000  0.78759000  1.0
  N  N134  1  0.21305000  0.46598000  0.12169000  1.0
  N  N135  1  0.78856000  0.67663000  0.54561000  1.0
  N  N136  1  0.68155000  0.53331000  0.21247000  1.0
  N  N137  1  0.53397000  0.78696000  0.87830000  1.0
  N  N138  1  0.20930000  0.12117000  0.53564000  1.0
  N  N139  1  0.67103000  0.20412000  0.86829000  1.0
  N  N140  1  0.12611000  0.66532000  0.20502000  1.0
  N  N141  1  0.87874000  0.79049000  0.46419000  1.0
  N  N142  1  0.79586000  0.32898000  0.13169000  1.0
  N  N143  1  0.33472000  0.87391000  0.79494000  1.0
  N  N144  1  0.60401000  0.28297000  0.30456000  1.0
  N  N145  1  0.11280000  0.59814000  0.63860000  1.0
  N  N146  1  0.28390000  0.11530000  0.97039000  1.0
  N  N147  1  0.71707000  0.39603000  0.69545000  1.0
  N  N148  1  0.40167000  0.88728000  0.36130000  1.0
  N  N149  1  0.88462000  0.71613000  0.02961000  1.0
  N  N150  1  0.58938000  0.10968000  0.36943000  1.0
  N  N151  1  0.30924000  0.57818000  0.69949000  1.0
  N  N152  1  0.10879000  0.31216000  0.03050000  1.0
  N  N153  1  0.89033000  0.41064000  0.63056000  1.0
  N  N154  1  0.42181000  0.69073000  0.30044000  1.0
  N  N155  1  0.68780000  0.89123000  0.96949000  1.0
  N  N156  1  0.72093000  0.02550000  0.33080000  1.0
  N  N157  1  0.26144000  0.71023000  0.66097000  1.0
  N  N158  1  0.02449000  0.26707000  0.99023000  1.0
  N  N159  1  0.97454000  0.27910000  0.66919000  1.0
  N  N160  1  0.28946000  0.73878000  0.33880000  1.0
  N  N161  1  0.73298000  0.97554000  0.00973000  1.0
  N  N162  1  0.82880000  0.09303000  0.24155000  1.0
  N  N163  1  0.06550000  0.83347000  0.57999000  1.0
  N  N164  1  0.09503000  0.07689000  0.90664000  1.0
  N  N165  1  0.90703000  0.17131000  0.75848000  1.0
  N  N166  1  0.16583000  0.93516000  0.41961000  1.0
  N  N167  1  0.92314000  0.90499000  0.09332000  1.0
