# generated using pymatgen
data_CdH10C13S(NO)4
_symmetry_space_group_name_H-M   'P 1'
_cell_length_a   9.39748000
_cell_length_b   20.07080000
_cell_length_c   20.94770000
_cell_angle_alpha   90.00010000
_cell_angle_beta   90.00000000
_cell_angle_gamma   90.00000000
_symmetry_Int_Tables_number   1
_chemical_formula_structural   CdH10C13S(NO)4
_chemical_formula_sum   'Cd8 H80 C104 S8 N32 O32'
_cell_volume   3951.04921181
_cell_formula_units_Z   8
loop_
 _symmetry_equiv_pos_site_id
 _symmetry_equiv_pos_as_xyz
  1  'x, y, z'
loop_
 _atom_site_type_symbol
 _atom_site_label
 _atom_site_symmetry_multiplicity
 _atom_site_fract_x
 _atom_site_fract_y
 _atom_site_fract_z
 _atom_site_occupancy
  Cd  Cd0  1  0.51000000  0.55335000  0.42705000  1.0
  Cd  Cd1  1  0.99000000  0.44665000  0.92705000  1.0
  Cd  Cd2  1  0.49000000  0.05335000  0.07295000  1.0
  Cd  Cd3  1  0.01000000  0.94665000  0.57295000  1.0
  Cd  Cd4  1  0.49000000  0.44665000  0.57295000  1.0
  Cd  Cd5  1  0.01000000  0.55335000  0.07295000  1.0
  Cd  Cd6  1  0.51000000  0.94665000  0.92705000  1.0
  Cd  Cd7  1  0.99000000  0.05335000  0.42705000  1.0
  H  H8  1  0.45617000  0.31327000  0.46633000  1.0
  H  H9  1  0.04383000  0.68673000  0.96633000  1.0
  H  H10  1  0.54383000  0.81327000  0.03367000  1.0
  H  H11  1  0.95617000  0.18673000  0.53367000  1.0
  H  H12  1  0.54383000  0.68673000  0.53367000  1.0
  H  H13  1  0.95616000  0.31327000  0.03367000  1.0
  H  H14  1  0.45616000  0.18673000  0.96633000  1.0
  H  H15  1  0.04383000  0.81327000  0.46633000  1.0
  H  H16  1  0.56725000  0.19089000  0.46624000  1.0
  H  H17  1  0.93275000  0.80911000  0.96624000  1.0
  H  H18  1  0.43275000  0.69089000  0.03376000  1.0
  H  H19  1  0.06725000  0.30911000  0.53376000  1.0
  H  H20  1  0.43275000  0.80911000  0.53376000  1.0
  H  H21  1  0.06725000  0.19089000  0.03376000  1.0
  H  H22  1  0.56725000  0.30910000  0.96624000  1.0
  H  H23  1  0.93275000  0.69089000  0.46624000  1.0
  H  H24  1  0.37270000  0.44227000  0.31978000  1.0
  H  H25  1  0.12730000  0.55773000  0.81978000  1.0
  H  H26  1  0.62730000  0.94227000  0.18022000  1.0
  H  H27  1  0.87270000  0.05773000  0.68022000  1.0
  H  H28  1  0.62730000  0.55773000  0.68022000  1.0
  H  H29  1  0.87270000  0.44227000  0.18022000  1.0
  H  H30  1  0.37270000  0.05773000  0.81978000  1.0
  H  H31  1  0.12730000  0.94227000  0.31978000  1.0
  H  H32  1  0.31813000  0.47147000  0.19100000  1.0
  H  H33  1  0.18187000  0.52853000  0.69100000  1.0
  H  H34  1  0.68188000  0.97147000  0.30900000  1.0
  H  H35  1  0.81813000  0.02853000  0.80900000  1.0
  H  H36  1  0.68188000  0.52853000  0.80900000  1.0
  H  H37  1  0.81813000  0.47147000  0.30900000  1.0
  H  H38  1  0.31813000  0.02853000  0.69100000  1.0
  H  H39  1  0.18187000  0.97147000  0.19100000  1.0
  H  H40  1  0.55210000  0.62912000  0.27602000  1.0
  H  H41  1  0.94790000  0.37088000  0.77602000  1.0
  H  H42  1  0.44790000  0.12912000  0.22398000  1.0
  H  H43  1  0.05210000  0.87088000  0.72398000  1.0
  H  H44  1  0.44790000  0.37088000  0.72398000  1.0
  H  H45  1  0.05210000  0.62912000  0.22398000  1.0
  H  H46  1  0.55210000  0.87088000  0.77602000  1.0
  H  H47  1  0.94790000  0.12912000  0.27602000  1.0
  H  H48  1  0.46050000  0.64616000  0.16194000  1.0
  H  H49  1  0.03950000  0.35384000  0.66194000  1.0
  H  H50  1  0.53950000  0.14616000  0.33806000  1.0
  H  H51  1  0.96050000  0.85384000  0.83806000  1.0
  H  H52  1  0.53950000  0.35384000  0.83806000  1.0
  H  H53  1  0.96050000  0.64616000  0.33806000  1.0
  H  H54  1  0.46050000  0.85384000  0.66194000  1.0
  H  H55  1  0.03950000  0.14616000  0.16194000  1.0
  H  H56  1  0.34021000  0.58635000  0.12934000  1.0
  H  H57  1  0.15980000  0.41365000  0.62934000  1.0
  H  H58  1  0.65979000  0.08635000  0.37066000  1.0
  H  H59  1  0.84021000  0.91365000  0.87066000  1.0
  H  H60  1  0.65979000  0.41365000  0.87066000  1.0
  H  H61  1  0.84020000  0.58635000  0.37066000  1.0
  H  H62  1  0.34021000  0.91365000  0.62934000  1.0
  H  H63  1  0.15980000  0.08635000  0.12934000  1.0
  H  H64  1  0.45169000  0.47809000  0.07871000  1.0
  H  H65  1  0.04831000  0.52191000  0.57871000  1.0
  H  H66  1  0.54831000  0.97809000  0.42129000  1.0
  H  H67  1  0.95169000  0.02192000  0.92129000  1.0
  H  H68  1  0.54831000  0.52191000  0.92129000  1.0
  H  H69  1  0.95169000  0.47809000  0.42129000  1.0
  H  H70  1  0.45169000  0.02191000  0.57871000  1.0
  H  H71  1  0.04831000  0.97808000  0.07871000  1.0
  H  H72  1  0.72088000  0.45906000  0.02432000  1.0
  H  H73  1  0.77912000  0.54094000  0.52432000  1.0
  H  H74  1  0.27912000  0.95906000  0.47568000  1.0
  H  H75  1  0.22089000  0.04094000  0.97568000  1.0
  H  H76  1  0.27912000  0.54094000  0.97568000  1.0
  H  H77  1  0.22088000  0.45906000  0.47568000  1.0
  H  H78  1  0.72088000  0.04094000  0.52432000  1.0
  H  H79  1  0.77911000  0.95906000  0.02432000  1.0
  H  H80  1  0.72278000  0.63882000  0.12908000  1.0
  H  H81  1  0.77722000  0.36118000  0.62908000  1.0
  H  H82  1  0.27722000  0.13882000  0.37092000  1.0
  H  H83  1  0.22278000  0.86118000  0.87092000  1.0
  H  H84  1  0.27722000  0.36118000  0.87092000  1.0
  H  H85  1  0.22278000  0.63882000  0.37092000  1.0
  H  H86  1  0.72278000  0.86118000  0.62908000  1.0
  H  H87  1  0.77722000  0.13882000  0.12908000  1.0
  C  C88  1  0.65874000  0.34828000  0.42999000  1.0
  C  C89  1  0.84126000  0.65172000  0.92999000  1.0
  C  C90  1  0.34126000  0.84828000  0.07001000  1.0
  C  C91  1  0.15874000  0.15172000  0.57001000  1.0
  C  C92  1  0.34126000  0.65172000  0.57001000  1.0
  C  C93  1  0.15874000  0.34828000  0.07001000  1.0
  C  C94  1  0.65874000  0.15172000  0.92999000  1.0
  C  C95  1  0.84126000  0.84828000  0.42999000  1.0
  C  C96  1  0.56319000  0.30044000  0.45104000  1.0
  C  C97  1  0.93681000  0.69956000  0.95104000  1.0
  C  C98  1  0.43681000  0.80044000  0.04896000  1.0
  C  C99  1  0.06319000  0.19956000  0.54896000  1.0
  C  C100  1  0.43681000  0.69956000  0.54896000  1.0
  C  C101  1  0.06319000  0.30044000  0.04896000  1.0
  C  C102  1  0.56319000  0.19956000  0.95104000  1.0
  C  C103  1  0.93681000  0.80044000  0.45104000  1.0
  C  C104  1  0.62143000  0.23578000  0.45008000  1.0
  C  C105  1  0.87857000  0.76422000  0.95008000  1.0
  C  C106  1  0.37857000  0.73578000  0.04992000  1.0
  C  C107  1  0.12143000  0.26422000  0.54992000  1.0
  C  C108  1  0.37857000  0.76422000  0.54992000  1.0
  C  C109  1  0.12143000  0.23578000  0.04992000  1.0
  C  C110  1  0.62143000  0.26422000  0.95008000  1.0
  C  C111  1  0.87857000  0.73578000  0.45008000  1.0
  C  C112  1  0.76021000  0.23488000  0.42732000  1.0
  C  C113  1  0.73979000  0.76512000  0.92732000  1.0
  C  C114  1  0.23979000  0.73488000  0.07268000  1.0
  C  C115  1  0.26021000  0.26512000  0.57268000  1.0
  C  C116  1  0.23979000  0.76512000  0.57268000  1.0
  C  C117  1  0.26021000  0.23488000  0.07268000  1.0
  C  C118  1  0.76021000  0.26512000  0.92732000  1.0
  C  C119  1  0.73979000  0.73488000  0.42732000  1.0
  C  C120  1  0.85415000  0.17630000  0.42041000  1.0
  C  C121  1  0.64585000  0.82370000  0.92041000  1.0
  C  C122  1  0.14585000  0.67630000  0.07959000  1.0
  C  C123  1  0.35415000  0.32370000  0.57959000  1.0
  C  C124  1  0.14585000  0.82370000  0.57959000  1.0
  C  C125  1  0.35415000  0.17630000  0.07959000  1.0
  C  C126  1  0.85415000  0.32370000  0.92041000  1.0
  C  C127  1  0.64585000  0.67630000  0.42041000  1.0
  C  C128  1  0.63661000  0.42105000  0.42701000  1.0
  C  C129  1  0.86339000  0.57895000  0.92701000  1.0
  C  C130  1  0.36339000  0.92105000  0.07299000  1.0
  C  C131  1  0.13661000  0.07895000  0.57299000  1.0
  C  C132  1  0.36339000  0.57895000  0.57299000  1.0
  C  C133  1  0.13661000  0.42105000  0.07299000  1.0
  C  C134  1  0.63661000  0.07895000  0.92701000  1.0
  C  C135  1  0.86339000  0.92105000  0.42701000  1.0
  C  C136  1  0.40393000  0.48488000  0.29115000  1.0
  C  C137  1  0.09607000  0.51512000  0.79115000  1.0
  C  C138  1  0.59607000  0.98488000  0.20885000  1.0
  C  C139  1  0.90393000  0.01512000  0.70885000  1.0
  C  C140  1  0.59607000  0.51512000  0.70885000  1.0
  C  C141  1  0.90393000  0.48488000  0.20885000  1.0
  C  C142  1  0.40393000  0.01512000  0.79115000  1.0
  C  C143  1  0.09607000  0.98488000  0.29115000  1.0
  C  C144  1  0.37538000  0.49815000  0.22814000  1.0
  C  C145  1  0.12462000  0.50185000  0.72814000  1.0
  C  C146  1  0.62462000  0.99815000  0.27186000  1.0
  C  C147  1  0.87538000  0.00185000  0.77186000  1.0
  C  C148  1  0.62462000  0.50185000  0.77186000  1.0
  C  C149  1  0.87538000  0.49815000  0.27186000  1.0
  C  C150  1  0.37538000  0.00185000  0.72814000  1.0
  C  C151  1  0.12462000  0.99815000  0.22814000  1.0
  C  C152  1  0.49945000  0.58127000  0.27102000  1.0
  C  C153  1  0.00055000  0.41874000  0.77102000  1.0
  C  C154  1  0.50055000  0.08126000  0.22898000  1.0
  C  C155  1  0.99945000  0.91874000  0.72898000  1.0
  C  C156  1  0.50055000  0.41874000  0.72898000  1.0
  C  C157  1  0.99945000  0.58127000  0.22898000  1.0
  C  C158  1  0.49945000  0.91873000  0.77102000  1.0
  C  C159  1  0.00055000  0.08127000  0.27102000  1.0
  C  C160  1  0.44172000  0.59282000  0.15441000  1.0
  C  C161  1  0.05828000  0.40718000  0.65441000  1.0
  C  C162  1  0.55828000  0.09282000  0.34559000  1.0
  C  C163  1  0.94172000  0.90718000  0.84560000  1.0
  C  C164  1  0.55828000  0.40718000  0.84559000  1.0
  C  C165  1  0.94172000  0.59282000  0.34559000  1.0
  C  C166  1  0.44172000  0.90718000  0.65440000  1.0
  C  C167  1  0.05828000  0.09282000  0.15440000  1.0
  C  C168  1  0.54902000  0.50723000  0.08067000  1.0
  C  C169  1  0.95098000  0.49277000  0.58067000  1.0
  C  C170  1  0.45098000  0.00724000  0.41933000  1.0
  C  C171  1  0.04902000  0.99277000  0.91933000  1.0
  C  C172  1  0.45098000  0.49277000  0.91933000  1.0
  C  C173  1  0.04902000  0.50723000  0.41933000  1.0
  C  C174  1  0.54902000  0.99277000  0.58067000  1.0
  C  C175  1  0.95098000  0.00723000  0.08067000  1.0
  C  C176  1  0.68153000  0.49917000  0.05426000  1.0
  C  C177  1  0.81847000  0.50083000  0.55426000  1.0
  C  C178  1  0.31847000  0.99917000  0.44574000  1.0
  C  C179  1  0.18153000  0.00084000  0.94574000  1.0
  C  C180  1  0.31847000  0.50083000  0.94574000  1.0
  C  C181  1  0.18153000  0.49917000  0.44574000  1.0
  C  C182  1  0.68153000  0.00083000  0.55426000  1.0
  C  C183  1  0.81847000  0.99917000  0.05426000  1.0
  C  C184  1  0.68769000  0.59251000  0.10741000  1.0
  C  C185  1  0.81231000  0.40749000  0.60741000  1.0
  C  C186  1  0.31231000  0.09252000  0.39259000  1.0
  C  C187  1  0.18769000  0.90749000  0.89259000  1.0
  C  C188  1  0.31231000  0.40749000  0.89259000  1.0
  C  C189  1  0.18769000  0.59251000  0.39259000  1.0
  C  C190  1  0.68769000  0.90749000  0.60741000  1.0
  C  C191  1  0.81231000  0.09252000  0.10741000  1.0
  S  S192  1  0.81880000  0.31357000  0.40758000  1.0
  S  S193  1  0.68120000  0.68643000  0.90758000  1.0
  S  S194  1  0.18120000  0.81357000  0.09242000  1.0
  S  S195  1  0.31880000  0.18643000  0.59242000  1.0
  S  S196  1  0.18120000  0.68643000  0.59242000  1.0
  S  S197  1  0.31880000  0.31357000  0.09242000  1.0
  S  S198  1  0.81880000  0.18643000  0.90758000  1.0
  S  S199  1  0.68120000  0.81357000  0.40758000  1.0
  N  N200  1  0.48074000  0.53704000  0.31719000  1.0
  N  N201  1  0.01926000  0.46296000  0.81719000  1.0
  N  N202  1  0.51926000  0.03704000  0.18282000  1.0
  N  N203  1  0.98074000  0.96296000  0.68282000  1.0
  N  N204  1  0.51926000  0.46296000  0.68281000  1.0
  N  N205  1  0.98074000  0.53704000  0.18282000  1.0
  N  N206  1  0.48074000  0.96296000  0.81718000  1.0
  N  N207  1  0.01926000  0.03704000  0.31719000  1.0
  N  N208  1  0.43654000  0.55972000  0.21606000  1.0
  N  N209  1  0.06346000  0.44028000  0.71606000  1.0
  N  N210  1  0.56346000  0.05972000  0.28394000  1.0
  N  N211  1  0.93654000  0.94028000  0.78394000  1.0
  N  N212  1  0.56346000  0.44028000  0.78394000  1.0
  N  N213  1  0.93654000  0.55972000  0.28394000  1.0
  N  N214  1  0.43654000  0.94028000  0.71606000  1.0
  N  N215  1  0.06346000  0.05972000  0.21606000  1.0
  N  N216  1  0.55457000  0.56669000  0.11421000  1.0
  N  N217  1  0.94543000  0.43331000  0.61421000  1.0
  N  N218  1  0.44543000  0.06669000  0.38579000  1.0
  N  N219  1  0.05457000  0.93331000  0.88579000  1.0
  N  N220  1  0.44543000  0.43331000  0.88579000  1.0
  N  N221  1  0.05457000  0.56669000  0.38579000  1.0
  N  N222  1  0.55457000  0.93331000  0.61420000  1.0
  N  N223  1  0.94543000  0.06669000  0.11421000  1.0
  N  N224  1  0.76628000  0.55283000  0.07110000  1.0
  N  N225  1  0.73372000  0.44717000  0.57110000  1.0
  N  N226  1  0.23373000  0.05283000  0.42890000  1.0
  N  N227  1  0.26627000  0.94717000  0.92890000  1.0
  N  N228  1  0.23372000  0.44717000  0.92890000  1.0
  N  N229  1  0.26627000  0.55283000  0.42890000  1.0
  N  N230  1  0.76628000  0.94717000  0.57110000  1.0
  N  N231  1  0.73372000  0.05283000  0.07110000  1.0
  O  O232  1  0.97452000  0.18150000  0.39422000  1.0
  O  O233  1  0.52548000  0.81850000  0.89422000  1.0
  O  O234  1  0.02548000  0.68150000  0.10578000  1.0
  O  O235  1  0.47452000  0.31850000  0.60578000  1.0
  O  O236  1  0.02548000  0.81850000  0.60578000  1.0
  O  O237  1  0.47452000  0.18150000  0.10578000  1.0
  O  O238  1  0.97452000  0.31850000  0.89422000  1.0
  O  O239  1  0.52548000  0.68150000  0.39422000  1.0
  O  O240  1  0.80435000  0.12092000  0.44324000  1.0
  O  O241  1  0.69565000  0.87908000  0.94324000  1.0
  O  O242  1  0.19565000  0.62092000  0.05676000  1.0
  O  O243  1  0.30435000  0.37908000  0.55676000  1.0
  O  O244  1  0.19565000  0.87908000  0.55676000  1.0
  O  O245  1  0.30435000  0.12092000  0.05676000  1.0
  O  O246  1  0.80435000  0.37908000  0.94324000  1.0
  O  O247  1  0.69565000  0.62092000  0.44324000  1.0
  O  O248  1  0.72779000  0.45807000  0.40097000  1.0
  O  O249  1  0.77221000  0.54193000  0.90097000  1.0
  O  O250  1  0.27221000  0.95807000  0.09903000  1.0
  O  O251  1  0.22779000  0.04193000  0.59903000  1.0
  O  O252  1  0.27221000  0.54193000  0.59903000  1.0
  O  O253  1  0.22779000  0.45807000  0.09903000  1.0
  O  O254  1  0.72779000  0.04193000  0.90097000  1.0
  O  O255  1  0.77221000  0.95807000  0.40097000  1.0
  O  O256  1  0.51941000  0.44288000  0.45238000  1.0
  O  O257  1  0.98060000  0.55712000  0.95238000  1.0
  O  O258  1  0.48060000  0.94288000  0.04762000  1.0
  O  O259  1  0.01940000  0.05712000  0.54762000  1.0
  O  O260  1  0.48060000  0.55712000  0.54762000  1.0
  O  O261  1  0.01940000  0.44288000  0.04762000  1.0
  O  O262  1  0.51940000  0.05712000  0.95238000  1.0
  O  O263  1  0.98059000  0.94288000  0.45238000  1.0
