# generated using pymatgen
data_CuH7C7IN
_symmetry_space_group_name_H-M   'P 1'
_cell_length_a   4.04124000
_cell_length_b   11.94220000
_cell_length_c   16.33970000
_cell_angle_alpha   98.46580000
_cell_angle_beta   89.99930000
_cell_angle_gamma   89.99800000
_symmetry_Int_Tables_number   1
_chemical_formula_structural   CuH7C7IN
_chemical_formula_sum   'Cu4 H28 C28 I4 N4'
_cell_volume   779.98272165
_cell_formula_units_Z   4
loop_
 _symmetry_equiv_pos_site_id
 _symmetry_equiv_pos_as_xyz
  1  'x, y, z'
loop_
 _atom_site_type_symbol
 _atom_site_label
 _atom_site_symmetry_multiplicity
 _atom_site_fract_x
 _atom_site_fract_y
 _atom_site_fract_z
 _atom_site_occupancy
  Cu  Cu0  1  0.41920000  0.69823000  0.70613000  1.0
  Cu  Cu1  1  0.91916000  0.80177000  0.79388000  1.0
  Cu  Cu2  1  0.58079000  0.30177000  0.29387000  1.0
  Cu  Cu3  1  0.08082000  0.19822000  0.20612000  1.0
  H  H4  1  0.13179000  0.49549000  0.76449000  1.0
  H  H5  1  0.63186000  0.00452000  0.73551000  1.0
  H  H6  1  0.86819000  0.50450000  0.23551000  1.0
  H  H7  1  0.36818000  0.99548000  0.26449000  1.0
  H  H8  1  0.11957000  0.28800000  0.72072000  1.0
  H  H9  1  0.61958000  0.21201000  0.77926000  1.0
  H  H10  1  0.88041000  0.71199000  0.27928000  1.0
  H  H11  1  0.38040000  0.78799000  0.22073000  1.0
  H  H12  1  0.73378000  0.33877000  0.51253000  1.0
  H  H13  1  0.23384000  0.16123000  0.98747000  1.0
  H  H14  1  0.26624000  0.66124000  0.48749000  1.0
  H  H15  1  0.76620000  0.83875000  0.01252000  1.0
  H  H16  1  0.72638000  0.54555000  0.56709000  1.0
  H  H17  1  0.22639000  0.95445000  0.93291000  1.0
  H  H18  1  0.27361000  0.45445000  0.43292000  1.0
  H  H19  1  0.77362000  0.04553000  0.06708000  1.0
  H  H20  1  0.60509000  0.14919000  0.52803000  1.0
  H  H21  1  0.10509000  0.35081000  0.97196000  1.0
  H  H22  1  0.39490000  0.85081000  0.47197000  1.0
  H  H23  1  0.89493000  0.64919000  0.02803000  1.0
  H  H24  1  0.09434000  0.10970000  0.66191000  1.0
  H  H25  1  0.59431000  0.39030000  0.83808000  1.0
  H  H26  1  0.90568000  0.89030000  0.33809000  1.0
  H  H27  1  0.40562000  0.60969000  0.16192000  1.0
  H  H28  1  0.29075000  0.00248000  0.58402000  1.0
  H  H29  1  0.79071000  0.49754000  0.91598000  1.0
  H  H30  1  0.70922000  0.99753000  0.41597000  1.0
  H  H31  1  0.20928000  0.50248000  0.08404000  1.0
  C  C32  1  0.26234000  0.45710000  0.70888000  1.0
  C  C33  1  0.76237000  0.04292000  0.79112000  1.0
  C  C34  1  0.73763000  0.54290000  0.29111000  1.0
  C  C35  1  0.23763000  0.95709000  0.20889000  1.0
  C  C36  1  0.25795000  0.34101000  0.68390000  1.0
  C  C37  1  0.75800000  0.15902000  0.81609000  1.0
  C  C38  1  0.74204000  0.65899000  0.31610000  1.0
  C  C39  1  0.24202000  0.84100000  0.18392000  1.0
  C  C40  1  0.42763000  0.29371000  0.61175000  1.0
  C  C41  1  0.92765000  0.20631000  0.88825000  1.0
  C  C42  1  0.57235000  0.70629000  0.38826000  1.0
  C  C43  1  0.07235000  0.79370000  0.11175000  1.0
  C  C44  1  0.43951000  0.17253000  0.58068000  1.0
  C  C45  1  0.93954000  0.32747000  0.91932000  1.0
  C  C46  1  0.56051000  0.82749000  0.41932000  1.0
  C  C47  1  0.06050000  0.67249000  0.08070000  1.0
  C  C48  1  0.26732000  0.09133000  0.61049000  1.0
  C  C49  1  0.76732000  0.40867000  0.88950000  1.0
  C  C50  1  0.73268000  0.90868000  0.38949000  1.0
  C  C51  1  0.23268000  0.59130000  0.11052000  1.0
  C  C52  1  0.59594000  0.36994000  0.56877000  1.0
  C  C53  1  0.09598000  0.13008000  0.93123000  1.0
  C  C54  1  0.40409000  0.63005000  0.43125000  1.0
  C  C55  1  0.90406000  0.86994000  0.06876000  1.0
  C  C56  1  0.59127000  0.48497000  0.59830000  1.0
  C  C57  1  0.09131000  0.01506000  0.90170000  1.0
  C  C58  1  0.40876000  0.51504000  0.40172000  1.0
  C  C59  1  0.90871000  0.98495000  0.09829000  1.0
  I  I60  1  0.91727000  0.78716000  0.63135000  1.0
  I  I61  1  0.41727000  0.71284000  0.86865000  1.0
  I  I62  1  0.08273000  0.21283000  0.36865000  1.0
  I  I63  1  0.58272000  0.28716000  0.13134000  1.0
  N  N64  1  0.42736000  0.52959000  0.66734000  1.0
  N  N65  1  0.92738000  0.97042000  0.83266000  1.0
  N  N66  1  0.57259000  0.47042000  0.33266000  1.0
  N  N67  1  0.07260000  0.02955000  0.16733000  1.0
