# generated using pymatgen
data_Al2H15C24S2N3O10
_symmetry_space_group_name_H-M   'P 1'
_cell_length_a   6.64790000
_cell_length_b   12.72872857
_cell_length_c   17.68620000
_cell_angle_alpha   88.82578906
_cell_angle_beta   79.87430000
_cell_angle_gamma   75.08101352
_symmetry_Int_Tables_number   1
_chemical_formula_structural   Al2H15C24S2N3O10
_chemical_formula_sum   'Al2 H15 C24 S2 N3 O10'
_cell_volume   1423.13787598
_cell_formula_units_Z   1
loop_
 _symmetry_equiv_pos_site_id
 _symmetry_equiv_pos_as_xyz
  1  'x, y, z'
loop_
 _atom_site_type_symbol
 _atom_site_label
 _atom_site_symmetry_multiplicity
 _atom_site_fract_x
 _atom_site_fract_y
 _atom_site_fract_z
 _atom_site_occupancy
  Al  Al0  1  0.99847000  0.51516000  0.49909000  1.0
  Al  Al1  1  0.49450000  0.51614000  0.50166000  1.0
  H  H2  1  0.33457000  0.38958000  0.45267000  1.0
  H  H3  1  0.67068000  0.59689000  0.58683000  1.0
  H  H4  1  0.82884000  0.53525000  0.72875000  1.0
  H  H5  1  0.73984000  0.53304000  0.87164000  1.0
  H  H6  1  0.40506000  0.41420000  0.87985000  1.0
  H  H7  1  0.63352000  0.45392000  0.12546000  1.0
  H  H8  1  0.10383000  0.58312000  0.26959000  1.0
  H  H9  1  0.19481000  0.56474000  0.12630000  1.0
  H  H10  1  0.20130000  0.16278000  0.54264000  1.0
  H  H11  1  0.57525000  0.41593000  0.67434000  1.0
  H  H12  1  0.65242000  0.38895000  0.76412000  1.0
  H  H13  1  0.44425000  0.49163000  0.33040000  1.0
  H  H14  1  0.40354000  0.44905000  0.24263000  1.0
  H  H15  1  0.61423000  0.90934000  0.44976000  1.0
  H  H16  1  0.76770000  0.77829000  0.45664000  1.0
  C  C17  1  0.85334000  0.31817000  0.49647000  1.0
  C  C18  1  0.78798000  0.53328000  0.36293000  1.0
  C  C19  1  0.14183000  0.71091000  0.50482000  1.0
  C  C20  1  0.20042000  0.48929000  0.63884000  1.0
  C  C21  1  0.16353000  0.47678000  0.72269000  1.0
  C  C22  1  0.95330000  0.50739000  0.76271000  1.0
  C  C23  1  0.90295000  0.50613000  0.84180000  1.0
  C  C24  1  0.06891000  0.47394000  0.88493000  1.0
  C  C25  1  0.27819000  0.44023000  0.84655000  1.0
  C  C26  1  0.33131000  0.44009000  0.76557000  1.0
  C  C27  1  0.02110000  0.48027000  0.96630000  1.0
  C  C28  1  0.97284000  0.49122000  0.03608000  1.0
  C  C29  1  0.92082000  0.50530000  0.11712000  1.0
  C  C30  1  0.73637000  0.48272000  0.15721000  1.0
  C  C31  1  0.67992000  0.49511000  0.23802000  1.0
  C  C32  1  0.82130000  0.52926000  0.27842000  1.0
  C  C33  1  0.00358000  0.55387000  0.23696000  1.0
  C  C34  1  0.05528000  0.54338000  0.15778000  1.0
  C  C35  1  0.90379000  0.89528000  0.48113000  1.0
  C  C36  1  0.08102000  0.13171000  0.52297000  1.0
  C  C37  1  0.08466000  0.82806000  0.50486000  1.0
  C  C38  1  0.90530000  0.19910000  0.49942000  1.0
  C  C39  1  0.07901000  0.02157000  0.51784000  1.0
  C  C40  1  0.90309000  0.00669000  0.48961000  1.0
  S  S41  1  0.24787000  0.89991000  0.53602000  1.0
  S  S42  1  0.73719000  0.12897000  0.47098000  1.0
  N  N43  1  0.53784000  0.40405000  0.73151000  1.0
  N  N44  1  0.50145000  0.46917000  0.27430000  1.0
  N  N45  1  0.75900000  0.85907000  0.45114000  1.0
  O  O46  1  0.99749000  0.36342000  0.50639000  1.0
  O  O47  1  0.59747000  0.54979000  0.39959000  1.0
  O  O48  1  0.32252000  0.66112000  0.52091000  1.0
  O  O49  1  0.04018000  0.51520000  0.60492000  1.0
  O  O50  1  0.00540000  0.66302000  0.48869000  1.0
  O  O51  1  0.39298000  0.47611000  0.60380000  1.0
  O  O52  1  0.66900000  0.36676000  0.48386000  1.0
  O  O53  1  0.95036000  0.51737000  0.39525000  1.0
  O  O54  1  0.28862000  0.46760000  0.46267000  1.0
  O  O55  1  0.70948000  0.55752000  0.53799000  1.0
