# generated using pymatgen
data_NaFeH24C20(S2O)2
_symmetry_space_group_name_H-M   'P 1'
_cell_length_a   8.80021000
_cell_length_b   9.90291000
_cell_length_c   13.69280000
_cell_angle_alpha   109.40100000
_cell_angle_beta   98.10750000
_cell_angle_gamma   103.75400000
_symmetry_Int_Tables_number   1
_chemical_formula_structural   NaFeH24C20(S2O)2
_chemical_formula_sum   'Na2 Fe2 H48 C40 S8 O4'
_cell_volume   1061.27234738
_cell_formula_units_Z   2
loop_
 _symmetry_equiv_pos_site_id
 _symmetry_equiv_pos_as_xyz
  1  'x, y, z'
loop_
 _atom_site_type_symbol
 _atom_site_label
 _atom_site_symmetry_multiplicity
 _atom_site_fract_x
 _atom_site_fract_y
 _atom_site_fract_z
 _atom_site_occupancy
  Na  Na0  1  0.95098000  0.13591000  0.91168000  1.0
  Na  Na1  1  0.04903000  0.86409000  0.08832000  1.0
  Fe  Fe2  1  0.62214000  0.99318000  0.94153000  1.0
  Fe  Fe3  1  0.37786000  0.00683000  0.05847000  1.0
  H  H4  1  0.38792000  0.97997000  0.58527000  1.0
  H  H5  1  0.61207000  0.02003000  0.41473000  1.0
  H  H6  1  0.39857000  0.77899000  0.42150000  1.0
  H  H7  1  0.60142000  0.22101000  0.57850000  1.0
  H  H8  1  0.55111000  0.60119000  0.43604000  1.0
  H  H9  1  0.44889000  0.39882000  0.56396000  1.0
  H  H10  1  0.69582000  0.62694000  0.61387000  1.0
  H  H11  1  0.30418000  0.37307000  0.38613000  1.0
  H  H12  1  0.98660000  0.85602000  0.71033000  1.0
  H  H13  1  0.01341000  0.14397000  0.28965000  1.0
  H  H14  1  0.99867000  0.64743000  0.55195000  1.0
  H  H15  1  0.00136000  0.35255000  0.44805000  1.0
  H  H16  1  0.19122000  0.50348000  0.56909000  1.0
  H  H17  1  0.80879000  0.49649000  0.43092000  1.0
  H  H18  1  0.36837000  0.56567000  0.74637000  1.0
  H  H19  1  0.63163000  0.43432000  0.25365000  1.0
  H  H20  1  0.26042000  0.50682000  0.96962000  1.0
  H  H21  1  0.73959000  0.49320000  0.03038000  1.0
  H  H22  1  0.31223000  0.34070000  0.96713000  1.0
  H  H23  1  0.68778000  0.65932000  0.03287000  1.0
  H  H24  1  0.46445000  0.62773000  0.13024000  1.0
  H  H25  1  0.53555000  0.37228000  0.86977000  1.0
  H  H26  1  0.45167000  0.45483000  0.14777000  1.0
  H  H27  1  0.54833000  0.54518000  0.85223000  1.0
  H  H28  1  0.28371000  0.67390000  0.23823000  1.0
  H  H29  1  0.71629000  0.32611000  0.76177000  1.0
  H  H30  1  0.28047000  0.50573000  0.26026000  1.0
  H  H31  1  0.71954000  0.49427000  0.73973000  1.0
  H  H32  1  0.00980000  0.41097000  0.15541000  1.0
  H  H33  1  0.99020000  0.58903000  0.84458000  1.0
  H  H34  1  0.04471000  0.55465000  0.10164000  1.0
  H  H35  1  0.95530000  0.44535000  0.89836000  1.0
  H  H36  1  0.77702000  0.13211000  0.68158000  1.0
  H  H37  1  0.22297000  0.86788000  0.31842000  1.0
  H  H38  1  0.85100000  0.98734000  0.60779000  1.0
  H  H39  1  0.14900000  0.01265000  0.39221000  1.0
  H  H40  1  0.96275000  0.32129000  0.63974000  1.0
  H  H41  1  0.03723000  0.67872000  0.36027000  1.0
  H  H42  1  0.90787000  0.16446000  0.51697000  1.0
  H  H43  1  0.09211000  0.83554000  0.48303000  1.0
  H  H44  1  0.15266000  0.10242000  0.55956000  1.0
  H  H45  1  0.84734000  0.89759000  0.44043000  1.0
  H  H46  1  0.22774000  0.29909000  0.62756000  1.0
  H  H47  1  0.77224000  0.70093000  0.37245000  1.0
  H  H48  1  0.24156000  0.27712000  0.79615000  1.0
  H  H49  1  0.75843000  0.72287000  0.20385000  1.0
  H  H50  1  0.21119000  0.08218000  0.72669000  1.0
  H  H51  1  0.78880000  0.91781000  0.27330000  1.0
  C  C52  1  0.53269000  0.91529000  0.69218000  1.0
  C  C53  1  0.46731000  0.08472000  0.30782000  1.0
  C  C54  1  0.45434000  0.90191000  0.59128000  1.0
  C  C55  1  0.54565000  0.09809000  0.40872000  1.0
  C  C56  1  0.46110000  0.78956000  0.49951000  1.0
  C  C57  1  0.53889000  0.21044000  0.50049000  1.0
  C  C58  1  0.54774000  0.69047000  0.50759000  1.0
  C  C59  1  0.45225000  0.30953000  0.49241000  1.0
  C  C60  1  0.62820000  0.70399000  0.60736000  1.0
  C  C61  1  0.37179000  0.29601000  0.39264000  1.0
  C  C62  1  0.62004000  0.81536000  0.70028000  1.0
  C  C63  1  0.37996000  0.18464000  0.29972000  1.0
  C  C64  1  0.17313000  0.83081000  0.81758000  1.0
  C  C65  1  0.82687000  0.16919000  0.18242000  1.0
  C  C66  1  0.06968000  0.79202000  0.71787000  1.0
  C  C67  1  0.93034000  0.20797000  0.28212000  1.0
  C  C68  1  0.07597000  0.67413000  0.62949000  1.0
  C  C69  1  0.92405000  0.32586000  0.37051000  1.0
  C  C70  1  0.18262000  0.59200000  0.63907000  1.0
  C  C71  1  0.81739000  0.40798000  0.36094000  1.0
  C  C72  1  0.28268000  0.62690000  0.73798000  1.0
  C  C73  1  0.71732000  0.37309000  0.26203000  1.0
  C  C74  1  0.27895000  0.74666000  0.82693000  1.0
  C  C75  1  0.72105000  0.25334000  0.17307000  1.0
  C  C76  1  0.27209000  0.43331000  0.01403000  1.0
  C  C77  1  0.72792000  0.56670000  0.98597000  1.0
  C  C78  1  0.38149000  0.52274000  0.12598000  1.0
  C  C79  1  0.61852000  0.47726000  0.87401000  1.0
  C  C80  1  0.26428000  0.55288000  0.19887000  1.0
  C  C81  1  0.73572000  0.44712000  0.80112000  1.0
  C  C82  1  0.09576000  0.47423000  0.12366000  1.0
  C  C83  1  0.90425000  0.52577000  0.87634000  1.0
  C  C84  1  0.88447000  0.10851000  0.65729000  1.0
  C  C85  1  0.11552000  0.89148000  0.34271000  1.0
  C  C86  1  0.96551000  0.20532000  0.60216000  1.0
  C  C87  1  0.03448000  0.79468000  0.39784000  1.0
  C  C88  1  0.13889000  0.19765000  0.62334000  1.0
  C  C89  1  0.86110000  0.80235000  0.37666000  1.0
  C  C90  1  0.16241000  0.17566000  0.72975000  1.0
  C  C91  1  0.83758000  0.82433000  0.27025000  1.0
  S  S92  1  0.52980000  0.05589000  0.80943000  1.0
  S  S93  1  0.47020000  0.94411000  0.19057000  1.0
  S  S94  1  0.71700000  0.83544000  0.82740000  1.0
  S  S95  1  0.28299000  0.16456000  0.17260000  1.0
  S  S96  1  0.17991000  0.98412000  0.93009000  1.0
  S  S97  1  0.82009000  0.01588000  0.06990000  1.0
  S  S98  1  0.41264000  0.80144000  0.95141000  1.0
  S  S99  1  0.58737000  0.19857000  0.04859000  1.0
  O  O100  1  0.11647000  0.36682000  0.02880000  1.0
  O  O101  1  0.88354000  0.63318000  0.97119000  1.0
  O  O102  1  0.00437000  0.14458000  0.75328000  1.0
  O  O103  1  0.99562000  0.85542000  0.24672000  1.0
