# generated using pymatgen
data_CuH16C10(NO3)2
_symmetry_space_group_name_H-M   'P 1'
_cell_length_a   5.41517000
_cell_length_b   8.57431000
_cell_length_c   13.27140000
_cell_angle_alpha   89.99970000
_cell_angle_beta   81.59160000
_cell_angle_gamma   89.99980000
_symmetry_Int_Tables_number   1
_chemical_formula_structural   CuH16C10(NO3)2
_chemical_formula_sum   'Cu2 H32 C20 N4 O12'
_cell_volume   609.58528057
_cell_formula_units_Z   2
loop_
 _symmetry_equiv_pos_site_id
 _symmetry_equiv_pos_as_xyz
  1  'x, y, z'
loop_
 _atom_site_type_symbol
 _atom_site_label
 _atom_site_symmetry_multiplicity
 _atom_site_fract_x
 _atom_site_fract_y
 _atom_site_fract_z
 _atom_site_occupancy
  Cu  Cu0  1  0.50001000  0.53299000  0.25000000  1.0
  Cu  Cu1  1  0.50000000  0.46701000  0.75000000  1.0
  H  H2  1  0.97523000  0.59652000  0.34017000  1.0
  H  H3  1  0.02477000  0.59652000  0.15983000  1.0
  H  H4  1  0.02478000  0.40348000  0.65983000  1.0
  H  H5  1  0.97522000  0.40348000  0.84017000  1.0
  H  H6  1  0.71703000  0.57241000  0.40872000  1.0
  H  H7  1  0.28297000  0.57241000  0.09129000  1.0
  H  H8  1  0.28297000  0.42759000  0.59129000  1.0
  H  H9  1  0.71702000  0.42759000  0.90871000  1.0
  H  H10  1  0.41604000  0.34973000  0.40399000  1.0
  H  H11  1  0.58395000  0.34974000  0.09601000  1.0
  H  H12  1  0.58396000  0.65027000  0.59601000  1.0
  H  H13  1  0.41604000  0.65027000  0.90399000  1.0
  H  H14  1  0.14671000  0.38612000  0.36097000  1.0
  H  H15  1  0.85329000  0.38612000  0.13903000  1.0
  H  H16  1  0.85329000  0.61388000  0.63903000  1.0
  H  H17  1  0.14670000  0.61388000  0.86097000  1.0
  H  H18  1  0.33132000  0.11050000  0.32637000  1.0
  H  H19  1  0.66868000  0.11050000  0.17363000  1.0
  H  H20  1  0.66868000  0.88950000  0.67363000  1.0
  H  H21  1  0.33131000  0.88950000  0.82637000  1.0
  H  H22  1  0.23282000  0.21640000  0.22438000  1.0
  H  H23  1  0.76717000  0.21640000  0.27562000  1.0
  H  H24  1  0.76717000  0.78361000  0.77563000  1.0
  H  H25  1  0.23283000  0.78360000  0.72437000  1.0
  H  H26  1  0.63808000  0.91574000  0.91912000  1.0
  H  H27  1  0.36192000  0.91574000  0.58089000  1.0
  H  H28  1  0.36193000  0.08425000  0.08088000  1.0
  H  H29  1  0.63809000  0.08426000  0.41911000  1.0
  H  H30  1  0.09343000  0.86512000  0.15616000  1.0
  H  H31  1  0.90660000  0.86512000  0.34383000  1.0
  H  H32  1  0.90657000  0.13487000  0.84384000  1.0
  H  H33  1  0.09341000  0.13487000  0.65617000  1.0
  C  C34  1  0.36767000  0.21530000  0.27869000  1.0
  C  C35  1  0.63232000  0.21530000  0.22131000  1.0
  C  C36  1  0.63233000  0.78470000  0.72131000  1.0
  C  C37  1  0.36767000  0.78470000  0.77868000  1.0
  C  C38  1  0.68034000  0.74540000  0.08495000  1.0
  C  C39  1  0.31967000  0.74540000  0.41506000  1.0
  C  C40  1  0.31966000  0.25460000  0.91505000  1.0
  C  C41  1  0.68035000  0.25460000  0.58494000  1.0
  C  C42  1  0.84896000  0.87548000  0.04119000  1.0
  C  C43  1  0.15104000  0.87548000  0.45881000  1.0
  C  C44  1  0.15104000  0.12452000  0.95880000  1.0
  C  C45  1  0.84897000  0.12452000  0.54119000  1.0
  C  C46  1  0.79887000  0.95270000  0.95336000  1.0
  C  C47  1  0.20113000  0.95269000  0.54665000  1.0
  C  C48  1  0.20114000  0.04730000  0.04664000  1.0
  C  C49  1  0.79888000  0.04730000  0.45335000  1.0
  C  C50  1  0.05235000  0.92412000  0.08784000  1.0
  C  C51  1  0.94767000  0.92412000  0.41216000  1.0
  C  C52  1  0.94764000  0.07587000  0.91216000  1.0
  C  C53  1  0.05234000  0.07588000  0.58784000  1.0
  N  N54  1  0.33263000  0.35986000  0.33925000  1.0
  N  N55  1  0.66737000  0.35986000  0.16075000  1.0
  N  N56  1  0.66738000  0.64014000  0.66075000  1.0
  N  N57  1  0.33262000  0.64014000  0.83925000  1.0
  O  O58  1  0.71256000  0.69887000  0.17482000  1.0
  O  O59  1  0.28745000  0.69886000  0.32518000  1.0
  O  O60  1  0.28744000  0.30113000  0.82518000  1.0
  O  O61  1  0.71256000  0.30114000  0.67482000  1.0
  O  O62  1  0.52017000  0.69120000  0.03457000  1.0
  O  O63  1  0.47984000  0.69122000  0.46544000  1.0
  O  O64  1  0.47983000  0.30879000  0.96543000  1.0
  O  O65  1  0.52018000  0.30879000  0.53456000  1.0
  O  O66  1  0.84968000  0.51617000  0.36266000  1.0
  O  O67  1  0.15031000  0.51616000  0.13734000  1.0
  O  O68  1  0.15032000  0.48384000  0.63734000  1.0
  O  O69  1  0.84967000  0.48384000  0.86266000  1.0
