# generated using pymatgen
data_HoH21C36(NO4)2
_symmetry_space_group_name_H-M   'P 1'
_cell_length_a   10.83580000
_cell_length_b   12.13780000
_cell_length_c   12.24500000
_cell_angle_alpha   94.03270000
_cell_angle_beta   106.58800000
_cell_angle_gamma   101.41100000
_symmetry_Int_Tables_number   1
_chemical_formula_structural   HoH21C36(NO4)2
_chemical_formula_sum   'Ho2 H42 C72 N4 O16'
_cell_volume   1499.11510078
_cell_formula_units_Z   2
loop_
 _symmetry_equiv_pos_site_id
 _symmetry_equiv_pos_as_xyz
  1  'x, y, z'
loop_
 _atom_site_type_symbol
 _atom_site_label
 _atom_site_symmetry_multiplicity
 _atom_site_fract_x
 _atom_site_fract_y
 _atom_site_fract_z
 _atom_site_occupancy
  Ho  Ho0  1  0.08846000  0.80935000  0.00054000  1.0
  Ho  Ho1  1  0.91154000  0.19065000  0.99946000  1.0
  H  H2  1  0.02396000  0.80430000  0.27518000  1.0
  H  H3  1  0.97604000  0.19569000  0.72482000  1.0
  H  H4  1  0.02154000  0.77490000  0.47425000  1.0
  H  H5  1  0.97846000  0.22510000  0.52575000  1.0
  H  H6  1  0.98562000  0.14769000  0.33455000  1.0
  H  H7  1  0.01438000  0.85231000  0.66545000  1.0
  H  H8  1  0.88239000  0.52925000  0.67188000  1.0
  H  H9  1  0.11762000  0.47075000  0.32812000  1.0
  H  H10  1  0.74761000  0.39249000  0.49791000  1.0
  H  H11  1  0.25239000  0.60751000  0.50209000  1.0
  H  H12  1  0.27406000  0.70921000  0.69245000  1.0
  H  H13  1  0.72595000  0.29079000  0.30755000  1.0
  H  H14  1  0.60198000  0.67614000  0.89439000  1.0
  H  H15  1  0.39802000  0.32386000  0.10561000  1.0
  H  H16  1  0.36167000  0.59444000  0.81601000  1.0
  H  H17  1  0.63833000  0.40555000  0.18399000  1.0
  H  H18  1  0.83811000  0.54634000  0.17959000  1.0
  H  H19  1  0.16188000  0.45365000  0.82041000  1.0
  H  H20  1  0.27411000  0.07250000  0.01917000  1.0
  H  H21  1  0.72589000  0.92750000  0.98083000  1.0
  H  H22  1  0.50863000  0.18660000  0.08914000  1.0
  H  H23  1  0.49137000  0.81340000  0.91087000  1.0
  H  H24  1  0.68572000  0.09956000  0.20021000  1.0
  H  H25  1  0.31428000  0.90045000  0.79980000  1.0
  H  H26  1  0.74804000  0.93003000  0.29091000  1.0
  H  H27  1  0.25196000  0.06998000  0.70909000  1.0
  H  H28  1  0.68272000  0.73091000  0.32492000  1.0
  H  H29  1  0.31729000  0.26909000  0.67508000  1.0
  H  H30  1  0.50325000  0.55516000  0.30256000  1.0
  H  H31  1  0.49676000  0.44484000  0.69744000  1.0
  H  H32  1  0.26472000  0.45887000  0.22291000  1.0
  H  H33  1  0.73529000  0.54113000  0.77709000  1.0
  H  H34  1  0.10558000  0.56289000  0.10910000  1.0
  H  H35  1  0.89443000  0.43711000  0.89090000  1.0
  H  H36  1  0.22047000  0.22299000  0.17706000  1.0
  H  H37  1  0.77952000  0.77699000  0.82294000  1.0
  H  H38  1  0.28218000  0.00920000  0.31564000  1.0
  H  H39  1  0.71782000  0.99081000  0.68436000  1.0
  H  H40  1  0.29524000  0.81909000  0.37326000  1.0
  H  H41  1  0.70476000  0.18093000  0.62674000  1.0
  H  H42  1  0.58165000  0.30232000  0.50011000  1.0
  H  H43  1  0.41834000  0.69769000  0.49989000  1.0
  C  C44  1  0.00818000  0.99577000  0.17586000  1.0
  C  C45  1  0.99182000  0.00423000  0.82414000  1.0
  C  C46  1  0.00532000  0.97867000  0.29468000  1.0
  C  C47  1  0.99468000  0.02133000  0.70532000  1.0
  C  C48  1  0.01638000  0.87258000  0.33398000  1.0
  C  C49  1  0.98362000  0.12742000  0.66601000  1.0
  C  C50  1  0.01440000  0.85646000  0.44364000  1.0
  C  C51  1  0.98560000  0.14354000  0.55636000  1.0
  C  C52  1  0.00494000  0.94614000  0.51973000  1.0
  C  C53  1  0.99506000  0.05386000  0.48027000  1.0
  C  C54  1  0.99394000  0.06694000  0.36628000  1.0
  C  C55  1  0.00606000  0.93306000  0.63372000  1.0
  C  C56  1  0.09322000  0.67957000  0.81036000  1.0
  C  C57  1  0.90679000  0.32043000  0.18964000  1.0
  C  C58  1  0.07883000  0.62316000  0.69366000  1.0
  C  C59  1  0.92118000  0.37684000  0.30634000  1.0
  C  C60  1  0.96226000  0.54606000  0.63347000  1.0
  C  C61  1  0.03775000  0.45393000  0.36653000  1.0
  C  C62  1  0.94638000  0.48880000  0.52405000  1.0
  C  C63  1  0.05362000  0.51119000  0.47596000  1.0
  C  C64  1  0.82847000  0.40877000  0.46084000  1.0
  C  C65  1  0.17153000  0.59123000  0.53916000  1.0
  C  C66  1  0.18386000  0.64691000  0.64487000  1.0
  C  C67  1  0.81614000  0.35309000  0.35513000  1.0
  C  C68  1  0.85269000  0.69592000  0.02964000  1.0
  C  C69  1  0.14731000  0.30408000  0.97036000  1.0
  C  C70  1  0.73057000  0.62033000  0.03721000  1.0
  C  C71  1  0.26942000  0.37966000  0.96279000  1.0
  C  C72  1  0.60898000  0.61944000  0.95986000  1.0
  C  C73  1  0.39102000  0.38056000  0.04014000  1.0
  C  C74  1  0.49437000  0.53980000  0.95924000  1.0
  C  C75  1  0.50563000  0.46020000  0.04075000  1.0
  C  C76  1  0.36901000  0.53478000  0.87871000  1.0
  C  C77  1  0.63099000  0.46521000  0.12129000  1.0
  C  C78  1  0.74108000  0.54315000  0.11956000  1.0
  C  C79  1  0.25891000  0.45685000  0.88044000  1.0
  C  C80  1  0.35390000  0.03575000  0.06715000  1.0
  C  C81  1  0.64610000  0.96425000  0.93285000  1.0
  C  C82  1  0.48496000  0.10012000  0.10822000  1.0
  C  C83  1  0.51504000  0.89988000  0.89178000  1.0
  C  C84  1  0.58312000  0.05155000  0.17034000  1.0
  C  C85  1  0.41688000  0.94846000  0.82966000  1.0
  C  C86  1  0.54974000  0.93841000  0.19181000  1.0
  C  C87  1  0.45026000  0.06159000  0.80819000  1.0
  C  C88  1  0.64554000  0.88265000  0.25664000  1.0
  C  C89  1  0.35446000  0.11735000  0.74336000  1.0
  C  C90  1  0.60943000  0.77300000  0.27531000  1.0
  C  C91  1  0.39058000  0.22700000  0.72469000  1.0
  C  C92  1  0.47467000  0.71099000  0.23138000  1.0
  C  C93  1  0.52533000  0.28901000  0.76862000  1.0
  C  C94  1  0.43219000  0.59910000  0.25259000  1.0
  C  C95  1  0.56781000  0.40090000  0.74740000  1.0
  C  C96  1  0.29998000  0.54550000  0.20901000  1.0
  C  C97  1  0.70003000  0.45449000  0.79099000  1.0
  C  C98  1  0.21050000  0.60333000  0.14400000  1.0
  C  C99  1  0.78951000  0.39667000  0.85600000  1.0
  C  C100  1  0.37712000  0.76346000  0.16560000  1.0
  C  C101  1  0.62288000  0.23654000  0.83440000  1.0
  C  C102  1  0.41519000  0.87904000  0.14552000  1.0
  C  C103  1  0.58481000  0.12096000  0.85448000  1.0
  C  C104  1  0.36736000  0.23598000  0.31794000  1.0
  C  C105  1  0.63264000  0.76404000  0.68205000  1.0
  C  C106  1  0.42642000  0.16207000  0.40014000  1.0
  C  C107  1  0.57357000  0.83794000  0.59986000  1.0
  C  C108  1  0.37332000  0.04637000  0.38468000  1.0
  C  C109  1  0.62668000  0.95364000  0.61532000  1.0
  C  C110  1  0.43874000  0.97535000  0.45582000  1.0
  C  C111  1  0.56126000  0.02466000  0.54418000  1.0
  C  C112  1  0.38792000  0.85614000  0.44093000  1.0
  C  C113  1  0.61208000  0.14387000  0.55907000  1.0
  C  C114  1  0.54556000  0.21076000  0.48927000  1.0
  C  C115  1  0.45444000  0.78924000  0.51073000  1.0
  N  N116  1  0.31964000  0.92805000  0.08398000  1.0
  N  N117  1  0.68036000  0.07195000  0.91602000  1.0
  N  N118  1  0.24706000  0.70935000  0.12282000  1.0
  N  N119  1  0.75294000  0.29065000  0.87718000  1.0
  O  O120  1  0.07028000  0.93678000  0.13126000  1.0
  O  O121  1  0.92972000  0.06322000  0.86874000  1.0
  O  O122  1  0.94883000  0.06790000  0.12690000  1.0
  O  O123  1  0.05117000  0.93210000  0.87310000  1.0
  O  O124  1  0.99705000  0.65508000  0.85266000  1.0
  O  O125  1  0.00295000  0.34492000  0.14734000  1.0
  O  O126  1  0.19903000  0.75259000  0.86605000  1.0
  O  O127  1  0.80098000  0.24741000  0.13396000  1.0
  O  O128  1  0.96509000  0.68578000  0.09264000  1.0
  O  O129  1  0.03491000  0.31422000  0.90737000  1.0
  O  O130  1  0.84717000  0.76974000  0.95899000  1.0
  O  O131  1  0.15283000  0.23026000  0.04100000  1.0
  O  O132  1  0.24735000  0.18455000  0.24774000  1.0
  O  O133  1  0.75264000  0.81544000  0.75226000  1.0
  O  O134  1  0.42604000  0.33275000  0.31286000  1.0
  O  O135  1  0.57393000  0.66725000  0.68712000  1.0
