# generated using pymatgen
data_ZnH22C24(NO)4
_symmetry_space_group_name_H-M   'P 1'
_cell_length_a   18.50280000
_cell_length_b   18.50310000
_cell_length_c   20.11086321
_cell_angle_alpha   109.18915178
_cell_angle_beta   109.18898860
_cell_angle_gamma   106.58200000
_symmetry_Int_Tables_number   1
_chemical_formula_structural   ZnH22C24(NO)4
_chemical_formula_sum   'Zn8 H176 C192 N32 O32'
_cell_volume   5511.64218352
_cell_formula_units_Z   8
loop_
 _symmetry_equiv_pos_site_id
 _symmetry_equiv_pos_as_xyz
  1  'x, y, z'
loop_
 _atom_site_type_symbol
 _atom_site_label
 _atom_site_symmetry_multiplicity
 _atom_site_fract_x
 _atom_site_fract_y
 _atom_site_fract_z
 _atom_site_occupancy
  Zn  Zn0  1  0.11588000  0.11586000  0.23175000  1.0
  Zn  Zn1  1  0.36587000  0.86589000  0.73176000  1.0
  Zn  Zn2  1  0.49922000  0.49929000  0.99858000  1.0
  Zn  Zn3  1  0.74927000  0.24921000  0.49857000  1.0
  Zn  Zn4  1  0.05523000  0.06468000  0.62484000  1.0
  Zn  Zn5  1  0.56971000  0.56008000  0.62491000  1.0
  Zn  Zn6  1  0.81008000  0.31971000  0.12491000  1.0
  Zn  Zn7  1  0.31468000  0.80524000  0.12484000  1.0
  H  H8  1  0.15225000  0.21707000  0.15354000  1.0
  H  H9  1  0.00125000  0.93645000  0.15339000  1.0
  H  H10  1  0.18644000  0.75124000  0.65339000  1.0
  H  H11  1  0.46708000  0.90225000  0.65354000  1.0
  H  H12  1  0.35292000  0.96977000  0.94792000  1.0
  H  H13  1  0.59513000  0.97864000  0.94832000  1.0
  H  H14  1  0.22864000  0.34513000  0.44833000  1.0
  H  H15  1  0.21979000  0.10294000  0.44794000  1.0
  H  H16  1  0.32780000  0.04993000  0.05759000  1.0
  H  H17  1  0.73003000  0.00802000  0.05789000  1.0
  H  H18  1  0.25802000  0.48003000  0.55790000  1.0
  H  H19  1  0.29994000  0.07780000  0.55759000  1.0
  H  H20  1  0.07132000  0.97345000  0.88713000  1.0
  H  H21  1  0.81566000  0.91386000  0.88714000  1.0
  H  H22  1  0.16385000  0.56565000  0.38714000  1.0
  H  H23  1  0.22344000  0.82133000  0.38713000  1.0
  H  H24  1  0.09475000  0.88838000  0.77922000  1.0
  H  H25  1  0.68427000  0.89114000  0.77934000  1.0
  H  H26  1  0.14115000  0.43426000  0.27935000  1.0
  H  H27  1  0.13837000  0.84476000  0.27922000  1.0
  H  H28  1  0.22526000  0.00381000  0.18917000  1.0
  H  H29  1  0.96433000  0.18551000  0.18908000  1.0
  H  H30  1  0.43551000  0.71432000  0.68908000  1.0
  H  H31  1  0.25383000  0.97527000  0.68918000  1.0
  H  H32  1  0.22093000  0.95291000  0.09523000  1.0
  H  H33  1  0.87472000  0.14267000  0.09522000  1.0
  H  H34  1  0.39267000  0.62472000  0.59522000  1.0
  H  H35  1  0.20293000  0.97094000  0.59524000  1.0
  H  H36  1  0.12582000  0.92952000  0.10439000  1.0
  H  H37  1  0.97891000  0.17492000  0.10425000  1.0
  H  H38  1  0.42492000  0.72891000  0.60425000  1.0
  H  H39  1  0.17952000  0.87584000  0.60440000  1.0
  H  H40  1  0.10122000  0.17553000  0.97293000  1.0
  H  H41  1  0.87152000  0.79753000  0.97277000  1.0
  H  H42  1  0.04752000  0.62152000  0.47277000  1.0
  H  H43  1  0.42554000  0.85122000  0.47292000  1.0
  H  H44  1  0.19264000  0.16780000  0.96766000  1.0
  H  H45  1  0.77487000  0.80009000  0.96759000  1.0
  H  H46  1  0.05009000  0.52487000  0.46760000  1.0
  H  H47  1  0.41780000  0.94264000  0.46766000  1.0
  H  H48  1  0.20443000  0.25689000  0.04748000  1.0
  H  H49  1  0.84280000  0.79064000  0.04730000  1.0
  H  H50  1  0.04062000  0.59280000  0.54730000  1.0
  H  H51  1  0.50688000  0.95442000  0.54747000  1.0
  H  H52  1  0.60481000  0.64652000  0.99296000  1.0
  H  H53  1  0.38804000  0.34647000  0.99314000  1.0
  H  H54  1  0.59645000  0.13803000  0.49313000  1.0
  H  H55  1  0.89652000  0.35482000  0.49296000  1.0
  H  H56  1  0.76313000  0.02853000  0.36776000  1.0
  H  H57  1  0.60455000  0.33850000  0.36748000  1.0
  H  H58  1  0.58851000  0.35456000  0.86750000  1.0
  H  H59  1  0.27853000  0.51313000  0.86776000  1.0
  H  H60  1  0.74202000  0.89900000  0.25881000  1.0
  H  H61  1  0.51662000  0.35923000  0.25870000  1.0
  H  H62  1  0.60924000  0.26662000  0.75871000  1.0
  H  H63  1  0.14899000  0.49201000  0.75880000  1.0
  H  H64  1  0.47243000  0.79164000  0.18468000  1.0
  H  H65  1  0.71262000  0.39403000  0.18522000  1.0
  H  H66  1  0.64400000  0.46261000  0.68521000  1.0
  H  H67  1  0.04162000  0.22242000  0.68467000  1.0
  H  H68  1  0.49546000  0.91945000  0.29751000  1.0
  H  H69  1  0.80237000  0.37882000  0.29783000  1.0
  H  H70  1  0.62881000  0.55236000  0.79783000  1.0
  H  H71  1  0.16945000  0.24546000  0.79750000  1.0
  H  H72  1  0.46047000  0.66786000  0.17830000  1.0
  H  H73  1  0.71761000  0.51052000  0.17800000  1.0
  H  H74  1  0.76050000  0.46760000  0.67799000  1.0
  H  H75  1  0.91785000  0.21046000  0.67829000  1.0
  H  H76  1  0.54463000  0.64323000  0.21992000  1.0
  H  H77  1  0.67536000  0.57697000  0.21982000  1.0
  H  H78  1  0.82696000  0.42535000  0.71982000  1.0
  H  H79  1  0.89322000  0.29462000  0.71991000  1.0
  H  H80  1  0.45740000  0.56853000  0.12419000  1.0
  H  H81  1  0.66637000  0.55560000  0.12387000  1.0
  H  H82  1  0.80559000  0.41637000  0.62387000  1.0
  H  H83  1  0.81851000  0.20738000  0.62418000  1.0
  H  H84  1  0.74118000  0.85681000  0.11768000  1.0
  H  H85  1  0.37653000  0.26101000  0.11792000  1.0
  H  H86  1  0.51099000  0.12654000  0.61791000  1.0
  H  H87  1  0.10680000  0.49117000  0.61768000  1.0
  H  H88  1  0.65267000  0.88093000  0.09620000  1.0
  H  H89  1  0.44353000  0.21539000  0.09642000  1.0
  H  H90  1  0.46537000  0.19353000  0.59641000  1.0
  H  H91  1  0.13094000  0.40268000  0.59621000  1.0
  H  H92  1  0.65830000  0.80605000  0.01824000  1.0
  H  H93  1  0.35994000  0.21232000  0.01847000  1.0
  H  H94  1  0.46229000  0.10993000  0.51845000  1.0
  H  H95  1  0.05605000  0.40830000  0.51824000  1.0
  H  H96  1  0.99196000  0.92134000  0.65463000  1.0
  H  H97  1  0.66257000  0.73299000  0.65442000  1.0
  H  H98  1  0.98299000  0.41257000  0.15442000  1.0
  H  H99  1  0.17134000  0.74195000  0.15463000  1.0
  H  H100  1  0.19855000  0.17129000  0.61618000  1.0
  H  H101  1  0.41786000  0.44476000  0.61633000  1.0
  H  H102  1  0.69476000  0.16786000  0.11634000  1.0
  H  H103  1  0.42129000  0.94855000  0.11618000  1.0
  H  H104  1  0.83232000  0.52284000  0.29946000  1.0
  H  H105  1  0.46748000  0.77679000  0.29959000  1.0
  H  H106  1  0.02681000  0.21749000  0.79960000  1.0
  H  H107  1  0.77284000  0.58231000  0.79945000  1.0
  H  H108  1  0.59842000  0.33678000  0.98208000  1.0
  H  H109  1  0.38356000  0.64543000  0.98210000  1.0
  H  H110  1  0.89543000  0.13356000  0.48210000  1.0
  H  H111  1  0.58679000  0.34843000  0.48208000  1.0
  H  H112  1  0.85631000  0.65270000  0.41012000  1.0
  H  H113  1  0.55385000  0.75750000  0.41030000  1.0
  H  H114  1  0.00751000  0.30386000  0.91031000  1.0
  H  H115  1  0.90270000  0.60631000  0.91012000  1.0
  H  H116  1  0.46715000  0.31835000  0.87778000  1.0
  H  H117  1  0.41060000  0.55946000  0.87790000  1.0
  H  H118  1  0.80946000  0.16061000  0.37791000  1.0
  H  H119  1  0.56833000  0.21714000  0.37777000  1.0
  H  H120  1  0.10106000  0.78743000  0.43007000  1.0
  H  H121  1  0.32874000  0.64212000  0.42955000  1.0
  H  H122  1  0.89212000  0.07874000  0.92955000  1.0
  H  H123  1  0.03743000  0.85105000  0.93007000  1.0
  H  H124  1  0.34667000  0.05354000  0.82058000  1.0
  H  H125  1  0.47382000  0.76688000  0.82044000  1.0
  H  H126  1  0.01688000  0.22382000  0.32044000  1.0
  H  H127  1  0.30352000  0.09668000  0.32058000  1.0
  H  H128  1  0.07635000  0.65622000  0.31921000  1.0
  H  H129  1  0.24286000  0.66257000  0.31865000  1.0
  H  H130  1  0.91258000  0.99287000  0.81866000  1.0
  H  H131  1  0.90623000  0.82634000  0.81921000  1.0
  H  H132  1  0.47677000  0.07408000  0.92692000  1.0
  H  H133  1  0.45003000  0.85278000  0.92671000  1.0
  H  H134  1  0.10278000  0.20002000  0.42670000  1.0
  H  H135  1  0.32408000  0.22678000  0.42692000  1.0
  H  H136  1  0.97720000  0.88159000  0.38519000  1.0
  H  H137  1  0.40761000  0.50317000  0.38507000  1.0
  H  H138  1  0.75317000  0.15760000  0.88507000  1.0
  H  H139  1  0.13159000  0.72720000  0.88519000  1.0
  H  H140  1  0.08748000  0.91385000  0.43867000  1.0
  H  H141  1  0.35096000  0.52460000  0.43868000  1.0
  H  H142  1  0.77460000  0.10096000  0.93868000  1.0
  H  H143  1  0.16385000  0.83748000  0.93867000  1.0
  H  H144  1  0.04455000  0.98638000  0.46588000  1.0
  H  H145  1  0.42103000  0.47920000  0.46587000  1.0
  H  H146  1  0.72921000  0.17104000  0.96588000  1.0
  H  H147  1  0.23638000  0.79455000  0.96588000  1.0
  H  H148  1  0.17043000  0.01686000  0.76893000  1.0
  H  H149  1  0.59770000  0.75200000  0.76824000  1.0
  H  H150  1  0.00199000  0.34769000  0.26824000  1.0
  H  H151  1  0.26685000  0.92043000  0.26893000  1.0
  H  H152  1  0.15433000  0.10679000  0.81236000  1.0
  H  H153  1  0.65779000  0.70602000  0.81187000  1.0
  H  H154  1  0.95601000  0.40778000  0.31187000  1.0
  H  H155  1  0.35678000  0.90434000  0.31236000  1.0
  H  H156  1  0.25353000  0.10560000  0.85965000  1.0
  H  H157  1  0.60582000  0.75431000  0.85918000  1.0
  H  H158  1  0.00432000  0.35582000  0.35919000  1.0
  H  H159  1  0.35560000  0.00354000  0.35965000  1.0
  H  H160  1  0.91088000  0.74152000  0.60325000  1.0
  H  H161  1  0.69239000  0.86119000  0.60296000  1.0
  H  H162  1  0.11119000  0.44240000  0.10296000  1.0
  H  H163  1  0.99152000  0.66088000  0.10325000  1.0
  H  H164  1  0.02099000  0.76479000  0.64503000  1.0
  H  H165  1  0.62424000  0.87995000  0.64491000  1.0
  H  H166  1  0.12995000  0.37424000  0.14490000  1.0
  H  H167  1  0.01479000  0.77099000  0.14503000  1.0
  H  H168  1  0.94935000  0.68354000  0.54552000  1.0
  H  H169  1  0.59633000  0.86171000  0.54540000  1.0
  H  H170  1  0.11171000  0.34633000  0.04540000  1.0
  H  H171  1  0.93355000  0.69936000  0.04553000  1.0
  H  H172  1  0.41459000  0.31697000  0.74811000  1.0
  H  H173  1  0.33412000  0.43093000  0.74845000  1.0
  H  H174  1  0.68091000  0.08410000  0.24844000  1.0
  H  H175  1  0.56696000  0.16458000  0.24810000  1.0
  H  H176  1  0.35448000  0.24470000  0.64467000  1.0
  H  H177  1  0.29064000  0.39959000  0.64499000  1.0
  H  H178  1  0.64958000  0.04063000  0.14498000  1.0
  H  H179  1  0.49470000  0.10449000  0.14467000  1.0
  H  H180  1  0.43166000  0.22680000  0.70979000  1.0
  H  H181  1  0.27834000  0.48247000  0.71004000  1.0
  H  H182  1  0.73247000  0.02834000  0.21004000  1.0
  H  H183  1  0.47680000  0.18166000  0.20979000  1.0
  C  C184  1  0.22575000  0.92451000  0.85618000  1.0
  C  C185  1  0.63043000  0.93202000  0.85648000  1.0
  C  C186  1  0.18203000  0.38042000  0.35649000  1.0
  C  C187  1  0.17452000  0.97577000  0.35619000  1.0
  C  C188  1  0.29119000  0.97032000  0.93508000  1.0
  C  C189  1  0.64393000  0.96510000  0.93538000  1.0
  C  C190  1  0.21510000  0.39393000  0.43539000  1.0
  C  C191  1  0.22033000  0.04120000  0.43509000  1.0
  C  C192  1  0.18028000  0.05140000  0.10838000  1.0
  C  C193  1  0.92822000  0.05710000  0.10827000  1.0
  C  C194  1  0.30710000  0.67823000  0.60827000  1.0
  C  C195  1  0.30140000  0.93028000  0.60838000  1.0
  C  C196  1  0.27688000  0.01506000  0.99635000  1.0
  C  C197  1  0.71954000  0.98153000  0.99658000  1.0
  C  C198  1  0.23153000  0.46954000  0.49659000  1.0
  C  C199  1  0.26506000  0.02688000  0.49635000  1.0
  C  C200  1  0.18371000  0.06735000  0.04499000  1.0
  C  C201  1  0.86125000  0.97776000  0.04500000  1.0
  C  C202  1  0.22777000  0.61126000  0.54501000  1.0
  C  C203  1  0.31735000  0.93370000  0.54499000  1.0
  C  C204  1  0.19800000  0.01773000  0.98041000  1.0
  C  C205  1  0.78235000  0.96282000  0.98049000  1.0
  C  C206  1  0.21283000  0.53236000  0.48050000  1.0
  C  C207  1  0.26773000  0.94801000  0.48042000  1.0
  C  C208  1  0.16968000  0.14014000  0.05569000  1.0
  C  C209  1  0.88590000  0.91564000  0.05567000  1.0
  C  C210  1  0.16564000  0.63590000  0.55567000  1.0
  C  C211  1  0.39013000  0.91966000  0.55568000  1.0
  C  C212  1  0.13282000  0.97177000  0.90115000  1.0
  C  C213  1  0.76821000  0.92953000  0.90120000  1.0
  C  C214  1  0.17952000  0.51820000  0.40120000  1.0
  C  C215  1  0.22177000  0.88283000  0.40116000  1.0
  C  C216  1  0.14604000  0.92443000  0.84025000  1.0
  C  C217  1  0.69411000  0.91608000  0.84040000  1.0
  C  C218  1  0.16610000  0.44411000  0.34042000  1.0
  C  C219  1  0.17443000  0.89605000  0.34026000  1.0
  C  C220  1  0.24087000  0.87886000  0.78882000  1.0
  C  C221  1  0.54800000  0.91027000  0.78907000  1.0
  C  C222  1  0.16027000  0.29799000  0.28908000  1.0
  C  C223  1  0.12886000  0.99087000  0.28882000  1.0
  C  C224  1  0.18841000  0.98073000  0.12513000  1.0
  C  C225  1  0.93706000  0.14458000  0.12503000  1.0
  C  C226  1  0.39457000  0.68705000  0.62503000  1.0
  C  C227  1  0.23074000  0.93842000  0.62514000  1.0
  C  C228  1  0.16695000  0.18778000  0.00869000  1.0
  C  C229  1  0.84156000  0.82102000  0.00856000  1.0
  C  C230  1  0.07101000  0.59156000  0.50856000  1.0
  C  C231  1  0.43778000  0.91694000  0.50868000  1.0
  C  C232  1  0.63037000  0.98259000  0.33889000  1.0
  C  C233  1  0.70861000  0.35625000  0.33886000  1.0
  C  C234  1  0.60626000  0.45861000  0.83887000  1.0
  C  C235  1  0.23258000  0.38035000  0.83888000  1.0
  C  C236  1  0.69966000  0.97628000  0.32779000  1.0
  C  C237  1  0.62811000  0.35117000  0.32768000  1.0
  C  C238  1  0.60118000  0.37811000  0.82769000  1.0
  C  C239  1  0.22627000  0.44965000  0.82778000  1.0
  C  C240  1  0.54544000  0.67459000  0.12627000  1.0
  C  C241  1  0.58065000  0.45187000  0.12641000  1.0
  C  C242  1  0.70185000  0.33065000  0.62640000  1.0
  C  C243  1  0.92459000  0.29544000  0.62627000  1.0
  C  C244  1  0.68749000  0.90392000  0.26623000  1.0
  C  C245  1  0.57869000  0.36205000  0.26621000  1.0
  C  C246  1  0.61205000  0.32869000  0.76621000  1.0
  C  C247  1  0.15391000  0.43748000  0.76621000  1.0
  C  C248  1  0.59201000  0.76100000  0.14774000  1.0
  C  C249  1  0.55566000  0.38699000  0.14798000  1.0
  C  C250  1  0.63697000  0.30566000  0.64797000  1.0
  C  C251  1  0.01100000  0.34200000  0.64774000  1.0
  C  C252  1  0.60545000  0.83649000  0.21365000  1.0
  C  C253  1  0.60824000  0.37735000  0.21381000  1.0
  C  C254  1  0.62734000  0.35824000  0.71381000  1.0
  C  C255  1  0.08648000  0.35543000  0.71364000  1.0
  C  C256  1  0.62366000  0.75947667  0.09281000  1.0
  C  C257  1  0.46910000  0.33354000  0.09304000  1.0
  C  C258  1  0.58353000  0.21910000  0.59303000  1.0
  C  C259  1  0.00942000  0.37366000  0.59281000  1.0
  C  C260  1  0.53648000  0.84280000  0.22582000  1.0
  C  C261  1  0.68953000  0.38363000  0.22614000  1.0
  C  C262  1  0.63363000  0.43953000  0.72614000  1.0
  C  C263  1  0.09279000  0.28647000  0.72581000  1.0
  C  C264  1  0.54894000  0.91451000  0.28822000  1.0
  C  C265  1  0.73950000  0.37419000  0.28844000  1.0
  C  C266  1  0.62420000  0.48949000  0.78845000  1.0
  C  C267  1  0.16450000  0.29893000  0.78821000  1.0
  C  C268  1  0.64140000  0.06192000  0.40159000  1.0
  C  C269  1  0.76016000  0.33942000  0.40148000  1.0
  C  C270  1  0.58942000  0.51015000  0.90148000  1.0
  C  C271  1  0.31192000  0.39140000  0.90159000  1.0
  C  C272  1  0.49946000  0.63667000  0.16402000  1.0
  C  C273  1  0.66434000  0.52746000  0.16387000  1.0
  C  C274  1  0.77745000  0.41433000  0.66386000  1.0
  C  C275  1  0.88667000  0.24946000  0.66401000  1.0
  C  C276  1  0.67181000  0.82936000  0.08074000  1.0
  C  C277  1  0.40894000  0.25151000  0.08095000  1.0
  C  C278  1  0.50149000  0.15894000  0.58094000  1.0
  C  C279  1  0.07936000  0.42180000  0.58074000  1.0
  C  C280  1  0.95273000  0.58128000  0.30235000  1.0
  C  C281  1  0.34974000  0.72096000  0.30213000  1.0
  C  C282  1  0.97098000  0.09974000  0.80214000  1.0
  C  C283  1  0.83128000  0.70273000  0.80235000  1.0
  C  C284  1  0.54622000  0.20673000  0.96105000  1.0
  C  C285  1  0.41472000  0.75434000  0.96094000  1.0
  C  C286  1  0.00433000  0.16470000  0.46093000  1.0
  C  C287  1  0.45672000  0.29622000  0.46104000  1.0
  C  C288  1  0.89114000  0.58090000  0.32842000  1.0
  C  C289  1  0.43746000  0.74758000  0.32843000  1.0
  C  C290  1  0.99761000  0.18747000  0.82845000  1.0
  C  C291  1  0.83090000  0.64114000  0.82842000  1.0
  C  C292  1  0.54277000  0.27491000  0.94621000  1.0
  C  C293  1  0.40335000  0.67136000  0.94620000  1.0
  C  C294  1  0.92136000  0.15335000  0.44620000  1.0
  C  C295  1  0.52490000  0.29277000  0.44620000  1.0
  C  C296  1  0.01590000  0.88810000  0.50040000  1.0
  C  C297  1  0.48431000  0.61195000  0.50023000  1.0
  C  C298  1  0.86196000  0.23431000  0.00023000  1.0
  C  C299  1  0.13810000  0.76590000  0.00040000  1.0
  C  C300  1  0.23508000  0.12573000  0.75800000  1.0
  C  C301  1  0.52281000  0.63226000  0.75789000  1.0
  C  C302  1  0.88226000  0.27280000  0.25789000  1.0
  C  C303  1  0.37573000  0.98508000  0.25800000  1.0
  C  C304  1  0.90504000  0.65357000  0.39078000  1.0
  C  C305  1  0.48579000  0.73726000  0.39087000  1.0
  C  C306  1  0.98728000  0.23580000  0.89088000  1.0
  C  C307  1  0.90357000  0.65504000  0.89079000  1.0
  C  C308  1  0.46903000  0.26403000  0.88715000  1.0
  C  C309  1  0.41805000  0.62312000  0.88718000  1.0
  C  C310  1  0.87313000  0.16806000  0.38719000  1.0
  C  C311  1  0.51403000  0.21903000  0.38715000  1.0
  C  C312  1  0.99382000  0.80526000  0.49375000  1.0
  C  C313  1  0.49976000  0.68814000  0.49358000  1.0
  C  C314  1  0.93815000  0.24976000  0.99358000  1.0
  C  C315  1  0.05526000  0.74381000  0.99375000  1.0
  C  C316  1  0.32041000  0.17142000  0.77624000  1.0
  C  C317  1  0.45581000  0.60472000  0.77625000  1.0
  C  C318  1  0.85472000  0.20581000  0.27625000  1.0
  C  C319  1  0.42141000  0.07041000  0.27624000  1.0
  C  C320  1  0.98068000  0.72912000  0.42843000  1.0
  C  C321  1  0.44766000  0.69909000  0.42830000  1.0
  C  C322  1  0.94910000  0.19767000  0.92830000  1.0
  C  C323  1  0.97912000  0.73069000  0.92844000  1.0
  C  C324  1  0.39714000  0.18437000  0.84057000  1.0
  C  C325  1  0.44333000  0.65610000  0.84052000  1.0
  C  C326  1  0.90610000  0.19333000  0.34052000  1.0
  C  C327  1  0.43437000  0.14714000  0.34057000  1.0
  C  C328  1  0.98332000  0.81042000  0.56104000  1.0
  C  C329  1  0.57763000  0.75024000  0.56083000  1.0
  C  C330  1  0.00025000  0.32763000  0.06083000  1.0
  C  C331  1  0.06042000  0.73332000  0.06104000  1.0
  C  C332  1  0.31524000  0.19855000  0.71775000  1.0
  C  C333  1  0.40272000  0.51900000  0.71793000  1.0
  C  C334  1  0.76900000  0.15272000  0.21793000  1.0
  C  C335  1  0.44855000  0.06523000  0.21775000  1.0
  C  C336  1  0.04196000  0.72945000  0.40145000  1.0
  C  C337  1  0.35937000  0.67167000  0.40111000  1.0
  C  C338  1  0.92167000  0.10937000  0.90111000  1.0
  C  C339  1  0.97945000  0.79195000  0.90145000  1.0
  C  C340  1  0.40084000  0.11642000  0.85638000  1.0
  C  C341  1  0.45539000  0.73983000  0.85623000  1.0
  C  C342  1  0.98983000  0.20539000  0.35623000  1.0
  C  C343  1  0.36642000  0.15085000  0.35638000  1.0
  C  C344  1  0.02847000  0.65626000  0.33955000  1.0
  C  C345  1  0.31110000  0.68300000  0.33918000  1.0
  C  C346  1  0.93302000  0.06110000  0.83919000  1.0
  C  C347  1  0.90627000  0.77847000  0.83956000  1.0
  C  C348  1  0.47415000  0.12743000  0.91600000  1.0
  C  C349  1  0.44175000  0.78852000  0.91584000  1.0
  C  C350  1  0.03851000  0.19174000  0.41583000  1.0
  C  C351  1  0.37741000  0.22414000  0.41598000  1.0
  C  C352  1  0.93781000  0.50145000  0.23683000  1.0
  C  C353  1  0.29916000  0.73532000  0.23665000  1.0
  C  C354  1  0.98534000  0.04917000  0.73666000  1.0
  C  C355  1  0.75146000  0.68781000  0.73683000  1.0
  C  C356  1  0.62590000  0.21686000  0.02245000  1.0
  C  C357  1  0.39636000  0.80561000  0.02227000  1.0
  C  C358  1  0.05560000  0.14635000  0.52226000  1.0
  C  C359  1  0.46686000  0.37591000  0.52245000  1.0
  C  C360  1  0.03232000  0.91936000  0.44495000  1.0
  C  C361  1  0.41236000  0.52527000  0.44489000  1.0
  C  C362  1  0.77528000  0.16236000  0.94489000  1.0
  C  C363  1  0.16936000  0.78231000  0.94495000  1.0
  C  C364  1  0.20170000  0.08678000  0.80197000  1.0
  C  C365  1  0.59991000  0.71537000  0.80152000  1.0
  C  C366  1  0.96536000  0.34990000  0.30152000  1.0
  C  C367  1  0.33676000  0.95169000  0.30196000  1.0
  C  C368  1  0.96479000  0.74651000  0.59020000  1.0
  C  C369  1  0.62549000  0.84332000  0.59002000  1.0
  C  C370  1  0.09332000  0.37549000  0.09002000  1.0
  C  C371  1  0.99650000  0.71479000  0.09020000  1.0
  C  C372  1  0.38210000  0.24916000  0.70411000  1.0
  C  C373  1  0.32237000  0.45461000  0.70437000  1.0
  C  C374  1  0.70460000  0.07237000  0.20437000  1.0
  C  C375  1  0.49916000  0.13210000  0.20411000  1.0
  N  N376  1  0.15893000  0.16371000  0.12148000  1.0
  N  N377  1  0.96251000  0.95778000  0.12136000  1.0
  N  N378  1  0.20778000  0.71251000  0.62136000  1.0
  N  N379  1  0.41371000  0.90892000  0.62147000  1.0
  N  N380  1  0.16519000  0.11088000  0.15432000  1.0
  N  N381  1  0.98921000  0.04347000  0.15415000  1.0
  N  N382  1  0.29347000  0.73921000  0.65415000  1.0
  N  N383  1  0.36088000  0.91519000  0.65432000  1.0
  N  N384  1  0.59751000  0.67695000  0.04399000  1.0
  N  N385  1  0.44636000  0.36711000  0.04415000  1.0
  N  N386  1  0.61709000  0.19635000  0.54414000  1.0
  N  N387  1  0.92695000  0.34751000  0.54399000  1.0
  N  N388  1  0.55039000  0.62494000  0.06332000  1.0
  N  N389  1  0.51273000  0.43847000  0.06343000  1.0
  N  N390  1  0.68846000  0.26273000  0.56343000  1.0
  N  N391  1  0.87494000  0.30039000  0.56332000  1.0
  N  N392  1  0.99904000  0.89169000  0.60340000  1.0
  N  N393  1  0.60427000  0.71130000  0.60314000  1.0
  N  N394  1  0.96130000  0.35427000  0.10314000  1.0
  N  N395  1  0.14168000  0.74904000  0.10340000  1.0
  N  N396  1  0.23175000  0.16802000  0.66874000  1.0
  N  N397  1  0.43721000  0.50056000  0.66893000  1.0
  N  N398  1  0.75055000  0.18720000  0.16893000  1.0
  N  N399  1  0.41802000  0.98175000  0.16874000  1.0
  N  N400  1  0.01787000  0.93917000  0.56714000  1.0
  N  N401  1  0.54912000  0.62760000  0.56693000  1.0
  N  N402  1  0.87760000  0.29912000  0.06693000  1.0
  N  N403  1  0.18917000  0.76787000  0.06714000  1.0
  N  N404  1  0.18229000  0.12410000  0.69212000  1.0
  N  N405  1  0.50987000  0.56797000  0.69213000  1.0
  N  N406  1  0.81797000  0.25986000  0.19213000  1.0
  N  N407  1  0.37409000  0.93228000  0.19211000  1.0
  O  O408  1  0.17779000  0.82342000  0.72235000  1.0
  O  O409  1  0.54473000  0.89931000  0.72264000  1.0
  O  O410  1  0.14930000  0.29471000  0.22264000  1.0
  O  O411  1  0.07342000  0.92778000  0.22235000  1.0
  O  O412  1  0.32016000  0.90290000  0.80500000  1.0
  O  O413  1  0.48479000  0.90223000  0.80512000  1.0
  O  O414  1  0.15223000  0.23478000  0.30512000  1.0
  O  O415  1  0.15289000  0.07017000  0.30500000  1.0
  O  O416  1  0.71245000  0.12829000  0.43093000  1.0
  O  O417  1  0.71833000  0.30219000  0.43064000  1.0
  O  O418  1  0.55220000  0.46833000  0.93065000  1.0
  O  O419  1  0.37830000  0.46245000  0.93093000  1.0
  O  O420  1  0.58246000  0.05976000  0.42037000  1.0
  O  O421  1  0.83788000  0.36039000  0.42032000  1.0
  O  O422  1  0.61039000  0.58788000  0.92032000  1.0
  O  O423  1  0.30976000  0.33247000  0.92038000  1.0
  O  O424  1  0.86019000  0.44234000  0.19718000  1.0
  O  O425  1  0.33706000  0.75471000  0.19693000  1.0
  O  O426  1  0.00471000  0.08706000  0.69693000  1.0
  O  O427  1  0.69235000  0.61019000  0.69717000  1.0
  O  O428  1  0.62405000  0.15637000  0.03898000  1.0
  O  O429  1  0.41502000  0.88270000  0.03896000  1.0
  O  O430  1  0.13271000  0.16502000  0.53896000  1.0
  O  O431  1  0.40636000  0.37404000  0.53897000  1.0
  O  O432  1  0.99992000  0.49647000  0.22584000  1.0
  O  O433  1  0.22615000  0.72944000  0.22583000  1.0
  O  O434  1  0.97945000  0.97615000  0.72583000  1.0
  O  O435  1  0.74648000  0.74992000  0.72584000  1.0
  O  O436  1  0.69255000  0.28826000  0.05338000  1.0
  O  O437  1  0.36031000  0.76507000  0.05297000  1.0
  O  O438  1  0.01507000  0.11031000  0.55297000  1.0
  O  O439  1  0.53825000  0.44255000  0.55338000  1.0
