# generated using pymatgen
data_CoH24C28(SN3)2
_symmetry_space_group_name_H-M   'P 1'
_cell_length_a   7.65379000
_cell_length_b   8.26699000
_cell_length_c   11.05360000
_cell_angle_alpha   108.29300000
_cell_angle_beta   97.39390000
_cell_angle_gamma   107.41600000
_symmetry_Int_Tables_number   1
_chemical_formula_structural   CoH24C28(SN3)2
_chemical_formula_sum   'Co1 H24 C28 S2 N6'
_cell_volume   614.18442216
_cell_formula_units_Z   1
loop_
 _symmetry_equiv_pos_site_id
 _symmetry_equiv_pos_as_xyz
  1  'x, y, z'
loop_
 _atom_site_type_symbol
 _atom_site_label
 _atom_site_symmetry_multiplicity
 _atom_site_fract_x
 _atom_site_fract_y
 _atom_site_fract_z
 _atom_site_occupancy
  Co  Co0  1  0.00000000  0.00000000  0.00000000  1.0
  H  H1  1  0.18183000  0.32352000  0.24701000  1.0
  H  H2  1  0.81818000  0.67649000  0.75299000  1.0
  H  H3  1  0.87170000  0.68185000  0.25053000  1.0
  H  H4  1  0.12831000  0.31816000  0.74947000  1.0
  H  H5  1  0.69283000  0.47020000  0.02250000  1.0
  H  H6  1  0.30717000  0.52980000  0.97750000  1.0
  H  H7  1  0.76062000  0.19197000  0.91900000  1.0
  H  H8  1  0.23937000  0.80803000  0.08100000  1.0
  H  H9  1  0.17610000  0.84403000  0.58569000  1.0
  H  H10  1  0.82390000  0.15597000  0.41431000  1.0
  H  H11  1  0.95653000  0.65478000  0.51577000  1.0
  H  H12  1  0.04347000  0.34522000  0.48422000  1.0
  H  H13  1  0.01401000  0.82274000  0.44674000  1.0
  H  H14  1  0.98599000  0.17726000  0.55326000  1.0
  H  H15  1  0.40432000  0.58027000  0.36014000  1.0
  H  H16  1  0.59568000  0.41973000  0.63986000  1.0
  H  H17  1  0.28752000  0.66485000  0.68513000  1.0
  H  H18  1  0.71248000  0.33515000  0.31487000  1.0
  H  H19  1  0.71062000  0.85178000  0.48699000  1.0
  H  H20  1  0.28938000  0.14823000  0.51301000  1.0
  H  H21  1  0.53651000  0.82465000  0.89416000  1.0
  H  H22  1  0.46348000  0.17535000  0.10584000  1.0
  H  H23  1  0.94401000  0.00575000  0.70680000  1.0
  H  H24  1  0.05599000  0.99426000  0.29320000  1.0
  C  C25  1  0.07675000  0.36152000  0.19933000  1.0
  C  C26  1  0.92326000  0.63849000  0.80067000  1.0
  C  C27  1  0.05007000  0.52362000  0.26706000  1.0
  C  C28  1  0.94993000  0.47638000  0.73294000  1.0
  C  C29  1  0.90634000  0.56250000  0.20321000  1.0
  C  C30  1  0.09366000  0.43750000  0.79679000  1.0
  C  C31  1  0.80380000  0.44394000  0.07652000  1.0
  C  C32  1  0.19619000  0.55606000  0.92348000  1.0
  C  C33  1  0.84081000  0.28694000  0.01706000  1.0
  C  C34  1  0.15919000  0.71306000  0.98294000  1.0
  C  C35  1  0.16497000  0.63915000  0.40255000  1.0
  C  C36  1  0.83503000  0.36085000  0.59744000  1.0
  C  C37  1  0.07470000  0.74580000  0.49349000  1.0
  C  C38  1  0.92530000  0.25420000  0.50651000  1.0
  C  C39  1  0.34469000  0.64699000  0.43725000  1.0
  C  C40  1  0.65532000  0.35301000  0.56275000  1.0
  C  C41  1  0.47747000  0.74506000  0.56653000  1.0
  C  C42  1  0.52253000  0.25494000  0.43347000  1.0
  C  C43  1  0.43032000  0.74104000  0.68451000  1.0
  C  C44  1  0.56969000  0.25896000  0.31549000  1.0
  C  C45  1  0.66696000  0.84353000  0.57569000  1.0
  C  C46  1  0.33305000  0.15648000  0.42431000  1.0
  C  C47  1  0.56944000  0.82967000  0.80200000  1.0
  C  C48  1  0.43055000  0.17033000  0.19800000  1.0
  C  C49  1  0.79586000  0.93051000  0.69729000  1.0
  C  C50  1  0.20414000  0.06950000  0.30271000  1.0
  C  C51  1  0.71185000  0.85824000  0.14219000  1.0
  C  C52  1  0.28815000  0.14175000  0.85781000  1.0
  S  S53  1  0.56776000  0.79209000  0.22735000  1.0
  S  S54  1  0.43224000  0.20789000  0.77265000  1.0
  N  N55  1  0.97408000  0.24322000  0.07858000  1.0
  N  N56  1  0.02592000  0.75678000  0.92142000  1.0
  N  N57  1  0.75076000  0.92224000  0.80968000  1.0
  N  N58  1  0.24924000  0.07777000  0.19032000  1.0
  N  N59  1  0.82029000  0.90548000  0.08143000  1.0
  N  N60  1  0.17971000  0.09452000  0.91857000  1.0
