# generated using pymatgen
data_CuH5C5N2ClO3
_symmetry_space_group_name_H-M   'P 1'
_cell_length_a   5.51786000
_cell_length_b   10.94870000
_cell_length_c   12.83600000
_cell_angle_alpha   89.99970000
_cell_angle_beta   89.99950000
_cell_angle_gamma   75.97400000
_symmetry_Int_Tables_number   1
_chemical_formula_structural   CuH5C5N2ClO3
_chemical_formula_sum   'Cu4 H20 C20 N8 Cl4 O12'
_cell_volume   752.34644996
_cell_formula_units_Z   4
loop_
 _symmetry_equiv_pos_site_id
 _symmetry_equiv_pos_as_xyz
  1  'x, y, z'
loop_
 _atom_site_type_symbol
 _atom_site_label
 _atom_site_symmetry_multiplicity
 _atom_site_fract_x
 _atom_site_fract_y
 _atom_site_fract_z
 _atom_site_occupancy
  Cu  Cu0  1  0.06243000  0.66145000  0.22364000  1.0
  Cu  Cu1  1  0.43757000  0.83855000  0.72364000  1.0
  Cu  Cu2  1  0.93757000  0.33855000  0.77636000  1.0
  Cu  Cu3  1  0.56244000  0.16145000  0.27636000  1.0
  H  H4  1  0.58427000  0.39321000  0.40089000  1.0
  H  H5  1  0.91574000  0.10678000  0.90089000  1.0
  H  H6  1  0.41574000  0.60679000  0.59911000  1.0
  H  H7  1  0.08426000  0.89322000  0.09911000  1.0
  H  H8  1  0.81103000  0.25784000  0.10303000  1.0
  H  H9  1  0.68897000  0.24216000  0.60303000  1.0
  H  H10  1  0.18897000  0.74216000  0.89697000  1.0
  H  H11  1  0.31102000  0.75784000  0.39696000  1.0
  H  H12  1  0.05207000  0.42626000  0.08358000  1.0
  H  H13  1  0.44793000  0.07375000  0.58358000  1.0
  H  H14  1  0.94793000  0.57374000  0.91642000  1.0
  H  H15  1  0.55207000  0.92625000  0.41642000  1.0
  H  H16  1  0.74862000  0.80502000  0.07061000  1.0
  H  H17  1  0.75138000  0.69498000  0.57061000  1.0
  H  H18  1  0.25138000  0.19498000  0.92939000  1.0
  H  H19  1  0.24862000  0.30502000  0.42939000  1.0
  H  H20  1  0.61507000  0.70054000  0.11173000  1.0
  H  H21  1  0.88493000  0.79946000  0.61173000  1.0
  H  H22  1  0.38493000  0.29946000  0.88827000  1.0
  H  H23  1  0.11508000  0.20054000  0.38827000  1.0
  C  C24  1  0.80732000  0.49624000  0.31575000  1.0
  C  C25  1  0.69268000  0.00376000  0.81574000  1.0
  C  C26  1  0.19268000  0.50377000  0.68426000  1.0
  C  C27  1  0.30732000  0.99624000  0.18426000  1.0
  C  C28  1  0.68467000  0.40047000  0.32900000  1.0
  C  C29  1  0.81534000  0.09952000  0.82900000  1.0
  C  C30  1  0.31534000  0.59953000  0.67100000  1.0
  C  C31  1  0.18466000  0.90048000  0.17100000  1.0
  C  C32  1  0.81463000  0.32506000  0.16510000  1.0
  C  C33  1  0.68537000  0.17495000  0.66510000  1.0
  C  C34  1  0.18537000  0.67494000  0.83490000  1.0
  C  C35  1  0.31463000  0.82506000  0.33490000  1.0
  C  C36  1  0.94366000  0.41922000  0.15319000  1.0
  C  C37  1  0.55633000  0.08078000  0.65319000  1.0
  C  C38  1  0.05633000  0.58078000  0.84681000  1.0
  C  C39  1  0.44366000  0.91922000  0.34681000  1.0
  C  C40  1  0.81026000  0.59553000  0.39618000  1.0
  C  C41  1  0.68974000  0.90447000  0.89618000  1.0
  C  C42  1  0.18974000  0.40447000  0.60382000  1.0
  C  C43  1  0.31027000  0.09553000  0.10382000  1.0
  N  N44  1  0.93772000  0.50400000  0.22838000  1.0
  N  N45  1  0.56228000  0.99600000  0.72838000  1.0
  N  N46  1  0.06227000  0.49600000  0.77162000  1.0
  N  N47  1  0.43772000  0.00400000  0.27162000  1.0
  N  N48  1  0.69063000  0.31492000  0.25331000  1.0
  N  N49  1  0.80937000  0.18508000  0.75331000  1.0
  N  N50  1  0.30937000  0.68508000  0.74669000  1.0
  N  N51  1  0.19062000  0.81492000  0.24669000  1.0
  Cl  Cl52  1  0.33793000  0.59339000  0.09319000  1.0
  Cl  Cl53  1  0.16207000  0.90661000  0.59319000  1.0
  Cl  Cl54  1  0.66207000  0.40661000  0.90681000  1.0
  Cl  Cl55  1  0.83793000  0.09339000  0.40681000  1.0
  O  O56  1  0.70221000  0.59222000  0.48159000  1.0
  O  O57  1  0.79779000  0.90778000  0.98159000  1.0
  O  O58  1  0.29780000  0.40778000  0.51842000  1.0
  O  O59  1  0.20221000  0.09222000  0.01841000  1.0
  O  O60  1  0.92591000  0.67942000  0.36946000  1.0
  O  O61  1  0.57408000  0.82058000  0.86946000  1.0
  O  O62  1  0.07408000  0.32058000  0.63054000  1.0
  O  O63  1  0.42593000  0.17942000  0.13054000  1.0
  O  O64  1  0.72562000  0.75465000  0.13335000  1.0
  O  O65  1  0.77438000  0.74535000  0.63335000  1.0
  O  O66  1  0.27438000  0.24535000  0.86665000  1.0
  O  O67  1  0.22562000  0.25465000  0.36665000  1.0
