# generated using pymatgen
data_NaH2CN5O3
_symmetry_space_group_name_H-M   'P 1'
_cell_length_a   6.46526000
_cell_length_b   6.46547000
_cell_length_c   15.06080000
_cell_angle_alpha   89.99830000
_cell_angle_beta   89.99890000
_cell_angle_gamma   95.07270000
_symmetry_Int_Tables_number   1
_chemical_formula_structural   NaH2CN5O3
_chemical_formula_sum   'Na4 H8 C4 N20 O12'
_cell_volume   627.08989010
_cell_formula_units_Z   4
loop_
 _symmetry_equiv_pos_site_id
 _symmetry_equiv_pos_as_xyz
  1  'x, y, z'
loop_
 _atom_site_type_symbol
 _atom_site_label
 _atom_site_symmetry_multiplicity
 _atom_site_fract_x
 _atom_site_fract_y
 _atom_site_fract_z
 _atom_site_occupancy
  Na  Na0  1  0.26743000  0.58711000  0.46233000  1.0
  Na  Na1  1  0.58728000  0.26726000  0.53765000  1.0
  Na  Na2  1  0.58712000  0.26745000  0.96233000  1.0
  Na  Na3  1  0.26724000  0.58728000  0.03765000  1.0
  H  H4  1  0.39600000  0.61841000  0.63983000  1.0
  H  H5  1  0.61865000  0.39581000  0.36015000  1.0
  H  H6  1  0.61841000  0.39602000  0.13983000  1.0
  H  H7  1  0.39580000  0.61864000  0.86015000  1.0
  H  H8  1  0.21665000  0.43993000  0.64550000  1.0
  H  H9  1  0.44014000  0.21650000  0.35448000  1.0
  H  H10  1  0.43993000  0.21666000  0.14550000  1.0
  H  H11  1  0.21648000  0.44014000  0.85448000  1.0
  C  C12  1  0.91620000  0.91599000  0.50001000  1.0
  C  C13  1  0.91599000  0.91621000  0.00001000  1.0
  C  C14  1  0.14818000  0.72616000  0.25000000  1.0
  C  C15  1  0.72617000  0.14814000  0.75000000  1.0
  N  N16  1  0.07964000  0.07942000  0.50000000  1.0
  N  N17  1  0.07941000  0.07965000  0.00001000  1.0
  N  N18  1  0.94648000  0.71789000  0.51724000  1.0
  N  N19  1  0.71809000  0.94631000  0.48278000  1.0
  N  N20  1  0.71787000  0.94649000  0.01725000  1.0
  N  N21  1  0.94629000  0.71810000  0.98278000  1.0
  N  N22  1  0.75778000  0.62040000  0.51033000  1.0
  N  N23  1  0.62057000  0.75762000  0.48969000  1.0
  N  N24  1  0.62038000  0.75779000  0.01034000  1.0
  N  N25  1  0.75760000  0.62059000  0.98969000  1.0
  N  N26  1  0.22212000  0.81943000  0.32450000  1.0
  N  N27  1  0.81953000  0.22196000  0.67550000  1.0
  N  N28  1  0.81943000  0.22209000  0.82450000  1.0
  N  N29  1  0.22199000  0.81954000  0.17550000  1.0
  N  N30  1  0.99203000  0.55365000  0.25000000  1.0
  N  N31  1  0.55367000  0.99198000  0.75000000  1.0
  N  N32  1  0.34595000  0.97958000  0.29463000  1.0
  N  N33  1  0.97964000  0.34585000  0.70537000  1.0
  N  N34  1  0.97958000  0.34593000  0.79463000  1.0
  N  N35  1  0.34587000  0.97965000  0.20537000  1.0
  O  O36  1  0.03450000  0.25626000  0.47938000  1.0
  O  O37  1  0.25647000  0.03434000  0.52060000  1.0
  O  O38  1  0.25628000  0.03451000  0.97939000  1.0
  O  O39  1  0.03433000  0.25645000  0.02061000  1.0
  O  O40  1  0.35218000  0.48064000  0.61622000  1.0
  O  O41  1  0.48086000  0.35200000  0.38377000  1.0
  O  O42  1  0.48063000  0.35220000  0.11623000  1.0
  O  O43  1  0.35200000  0.48087000  0.88377000  1.0
  O  O44  1  0.92771000  0.48605000  0.32326000  1.0
  O  O45  1  0.48628000  0.92744000  0.67676000  1.0
  O  O46  1  0.48611000  0.92763000  0.82326000  1.0
  O  O47  1  0.92747000  0.48629000  0.17676000  1.0
