# generated using pymatgen
data_CdH30C50(N2O5)2
_symmetry_space_group_name_H-M   'P 1'
_cell_length_a   4.57997000
_cell_length_b   15.40780000
_cell_length_c   17.50290000
_cell_angle_alpha   65.87010000
_cell_angle_beta   85.83220000
_cell_angle_gamma   83.17190000
_symmetry_Int_Tables_number   1
_chemical_formula_structural   CdH30C50(N2O5)2
_chemical_formula_sum   'Cd1 H30 C50 N4 O10'
_cell_volume   1118.81712243
_cell_formula_units_Z   1
loop_
 _symmetry_equiv_pos_site_id
 _symmetry_equiv_pos_as_xyz
  1  'x, y, z'
loop_
 _atom_site_type_symbol
 _atom_site_label
 _atom_site_symmetry_multiplicity
 _atom_site_fract_x
 _atom_site_fract_y
 _atom_site_fract_z
 _atom_site_occupancy
  Cd  Cd0  1  0.00000000  0.00000000  0.00000000  1.0
  H  H1  1  0.52545000  0.18451000  0.94311000  1.0
  H  H2  1  0.47455000  0.81549000  0.05690000  1.0
  H  H3  1  0.36637000  0.33145000  0.96733000  1.0
  H  H4  1  0.63363000  0.66854000  0.03267000  1.0
  H  H5  1  0.00369000  0.23304000  0.16293000  1.0
  H  H6  1  0.99632000  0.76696000  0.83707000  1.0
  H  H7  1  0.13921000  0.09055000  0.12904000  1.0
  H  H8  1  0.86080000  0.90946000  0.87096000  1.0
  H  H9  1  0.68935000  0.44309000  0.02903000  1.0
  H  H10  1  0.31066000  0.55691000  0.97097000  1.0
  H  H11  1  0.34038000  0.40337000  0.07054000  1.0
  H  H12  1  0.65962000  0.59662000  0.92946000  1.0
  H  H13  1  0.14366000  0.58399000  0.17014000  1.0
  H  H14  1  0.85633000  0.41601000  0.82986000  1.0
  H  H15  1  0.26876000  0.59249000  0.30352000  1.0
  H  H16  1  0.73124000  0.40751000  0.69648000  1.0
  H  H17  1  0.09194000  0.47609000  0.44004000  1.0
  H  H18  1  0.90805000  0.52391000  0.55996000  1.0
  H  H19  1  0.49095000  0.21477000  0.52152000  1.0
  H  H20  1  0.50905000  0.78523000  0.47848000  1.0
  H  H21  1  0.36487000  0.21101000  0.38603000  1.0
  H  H22  1  0.63512000  0.78899000  0.61397000  1.0
  H  H23  1  0.36154000  0.37954000  0.61699000  1.0
  H  H24  1  0.63848000  0.62046000  0.38300000  1.0
  H  H25  1  0.20407000  0.27061000  0.76248000  1.0
  H  H26  1  0.79593000  0.72940000  0.23751000  1.0
  H  H27  1  0.91082000  0.06084000  0.76481000  1.0
  H  H28  1  0.08918000  0.93916000  0.23519000  1.0
  H  H29  1  0.06356000  0.16690000  0.61842000  1.0
  H  H30  1  0.93645000  0.83310000  0.38159000  1.0
  C  C31  1  0.62932000  0.19817000  0.99058000  1.0
  C  C32  1  0.37068000  0.80183000  0.00943000  1.0
  C  C33  1  0.54018000  0.27988000  0.00455000  1.0
  C  C34  1  0.45983000  0.72012000  0.99546000  1.0
  C  C35  1  0.67123000  0.29440000  0.06771000  1.0
  C  C36  1  0.32877000  0.70560000  0.93229000  1.0
  C  C37  1  0.88910000  0.22527000  0.11396000  1.0
  C  C38  1  0.11091000  0.77473000  0.88604000  1.0
  C  C39  1  0.96616000  0.14545000  0.09567000  1.0
  C  C40  1  0.03385000  0.85455000  0.90433000  1.0
  C  C41  1  0.57870000  0.38575000  0.07845000  1.0
  C  C42  1  0.42130000  0.61425000  0.92155000  1.0
  C  C43  1  0.83102000  0.45911000  0.15249000  1.0
  C  C44  1  0.16898000  0.54089000  0.84751000  1.0
  C  C45  1  0.89621000  0.46359000  0.23202000  1.0
  C  C46  1  0.10378000  0.53641000  0.76798000  1.0
  C  C47  1  0.06568000  0.53330000  0.23046000  1.0
  C  C48  1  0.93431000  0.46670000  0.76954000  1.0
  C  C49  1  0.13542000  0.53761000  0.30559000  1.0
  C  C50  1  0.86457000  0.46239000  0.69442000  1.0
  C  C51  1  0.03544000  0.47296000  0.38185000  1.0
  C  C52  1  0.96455000  0.52704000  0.61815000  1.0
  C  C53  1  0.85975000  0.40183000  0.38523000  1.0
  C  C54  1  0.14024000  0.59817000  0.61477000  1.0
  C  C55  1  0.74731000  0.33390000  0.46198000  1.0
  C  C56  1  0.25268000  0.66610000  0.53802000  1.0
  C  C57  1  0.57449000  0.26550000  0.46228000  1.0
  C  C58  1  0.42551000  0.73450000  0.53772000  1.0
  C  C59  1  0.50486000  0.26331000  0.38641000  1.0
  C  C60  1  0.49512000  0.73670000  0.61359000  1.0
  C  C61  1  0.60951000  0.32760000  0.31028000  1.0
  C  C62  1  0.39048000  0.67240000  0.68972000  1.0
  C  C63  1  0.52676000  0.32533000  0.23167000  1.0
  C  C64  1  0.47324000  0.67467000  0.76833000  1.0
  C  C65  1  0.78907000  0.39696000  0.30908000  1.0
  C  C66  1  0.21092000  0.60304000  0.69092000  1.0
  C  C67  1  0.71973000  0.27830000  0.61088000  1.0
  C  C68  1  0.28028000  0.72170000  0.38911000  1.0
  C  C69  1  0.47876000  0.30928000  0.64970000  1.0
  C  C70  1  0.52126000  0.69072000  0.35029000  1.0
  C  C71  1  0.39276000  0.24911000  0.73035000  1.0
  C  C72  1  0.60724000  0.75089000  0.26965000  1.0
  C  C73  1  0.54710000  0.15940000  0.77180000  1.0
  C  C74  1  0.45290000  0.84060000  0.22819000  1.0
  C  C75  1  0.78861000  0.12993000  0.73135000  1.0
  C  C76  1  0.21138000  0.87007000  0.26865000  1.0
  C  C77  1  0.87481000  0.18881000  0.65030000  1.0
  C  C78  1  0.12520000  0.81119000  0.34970000  1.0
  C  C79  1  0.45041000  0.09480000  0.85891000  1.0
  C  C80  1  0.54958000  0.90521000  0.14108000  1.0
  N  N81  1  0.83955000  0.13145000  0.03525000  1.0
  N  N82  1  0.16046000  0.86855000  0.96475000  1.0
  N  N83  1  0.65700000  0.38802000  0.15724000  1.0
  N  N84  1  0.34299000  0.61198000  0.84276000  1.0
  O  O85  1  0.19458000  0.11754000  0.88327000  1.0
  O  O86  1  0.80541000  0.88246000  0.11672000  1.0
  O  O87  1  0.62345000  0.02318000  0.90110000  1.0
  O  O88  1  0.37655000  0.97682000  0.09890000  1.0
  O  O89  1  0.81921000  0.34263000  0.53260000  1.0
  O  O90  1  0.18080000  0.65736000  0.46740000  1.0
  O  O91  1  0.35029000  0.27228000  0.22836000  1.0
  O  O92  1  0.64969000  0.72772000  0.77164000  1.0
  O  O93  1  0.92363000  0.51582000  0.08418000  1.0
  O  O94  1  0.07638000  0.48418000  0.91582000  1.0
