# generated using pymatgen
data_CuH4(CN)4
_symmetry_space_group_name_H-M   'P 1'
_cell_length_a   5.93007000
_cell_length_b   7.75307000
_cell_length_c   12.81830000
_cell_angle_alpha   89.99960000
_cell_angle_beta   89.99940000
_cell_angle_gamma   75.76000000
_symmetry_Int_Tables_number   1
_chemical_formula_structural   CuH4(CN)4
_chemical_formula_sum   'Cu4 H16 C16 N16'
_cell_volume   571.22927391
_cell_formula_units_Z   4
loop_
 _symmetry_equiv_pos_site_id
 _symmetry_equiv_pos_as_xyz
  1  'x, y, z'
loop_
 _atom_site_type_symbol
 _atom_site_label
 _atom_site_symmetry_multiplicity
 _atom_site_fract_x
 _atom_site_fract_y
 _atom_site_fract_z
 _atom_site_occupancy
  Cu  Cu0  1  0.03457000  0.50065000  0.65292000  1.0
  Cu  Cu1  1  0.46542000  0.99934000  0.15292000  1.0
  Cu  Cu2  1  0.96542000  0.49934000  0.34708000  1.0
  Cu  Cu3  1  0.53458000  0.00066000  0.84708000  1.0
  H  H4  1  0.43941000  0.71265000  0.64036000  1.0
  H  H5  1  0.06058000  0.78735000  0.14036000  1.0
  H  H6  1  0.56057000  0.28735000  0.35963000  1.0
  H  H7  1  0.93944000  0.21265000  0.85964000  1.0
  H  H8  1  0.29080000  0.78628000  0.31942000  1.0
  H  H9  1  0.20920000  0.71373000  0.81942000  1.0
  H  H10  1  0.70920000  0.21373000  0.68057000  1.0
  H  H11  1  0.79081000  0.28626000  0.18057000  1.0
  H  H12  1  0.59192000  0.93351000  0.39037000  1.0
  H  H13  1  0.90808000  0.56649000  0.89037000  1.0
  H  H14  1  0.40806000  0.06650000  0.60963000  1.0
  H  H15  1  0.09194000  0.43350000  0.10963000  1.0
  H  H16  1  0.72477000  0.85004000  0.51153000  1.0
  H  H17  1  0.77524000  0.64996000  0.01154000  1.0
  H  H18  1  0.27521000  0.14997000  0.48847000  1.0
  H  H19  1  0.22479000  0.35003000  0.98847000  1.0
  C  C20  1  0.36120000  0.70293000  0.56474000  1.0
  C  C21  1  0.13878000  0.79706000  0.06475000  1.0
  C  C22  1  0.63878000  0.29708000  0.43527000  1.0
  C  C23  1  0.86124000  0.20293000  0.93526000  1.0
  C  C24  1  0.28519000  0.74037000  0.39911000  1.0
  C  C25  1  0.21481000  0.75963000  0.89910000  1.0
  C  C26  1  0.71481000  0.25963000  0.60090000  1.0
  C  C27  1  0.78519000  0.24037000  0.10090000  1.0
  C  C28  1  0.55938000  0.91245000  0.47306000  1.0
  C  C29  1  0.94062000  0.58755000  0.97306000  1.0
  C  C30  1  0.44060000  0.08756000  0.52694000  1.0
  C  C31  1  0.05940000  0.41243000  0.02694000  1.0
  C  C32  1  0.21651000  0.33856000  0.74517000  1.0
  C  C33  1  0.28349000  0.16142000  0.24516000  1.0
  C  C34  1  0.78347000  0.66145000  0.25482000  1.0
  C  C35  1  0.71651000  0.83856000  0.75483000  1.0
  N  N36  1  0.21427000  0.60582000  0.54047000  1.0
  N  N37  1  0.28573000  0.89419000  0.04047000  1.0
  N  N38  1  0.78571000  0.39418000  0.45954000  1.0
  N  N39  1  0.71429000  0.10582000  0.95954000  1.0
  N  N40  1  0.16666000  0.62884000  0.43480000  1.0
  N  N41  1  0.33333333  0.87117000  0.93480000  1.0
  N  N42  1  0.83335000  0.37116000  0.56520000  1.0
  N  N43  1  0.66666667  0.12884000  0.06520000  1.0
  N  N44  1  0.40943000  0.78952000  0.47821000  1.0
  N  N45  1  0.09056000  0.71048000  0.97821000  1.0
  N  N46  1  0.59056000  0.21048000  0.52179000  1.0
  N  N47  1  0.90945000  0.28951000  0.02179000  1.0
  N  N48  1  0.32728000  0.22122000  0.79652000  1.0
  N  N49  1  0.17272000  0.27879000  0.29652000  1.0
  N  N50  1  0.67274000  0.77878000  0.20349000  1.0
  N  N51  1  0.82727000  0.72120000  0.70348000  1.0
