# generated using pymatgen
data_Al2H17C22NO10
_symmetry_space_group_name_H-M   'P 1'
_cell_length_a   6.66544000
_cell_length_b   11.08218028
_cell_length_c   11.09230000
_cell_angle_alpha   88.00957002
_cell_angle_beta   73.46880000
_cell_angle_gamma   73.16141911
_symmetry_Int_Tables_number   1
_chemical_formula_structural   Al2H17C22NO10
_chemical_formula_sum   'Al2 H17 C22 N1 O10'
_cell_volume   750.79879976
_cell_formula_units_Z   1
loop_
 _symmetry_equiv_pos_site_id
 _symmetry_equiv_pos_as_xyz
  1  'x, y, z'
loop_
 _atom_site_type_symbol
 _atom_site_label
 _atom_site_symmetry_multiplicity
 _atom_site_fract_x
 _atom_site_fract_y
 _atom_site_fract_z
 _atom_site_occupancy
  Al  Al0  1  0.00750000  0.50397000  0.49097000  1.0
  Al  Al1  1  0.50626000  0.50424000  0.49704000  1.0
  H  H2  1  0.36000000  0.35075000  0.43619000  1.0
  H  H3  1  0.65100000  0.65573000  0.56133000  1.0
  H  H4  1  0.33473000  0.56964000  0.88769000  1.0
  H  H5  1  0.78039000  0.45896000  0.86303000  1.0
  H  H6  1  0.19879000  0.57056000  0.12429000  1.0
  H  H7  1  0.50574000  0.23410000  0.68239000  1.0
  H  H8  1  0.77353000  0.76724000  0.67268000  1.0
  H  H9  1  0.37516000  0.88964000  0.40070000  1.0
  H  H10  1  0.24589000  0.12538000  0.41070000  1.0
  H  H11  1  0.54192000  0.45635000  0.20134000  1.0
  H  H12  1  0.52280000  0.42962000  0.05041000  1.0
  H  H13  1  0.07806000  0.10862000  0.80499000  1.0
  H  H14  1  0.17531000  0.23690000  0.82862000  1.0
  H  H15  1  0.18773000  0.11046000  0.93203000  1.0
  H  H16  1  0.32423000  0.88282000  0.92785000  1.0
  H  H17  1  0.45324000  0.75444000  0.81366000  1.0
  H  H18  1  0.21278000  0.87206000  0.80349000  1.0
  C  C19  1  0.85599000  0.27697000  0.51503000  1.0
  C  C20  1  0.86360000  0.50533000  0.26495000  1.0
  C  C21  1  0.14868000  0.73170000  0.49520000  1.0
  C  C22  1  0.14049000  0.50864000  0.72291000  1.0
  C  C23  1  0.92113000  0.51061000  0.12664000  1.0
  C  C24  1  0.06509000  0.51122000  0.86331000  1.0
  C  C25  1  0.79448000  0.48007000  0.05423000  1.0
  C  C26  1  0.18706000  0.54384000  0.93514000  1.0
  C  C27  1  0.87222000  0.48204000  0.92162000  1.0
  C  C28  1  0.11181000  0.54401000  0.06494000  1.0
  C  C29  1  0.92277000  0.13745000  0.52669000  1.0
  C  C30  1  0.77698000  0.07062000  0.59795000  1.0
  C  C31  1  0.13651000  0.07228000  0.46134000  1.0
  C  C32  1  0.56449000  0.13148000  0.67773000  1.0
  C  C33  1  0.43017000  0.06542000  0.75027000  1.0
  C  C34  1  0.06885000  0.87166000  0.51619000  1.0
  C  C35  1  0.20943000  0.94009000  0.45571000  1.0
  C  C36  1  0.85308000  0.93483000  0.59352000  1.0
  C  C37  1  0.71386000  0.86951000  0.67101000  1.0
  C  C38  1  0.50738000  0.93067000  0.74738000  1.0
  C  C39  1  0.20680000  0.13437000  0.83301000  1.0
  C  C40  1  0.36791000  0.85593000  0.82702000  1.0
  N  N41  1  0.60899000  0.44656000  0.10632000  1.0
  O  O42  1  0.00415000  0.33198000  0.50126000  1.0
  O  O43  1  0.67220000  0.49688000  0.32310000  1.0
  O  O44  1  0.34943000  0.67753000  0.48661000  1.0
  O  O45  1  0.00159000  0.50512000  0.66557000  1.0
  O  O46  1  0.01254000  0.67535000  0.48495000  1.0
  O  O47  1  0.33666000  0.51077000  0.67141000  1.0
  O  O48  1  0.65956000  0.33205000  0.51483000  1.0
  O  O49  1  0.00924000  0.50712000  0.31836000  1.0
  O  O50  1  0.31331000  0.44246000  0.44082000  1.0
  O  O51  1  0.70313000  0.56460000  0.54706000  1.0
