# generated using pymatgen
data_AlH12C21(SO5)3
_symmetry_space_group_name_H-M   'P 1'
_cell_length_a   4.32009000
_cell_length_b   24.47695000
_cell_length_c   24.47690000
_cell_angle_alpha   119.99979728
_cell_angle_beta   90.00000000
_cell_angle_gamma   89.99990000
_symmetry_Int_Tables_number   1
_chemical_formula_structural   AlH12C21(SO5)3
_chemical_formula_sum   'Al2 H24 C42 S6 O30'
_cell_volume   2241.49630669
_cell_formula_units_Z   2
loop_
 _symmetry_equiv_pos_site_id
 _symmetry_equiv_pos_as_xyz
  1  'x, y, z'
loop_
 _atom_site_type_symbol
 _atom_site_label
 _atom_site_symmetry_multiplicity
 _atom_site_fract_x
 _atom_site_fract_y
 _atom_site_fract_z
 _atom_site_occupancy
  Al  Al0  1  0.02334000  0.50000000  0.00000000  1.0
  Al  Al1  1  0.02349000  0.83333000  0.66666000  1.0
  H  H2  1  0.47288000  0.73665000  0.29297000  1.0
  H  H3  1  0.47294000  0.59667000  0.37370000  1.0
  H  H4  1  0.49809000  0.83030000  0.49899000  1.0
  H  H5  1  0.45434000  0.77847000  0.38402000  1.0
  H  H6  1  0.49797000  0.50302000  0.16767000  1.0
  H  H7  1  0.45423000  0.55484000  0.28264000  1.0
  H  H8  1  0.47287000  0.55632000  0.76335000  1.0
  H  H9  1  0.47294000  0.77703000  0.90333000  1.0
  H  H10  1  0.49809000  0.66869000  0.66971000  1.0
  H  H11  1  0.45434000  0.60555000  0.72153000  1.0
  H  H12  1  0.49798000  0.66465000  0.99698000  1.0
  H  H13  1  0.45423000  0.72780000  0.94517000  1.0
  H  H14  1  0.47288000  0.20703000  0.94368000  1.0
  H  H15  1  0.47293000  0.12631000  0.72298000  1.0
  H  H16  1  0.49809000  0.00102000  0.83132000  1.0
  H  H17  1  0.45435000  0.11598000  0.89445000  1.0
  H  H18  1  0.49797000  0.33233000  0.83535000  1.0
  H  H19  1  0.45423000  0.21737000  0.77221000  1.0
  H  H20  1  0.00003000  0.68161000  0.12376000  1.0
  H  H21  1  0.00025000  0.65169000  0.54290000  1.0
  H  H22  1  0.00003000  0.44215000  0.81840000  1.0
  H  H23  1  0.00024000  0.89121000  0.84831000  1.0
  H  H24  1  0.00004000  0.37625000  0.05786000  1.0
  H  H25  1  0.00024000  0.95710000  0.60879000  1.0
  C  C26  1  0.52113000  0.40579000  0.96050000  1.0
  C  C27  1  0.52113000  0.55471000  0.09421000  1.0
  C  C28  1  0.52113000  0.53950000  0.94529000  1.0
  C  C29  1  0.52123000  0.77862000  0.57246000  1.0
  C  C30  1  0.52123000  0.79384000  0.72138000  1.0
  C  C31  1  0.52123000  0.92754000  0.70615000  1.0
  C  C32  1  0.49670000  0.58944000  0.16469000  1.0
  C  C33  1  0.49683000  0.74389000  0.50198000  1.0
  C  C34  1  0.48657000  0.65543000  0.20157000  1.0
  C  C35  1  0.46481000  0.68536000  0.26705000  1.0
  C  C36  1  0.48667000  0.67789000  0.46510000  1.0
  C  C37  1  0.46486000  0.64796000  0.39962000  1.0
  C  C38  1  0.48449000  0.77897000  0.47111000  1.0
  C  C39  1  0.45986000  0.74905000  0.40578000  1.0
  C  C40  1  0.48439000  0.55435000  0.19555000  1.0
  C  C41  1  0.45977000  0.58426000  0.26088000  1.0
  C  C42  1  0.45122000  0.65050000  0.29835000  1.0
  C  C43  1  0.45126000  0.68282000  0.36832000  1.0
  C  C44  1  0.49670000  0.57525000  0.91056000  1.0
  C  C45  1  0.49683000  0.75809000  0.75612000  1.0
  C  C46  1  0.48656000  0.54614000  0.84457000  1.0
  C  C47  1  0.46481000  0.58169000  0.81464000  1.0
  C  C48  1  0.48667000  0.78721000  0.82212000  1.0
  C  C49  1  0.46486000  0.75166000  0.85205000  1.0
  C  C50  1  0.48449000  0.69214000  0.72103000  1.0
  C  C51  1  0.45986000  0.65673000  0.75095000  1.0
  C  C52  1  0.48439000  0.64120000  0.94565000  1.0
  C  C53  1  0.45977000  0.67662000  0.91574000  1.0
  C  C54  1  0.45122000  0.64785000  0.84950000  1.0
  C  C55  1  0.45126000  0.68550000  0.81719000  1.0
  C  C56  1  0.49671000  0.33531000  0.92475000  1.0
  C  C57  1  0.49683000  0.99803000  0.74192000  1.0
  C  C58  1  0.48657000  0.29843000  0.95386000  1.0
  C  C59  1  0.46482000  0.23295000  0.91831000  1.0
  C  C60  1  0.48667000  0.03491000  0.71280000  1.0
  C  C61  1  0.46485000  0.10038000  0.74834000  1.0
  C  C62  1  0.48449000  0.02889000  0.80786000  1.0
  C  C63  1  0.45986000  0.09422000  0.84327000  1.0
  C  C64  1  0.48439000  0.30445000  0.85880000  1.0
  C  C65  1  0.45977000  0.23912000  0.82338000  1.0
  C  C66  1  0.45122000  0.20165000  0.85215000  1.0
  C  C67  1  0.45125000  0.13169000  0.81451000  1.0
  S  S68  1  0.55695000  0.70606000  0.16972000  1.0
  S  S69  1  0.55718000  0.62726000  0.49694000  1.0
  S  S70  1  0.55694000  0.46366000  0.79394000  1.0
  S  S71  1  0.55717000  0.86968000  0.87275000  1.0
  S  S72  1  0.55697000  0.33028000  0.03634000  1.0
  S  S73  1  0.55716000  0.00307000  0.63033000  1.0
  O  O74  1  0.76188000  0.55008000  0.97886000  1.0
  O  O75  1  0.76188000  0.42878000  0.94992000  1.0
  O  O76  1  0.76188000  0.52114000  0.07122000  1.0
  O  O77  1  0.29319000  0.50376000  0.93920000  1.0
  O  O78  1  0.29319000  0.56080000  0.06456000  1.0
  O  O79  1  0.29319000  0.43544000  0.99624000  1.0
  O  O80  1  0.76198000  0.90455000  0.71674000  1.0
  O  O81  1  0.76197000  0.81219000  0.59545000  1.0
  O  O82  1  0.76198000  0.78326000  0.68781000  1.0
  O  O83  1  0.29329000  0.89789000  0.67042000  1.0
  O  O84  1  0.29329000  0.82958000  0.72747000  1.0
  O  O85  1  0.29329000  0.77253000  0.60211000  1.0
  O  O86  1  0.27899000  0.71548000  0.14163000  1.0
  O  O87  1  0.70491000  0.76194000  0.21791000  1.0
  O  O88  1  0.77144000  0.66504000  0.11295000  1.0
  O  O89  1  0.27923000  0.61782000  0.52502000  1.0
  O  O90  1  0.70519000  0.57138000  0.44874000  1.0
  O  O91  1  0.77168000  0.66829000  0.55370000  1.0
  O  O92  1  0.27898000  0.42615000  0.78452000  1.0
  O  O93  1  0.70490000  0.45597000  0.73806000  1.0
  O  O94  1  0.77143000  0.44791000  0.83496000  1.0
  O  O95  1  0.27922000  0.90720000  0.88218000  1.0
  O  O96  1  0.70518000  0.87736000  0.92862000  1.0
  O  O97  1  0.77167000  0.88541000  0.83171000  1.0
  O  O98  1  0.27900000  0.35837000  0.07385000  1.0
  O  O99  1  0.70493000  0.28209000  0.04403000  1.0
  O  O100  1  0.77145000  0.38705000  0.05209000  1.0
  O  O101  1  0.27922000  0.97498000  0.59280000  1.0
  O  O102  1  0.70518000  0.05126000  0.62264000  1.0
  O  O103  1  0.77167000  0.94630000  0.61459000  1.0
