# generated using pymatgen
data_GdH14C15O7
_symmetry_space_group_name_H-M   'P 1'
_cell_length_a   7.59812000
_cell_length_b   15.34230000
_cell_length_c   15.40460000
_cell_angle_alpha   62.69580000
_cell_angle_beta   87.01340000
_cell_angle_gamma   87.04200000
_symmetry_Int_Tables_number   1
_chemical_formula_structural   GdH14C15O7
_chemical_formula_sum   'Gd4 H56 C60 O28'
_cell_volume   1592.73420927
_cell_formula_units_Z   4
loop_
 _symmetry_equiv_pos_site_id
 _symmetry_equiv_pos_as_xyz
  1  'x, y, z'
loop_
 _atom_site_type_symbol
 _atom_site_label
 _atom_site_symmetry_multiplicity
 _atom_site_fract_x
 _atom_site_fract_y
 _atom_site_fract_z
 _atom_site_occupancy
  Gd  Gd0  1  0.46684000  0.14133000  0.21754000  1.0
  Gd  Gd1  1  0.03305000  0.78220000  0.85873000  1.0
  Gd  Gd2  1  0.53316000  0.85867000  0.78246000  1.0
  Gd  Gd3  1  0.96695000  0.21780000  0.14126000  1.0
  H  H4  1  0.49756000  0.39325000  0.21559000  1.0
  H  H5  1  0.00179000  0.78492000  0.60647000  1.0
  H  H6  1  0.50244000  0.60675000  0.78441000  1.0
  H  H7  1  0.99821000  0.21508000  0.39353000  1.0
  H  H8  1  0.57499000  0.32128000  0.33306000  1.0
  H  H9  1  0.92513000  0.66676000  0.67825000  1.0
  H  H10  1  0.42501000  0.67872000  0.66695000  1.0
  H  H11  1  0.07487000  0.33324000  0.32175000  1.0
  H  H12  1  0.92386000  0.68427000  0.25785000  1.0
  H  H13  1  0.57692000  0.74107000  0.31704000  1.0
  H  H14  1  0.07614000  0.31573000  0.74215000  1.0
  H  H15  1  0.42309000  0.25894000  0.68296000  1.0
  H  H16  1  0.90014000  0.52720000  0.41198000  1.0
  H  H17  1  0.59984000  0.58671000  0.47390000  1.0
  H  H18  1  0.09986000  0.47280000  0.58802000  1.0
  H  H19  1  0.40016000  0.41329000  0.52610000  1.0
  H  H20  1  0.74984000  0.38663000  0.41109000  1.0
  H  H21  1  0.74937000  0.58811000  0.61374000  1.0
  H  H22  1  0.25017000  0.61337000  0.58891000  1.0
  H  H23  1  0.25063000  0.41189000  0.38626000  1.0
  H  H24  1  0.15645000  0.02269000  0.33404000  1.0
  H  H25  1  0.34346000  0.66552000  0.97704000  1.0
  H  H26  1  0.84355000  0.97731000  0.66596000  1.0
  H  H27  1  0.65654000  0.33448000  0.02296000  1.0
  H  H28  1  0.32582000  0.94830000  0.36942000  1.0
  H  H29  1  0.17373000  0.63027000  0.05095000  1.0
  H  H30  1  0.67418000  0.05170000  0.63058000  1.0
  H  H31  1  0.82627000  0.36973000  0.94905000  1.0
  H  H32  1  0.80800000  0.69908000  0.10604000  1.0
  H  H33  1  0.69304000  0.89366000  0.30185000  1.0
  H  H34  1  0.19201000  0.30092000  0.89396000  1.0
  H  H35  1  0.30696000  0.10634000  0.69815000  1.0
  H  H36  1  0.70352000  0.49741000  0.06457000  1.0
  H  H37  1  0.79596000  0.93660000  0.50192000  1.0
  H  H38  1  0.29648000  0.50259000  0.93543000  1.0
  H  H39  1  0.20404000  0.06340000  0.49807000  1.0
  H  H40  1  0.49790000  0.54473000  0.08663000  1.0
  H  H41  1  0.00185000  0.91413000  0.45527000  1.0
  H  H42  1  0.50210000  0.45528000  0.91337000  1.0
  H  H43  1  0.99815000  0.08587000  0.54473000  1.0
  H  H44  1  0.63040000  0.06199000  0.98855000  1.0
  H  H45  1  0.87001000  0.01104000  0.93811000  1.0
  H  H46  1  0.36960000  0.93801000  0.01145000  1.0
  H  H47  1  0.12999000  0.98896000  0.06189000  1.0
  H  H48  1  0.51591000  0.16976000  0.97335000  1.0
  H  H49  1  0.98476000  0.02629000  0.83080000  1.0
  H  H50  1  0.48409000  0.83024000  0.02665000  1.0
  H  H51  1  0.01524000  0.97371000  0.16920000  1.0
  H  H52  1  0.57496000  0.32907000  0.83630000  1.0
  H  H53  1  0.92511000  0.16336000  0.67204000  1.0
  H  H54  1  0.42504000  0.67093000  0.16370000  1.0
  H  H55  1  0.07490000  0.83664000  0.32796000  1.0
  H  H56  1  0.66078000  0.42279000  0.66170000  1.0
  H  H57  1  0.83778000  0.33848000  0.57794000  1.0
  H  H58  1  0.33922000  0.57721000  0.33830000  1.0
  H  H59  1  0.16222000  0.66152000  0.42206000  1.0
  C  C60  1  0.74393000  0.32098000  0.21959000  1.0
  C  C61  1  0.75588000  0.78032000  0.67916000  1.0
  C  C62  1  0.25607000  0.67902000  0.78041000  1.0
  C  C63  1  0.24412000  0.21969000  0.32084000  1.0
  C  C64  1  0.69551000  0.46298000  0.25810000  1.0
  C  C65  1  0.80395000  0.74175000  0.53740000  1.0
  C  C66  1  0.30449000  0.53702000  0.74190000  1.0
  C  C67  1  0.19604000  0.25825000  0.46260000  1.0
  C  C68  1  0.61709000  0.37483000  0.25897000  1.0
  C  C69  1  0.88251000  0.74109000  0.62510000  1.0
  C  C70  1  0.38291000  0.62517000  0.74104000  1.0
  C  C71  1  0.11749000  0.25891000  0.37490000  1.0
  C  C72  1  0.86040000  0.62190000  0.25861000  1.0
  C  C73  1  0.64000000  0.74057000  0.37912000  1.0
  C  C74  1  0.13960000  0.37810000  0.74139000  1.0
  C  C75  1  0.36001000  0.25943000  0.62087000  1.0
  C  C76  1  0.84675000  0.53411000  0.34471000  1.0
  C  C77  1  0.65324000  0.65435000  0.46678000  1.0
  C  C78  1  0.15325000  0.46589000  0.65529000  1.0
  C  C79  1  0.34676000  0.34565000  0.53321000  1.0
  C  C80  1  0.76291000  0.45567000  0.34415000  1.0
  C  C81  1  0.73660000  0.65523000  0.54489000  1.0
  C  C82  1  0.23709000  0.54433000  0.65585000  1.0
  C  C83  1  0.26340000  0.34477000  0.45511000  1.0
  C  C84  1  0.71191000  0.55108000  0.17070000  1.0
  C  C85  1  0.78803000  0.82925000  0.44939000  1.0
  C  C86  1  0.28809000  0.44892000  0.82930000  1.0
  C  C87  1  0.21197000  0.17075000  0.55061000  1.0
  C  C88  1  0.79308000  0.63013000  0.17256000  1.0
  C  C89  1  0.70738000  0.82705000  0.37069000  1.0
  C  C90  1  0.20692000  0.36987000  0.82744000  1.0
  C  C91  1  0.29262000  0.17296000  0.62931000  1.0
  C  C92  1  0.64058000  0.55678000  0.07798000  1.0
  C  C93  1  0.85923000  0.92263000  0.44316000  1.0
  C  C94  1  0.35942000  0.44322000  0.92202000  1.0
  C  C95  1  0.14077000  0.07737000  0.55684000  1.0
  C  C96  1  0.67883000  0.65117000  0.98696000  1.0
  C  C97  1  0.82123000  0.01337000  0.34854000  1.0
  C  C98  1  0.32117000  0.34883000  0.01304000  1.0
  C  C99  1  0.17878000  0.98662000  0.65146000  1.0
  C  C100  1  0.77211000  0.15334000  0.02816000  1.0
  C  C101  1  0.72822000  0.97179000  0.84676000  1.0
  C  C102  1  0.22789000  0.84666000  0.97184000  1.0
  C  C103  1  0.27177000  0.02821000  0.15323000  1.0
  C  C104  1  0.64578000  0.14131000  0.96126000  1.0
  C  C105  1  0.85491000  0.03857000  0.85908000  1.0
  C  C106  1  0.35422000  0.85869000  0.03874000  1.0
  C  C107  1  0.14509000  0.96142000  0.14092000  1.0
  C  C108  1  0.70091000  0.19287000  0.85454000  1.0
  C  C109  1  0.79992000  0.14569000  0.80765000  1.0
  C  C110  1  0.29909000  0.80713000  0.14546000  1.0
  C  C111  1  0.20008000  0.85431000  0.19235000  1.0
  C  C112  1  0.65367000  0.29263000  0.80045000  1.0
  C  C113  1  0.84648000  0.19962000  0.70812000  1.0
  C  C114  1  0.34633000  0.70737000  0.19955000  1.0
  C  C115  1  0.15352000  0.80038000  0.29188000  1.0
  C  C116  1  0.70108000  0.34558000  0.70171000  1.0
  C  C117  1  0.79824000  0.29856000  0.65500000  1.0
  C  C118  1  0.29893000  0.65442000  0.29829000  1.0
  C  C119  1  0.20176000  0.70144000  0.34500000  1.0
  O  O120  1  0.69097000  0.24384000  0.21573000  1.0
  O  O121  1  0.80886000  0.78366000  0.75626000  1.0
  O  O122  1  0.30903000  0.75616000  0.78427000  1.0
  O  O123  1  0.19114000  0.21634000  0.24374000  1.0
  O  O124  1  0.83897000  0.67043000  0.96414000  1.0
  O  O125  1  0.66115000  0.03606000  0.32913000  1.0
  O  O126  1  0.16103000  0.32957000  0.03586000  1.0
  O  O127  1  0.33885000  0.96394000  0.67087000  1.0
  O  O128  1  0.89865000  0.34851000  0.19120000  1.0
  O  O129  1  0.60123000  0.80903000  0.65179000  1.0
  O  O130  1  0.10135000  0.65149000  0.80880000  1.0
  O  O131  1  0.39877000  0.19097000  0.34821000  1.0
  O  O132  1  0.92726000  0.18135000  0.00034000  1.0
  O  O133  1  0.57327000  0.99997000  0.81874000  1.0
  O  O134  1  0.07274000  0.81865000  0.99966000  1.0
  O  O135  1  0.42673000  0.00003000  0.18126000  1.0
  O  O136  1  0.71570000  0.13622000  0.11518000  1.0
  O  O137  1  0.78421000  0.88443000  0.86362000  1.0
  O  O138  1  0.28430000  0.86378000  0.88482000  1.0
  O  O139  1  0.21579000  0.11557000  0.13638000  1.0
  O  O140  1  0.54932000  0.70568000  0.93787000  1.0
  O  O141  1  0.95089000  0.06222000  0.29390000  1.0
  O  O142  1  0.45069000  0.29432000  0.06213000  1.0
  O  O143  1  0.04912000  0.93778000  0.70610000  1.0
  O  O144  1  0.28384000  0.01518000  0.35141000  1.0
  O  O145  1  0.21609000  0.64800000  0.98445000  1.0
  O  O146  1  0.71616000  0.98482000  0.64859000  1.0
  O  O147  1  0.78391000  0.35200000  0.01555000  1.0
