# generated using pymatgen
data_CoH56C54S2(N4O)2
_symmetry_space_group_name_H-M   'P 1'
_cell_length_a   17.85730000
_cell_length_b   18.93260000
_cell_length_c   19.52400000
_cell_angle_alpha   89.96910000
_cell_angle_beta   89.97680000
_cell_angle_gamma   89.98930000
_symmetry_Int_Tables_number   1
_chemical_formula_structural   CoH56C54S2(N4O)2
_chemical_formula_sum   'Co4 H224 C216 S8 N32 O8'
_cell_volume   6600.77222756
_cell_formula_units_Z   4
loop_
 _symmetry_equiv_pos_site_id
 _symmetry_equiv_pos_as_xyz
  1  'x, y, z'
loop_
 _atom_site_type_symbol
 _atom_site_label
 _atom_site_symmetry_multiplicity
 _atom_site_fract_x
 _atom_site_fract_y
 _atom_site_fract_z
 _atom_site_occupancy
  Co  Co0  1  0.17948000  0.76470000  0.49958000  1.0
  Co  Co1  1  0.32093000  0.26436000  0.99996000  1.0
  Co  Co2  1  0.67913000  0.76442000  0.00011000  1.0
  Co  Co3  1  0.82091000  0.26444000  0.50000000  1.0
  H  H4  1  0.10599000  0.91482000  0.47977000  1.0
  H  H5  1  0.39166000  0.41565000  0.97835000  1.0
  H  H6  1  0.60804000  0.91558000  0.02177000  1.0
  H  H7  1  0.89169000  0.41569000  0.52165000  1.0
  H  H8  1  0.00915000  0.96914000  0.40535000  1.0
  H  H9  1  0.48943000  0.46968000  0.90469000  1.0
  H  H10  1  0.51024000  0.96950000  0.09545000  1.0
  H  H11  1  0.98942000  0.46965000  0.59530000  1.0
  H  H12  1  0.95665000  0.89778000  0.30678000  1.0
  H  H13  1  0.54312000  0.39791000  0.80684000  1.0
  H  H14  1  0.45668000  0.89768000  0.19334000  1.0
  H  H15  1  0.04306000  0.39779000  0.69312000  1.0
  H  H16  1  0.10893000  0.73156000  0.36562000  1.0
  H  H17  1  0.38994000  0.23208000  0.86467000  1.0
  H  H18  1  0.61000000  0.73194000  0.13552000  1.0
  H  H19  1  0.88994000  0.23199000  0.63530000  1.0
  H  H20  1  0.04157000  0.66521000  0.30805000  1.0
  H  H21  1  0.45825000  0.16556000  0.80796000  1.0
  H  H22  1  0.54155000  0.66529000  0.19205000  1.0
  H  H23  1  0.95819000  0.16541000  0.69206000  1.0
  H  H24  1  0.91200000  0.66073000  0.12280000  1.0
  H  H25  1  0.58828000  0.16094000  0.62289000  1.0
  H  H26  1  0.41260000  0.66038000  0.37774000  1.0
  H  H27  1  0.08816000  0.16058000  0.87708000  1.0
  H  H28  1  0.95093000  0.89996000  0.13651000  1.0
  H  H29  1  0.54915000  0.40025000  0.63646000  1.0
  H  H30  1  0.45060000  0.89998000  0.36314000  1.0
  H  H31  1  0.04898000  0.39989000  0.86348000  1.0
  H  H32  1  0.87220000  0.97005000  0.05266000  1.0
  H  H33  1  0.62796000  0.47027000  0.55257000  1.0
  H  H34  1  0.37238000  0.96991000  0.44752000  1.0
  H  H35  1  0.12770000  0.46992000  0.94729000  1.0
  H  H36  1  0.76388000  0.91058000  0.99632000  1.0
  H  H37  1  0.73624000  0.41069000  0.49616000  1.0
  H  H38  1  0.26492000  0.91017000  0.50494000  1.0
  H  H39  1  0.23607000  0.41042000  0.00363000  1.0
  H  H40  1  0.80737000  0.72232000  0.09585000  1.0
  H  H41  1  0.69261000  0.22248000  0.59572000  1.0
  H  H42  1  0.30894000  0.72149000  0.40645000  1.0
  H  H43  1  0.19259000  0.22221000  0.90422000  1.0
  H  H44  1  0.87911000  0.54687000  0.20692000  1.0
  H  H45  1  0.62114000  0.04725000  0.70707000  1.0
  H  H46  1  0.37922000  0.54679000  0.29297000  1.0
  H  H47  1  0.12093000  0.04684000  0.79258000  1.0
  H  H48  1  0.20255000  0.55095000  0.27239000  1.0
  H  H49  1  0.29759000  0.05135000  0.77279000  1.0
  H  H50  1  0.70274000  0.55110000  0.22747000  1.0
  H  H51  1  0.79746000  0.05118000  0.72744000  1.0
  H  H52  1  0.22139000  0.55032000  0.18186000  1.0
  H  H53  1  0.27890000  0.05044000  0.68227000  1.0
  H  H54  1  0.72151000  0.55019000  0.31798000  1.0
  H  H55  1  0.77860000  0.05026000  0.81795000  1.0
  H  H56  1  0.22154000  0.68020000  0.27559000  1.0
  H  H57  1  0.27833000  0.18056000  0.77567000  1.0
  H  H58  1  0.72168000  0.68032000  0.22444000  1.0
  H  H59  1  0.77842000  0.18041000  0.72444000  1.0
  H  H60  1  0.30279000  0.63502000  0.24922000  1.0
  H  H61  1  0.19726000  0.13520000  0.74935000  1.0
  H  H62  1  0.80289000  0.63514000  0.25083000  1.0
  H  H63  1  0.69722000  0.13517000  0.75078000  1.0
  H  H64  1  0.19203000  0.70290000  0.14858000  1.0
  H  H65  1  0.30805000  0.20287000  0.64855000  1.0
  H  H66  1  0.69190000  0.70273000  0.35147000  1.0
  H  H67  1  0.80800000  0.20276000  0.85150000  1.0
  H  H68  1  0.27890000  0.66381000  0.12782000  1.0
  H  H69  1  0.22119000  0.16375000  0.62791000  1.0
  H  H70  1  0.77876000  0.66365000  0.37225000  1.0
  H  H71  1  0.72113000  0.16365000  0.87222000  1.0
  H  H72  1  0.34472000  0.75800000  0.19773000  1.0
  H  H73  1  0.15535000  0.25817000  0.69761000  1.0
  H  H74  1  0.84462000  0.75803000  0.30246000  1.0
  H  H75  1  0.65532000  0.25804000  0.80242000  1.0
  H  H76  1  0.29477000  0.79123000  0.12694000  1.0
  H  H77  1  0.20533000  0.29120000  0.62673000  1.0
  H  H78  1  0.79459000  0.79106000  0.37329000  1.0
  H  H79  1  0.70523000  0.29108000  0.87327000  1.0
  H  H80  1  0.24146000  0.79456000  0.27665000  1.0
  H  H81  1  0.25873000  0.29478000  0.77635000  1.0
  H  H82  1  0.74130000  0.79470000  0.22363000  1.0
  H  H83  1  0.75869000  0.29472000  0.72361000  1.0
  H  H84  1  0.18611000  0.81950000  0.20602000  1.0
  H  H85  1  0.31392000  0.31973000  0.70560000  1.0
  H  H86  1  0.68603000  0.81960000  0.29434000  1.0
  H  H87  1  0.81390000  0.31958000  0.79432000  1.0
  H  H88  1  0.33684000  0.88581000  0.24629000  1.0
  H  H89  1  0.16310000  0.38585000  0.74608000  1.0
  H  H90  1  0.83683000  0.88579000  0.25393000  1.0
  H  H91  1  0.66313000  0.38583000  0.75393000  1.0
  H  H92  1  0.28184000  0.91258000  0.17574000  1.0
  H  H93  1  0.21805000  0.41273000  0.67551000  1.0
  H  H94  1  0.78183000  0.91257000  0.32449000  1.0
  H  H95  1  0.71807000  0.41258000  0.82449000  1.0
  H  H96  1  0.26668000  0.99131000  0.27808000  1.0
  H  H97  1  0.23299000  0.49140000  0.77797000  1.0
  H  H98  1  0.76683000  0.99136000  0.22205000  1.0
  H  H99  1  0.73312000  0.49137000  0.72204000  1.0
  H  H100  1  0.23380000  0.91962000  0.32685000  1.0
  H  H101  1  0.26620000  0.41971000  0.82655000  1.0
  H  H102  1  0.73380000  0.91971000  0.17341000  1.0
  H  H103  1  0.76624000  0.41972000  0.67341000  1.0
  H  H104  1  0.12812000  0.99611000  0.28259000  1.0
  H  H105  1  0.37159000  0.49647000  0.78221000  1.0
  H  H106  1  0.62826000  0.99633000  0.21767000  1.0
  H  H107  1  0.87170000  0.49634000  0.71769000  1.0
  H  H108  1  0.15477000  0.97572000  0.19712000  1.0
  H  H109  1  0.34483000  0.47624000  0.69676000  1.0
  H  H110  1  0.65492000  0.97597000  0.30314000  1.0
  H  H111  1  0.84496000  0.47599000  0.80315000  1.0
  H  H112  1  0.12040000  0.90882000  0.25183000  1.0
  H  H113  1  0.37946000  0.40927000  0.75124000  1.0
  H  H114  1  0.62045000  0.90908000  0.24858000  1.0
  H  H115  1  0.87951000  0.40909000  0.74861000  1.0
  H  H116  1  0.93868000  0.14404000  0.53819000  1.0
  H  H117  1  0.56123000  0.64403000  0.03821000  1.0
  H  H118  1  0.43881000  0.14415000  0.96186000  1.0
  H  H119  1  0.06047000  0.64446000  0.46101000  1.0
  H  H120  1  0.05721000  0.09426000  0.48873000  1.0
  H  H121  1  0.44268000  0.59439000  0.98873000  1.0
  H  H122  1  0.55737000  0.09438000  0.01128000  1.0
  H  H123  1  0.94223000  0.59434000  0.51076000  1.0
  H  H124  1  0.10604000  0.14525000  0.37726000  1.0
  H  H125  1  0.39398000  0.64548000  0.87730000  1.0
  H  H126  1  0.60610000  0.14525000  0.12273000  1.0
  H  H127  1  0.89339000  0.64517000  0.62223000  1.0
  H  H128  1  0.91182000  0.28047000  0.37565000  1.0
  H  H129  1  0.58831000  0.78050000  0.87573000  1.0
  H  H130  1  0.41183000  0.28043000  0.12438000  1.0
  H  H131  1  0.08674000  0.78137000  0.62307000  1.0
  H  H132  1  0.98120000  0.35205000  0.32615000  1.0
  H  H133  1  0.51879000  0.85231000  0.82667000  1.0
  H  H134  1  0.48126000  0.35200000  0.17378000  1.0
  H  H135  1  0.01806000  0.85235000  0.67303000  1.0
  H  H136  1  0.14172000  0.46118000  0.21743000  1.0
  H  H137  1  0.35856000  0.96150000  0.71787000  1.0
  H  H138  1  0.64183000  0.46106000  0.28247000  1.0
  H  H139  1  0.85832000  0.96122000  0.78241000  1.0
  H  H140  1  0.80894000  0.46957000  0.24993000  1.0
  H  H141  1  0.69146000  0.96972000  0.75009000  1.0
  H  H142  1  0.30903000  0.46960000  0.24997000  1.0
  H  H143  1  0.19124000  0.96961000  0.74958000  1.0
  H  H144  1  0.81131000  0.44488000  0.16143000  1.0
  H  H145  1  0.68887000  0.94503000  0.66159000  1.0
  H  H146  1  0.31153000  0.44487000  0.33850000  1.0
  H  H147  1  0.18853000  0.94498000  0.83811000  1.0
  H  H148  1  0.71115000  0.38615000  0.22489000  1.0
  H  H149  1  0.78903000  0.88604000  0.72489000  1.0
  H  H150  1  0.21120000  0.38627000  0.27523000  1.0
  H  H151  1  0.28897000  0.88623000  0.77507000  1.0
  H  H152  1  0.77477000  0.34964000  0.28433000  1.0
  H  H153  1  0.72535000  0.84963000  0.78437000  1.0
  H  H154  1  0.27472000  0.34973000  0.21572000  1.0
  H  H155  1  0.22562000  0.84970000  0.71545000  1.0
  H  H156  1  0.72235000  0.27042000  0.18462000  1.0
  H  H157  1  0.77755000  0.77044000  0.68447000  1.0
  H  H158  1  0.22234000  0.27047000  0.31549000  1.0
  H  H159  1  0.27765000  0.77044000  0.81532000  1.0
  H  H160  1  0.78468000  0.31639000  0.13070000  1.0
  H  H161  1  0.71522000  0.81658000  0.63072000  1.0
  H  H162  1  0.28468000  0.31639000  0.36935000  1.0
  H  H163  1  0.21521000  0.81642000  0.86910000  1.0
  H  H164  1  0.82949000  0.23467000  0.26001000  1.0
  H  H165  1  0.67039000  0.73480000  0.76001000  1.0
  H  H166  1  0.32949000  0.23474000  0.24005000  1.0
  H  H167  1  0.17062000  0.73483000  0.73973000  1.0
  H  H168  1  0.89267000  0.27541000  0.20308000  1.0
  H  H169  1  0.60723000  0.77558000  0.70310000  1.0
  H  H170  1  0.39267000  0.27543000  0.29693000  1.0
  H  H171  1  0.10735000  0.77553000  0.79659000  1.0
  H  H172  1  0.78645000  0.15314000  0.16764000  1.0
  H  H173  1  0.71352000  0.65331000  0.66760000  1.0
  H  H174  1  0.28641000  0.15317000  0.33249000  1.0
  H  H175  1  0.21351000  0.65318000  0.83215000  1.0
  H  H176  1  0.84429000  0.19667000  0.10767000  1.0
  H  H177  1  0.65567000  0.69683000  0.60767000  1.0
  H  H178  1  0.34428000  0.19663000  0.39239000  1.0
  H  H179  1  0.15566000  0.69670000  0.89208000  1.0
  H  H180  1  0.95851000  0.15985000  0.17391000  1.0
  H  H181  1  0.54146000  0.65993000  0.67395000  1.0
  H  H182  1  0.45848000  0.15983000  0.32606000  1.0
  H  H183  1  0.04145000  0.65996000  0.82595000  1.0
  H  H184  1  0.90607000  0.08760000  0.14308000  1.0
  H  H185  1  0.59399000  0.58772000  0.64308000  1.0
  H  H186  1  0.40602000  0.08757000  0.35697000  1.0
  H  H187  1  0.09397000  0.58763000  0.85662000  1.0
  H  H188  1  0.90051000  0.14457000  0.29014000  1.0
  H  H189  1  0.59944000  0.64466000  0.79015000  1.0
  H  H190  1  0.40042000  0.14464000  0.20988000  1.0
  H  H191  1  0.09905000  0.64494000  0.70961000  1.0
  H  H192  1  0.84603000  0.07437000  0.25898000  1.0
  H  H193  1  0.65401000  0.57451000  0.75895000  1.0
  H  H194  1  0.34594000  0.07444000  0.24113000  1.0
  H  H195  1  0.15392000  0.57485000  0.74057000  1.0
  H  H196  1  0.95928000  0.02988000  0.32102000  1.0
  H  H197  1  0.54080000  0.52994000  0.82103000  1.0
  H  H198  1  0.45913000  0.02994000  0.17901000  1.0
  H  H199  1  0.04069000  0.53004000  0.67884000  1.0
  H  H200  1  0.01852000  0.07751000  0.26464000  1.0
  H  H201  1  0.48152000  0.57751000  0.76465000  1.0
  H  H202  1  0.51842000  0.07752000  0.23530000  1.0
  H  H203  1  0.98140000  0.57745000  0.73533000  1.0
  H  H204  1  0.96474000  0.00546000  0.23330000  1.0
  H  H205  1  0.53541000  0.50551000  0.73331000  1.0
  H  H206  1  0.46463000  0.00548000  0.26674000  1.0
  H  H207  1  0.03554000  0.50555000  0.76659000  1.0
  H  H208  1  0.31000000  0.10978000  0.05482000  1.0
  H  H209  1  0.19178000  0.61033000  0.55368000  1.0
  H  H210  1  0.81006000  0.10984000  0.44525000  1.0
  H  H211  1  0.69014000  0.60993000  0.94525000  1.0
  H  H212  1  0.23845000  0.04328000  0.14397000  1.0
  H  H213  1  0.26172000  0.54412000  0.64394000  1.0
  H  H214  1  0.73861000  0.04329000  0.35620000  1.0
  H  H215  1  0.76154000  0.54342000  0.85609000  1.0
  H  H216  1  0.14416000  0.10935000  0.21620000  1.0
  H  H217  1  0.35548000  0.61022000  0.71666000  1.0
  H  H218  1  0.64430000  0.10926000  0.28393000  1.0
  H  H219  1  0.85575000  0.60942000  0.78370000  1.0
  H  H220  1  0.20632000  0.29713000  0.10486000  1.0
  H  H221  1  0.29588000  0.79750000  0.60335000  1.0
  H  H222  1  0.70630000  0.29711000  0.39499000  1.0
  H  H223  1  0.79382000  0.79723000  0.89494000  1.0
  H  H224  1  0.11257000  0.34314000  0.14276000  1.0
  H  H225  1  0.38820000  0.84384000  0.64294000  1.0
  H  H226  1  0.61261000  0.34305000  0.35709000  1.0
  H  H227  1  0.88791000  0.84296000  0.85711000  1.0
  C  C228  1  0.08326000  0.88585000  0.43644000  1.0
  C  C229  1  0.41489000  0.38654000  0.93531000  1.0
  C  C230  1  0.58485000  0.88643000  0.06483000  1.0
  C  C231  1  0.91491000  0.38653000  0.56468000  1.0
  C  C232  1  0.02865000  0.91574000  0.39468000  1.0
  C  C233  1  0.47001000  0.41628000  0.89398000  1.0
  C  C234  1  0.52972000  0.91611000  0.10618000  1.0
  C  C235  1  0.96999000  0.41624000  0.60601000  1.0
  C  C236  1  0.99983000  0.87682000  0.34045000  1.0
  C  C237  1  0.49943000  0.37718000  0.84013000  1.0
  C  C238  1  0.50035000  0.87694000  0.16006000  1.0
  C  C239  1  0.99940000  0.37706000  0.65985000  1.0
  C  C240  1  0.02792000  0.80882000  0.32835000  1.0
  C  C241  1  0.47131000  0.30923000  0.82787000  1.0
  C  C242  1  0.52853000  0.80899000  0.17232000  1.0
  C  C243  1  0.97129000  0.30909000  0.67211000  1.0
  C  C244  1  0.08342000  0.78337000  0.37250000  1.0
  C  C245  1  0.41535000  0.28391000  0.87163000  1.0
  C  C246  1  0.58452000  0.78376000  0.12855000  1.0
  C  C247  1  0.91536000  0.28383000  0.62835000  1.0
  C  C248  1  0.99920000  0.76556000  0.27104000  1.0
  C  C249  1  0.50048000  0.26592000  0.77080000  1.0
  C  C250  1  0.49947000  0.76558000  0.22944000  1.0
  C  C251  1  0.00043000  0.26571000  0.72918000  1.0
  C  C252  1  0.01017000  0.69255000  0.26834000  1.0
  C  C253  1  0.48971000  0.19289000  0.76826000  1.0
  C  C254  1  0.51028000  0.69254000  0.23190000  1.0
  C  C255  1  0.98963000  0.19268000  0.73175000  1.0
  C  C256  1  0.97991000  0.65341000  0.21413000  1.0
  C  C257  1  0.52021000  0.15371000  0.71417000  1.0
  C  C258  1  0.48007000  0.65328000  0.28611000  1.0
  C  C259  1  0.02009000  0.15343000  0.78583000  1.0
  C  C260  1  0.93690000  0.68943000  0.16551000  1.0
  C  C261  1  0.56326000  0.18969000  0.66553000  1.0
  C  C262  1  0.43728000  0.68918000  0.33495000  1.0
  C  C263  1  0.06314000  0.18935000  0.83445000  1.0
  C  C264  1  0.92915000  0.76303000  0.17148000  1.0
  C  C265  1  0.57088000  0.26331000  0.67140000  1.0
  C  C266  1  0.42955000  0.76280000  0.32914000  1.0
  C  C267  1  0.07079000  0.26299000  0.82856000  1.0
  C  C268  1  0.88601000  0.80532000  0.12147000  1.0
  C  C269  1  0.61405000  0.30556000  0.62139000  1.0
  C  C270  1  0.38661000  0.80497000  0.37939000  1.0
  C  C271  1  0.11394000  0.30523000  0.87855000  1.0
  C  C272  1  0.90373000  0.87641000  0.10955000  1.0
  C  C273  1  0.59636000  0.37667000  0.60947000  1.0
  C  C274  1  0.40390000  0.87624000  0.39074000  1.0
  C  C275  1  0.09620000  0.37632000  0.89045000  1.0
  C  C276  1  0.86012000  0.91479000  0.06380000  1.0
  C  C277  1  0.64000000  0.41500000  0.56370000  1.0
  C  C278  1  0.36055000  0.91456000  0.43673000  1.0
  C  C279  1  0.13980000  0.41468000  0.93617000  1.0
  C  C280  1  0.79956000  0.88194000  0.03197000  1.0
  C  C281  1  0.70053000  0.38209000  0.53183000  1.0
  C  C282  1  0.30051000  0.88150000  0.46923000  1.0
  C  C283  1  0.20038000  0.38181000  0.96800000  1.0
  C  C284  1  0.82451000  0.77670000  0.08696000  1.0
  C  C285  1  0.67552000  0.27688000  0.58684000  1.0
  C  C286  1  0.32574000  0.77607000  0.41469000  1.0
  C  C287  1  0.17545000  0.27660000  0.91307000  1.0
  C  C288  1  0.06985000  0.55281000  0.21292000  1.0
  C  C289  1  0.43036000  0.05316000  0.71321000  1.0
  C  C290  1  0.56997000  0.55269000  0.28708000  1.0
  C  C291  1  0.93019000  0.05283000  0.78694000  1.0
  C  C292  1  0.99492000  0.57666000  0.21091000  1.0
  C  C293  1  0.50529000  0.07698000  0.71110000  1.0
  C  C294  1  0.49504000  0.57653000  0.28916000  1.0
  C  C295  1  0.00512000  0.07666000  0.78891000  1.0
  C  C296  1  0.93639000  0.52750000  0.21009000  1.0
  C  C297  1  0.56388000  0.02785000  0.71032000  1.0
  C  C298  1  0.43649000  0.52740000  0.28990000  1.0
  C  C299  1  0.06365000  0.02748000  0.78950000  1.0
  C  C300  1  0.20047000  0.58259000  0.22497000  1.0
  C  C301  1  0.29970000  0.08285000  0.72529000  1.0
  C  C302  1  0.70059000  0.58258000  0.27495000  1.0
  C  C303  1  0.79954000  0.08266000  0.77492000  1.0
  C  C304  1  0.24580000  0.64977000  0.23298000  1.0
  C  C305  1  0.25423000  0.14999000  0.73311000  1.0
  C  C306  1  0.74587000  0.64982000  0.26704000  1.0
  C  C307  1  0.75420000  0.14987000  0.76702000  1.0
  C  C308  1  0.24938000  0.69428000  0.16767000  1.0
  C  C309  1  0.25069000  0.19433000  0.66768000  1.0
  C  C310  1  0.74929000  0.69419000  0.33241000  1.0
  C  C311  1  0.75065000  0.19421000  0.83241000  1.0
  C  C312  1  0.28774000  0.76589000  0.17742000  1.0
  C  C313  1  0.21233000  0.26599000  0.67726000  1.0
  C  C314  1  0.78762000  0.76585000  0.32278000  1.0
  C  C315  1  0.71229000  0.26586000  0.82276000  1.0
  C  C316  1  0.24447000  0.81628000  0.22428000  1.0
  C  C317  1  0.25559000  0.31647000  0.72399000  1.0
  C  C318  1  0.74437000  0.81635000  0.27599000  1.0
  C  C319  1  0.75557000  0.31636000  0.77598000  1.0
  C  C320  1  0.27861000  0.89026000  0.22801000  1.0
  C  C321  1  0.22132000  0.39039000  0.72776000  1.0
  C  C322  1  0.77860000  0.89030000  0.27223000  1.0
  C  C323  1  0.72134000  0.39031000  0.77223000  1.0
  C  C324  1  0.23540000  0.94127000  0.27442000  1.0
  C  C325  1  0.26443000  0.44143000  0.77415000  1.0
  C  C326  1  0.73547000  0.94137000  0.22581000  1.0
  C  C327  1  0.76450000  0.44138000  0.72581000  1.0
  C  C328  1  0.15555000  0.95630000  0.25026000  1.0
  C  C329  1  0.34419000  0.45670000  0.74985000  1.0
  C  C330  1  0.65566000  0.95652000  0.25004000  1.0
  C  C331  1  0.84428000  0.45653000  0.75005000  1.0
  C  C332  1  0.96152000  0.16353000  0.48996000  1.0
  C  C333  1  0.53844000  0.66356000  0.98999000  1.0
  C  C334  1  0.46163000  0.16360000  0.01008000  1.0
  C  C335  1  0.03757000  0.66404000  0.50917000  1.0
  C  C336  1  0.02726000  0.13617000  0.46185000  1.0
  C  C337  1  0.47270000  0.63628000  0.96187000  1.0
  C  C338  1  0.52737000  0.13623000  0.03817000  1.0
  C  C339  1  0.97201000  0.63643000  0.53747000  1.0
  C  C340  1  0.05424000  0.16405000  0.40052000  1.0
  C  C341  1  0.44578000  0.66422000  0.90056000  1.0
  C  C342  1  0.55431000  0.16406000  0.09948000  1.0
  C  C343  1  0.94500000  0.66425000  0.59881000  1.0
  C  C344  1  0.01392000  0.21838000  0.36856000  1.0
  C  C345  1  0.48615000  0.71853000  0.86864000  1.0
  C  C346  1  0.51396000  0.21834000  0.13146000  1.0
  C  C347  1  0.98509000  0.71880000  0.63057000  1.0
  C  C348  1  0.94720000  0.24048000  0.39934000  1.0
  C  C349  1  0.55288000  0.74055000  0.89942000  1.0
  C  C350  1  0.44724000  0.24047000  0.10069000  1.0
  C  C351  1  0.05156000  0.74119000  0.59953000  1.0
  C  C352  1  0.03980000  0.25365000  0.30533000  1.0
  C  C353  1  0.46037000  0.75394000  0.80546000  1.0
  C  C354  1  0.53983000  0.25358000  0.19466000  1.0
  C  C355  1  0.95948000  0.75395000  0.69393000  1.0
  C  C356  1  0.01712000  0.32292000  0.29108000  1.0
  C  C357  1  0.48302000  0.82326000  0.79146000  1.0
  C  C358  1  0.51719000  0.32286000  0.20885000  1.0
  C  C359  1  0.98232000  0.82315000  0.70822000  1.0
  C  C360  1  0.04388000  0.35658000  0.23226000  1.0
  C  C361  1  0.45646000  0.85701000  0.73263000  1.0
  C  C362  1  0.54395000  0.35650000  0.26763000  1.0
  C  C363  1  0.95603000  0.85664000  0.76727000  1.0
  C  C364  1  0.02567000  0.43153000  0.21966000  1.0
  C  C365  1  0.47462000  0.93195000  0.72013000  1.0
  C  C366  1  0.52576000  0.43144000  0.28021000  1.0
  C  C367  1  0.97436000  0.93154000  0.77991000  1.0
  C  C368  1  0.08433000  0.48041000  0.21548000  1.0
  C  C369  1  0.41593000  0.98078000  0.71591000  1.0
  C  C370  1  0.58443000  0.48029000  0.28443000  1.0
  C  C371  1  0.91572000  0.98043000  0.78428000  1.0
  C  C372  1  0.95085000  0.45512000  0.21669000  1.0
  C  C373  1  0.54943000  0.95549000  0.71707000  1.0
  C  C374  1  0.45094000  0.45503000  0.28318000  1.0
  C  C375  1  0.04919000  0.95511000  0.78279000  1.0
  C  C376  1  0.82011000  0.42585000  0.21418000  1.0
  C  C377  1  0.68014000  0.92603000  0.71436000  1.0
  C  C378  1  0.32021000  0.42587000  0.28574000  1.0
  C  C379  1  0.17995000  0.92591000  0.78537000  1.0
  C  C380  1  0.76818000  0.36467000  0.23012000  1.0
  C  C381  1  0.73195000  0.86471000  0.73016000  1.0
  C  C382  1  0.26820000  0.36474000  0.26993000  1.0
  C  C383  1  0.23198000  0.86473000  0.76967000  1.0
  C  C384  1  0.77585000  0.29942000  0.18420000  1.0
  C  C385  1  0.72409000  0.79953000  0.68418000  1.0
  C  C386  1  0.27585000  0.29946000  0.31587000  1.0
  C  C387  1  0.22415000  0.79948000  0.81562000  1.0
  C  C388  1  0.83810000  0.24860000  0.20571000  1.0
  C  C389  1  0.66181000  0.74875000  0.70572000  1.0
  C  C390  1  0.33809000  0.24863000  0.29433000  1.0
  C  C391  1  0.16194000  0.74870000  0.79402000  1.0
  C  C392  1  0.84017000  0.18158000  0.16212000  1.0
  C  C393  1  0.65978000  0.68174000  0.66212000  1.0
  C  C394  1  0.34014000  0.18159000  0.33795000  1.0
  C  C395  1  0.15980000  0.68166000  0.83763000  1.0
  C  C396  1  0.90477000  0.13170000  0.18003000  1.0
  C  C397  1  0.59522000  0.63182000  0.68004000  1.0
  C  C398  1  0.40472000  0.13170000  0.32000000  1.0
  C  C399  1  0.09519000  0.63183000  0.81972000  1.0
  C  C400  1  0.90028000  0.10136000  0.25246000  1.0
  C  C401  1  0.59973000  0.60146000  0.75246000  1.0
  C  C402  1  0.40019000  0.10141000  0.24759000  1.0
  C  C403  1  0.09958000  0.60166000  0.74725000  1.0
  C  C404  1  0.96408000  0.05067000  0.26871000  1.0
  C  C405  1  0.53598000  0.55072000  0.76871000  1.0
  C  C406  1  0.46398000  0.05071000  0.23131000  1.0
  C  C407  1  0.03593000  0.55078000  0.73116000  1.0
  C  C408  1  0.26908000  0.13620000  0.08723000  1.0
  C  C409  1  0.23257000  0.63678000  0.58617000  1.0
  C  C410  1  0.76913000  0.13624000  0.41283000  1.0
  C  C411  1  0.73103000  0.63634000  0.91280000  1.0
  C  C412  1  0.22875000  0.09960000  0.13690000  1.0
  C  C413  1  0.27194000  0.60031000  0.63654000  1.0
  C  C414  1  0.72886000  0.09960000  0.36320000  1.0
  C  C415  1  0.77127000  0.59972000  0.86311000  1.0
  C  C416  1  0.17680000  0.13578000  0.17666000  1.0
  C  C417  1  0.32359000  0.63650000  0.67655000  1.0
  C  C418  1  0.67689000  0.13573000  0.32342000  1.0
  C  C419  1  0.82318000  0.63587000  0.82325000  1.0
  C  C420  1  0.16628000  0.20836000  0.16575000  1.0
  C  C421  1  0.33466000  0.70895000  0.66528000  1.0
  C  C422  1  0.66633000  0.20831000  0.33423000  1.0
  C  C423  1  0.83373000  0.70845000  0.83406000  1.0
  C  C424  1  0.20964000  0.24064000  0.11491000  1.0
  C  C425  1  0.29223000  0.74111000  0.61371000  1.0
  C  C426  1  0.70965000  0.24062000  0.38502000  1.0
  C  C427  1  0.79046000  0.74074000  0.88495000  1.0
  C  C428  1  0.11295000  0.24959000  0.20774000  1.0
  C  C429  1  0.38763000  0.75009000  0.70764000  1.0
  C  C430  1  0.61299000  0.24950000  0.29221000  1.0
  C  C431  1  0.88694000  0.74968000  0.79190000  1.0
  C  C432  1  0.09197000  0.31856000  0.18956000  1.0
  C  C433  1  0.40860000  0.81910000  0.68970000  1.0
  C  C434  1  0.59203000  0.31847000  0.31034000  1.0
  C  C435  1  0.90818000  0.81853000  0.81015000  1.0
  C  C436  1  0.16171000  0.90499000  0.58564000  1.0
  C  C437  1  0.33903000  0.40528000  0.08562000  1.0
  C  C438  1  0.66095000  0.90542000  0.91452000  1.0
  C  C439  1  0.83910000  0.40538000  0.41430000  1.0
  C  C440  1  0.21962000  0.62566000  0.42517000  1.0
  C  C441  1  0.27887000  0.12598000  0.92591000  1.0
  C  C442  1  0.72102000  0.62592000  0.07421000  1.0
  C  C443  1  0.77891000  0.12600000  0.57415000  1.0
  S  S444  1  0.14834000  0.98631000  0.60687000  1.0
  S  S445  1  0.35461000  0.48595000  0.10778000  1.0
  S  S446  1  0.64546000  0.98614000  0.89236000  1.0
  S  S447  1  0.85461000  0.48608000  0.39215000  1.0
  S  S448  1  0.26068000  0.55128000  0.41270000  1.0
  S  S449  1  0.23494000  0.05313000  0.91309000  1.0
  S  S450  1  0.76459000  0.55287000  0.08710000  1.0
  S  S451  1  0.73526000  0.05299000  0.58703000  1.0
  N  N452  1  0.10984000  0.82008000  0.42619000  1.0
  N  N453  1  0.38842000  0.32074000  0.92505000  1.0
  N  N454  1  0.61141000  0.82065000  0.07511000  1.0
  N  N455  1  0.88844000  0.32072000  0.57494000  1.0
  N  N456  1  0.96049000  0.80032000  0.22243000  1.0
  N  N457  1  0.53931000  0.30064000  0.72224000  1.0
  N  N458  1  0.46079000  0.80021000  0.27815000  1.0
  N  N459  1  0.03925000  0.30037000  0.77773000  1.0
  N  N460  1  0.78143000  0.81382000  0.04342000  1.0
  N  N461  1  0.71862000  0.31395000  0.54326000  1.0
  N  N462  1  0.28274000  0.81319000  0.45830000  1.0
  N  N463  1  0.21853000  0.31369000  0.95659000  1.0
  N  N464  1  0.92179000  0.21498000  0.45901000  1.0
  N  N465  1  0.57824000  0.71498000  0.95906000  1.0
  N  N466  1  0.42186000  0.21500000  0.04104000  1.0
  N  N467  1  0.07703000  0.71576000  0.53988000  1.0
  N  N468  1  0.25965000  0.20579000  0.07642000  1.0
  N  N469  1  0.24269000  0.70620000  0.57484000  1.0
  N  N470  1  0.75966000  0.20582000  0.42355000  1.0
  N  N471  1  0.74049000  0.70592000  0.92354000  1.0
  N  N472  1  0.08715000  0.21770000  0.26467000  1.0
  N  N473  1  0.41321000  0.71808000  0.76459000  1.0
  N  N474  1  0.58718000  0.21762000  0.23533000  1.0
  N  N475  1  0.91233000  0.71794000  0.73476000  1.0
  N  N476  1  0.17140000  0.84543000  0.56734000  1.0
  N  N477  1  0.32800000  0.34608000  0.06686000  1.0
  N  N478  1  0.67193000  0.84619000  0.93326000  1.0
  N  N479  1  0.82811000  0.34613000  0.43303000  1.0
  N  N480  1  0.19020000  0.68139000  0.43575000  1.0
  N  N481  1  0.30974000  0.18100000  0.93644000  1.0
  N  N482  1  0.69038000  0.68107000  0.06365000  1.0
  N  N483  1  0.80958000  0.18112000  0.56361000  1.0
  O  O484  1  0.12414000  0.60350000  0.21196000  1.0
  O  O485  1  0.37602000  0.10382000  0.71225000  1.0
  O  O486  1  0.62424000  0.60339000  0.28803000  1.0
  O  O487  1  0.87587000  0.10350000  0.78802000  1.0
  O  O488  1  0.89692000  0.40413000  0.22131000  1.0
  O  O489  1  0.60332000  0.90445000  0.72168000  1.0
  O  O490  1  0.39699000  0.40409000  0.27849000  1.0
  O  O491  1  0.10316000  0.90416000  0.77803000  1.0
