# generated using pymatgen
data_ZnH18C12S2(NO4)2
_symmetry_space_group_name_H-M   'P 1'
_cell_length_a   9.72371000
_cell_length_b   9.83862000
_cell_length_c   10.13990000
_cell_angle_alpha   69.41360000
_cell_angle_beta   69.06300000
_cell_angle_gamma   86.97500000
_symmetry_Int_Tables_number   1
_chemical_formula_structural   ZnH18C12S2(NO4)2
_chemical_formula_sum   'Zn2 H36 C24 S4 N4 O16'
_cell_volume   845.20671647
_cell_formula_units_Z   2
loop_
 _symmetry_equiv_pos_site_id
 _symmetry_equiv_pos_as_xyz
  1  'x, y, z'
loop_
 _atom_site_type_symbol
 _atom_site_label
 _atom_site_symmetry_multiplicity
 _atom_site_fract_x
 _atom_site_fract_y
 _atom_site_fract_z
 _atom_site_occupancy
  Zn  Zn0  1  0.50000000  0.50000000  0.50000000  1.0
  Zn  Zn1  1  0.50000000  0.50000000  0.00000000  1.0
  H  H2  1  0.85349000  0.43818000  0.27427000  1.0
  H  H3  1  0.14651000  0.56182000  0.72572000  1.0
  H  H4  1  0.90963000  0.67723000  0.80954000  1.0
  H  H5  1  0.09037000  0.32277000  0.19046000  1.0
  H  H6  1  0.42801000  0.74634000  0.23779000  1.0
  H  H7  1  0.57199000  0.25365000  0.76221000  1.0
  H  H8  1  0.34745000  0.93528000  0.10475000  1.0
  H  H9  1  0.65255000  0.06472000  0.89525000  1.0
  H  H10  1  0.28767000  0.07066000  0.18889000  1.0
  H  H11  1  0.71233000  0.92934000  0.81111000  1.0
  H  H12  1  0.15529000  0.95266000  0.18846000  1.0
  H  H13  1  0.84471000  0.04734000  0.81154000  1.0
  H  H14  1  0.15517000  0.98277000  0.46774000  1.0
  H  H15  1  0.84483000  0.01723000  0.53226000  1.0
  H  H16  1  0.18592000  0.80288000  0.57491000  1.0
  H  H17  1  0.81408000  0.19712000  0.42509000  1.0
  H  H18  1  0.04356000  0.82741000  0.49742000  1.0
  H  H19  1  0.95644000  0.17259000  0.50258000  1.0
  H  H20  1  0.83760000  0.40522000  0.77222000  1.0
  H  H21  1  0.16240000  0.59478000  0.22778000  1.0
  H  H22  1  0.92586000  0.70774000  0.31863000  1.0
  H  H23  1  0.07414000  0.29226000  0.68137000  1.0
  H  H24  1  0.49092000  0.20012000  0.22966000  1.0
  H  H25  1  0.50907000  0.79988000  0.77034000  1.0
  H  H26  1  0.87084000  0.04054000  0.04538000  1.0
  H  H27  1  0.12916000  0.95946000  0.95462000  1.0
  H  H28  1  0.91876000  0.12567000  0.15389000  1.0
  H  H29  1  0.08124000  0.87433000  0.84611000  1.0
  H  H30  1  0.87765000  0.23602000  0.99324000  1.0
  H  H31  1  0.12235000  0.76398000  0.00676000  1.0
  H  H32  1  0.51879000  0.98889000  0.36898000  1.0
  H  H33  1  0.48121000  0.01111000  0.63102000  1.0
  H  H34  1  0.69398000  0.97292000  0.39071000  1.0
  H  H35  1  0.30602000  0.02707000  0.60929000  1.0
  H  H36  1  0.65661000  0.89187000  0.27438000  1.0
  H  H37  1  0.34339000  0.10813000  0.72562000  1.0
  C  C38  1  0.87081000  0.56449000  0.04658000  1.0
  C  C39  1  0.12919000  0.43551000  0.95342000  1.0
  C  C40  1  0.91890000  0.46432000  0.15479000  1.0
  C  C41  1  0.08110000  0.53568000  0.84521000  1.0
  C  C42  1  0.95051000  0.60050000  0.89209000  1.0
  C  C43  1  0.04949000  0.39950000  0.10791000  1.0
  C  C44  1  0.35190000  0.74709000  0.34808000  1.0
  C  C45  1  0.64810000  0.25291000  0.65192000  1.0
  C  C46  1  0.26361000  0.95925000  0.19806000  1.0
  C  C47  1  0.73639000  0.04075000  0.80195000  1.0
  C  C48  1  0.15482000  0.86781000  0.47906000  1.0
  C  C49  1  0.84518000  0.13219000  0.52094000  1.0
  C  C50  1  0.87077000  0.56269000  0.55069000  1.0
  C  C51  1  0.12923000  0.43731000  0.44931000  1.0
  C  C52  1  0.90949000  0.44504000  0.65348000  1.0
  C  C53  1  0.09051000  0.55496000  0.34652000  1.0
  C  C54  1  0.95992000  0.61808000  0.39755000  1.0
  C  C55  1  0.04008000  0.38192000  0.60244000  1.0
  C  C56  1  0.60633000  0.22535000  0.15015000  1.0
  C  C57  1  0.39367000  0.77465000  0.84985000  1.0
  C  C58  1  0.84970000  0.13142000  0.08709000  1.0
  C  C59  1  0.15030000  0.86858000  0.91291000  1.0
  C  C60  1  0.63735000  0.98568000  0.31127000  1.0
  C  C61  1  0.36265000  0.01432000  0.68873000  1.0
  S  S62  1  0.71148000  0.65647000  0.10698000  1.0
  S  S63  1  0.28852000  0.34353000  0.89302000  1.0
  S  S64  1  0.70732000  0.64706000  0.61682000  1.0
  S  S65  1  0.29268000  0.35294000  0.38318000  1.0
  N  N66  1  0.26247000  0.85459000  0.34180000  1.0
  N  N67  1  0.73753000  0.14541000  0.65820000  1.0
  N  N68  1  0.69421000  0.11984000  0.18076000  1.0
  N  N69  1  0.30579000  0.88016000  0.81924000  1.0
  O  O70  1  0.63003000  0.56508000  0.26471000  1.0
  O  O71  1  0.36997000  0.43492000  0.73529000  1.0
  O  O72  1  0.62816000  0.66620000  0.00698000  1.0
  O  O73  1  0.37184000  0.33380000  0.99302000  1.0
  O  O74  1  0.76564000  0.80085000  0.08662000  1.0
  O  O75  1  0.23436000  0.19915000  0.91338000  1.0
  O  O76  1  0.35028000  0.65241000  0.47064000  1.0
  O  O77  1  0.64972000  0.34759000  0.52936000  1.0
  O  O78  1  0.62642000  0.66172000  0.51431000  1.0
  O  O79  1  0.37358000  0.33828000  0.48569000  1.0
  O  O80  1  0.62789000  0.54552000  0.77077000  1.0
  O  O81  1  0.37211000  0.45448000  0.22923000  1.0
  O  O82  1  0.75462000  0.78933000  0.60883000  1.0
  O  O83  1  0.24538000  0.21067000  0.39117000  1.0
  O  O84  1  0.64820000  0.34447000  0.04010000  1.0
  O  O85  1  0.35179000  0.65553000  0.95990000  1.0
