# generated using pymatgen
data_MnH12C20(N3O4)2
_symmetry_space_group_name_H-M   'P 1'
_cell_length_a   9.61745000
_cell_length_b   10.97950000
_cell_length_c   10.97950000
_cell_angle_alpha   69.94990000
_cell_angle_beta   71.80700000
_cell_angle_gamma   71.80710000
_symmetry_Int_Tables_number   1
_chemical_formula_structural   MnH12C20(N3O4)2
_chemical_formula_sum   'Mn2 H24 C40 N12 O16'
_cell_volume   1006.95159316
_cell_formula_units_Z   2
loop_
 _symmetry_equiv_pos_site_id
 _symmetry_equiv_pos_as_xyz
  1  'x, y, z'
loop_
 _atom_site_type_symbol
 _atom_site_label
 _atom_site_symmetry_multiplicity
 _atom_site_fract_x
 _atom_site_fract_y
 _atom_site_fract_z
 _atom_site_occupancy
  Mn  Mn0  1  0.75000000  0.04770000  0.95230000  1.0
  Mn  Mn1  1  0.25000000  0.95231000  0.04769000  1.0
  H  H2  1  0.36220000  0.87093000  0.73725000  1.0
  H  H3  1  0.13780000  0.26275000  0.12907000  1.0
  H  H4  1  0.63780000  0.12907000  0.26275000  1.0
  H  H5  1  0.86220000  0.73725000  0.87093000  1.0
  H  H6  1  0.81088000  0.92626000  0.63876000  1.0
  H  H7  1  0.68912000  0.36124000  0.07374000  1.0
  H  H8  1  0.18912000  0.07374000  0.36124000  1.0
  H  H9  1  0.31088000  0.63876000  0.92626000  1.0
  H  H10  1  0.67509000  0.78395000  0.38193000  1.0
  H  H11  1  0.82491000  0.61806000  0.21605000  1.0
  H  H12  1  0.32491000  0.21604000  0.61807000  1.0
  H  H13  1  0.17509000  0.38193000  0.78396000  1.0
  H  H14  1  0.04529000  0.76230000  0.56423000  1.0
  H  H15  1  0.45472000  0.43576000  0.23770000  1.0
  H  H16  1  0.95472000  0.23770000  0.43576000  1.0
  H  H17  1  0.54528000  0.56424000  0.76230000  1.0
  H  H18  1  0.86870000  0.93721000  0.21737000  1.0
  H  H19  1  0.63131000  0.78263000  0.06279000  1.0
  H  H20  1  0.13130000  0.06279000  0.78263000  1.0
  H  H21  1  0.36869000  0.21737000  0.93721000  1.0
  H  H22  1  0.31920000  0.78276000  0.38127000  1.0
  H  H23  1  0.18080000  0.61873000  0.21724000  1.0
  H  H24  1  0.68080000  0.21724000  0.61873000  1.0
  H  H25  1  0.81921000  0.38127000  0.78276000  1.0
  C  C26  1  0.47456000  0.86474000  0.67215000  1.0
  C  C27  1  0.02543000  0.32785000  0.13527000  1.0
  C  C28  1  0.52544000  0.13526000  0.32786000  1.0
  C  C29  1  0.97456000  0.67215000  0.86474000  1.0
  C  C30  1  0.58383000  0.90247000  0.70110000  1.0
  C  C31  1  0.91617000  0.29890000  0.09753000  1.0
  C  C32  1  0.41617000  0.09753000  0.29890000  1.0
  C  C33  1  0.08383000  0.70110000  0.90247000  1.0
  C  C34  1  0.72709000  0.89432000  0.61686000  1.0
  C  C35  1  0.77291000  0.38314000  0.10569000  1.0
  C  C36  1  0.27292000  0.10568000  0.38314000  1.0
  C  C37  1  0.22708000  0.61686000  0.89432000  1.0
  C  C38  1  0.75885000  0.85089000  0.50374000  1.0
  C  C39  1  0.74115000  0.49626000  0.14911000  1.0
  C  C40  1  0.24115000  0.14911000  0.49626000  1.0
  C  C41  1  0.25885000  0.50374000  0.85090000  1.0
  C  C42  1  0.65079000  0.81446000  0.47231000  1.0
  C  C43  1  0.84921000  0.52769000  0.18555000  1.0
  C  C44  1  0.34921000  0.18554000  0.52769000  1.0
  C  C45  1  0.15079000  0.47231000  0.81446000  1.0
  C  C46  1  0.50753000  0.82145000  0.55812000  1.0
  C  C47  1  0.99247000  0.44188000  0.17855000  1.0
  C  C48  1  0.49247000  0.17855000  0.44188000  1.0
  C  C49  1  0.00753000  0.55812000  0.82145000  1.0
  C  C50  1  0.03653000  0.80449000  0.46131000  1.0
  C  C51  1  0.46347000  0.53869000  0.19551000  1.0
  C  C52  1  0.96347000  0.19551000  0.53869000  1.0
  C  C53  1  0.53653000  0.46131000  0.80449000  1.0
  C  C54  1  0.94611000  0.89434000  0.28304000  1.0
  C  C55  1  0.55389000  0.71696000  0.10566000  1.0
  C  C56  1  0.05389000  0.10566000  0.71696000  1.0
  C  C57  1  0.44611000  0.28304000  0.89434000  1.0
  C  C58  1  0.54854000  0.95804000  0.81769000  1.0
  C  C59  1  0.95146000  0.18231000  0.04196000  1.0
  C  C60  1  0.45146000  0.04196000  0.18231000  1.0
  C  C61  1  0.04854000  0.81769000  0.95804000  1.0
  C  C62  1  0.38256000  0.79465000  0.52542000  1.0
  C  C63  1  0.11744000  0.47458000  0.20535000  1.0
  C  C64  1  0.61744000  0.20534000  0.47458000  1.0
  C  C65  1  0.88256000  0.52542000  0.79466000  1.0
  N  N66  1  0.90570000  0.84715000  0.41878000  1.0
  N  N67  1  0.59430000  0.58122000  0.15286000  1.0
  N  N68  1  0.09430000  0.15285000  0.58122000  1.0
  N  N69  1  0.40570000  0.41878000  0.84715000  1.0
  N  N70  1  0.15008000  0.82417000  0.35823000  1.0
  N  N71  1  0.34993000  0.64177000  0.17583000  1.0
  N  N72  1  0.84993000  0.17583000  0.64177000  1.0
  N  N73  1  0.65007000  0.35823000  0.82417000  1.0
  N  N74  1  0.09338000  0.88151000  0.24563000  1.0
  N  N75  1  0.40662000  0.75437000  0.11849000  1.0
  N  N76  1  0.90662000  0.11849000  0.75437000  1.0
  N  N77  1  0.59338000  0.24563000  0.88151000  1.0
  O  O78  1  0.41044000  0.00306000  0.86663000  1.0
  O  O79  1  0.08956000  0.13337000  0.99694000  1.0
  O  O80  1  0.58956000  0.99695000  0.13336000  1.0
  O  O81  1  0.91044000  0.86664000  0.00305000  1.0
  O  O82  1  0.66086000  0.95615000  0.85660000  1.0
  O  O83  1  0.83915000  0.14340000  0.04385000  1.0
  O  O84  1  0.33914000  0.04385000  0.14340000  1.0
  O  O85  1  0.16085000  0.85660000  0.95615000  1.0
  O  O86  1  0.25593000  0.80103000  0.59999000  1.0
  O  O87  1  0.24407000  0.40001000  0.19897000  1.0
  O  O88  1  0.74407000  0.19897000  0.40001000  1.0
  O  O89  1  0.75593000  0.59999000  0.80103000  1.0
  O  O90  1  0.41881000  0.76926000  0.40722000  1.0
  O  O91  1  0.08119000  0.59278000  0.23074000  1.0
  O  O92  1  0.58119000  0.23074000  0.59278000  1.0
  O  O93  1  0.91881000  0.40722000  0.76926000  1.0
