# generated using pymatgen
data_CdH14C18N2O7
_symmetry_space_group_name_H-M   'P 1'
_cell_length_a   8.24897000
_cell_length_b   9.46237000
_cell_length_c   13.02140000
_cell_angle_alpha   93.49340000
_cell_angle_beta   104.62200000
_cell_angle_gamma   110.21500000
_symmetry_Int_Tables_number   1
_chemical_formula_structural   CdH14C18N2O7
_chemical_formula_sum   'Cd2 H28 C36 N4 O14'
_cell_volume   910.51664704
_cell_formula_units_Z   2
loop_
 _symmetry_equiv_pos_site_id
 _symmetry_equiv_pos_as_xyz
  1  'x, y, z'
loop_
 _atom_site_type_symbol
 _atom_site_label
 _atom_site_symmetry_multiplicity
 _atom_site_fract_x
 _atom_site_fract_y
 _atom_site_fract_z
 _atom_site_occupancy
  Cd  Cd0  1  0.38456000  0.61581000  0.18727000  1.0
  Cd  Cd1  1  0.61543000  0.38419000  0.81273000  1.0
  H  H2  1  0.69999000  0.97103000  0.20466000  1.0
  H  H3  1  0.30003000  0.02897000  0.79535000  1.0
  H  H4  1  0.90610000  0.19966000  0.34129000  1.0
  H  H5  1  0.09391000  0.80034000  0.65871000  1.0
  H  H6  1  0.90904000  0.19457000  0.53640000  1.0
  H  H7  1  0.09095000  0.80543000  0.46359000  1.0
  H  H8  1  0.78528000  0.05582000  0.67302000  1.0
  H  H9  1  0.21471000  0.94418000  0.32698000  1.0
  H  H10  1  0.56759000  0.82634000  0.71433000  1.0
  H  H11  1  0.43241000  0.17366000  0.28566000  1.0
  H  H12  1  0.32711000  0.56936000  0.65438000  1.0
  H  H13  1  0.67290000  0.43064000  0.34562000  1.0
  H  H14  1  0.12125000  0.35734000  0.50171000  1.0
  H  H15  1  0.87876000  0.64265000  0.49830000  1.0
  H  H16  1  0.15155000  0.38212000  0.31459000  1.0
  H  H17  1  0.84845000  0.61788000  0.68541000  1.0
  H  H18  1  0.12837000  0.15363000  0.91799000  1.0
  H  H19  1  0.87162000  0.84636000  0.08201000  1.0
  H  H20  1  0.87959000  0.12987000  0.05996000  1.0
  H  H21  1  0.12041000  0.87012000  0.94004000  1.0
  H  H22  1  0.18493000  0.08116000  0.14724000  1.0
  H  H23  1  0.81506000  0.91884000  0.85276000  1.0
  H  H24  1  0.54598000  0.16271000  0.97311000  1.0
  H  H25  1  0.45402000  0.83728000  0.02689000  1.0
  H  H26  1  0.67253000  0.58401000  0.10775000  1.0
  H  H27  1  0.32746000  0.41598000  0.89225000  1.0
  H  H28  1  0.76888000  0.68499000  0.22169000  1.0
  H  H29  1  0.23111000  0.31501000  0.77831000  1.0
  C  C30  1  0.70529000  0.97186000  0.28927000  1.0
  C  C31  1  0.29472000  0.02814000  0.71073000  1.0
  C  C32  1  0.82196000  0.10031000  0.36716000  1.0
  C  C33  1  0.17805000  0.89969000  0.63284000  1.0
  C  C34  1  0.82302000  0.09727000  0.47316000  1.0
  C  C35  1  0.17697000  0.90274000  0.52684000  1.0
  C  C36  1  0.70654000  0.96719000  0.50159000  1.0
  C  C37  1  0.29346000  0.03281000  0.49841000  1.0
  C  C38  1  0.69847000  0.95839000  0.60960000  1.0
  C  C39  1  0.30152000  0.04162000  0.39039000  1.0
  C  C40  1  0.57951000  0.83218000  0.63295000  1.0
  C  C41  1  0.42049000  0.16782000  0.36705000  1.0
  C  C42  1  0.45996000  0.70669000  0.55025000  1.0
  C  C43  1  0.54004000  0.29331000  0.44975000  1.0
  C  C44  1  0.33281000  0.57624000  0.57180000  1.0
  C  C45  1  0.66721000  0.42377000  0.42820000  1.0
  C  C46  1  0.21965000  0.45967000  0.48783000  1.0
  C  C47  1  0.78036000  0.54033000  0.51218000  1.0
  C  C48  1  0.23492000  0.47222000  0.38325000  1.0
  C  C49  1  0.76508000  0.52778000  0.61675000  1.0
  C  C50  1  0.46490000  0.71072000  0.44209000  1.0
  C  C51  1  0.53510000  0.28928000  0.55792000  1.0
  C  C52  1  0.59154000  0.84366000  0.41718000  1.0
  C  C53  1  0.40845000  0.15634000  0.58282000  1.0
  C  C54  1  0.20456000  0.32828000  0.05370000  1.0
  C  C55  1  0.79543000  0.67172000  0.94630000  1.0
  C  C56  1  0.10704000  0.16159000  0.99758000  1.0
  C  C57  1  0.89296000  0.83841000  0.00242000  1.0
  C  C58  1  0.90348000  0.10867000  0.98221000  1.0
  C  C59  1  0.09652000  0.89133000  0.01779000  1.0
  C  C60  1  0.82548000  0.20123000  0.90528000  1.0
  C  C61  1  0.17452000  0.79877000  0.09472000  1.0
  C  C62  1  0.19316000  0.06311000  0.06483000  1.0
  C  C63  1  0.80684000  0.93689000  0.93518000  1.0
  C  C64  1  0.39225000  0.11890000  0.06967000  1.0
  C  C65  1  0.60774000  0.88110000  0.93033000  1.0
  N  N66  1  0.59476000  0.84741000  0.31379000  1.0
  N  N67  1  0.40524000  0.15259000  0.68621000  1.0
  N  N68  1  0.35401000  0.59378000  0.36145000  1.0
  N  N69  1  0.64599000  0.40622000  0.63855000  1.0
  O  O70  1  0.18960000  0.36030000  0.14684000  1.0
  O  O71  1  0.81040000  0.63970000  0.85316000  1.0
  O  O72  1  0.30090000  0.42773000  0.01033000  1.0
  O  O73  1  0.69910000  0.57227000  0.98966000  1.0
  O  O74  1  0.87530000  0.23091000  0.82353000  1.0
  O  O75  1  0.12470000  0.76910000  0.17648000  1.0
  O  O76  1  0.70676000  0.24553000  0.93164000  1.0
  O  O77  1  0.29324000  0.75447000  0.06837000  1.0
  O  O78  1  0.51834000  0.16405000  0.15311000  1.0
  O  O79  1  0.48166000  0.83595000  0.84689000  1.0
  O  O80  1  0.41303000  0.11478000  0.97158000  1.0
  O  O81  1  0.58697000  0.88521000  0.02841000  1.0
  O  O82  1  0.66077000  0.59727000  0.18340000  1.0
  O  O83  1  0.33922000  0.40272000  0.81660000  1.0
