# generated using pymatgen
data_CaCdH26C24N2O11
_symmetry_space_group_name_H-M   'P 1'
_cell_length_a   13.94150000
_cell_length_b   14.29880000
_cell_length_c   18.73600000
_cell_angle_alpha   86.02000000
_cell_angle_beta   89.99950000
_cell_angle_gamma   89.99990000
_symmetry_Int_Tables_number   1
_chemical_formula_structural   CaCdH26C24N2O11
_chemical_formula_sum   'Ca4 Cd4 H104 C96 N8 O44'
_cell_volume   3725.95269212
_cell_formula_units_Z   4
loop_
 _symmetry_equiv_pos_site_id
 _symmetry_equiv_pos_as_xyz
  1  'x, y, z'
loop_
 _atom_site_type_symbol
 _atom_site_label
 _atom_site_symmetry_multiplicity
 _atom_site_fract_x
 _atom_site_fract_y
 _atom_site_fract_z
 _atom_site_occupancy
  Ca  Ca0  1  0.79583000  0.08422000  0.12945000  1.0
  Ca  Ca1  1  0.29581000  0.41578000  0.37055000  1.0
  Ca  Ca2  1  0.20418000  0.91577000  0.87055000  1.0
  Ca  Ca3  1  0.70419000  0.58423000  0.62945000  1.0
  Cd  Cd4  1  0.53627000  0.50666000  0.76891000  1.0
  Cd  Cd5  1  0.03627000  0.99334000  0.73109000  1.0
  Cd  Cd6  1  0.46373000  0.49333000  0.23109000  1.0
  Cd  Cd7  1  0.96374000  0.00667000  0.26891000  1.0
  H  H8  1  0.77481000  0.23354000  0.75991000  1.0
  H  H9  1  0.27482000  0.26647000  0.74009000  1.0
  H  H10  1  0.22520000  0.76646000  0.24009000  1.0
  H  H11  1  0.72519000  0.73353000  0.25991000  1.0
  H  H12  1  0.81349000  0.10595000  0.56178000  1.0
  H  H13  1  0.31349000  0.39404000  0.93822000  1.0
  H  H14  1  0.18651000  0.89405000  0.43821000  1.0
  H  H15  1  0.68652000  0.60595000  0.06179000  1.0
  H  H16  1  0.63009000  0.34858000  0.57187000  1.0
  H  H17  1  0.13009000  0.15141000  0.92812000  1.0
  H  H18  1  0.36991000  0.65141000  0.42813000  1.0
  H  H19  1  0.86990000  0.84859000  0.07188000  1.0
  H  H20  1  0.56104000  0.30277000  0.48203000  1.0
  H  H21  1  0.06104000  0.19722000  0.01797000  1.0
  H  H22  1  0.43896000  0.69722000  0.51797000  1.0
  H  H23  1  0.93896000  0.80278000  0.98203000  1.0
  H  H24  1  0.64321000  0.22717000  0.27352000  1.0
  H  H25  1  0.14322000  0.27284000  0.22648000  1.0
  H  H26  1  0.35679000  0.77283000  0.72648000  1.0
  H  H27  1  0.85678000  0.72717000  0.77352000  1.0
  H  H28  1  0.81864000  0.13995000  0.45346000  1.0
  H  H29  1  0.31864000  0.36004000  0.04654000  1.0
  H  H30  1  0.18136000  0.86005000  0.54654000  1.0
  H  H31  1  0.68136000  0.63996000  0.95346000  1.0
  H  H32  1  0.69983000  0.41323000  0.12901000  1.0
  H  H33  1  0.19982000  0.08677000  0.37099000  1.0
  H  H34  1  0.30018000  0.58675000  0.87099000  1.0
  H  H35  1  0.80019000  0.91325000  0.62901000  1.0
  H  H36  1  0.73008000  0.30262000  0.17430000  1.0
  H  H37  1  0.23007000  0.19737000  0.32570000  1.0
  H  H38  1  0.26993000  0.69735000  0.82570000  1.0
  H  H39  1  0.76993000  0.80266000  0.67430000  1.0
  H  H40  1  0.60866000  0.33311000  0.15615000  1.0
  H  H41  1  0.10866000  0.16689000  0.34384000  1.0
  H  H42  1  0.39134000  0.66687000  0.84385000  1.0
  H  H43  1  0.89134000  0.83313000  0.65616000  1.0
  H  H44  1  0.58569000  0.44435000  0.05359000  1.0
  H  H45  1  0.08569000  0.05564000  0.44641000  1.0
  H  H46  1  0.41431000  0.55562000  0.94641000  1.0
  H  H47  1  0.91431000  0.94438000  0.55358000  1.0
  H  H48  1  0.53262000  0.40852000  0.97299000  1.0
  H  H49  1  0.03261000  0.09148000  0.52701000  1.0
  H  H50  1  0.46738000  0.59147000  0.02702000  1.0
  H  H51  1  0.96738000  0.90853000  0.47298000  1.0
  H  H52  1  0.63904000  0.47591000  0.96801000  1.0
  H  H53  1  0.13904000  0.02409000  0.53199000  1.0
  H  H54  1  0.36095000  0.52408000  0.03199000  1.0
  H  H55  1  0.86095000  0.97592000  0.46800000  1.0
  H  H56  1  0.73930000  0.25437000  0.93777000  1.0
  H  H57  1  0.23929000  0.24563000  0.56221000  1.0
  H  H58  1  0.26072000  0.74565000  0.06221000  1.0
  H  H59  1  0.76072000  0.75435000  0.43780000  1.0
  H  H60  1  0.66674000  0.34387000  0.89311000  1.0
  H  H61  1  0.16675000  0.15613000  0.60688000  1.0
  H  H62  1  0.33323000  0.65613000  0.10689000  1.0
  H  H63  1  0.83322000  0.84388000  0.39312000  1.0
  H  H64  1  0.61301000  0.23858000  0.92989000  1.0
  H  H65  1  0.11301000  0.26141000  0.57011000  1.0
  H  H66  1  0.38701000  0.76139000  0.07011000  1.0
  H  H67  1  0.88701000  0.73862000  0.42988000  1.0
  H  H68  1  0.59041000  0.91857000  0.04486000  1.0
  H  H69  1  0.09041000  0.58144000  0.45514000  1.0
  H  H70  1  0.40958000  0.08144000  0.95514000  1.0
  H  H71  1  0.90959000  0.41856000  0.54486000  1.0
  H  H72  1  0.47822000  0.89555000  0.08865000  1.0
  H  H73  1  0.97822000  0.60446000  0.41135000  1.0
  H  H74  1  0.52178000  0.10445000  0.91135000  1.0
  H  H75  1  0.02178000  0.39555000  0.58864000  1.0
  H  H76  1  0.57221000  0.81145000  0.09791000  1.0
  H  H77  1  0.07221000  0.68856000  0.40209000  1.0
  H  H78  1  0.42779000  0.18856000  0.90210000  1.0
  H  H79  1  0.92779000  0.31144000  0.59790000  1.0
  H  H80  1  0.63988000  0.01678000  0.26688000  1.0
  H  H81  1  0.13987000  0.48322000  0.23312000  1.0
  H  H82  1  0.36011000  0.98322000  0.73313000  1.0
  H  H83  1  0.86011000  0.51678000  0.76688000  1.0
  H  H84  1  0.65618000  0.90439000  0.31303000  1.0
  H  H85  1  0.15617000  0.59562000  0.18696000  1.0
  H  H86  1  0.34382000  0.09562000  0.68697000  1.0
  H  H87  1  0.84382000  0.40438000  0.81303000  1.0
  H  H88  1  0.54512000  0.96539000  0.32129000  1.0
  H  H89  1  0.04511000  0.53462000  0.17871000  1.0
  H  H90  1  0.45488000  0.03461000  0.67872000  1.0
  H  H91  1  0.95488000  0.46539000  0.82128000  1.0
  H  H92  1  0.46614000  0.80518000  0.19136000  1.0
  H  H93  1  0.96613000  0.69482000  0.30864000  1.0
  H  H94  1  0.53386000  0.19482000  0.80865000  1.0
  H  H95  1  0.03386000  0.30518000  0.69135000  1.0
  H  H96  1  0.44245000  0.85189000  0.27484000  1.0
  H  H97  1  0.94244000  0.64811000  0.22516000  1.0
  H  H98  1  0.55756000  0.14810000  0.72516000  1.0
  H  H99  1  0.05756000  0.35190000  0.77483000  1.0
  H  H100  1  0.53772000  0.76969000  0.26656000  1.0
  H  H101  1  0.03772000  0.73032000  0.23343000  1.0
  H  H102  1  0.46228000  0.23031000  0.73344000  1.0
  H  H103  1  0.96228000  0.26969000  0.76656000  1.0
  H  H104  1  0.85123000  0.98873000  0.98376000  1.0
  H  H105  1  0.35121000  0.51128000  0.51623000  1.0
  H  H106  1  0.14878000  0.01128000  0.01623000  1.0
  H  H107  1  0.64878000  0.48872000  0.48378000  1.0
  H  H108  1  0.81296000  0.09015000  0.96921000  1.0
  H  H109  1  0.31297000  0.40986000  0.53079000  1.0
  H  H110  1  0.18701000  0.90986000  0.03080000  1.0
  H  H111  1  0.68701000  0.59014000  0.46921000  1.0
  C  C112  1  0.69677000  0.29739000  0.66917000  1.0
  C  C113  1  0.19678000  0.20261000  0.83083000  1.0
  C  C114  1  0.30323000  0.70261000  0.33083000  1.0
  C  C115  1  0.80323000  0.79739000  0.16917000  1.0
  C  C116  1  0.75890000  0.23166000  0.70311000  1.0
  C  C117  1  0.25891000  0.26834000  0.79689000  1.0
  C  C118  1  0.24110000  0.76834000  0.29689000  1.0
  C  C119  1  0.74110000  0.73166000  0.20312000  1.0
  C  C120  1  0.80274000  0.16485000  0.66288000  1.0
  C  C121  1  0.30275000  0.33514000  0.83712000  1.0
  C  C122  1  0.19726000  0.83515000  0.33712000  1.0
  C  C123  1  0.69726000  0.66485000  0.16289000  1.0
  C  C124  1  0.77951000  0.16065000  0.59052000  1.0
  C  C125  1  0.27951000  0.33935000  0.90948000  1.0
  C  C126  1  0.22049000  0.83935000  0.40948000  1.0
  C  C127  1  0.72050000  0.66065000  0.09053000  1.0
  C  C128  1  0.71596000  0.22488000  0.55589000  1.0
  C  C129  1  0.21596000  0.27512000  0.94411000  1.0
  C  C130  1  0.28404000  0.77512000  0.44411000  1.0
  C  C131  1  0.78404000  0.72488000  0.05589000  1.0
  C  C132  1  0.67703000  0.29459000  0.59627000  1.0
  C  C133  1  0.17704000  0.20541000  0.90373000  1.0
  C  C134  1  0.32297000  0.70541000  0.40373000  1.0
  C  C135  1  0.82296000  0.79459000  0.09627000  1.0
  C  C136  1  0.69350000  0.22200000  0.47893000  1.0
  C  C137  1  0.19351000  0.27800000  0.02108000  1.0
  C  C138  1  0.30650000  0.77800000  0.52107000  1.0
  C  C139  1  0.80649000  0.72200000  0.97893000  1.0
  C  C140  1  0.61255000  0.26816000  0.44889000  1.0
  C  C141  1  0.11256000  0.23184000  0.05111000  1.0
  C  C142  1  0.38745000  0.73184000  0.55111000  1.0
  C  C143  1  0.88744000  0.76816000  0.94889000  1.0
  C  C144  1  0.59570000  0.27195000  0.37529000  1.0
  C  C145  1  0.09571000  0.22805000  0.12472000  1.0
  C  C146  1  0.40430000  0.72805000  0.62471000  1.0
  C  C147  1  0.90429000  0.77196000  0.87529000  1.0
  C  C148  1  0.65654000  0.22451000  0.33080000  1.0
  C  C149  1  0.15655000  0.27549000  0.16920000  1.0
  C  C150  1  0.34346000  0.77549000  0.66920000  1.0
  C  C151  1  0.84345000  0.72451000  0.83080000  1.0
  C  C152  1  0.73475000  0.17451000  0.36006000  1.0
  C  C153  1  0.23476000  0.32549000  0.13994000  1.0
  C  C154  1  0.26525000  0.82549000  0.63993000  1.0
  C  C155  1  0.76524000  0.67452000  0.86007000  1.0
  C  C156  1  0.75396000  0.17533000  0.43332000  1.0
  C  C157  1  0.25397000  0.32466000  0.06667000  1.0
  C  C158  1  0.24604000  0.82466000  0.56667000  1.0
  C  C159  1  0.74603000  0.67534000  0.93333000  1.0
  C  C160  1  0.65005000  0.37114000  0.70981000  1.0
  C  C161  1  0.15005000  0.12887000  0.79018000  1.0
  C  C162  1  0.34996000  0.62886000  0.29019000  1.0
  C  C163  1  0.84995000  0.87114000  0.20982000  1.0
  C  C164  1  0.87899000  0.10088000  0.69501000  1.0
  C  C165  1  0.37900000  0.39912000  0.80499000  1.0
  C  C166  1  0.12101000  0.89912000  0.30499000  1.0
  C  C167  1  0.62102000  0.60087000  0.19501000  1.0
  C  C168  1  0.51666000  0.33287000  0.34359000  1.0
  C  C169  1  0.01668000  0.16713000  0.15642000  1.0
  C  C170  1  0.48333000  0.66712000  0.65641000  1.0
  C  C171  1  0.98332000  0.83288000  0.84358000  1.0
  C  C172  1  0.79982000  0.12155000  0.31346000  1.0
  C  C173  1  0.29983000  0.37845000  0.18654000  1.0
  C  C174  1  0.20018000  0.87845000  0.68654000  1.0
  C  C175  1  0.70017000  0.62155000  0.81347000  1.0
  C  C176  1  0.69102000  0.29131000  0.06582000  1.0
  C  C177  1  0.19101000  0.20869000  0.43418000  1.0
  C  C178  1  0.30898000  0.70867000  0.93418000  1.0
  C  C179  1  0.80899000  0.79132000  0.56582000  1.0
  C  C180  1  0.68218000  0.33833000  0.13490000  1.0
  C  C181  1  0.18218000  0.16166000  0.36509000  1.0
  C  C182  1  0.31782000  0.66164000  0.86510000  1.0
  C  C183  1  0.81782000  0.83836000  0.63491000  1.0
  C  C184  1  0.60081000  0.42068000  0.00049000  1.0
  C  C185  1  0.10081000  0.07931000  0.49951000  1.0
  C  C186  1  0.39918000  0.57930000  0.99951000  1.0
  C  C187  1  0.89919000  0.92070000  0.50048000  1.0
  C  C188  1  0.66988000  0.29030000  0.93766000  1.0
  C  C189  1  0.16987000  0.20969000  0.56234000  1.0
  C  C190  1  0.33012000  0.70969000  0.06233000  1.0
  C  C191  1  0.83013000  0.79031000  0.43767000  1.0
  C  C192  1  0.59565000  0.93502000  0.15634000  1.0
  C  C193  1  0.09565000  0.56498000  0.34366000  1.0
  C  C194  1  0.40435000  0.06498000  0.84367000  1.0
  C  C195  1  0.90435000  0.43502000  0.65633000  1.0
  C  C196  1  0.55638000  0.88690000  0.09330000  1.0
  C  C197  1  0.05637000  0.61311000  0.40670000  1.0
  C  C198  1  0.44362000  0.11310000  0.90670000  1.0
  C  C199  1  0.94362000  0.38690000  0.59330000  1.0
  C  C200  1  0.60397000  0.95126000  0.28455000  1.0
  C  C201  1  0.10397000  0.54874000  0.21545000  1.0
  C  C202  1  0.39602000  0.04874000  0.71545000  1.0
  C  C203  1  0.89603000  0.45126000  0.78455000  1.0
  C  C204  1  0.49960000  0.82950000  0.23937000  1.0
  C  C205  1  0.99959000  0.67050000  0.26063000  1.0
  C  C206  1  0.50040000  0.17049000  0.76064000  1.0
  C  C207  1  0.00040000  0.32950000  0.73936000  1.0
  N  N208  1  0.65685000  0.33425000  0.00490000  1.0
  N  N209  1  0.15684000  0.16574000  0.49510000  1.0
  N  N210  1  0.34315000  0.66574000  0.99510000  1.0
  N  N211  1  0.84315000  0.83427000  0.50490000  1.0
  N  N212  1  0.56508000  0.90748000  0.22277000  1.0
  N  N213  1  0.06507000  0.59252000  0.27723000  1.0
  N  N214  1  0.43492000  0.09252000  0.77724000  1.0
  N  N215  1  0.93492000  0.40748000  0.72276000  1.0
  O  O216  1  0.62269000  0.44700000  0.67352000  1.0
  O  O217  1  0.12269000  0.05300000  0.82647000  1.0
  O  O218  1  0.37731000  0.55299000  0.32648000  1.0
  O  O219  1  0.87731000  0.94701000  0.17353000  1.0
  O  O220  1  0.81227000  0.03656000  0.00418000  1.0
  O  O221  1  0.31226000  0.46344000  0.49582000  1.0
  O  O222  1  0.18773000  0.96344000  0.99582000  1.0
  O  O223  1  0.68773000  0.53656000  0.50419000  1.0
  O  O224  1  0.63624000  0.35744000  0.77604000  1.0
  O  O225  1  0.13623000  0.14259000  0.72396000  1.0
  O  O226  1  0.36377000  0.64257000  0.22396000  1.0
  O  O227  1  0.86376000  0.85742000  0.27605000  1.0
  O  O228  1  0.89864000  0.10094000  0.76092000  1.0
  O  O229  1  0.39865000  0.39906000  0.73908000  1.0
  O  O230  1  0.10137000  0.89906000  0.23908000  1.0
  O  O231  1  0.60136000  0.60094000  0.26092000  1.0
  O  O232  1  0.92430000  0.05070000  0.65143000  1.0
  O  O233  1  0.42431000  0.44930000  0.84857000  1.0
  O  O234  1  0.07571000  0.94931000  0.34857000  1.0
  O  O235  1  0.57571000  0.55068000  0.15144000  1.0
  O  O236  1  0.86621000  0.07354000  0.34552000  1.0
  O  O237  1  0.36622000  0.42647000  0.15447000  1.0
  O  O238  1  0.13380000  0.92647000  0.65447000  1.0
  O  O239  1  0.63378000  0.57354000  0.84553000  1.0
  O  O240  1  0.78499000  0.12632000  0.24635000  1.0
  O  O241  1  0.28500000  0.37369000  0.25365000  1.0
  O  O242  1  0.21500000  0.87368000  0.75365000  1.0
  O  O243  1  0.71500000  0.62631000  0.74635000  1.0
  O  O244  1  0.52631000  0.35852000  0.27732000  1.0
  O  O245  1  0.02633000  0.14148000  0.22269000  1.0
  O  O246  1  0.47368000  0.64146000  0.72267000  1.0
  O  O247  1  0.97367000  0.85853000  0.77732000  1.0
  O  O248  1  0.44955000  0.35696000  0.38417000  1.0
  O  O249  1  0.94956000  0.14303000  0.11584000  1.0
  O  O250  1  0.55045000  0.64304000  0.61583000  1.0
  O  O251  1  0.05043000  0.85697000  0.88417000  1.0
  O  O252  1  0.73097000  0.21195000  0.06446000  1.0
  O  O253  1  0.23095000  0.28805000  0.43553000  1.0
  O  O254  1  0.26904000  0.78803000  0.93552000  1.0
  O  O255  1  0.76905000  0.71197000  0.56448000  1.0
  O  O256  1  0.65583000  0.00016000  0.14587000  1.0
  O  O257  1  0.15583000  0.49985000  0.35413000  1.0
  O  O258  1  0.34417000  0.99985000  0.85414000  1.0
  O  O259  1  0.84417000  0.50014000  0.64587000  1.0
