# generated using pymatgen
data_NaBH8(C4O5)2
_symmetry_space_group_name_H-M   'P 1'
_cell_length_a   5.17739000
_cell_length_b   9.79266000
_cell_length_c   11.83410000
_cell_angle_alpha   89.99770000
_cell_angle_beta   89.99850000
_cell_angle_gamma   75.77500000
_symmetry_Int_Tables_number   1
_chemical_formula_structural   NaBH8(C4O5)2
_chemical_formula_sum   'Na2 B2 H16 C16 O20'
_cell_volume   581.59696139
_cell_formula_units_Z   2
loop_
 _symmetry_equiv_pos_site_id
 _symmetry_equiv_pos_as_xyz
  1  'x, y, z'
loop_
 _atom_site_type_symbol
 _atom_site_label
 _atom_site_symmetry_multiplicity
 _atom_site_fract_x
 _atom_site_fract_y
 _atom_site_fract_z
 _atom_site_occupancy
  Na  Na0  1  0.74725000  0.64896000  0.45334000  1.0
  Na  Na1  1  0.25273000  0.35105000  0.95335000  1.0
  B  B2  1  0.21334000  0.70392000  0.29401000  1.0
  B  B3  1  0.78665000  0.29608000  0.79400000  1.0
  H  H4  1  0.48302000  0.97490000  0.68282000  1.0
  H  H5  1  0.51698000  0.02511000  0.18283000  1.0
  H  H6  1  0.87583000  0.95284000  0.55001000  1.0
  H  H7  1  0.12417000  0.04714000  0.05001000  1.0
  H  H8  1  0.95369000  0.10048000  0.48820000  1.0
  H  H9  1  0.04632000  0.89948000  0.98819000  1.0
  H  H10  1  0.80092000  0.97175000  0.34267000  1.0
  H  H11  1  0.19909000  0.02826000  0.84267000  1.0
  H  H12  1  0.62285000  0.44447000  0.21620000  1.0
  H  H13  1  0.37716000  0.55553000  0.71620000  1.0
  H  H14  1  0.45675000  0.24646000  0.29561000  1.0
  H  H15  1  0.54326000  0.75354000  0.79561000  1.0
  H  H16  1  0.66599000  0.31146000  0.39035000  1.0
  H  H17  1  0.33401000  0.68854000  0.89035000  1.0
  H  H18  1  0.17860000  0.31730000  0.58926000  1.0
  H  H19  1  0.82140000  0.68271000  0.08925000  1.0
  C  C20  1  0.24956000  0.35835000  0.43415000  1.0
  C  C21  1  0.75043000  0.64165000  0.93414000  1.0
  C  C22  1  0.47139000  0.33669000  0.34852000  1.0
  C  C23  1  0.52861000  0.66331000  0.84852000  1.0
  C  C24  1  0.44696000  0.46510000  0.27266000  1.0
  C  C25  1  0.55305000  0.53490000  0.77266000  1.0
  C  C26  1  0.19979000  0.49649000  0.19787000  1.0
  C  C27  1  0.80023000  0.50352000  0.69786000  1.0
  C  C28  1  0.29076000  0.94397000  0.54575000  1.0
  C  C29  1  0.70924000  0.05602000  0.04575000  1.0
  C  C30  1  0.01808000  0.98490000  0.49307000  1.0
  C  C31  1  0.98192000  0.01508000  0.99307000  1.0
  C  C32  1  0.99855000  0.92082000  0.37740000  1.0
  C  C33  1  0.00145000  0.07917000  0.87740000  1.0
  C  C34  1  0.20467000  0.94074000  0.29113000  1.0
  C  C35  1  0.79533000  0.05926000  0.79114000  1.0
  O  O36  1  0.48647000  0.86634000  0.49988000  1.0
  O  O37  1  0.51350000  0.13366000  0.99989000  1.0
  O  O38  1  0.29743000  0.00132000  0.64698000  1.0
  O  O39  1  0.70255000  0.99868000  0.14698000  1.0
  O  O40  1  0.03122000  0.77226000  0.38143000  1.0
  O  O41  1  0.96876000  0.22774000  0.88142000  1.0
  O  O42  1  0.31213000  0.82051000  0.24018000  1.0
  O  O43  1  0.68788000  0.17949000  0.74018000  1.0
  O  O44  1  0.26298000  0.05295000  0.26798000  1.0
  O  O45  1  0.73700000  0.94706000  0.76799000  1.0
  O  O46  1  0.32845000  0.29841000  0.53385000  1.0
  O  O47  1  0.67157000  0.70159000  0.03386000  1.0
  O  O48  1  0.01911000  0.42366000  0.41335000  1.0
  O  O49  1  0.98089000  0.57634000  0.91335000  1.0
  O  O50  1  0.42957000  0.59073000  0.33570000  1.0
  O  O51  1  0.57044000  0.40928000  0.83571000  1.0
  O  O52  1  0.12607000  0.41255000  0.13651000  1.0
  O  O53  1  0.87393000  0.58745000  0.63650000  1.0
  O  O54  1  0.07655000  0.63324000  0.20492000  1.0
  O  O55  1  0.92346000  0.36676000  0.70491000  1.0
