# generated using pymatgen
data_FeAg2H23(C7N)6
_symmetry_space_group_name_H-M   'P 1'
_cell_length_a   10.52230000
_cell_length_b   10.54040000
_cell_length_c   16.60070000
_cell_angle_alpha   93.93250000
_cell_angle_beta   102.02200000
_cell_angle_gamma   97.32440000
_symmetry_Int_Tables_number   1
_chemical_formula_structural   FeAg2H23(C7N)6
_chemical_formula_sum   'Fe2 Ag4 H46 C84 N12'
_cell_volume   1777.48645724
_cell_formula_units_Z   2
loop_
 _symmetry_equiv_pos_site_id
 _symmetry_equiv_pos_as_xyz
  1  'x, y, z'
loop_
 _atom_site_type_symbol
 _atom_site_label
 _atom_site_symmetry_multiplicity
 _atom_site_fract_x
 _atom_site_fract_y
 _atom_site_fract_z
 _atom_site_occupancy
  Fe  Fe0  1  0.17701000  0.22023000  0.90862000  1.0
  Fe  Fe1  1  0.82300000  0.77976000  0.09138000  1.0
  Ag  Ag2  1  0.68250000  0.22528000  0.91798000  1.0
  Ag  Ag3  1  0.31750000  0.77473000  0.08202000  1.0
  Ag  Ag4  1  0.17466000  0.71934000  0.90319000  1.0
  Ag  Ag5  1  0.82533000  0.28065000  0.09681000  1.0
  H  H6  1  0.30022000  0.37725000  0.78494000  1.0
  H  H7  1  0.69978000  0.62275000  0.21506000  1.0
  H  H8  1  0.29174000  0.37697000  0.63380000  1.0
  H  H9  1  0.70826000  0.62304000  0.36620000  1.0
  H  H10  1  0.02068000  0.02162000  0.59790000  1.0
  H  H11  1  0.97932000  0.97838000  0.40211000  1.0
  H  H12  1  0.03983000  0.03908000  0.75077000  1.0
  H  H13  1  0.96018000  0.96093000  0.24924000  1.0
  H  H14  1  0.11683000  0.41359000  0.19627000  1.0
  H  H15  1  0.88317000  0.58642000  0.80373000  1.0
  H  H16  1  0.13134000  0.40897000  0.04798000  1.0
  H  H17  1  0.86865000  0.59103000  0.95202000  1.0
  H  H18  1  0.22659000  0.03948000  0.04611000  1.0
  H  H19  1  0.77341000  0.96052000  0.95389000  1.0
  H  H20  1  0.21100000  0.02555000  0.19239000  1.0
  H  H21  1  0.78900000  0.97446000  0.80762000  1.0
  H  H22  1  0.58202000  0.86411000  0.31923000  1.0
  H  H23  1  0.41798000  0.13589000  0.68077000  1.0
  H  H24  1  0.52356000  0.98727000  0.43600000  1.0
  H  H25  1  0.47644000  0.01273000  0.56400000  1.0
  H  H26  1  0.59299000  0.96249000  0.18887000  1.0
  H  H27  1  0.40701000  0.03751000  0.81113000  1.0
  H  H28  1  0.46401000  0.18937000  0.49622000  1.0
  H  H29  1  0.53599000  0.81063000  0.50378000  1.0
  H  H30  1  0.41369000  0.40925000  0.48115000  1.0
  H  H31  1  0.58632000  0.59075000  0.51885000  1.0
  H  H32  1  0.51085000  0.36460000  0.08801000  1.0
  H  H33  1  0.48915000  0.63540000  0.91198000  1.0
  H  H34  1  0.55971000  0.14343000  0.10249000  1.0
  H  H35  1  0.44029000  0.85656000  0.89751000  1.0
  H  H36  1  0.38253000  0.59086000  0.39504000  1.0
  H  H37  1  0.61748000  0.40914000  0.60496000  1.0
  H  H38  1  0.38512000  0.68574000  0.26200000  1.0
  H  H39  1  0.61489000  0.31426000  0.73800000  1.0
  H  H40  1  0.44826000  0.56341000  0.14680000  1.0
  H  H41  1  0.55174000  0.43659000  0.85320000  1.0
  H  H42  1  0.13092000  0.68856000  0.28181000  1.0
  H  H43  1  0.86908000  0.31144000  0.71819000  1.0
  H  H44  1  0.96133000  0.49544000  0.25436000  1.0
  H  H45  1  0.03868000  0.50455000  0.74565000  1.0
  H  H46  1  0.23121000  0.78145000  0.42673000  1.0
  H  H47  1  0.76879000  0.21855000  0.57328000  1.0
  H  H48  1  0.24618000  0.77768000  0.57786000  1.0
  H  H49  1  0.75382000  0.22231000  0.42214000  1.0
  H  H50  1  0.82488000  0.32214000  0.30568000  1.0
  H  H51  1  0.17513000  0.67786000  0.69432000  1.0
  C  C52  1  0.23957000  0.30024000  0.74133000  1.0
  C  C53  1  0.76043000  0.69977000  0.25867000  1.0
  C  C54  1  0.23482000  0.29984000  0.65713000  1.0
  C  C55  1  0.76517000  0.70016000  0.34287000  1.0
  C  C56  1  0.15460000  0.19866000  0.60268000  1.0
  C  C57  1  0.84540000  0.80134000  0.39732000  1.0
  C  C58  1  0.08354000  0.10208000  0.63720000  1.0
  C  C59  1  0.91645000  0.89792000  0.36280000  1.0
  C  C60  1  0.09389000  0.11164000  0.72208000  1.0
  C  C61  1  0.90611000  0.88836000  0.27793000  1.0
  C  C62  1  0.14637000  0.19573000  0.51679000  1.0
  C  C63  1  0.85363000  0.80427000  0.48321000  1.0
  C  C64  1  0.14244000  0.19883000  0.44256000  1.0
  C  C65  1  0.85756000  0.80118000  0.55744000  1.0
  C  C66  1  0.14222000  0.20395000  0.36184000  1.0
  C  C67  1  0.85778000  0.79605000  0.63816000  1.0
  C  C68  1  0.14818000  0.21215000  0.28930000  1.0
  C  C69  1  0.85182000  0.78785000  0.71070000  1.0
  C  C70  1  0.15963000  0.21810000  0.20675000  1.0
  C  C71  1  0.84036000  0.78190000  0.79325000  1.0
  C  C72  1  0.13819000  0.32776000  0.16450000  1.0
  C  C73  1  0.86180000  0.67225000  0.83550000  1.0
  C  C74  1  0.14787000  0.32585000  0.08231000  1.0
  C  C75  1  0.85212000  0.67415000  0.91769000  1.0
  C  C76  1  0.20167000  0.12010000  0.08134000  1.0
  C  C77  1  0.79832000  0.87990000  0.91866000  1.0
  C  C78  1  0.19295000  0.11252000  0.16292000  1.0
  C  C79  1  0.80705000  0.88748000  0.83708000  1.0
  C  C80  1  0.18833000  0.53016000  0.90934000  1.0
  C  C81  1  0.81166000  0.46984000  0.09066000  1.0
  C  C82  1  0.16300000  0.90892000  0.89655000  1.0
  C  C83  1  0.83700000  0.09108000  0.10345000  1.0
  C  C84  1  0.49457000  0.22685000  0.92983000  1.0
  C  C85  1  0.50543000  0.77315000  0.07017000  1.0
  C  C86  1  0.86357000  0.22173000  0.89430000  1.0
  C  C87  1  0.13644000  0.77829000  0.10570000  1.0
  C  C88  1  0.56030000  0.96180000  0.31309000  1.0
  C  C89  1  0.43969000  0.03820000  0.68691000  1.0
  C  C90  1  0.52781000  0.03100000  0.37874000  1.0
  C  C91  1  0.47219000  0.96900000  0.62125000  1.0
  C  C92  1  0.50129000  0.15790000  0.37269000  1.0
  C  C93  1  0.49871000  0.84211000  0.62731000  1.0
  C  C94  1  0.50703000  0.21472000  0.29749000  1.0
  C  C95  1  0.49297000  0.78528000  0.70251000  1.0
  C  C96  1  0.53872000  0.14255000  0.23011000  1.0
  C  C97  1  0.46128000  0.85745000  0.76989000  1.0
  C  C98  1  0.56628000  0.01664000  0.23960000  1.0
  C  C99  1  0.43372000  0.98336000  0.76040000  1.0
  C  C100  1  0.46914000  0.23289000  0.43897000  1.0
  C  C101  1  0.53086000  0.76711000  0.56103000  1.0
  C  C102  1  0.44196000  0.35522000  0.43093000  1.0
  C  C103  1  0.55804000  0.64478000  0.56907000  1.0
  C  C104  1  0.44504000  0.41396000  0.35591000  1.0
  C  C105  1  0.55496000  0.58604000  0.64409000  1.0
  C  C106  1  0.47923000  0.34237000  0.28923000  1.0
  C  C107  1  0.52077000  0.65763000  0.71077000  1.0
  C  C108  1  0.48110000  0.39758000  0.21314000  1.0
  C  C109  1  0.51890000  0.60242000  0.78686000  1.0
  C  C110  1  0.51233000  0.32287000  0.14645000  1.0
  C  C111  1  0.48766000  0.67712000  0.85355000  1.0
  C  C112  1  0.53965000  0.20050000  0.15456000  1.0
  C  C113  1  0.46034000  0.79949000  0.84544000  1.0
  C  C114  1  0.41177000  0.53767000  0.34486000  1.0
  C  C115  1  0.58823000  0.46234000  0.65514000  1.0
  C  C116  1  0.41283000  0.59032000  0.27008000  1.0
  C  C117  1  0.58717000  0.40968000  0.72992000  1.0
  C  C118  1  0.44763000  0.52173000  0.20513000  1.0
  C  C119  1  0.55237000  0.47827000  0.79487000  1.0
  C  C120  1  0.10169000  0.64329000  0.33359000  1.0
  C  C121  1  0.89831000  0.35671000  0.66641000  1.0
  C  C122  1  0.00679000  0.53420000  0.31796000  1.0
  C  C123  1  0.99321000  0.46581000  0.68204000  1.0
  C  C124  1  0.96520000  0.47471000  0.38321000  1.0
  C  C125  1  0.03479000  0.52529000  0.61679000  1.0
  C  C126  1  0.02117000  0.52835000  0.46642000  1.0
  C  C127  1  0.97883000  0.47165000  0.53358000  1.0
  C  C128  1  0.11879000  0.63999000  0.48213000  1.0
  C  C129  1  0.88120000  0.36001000  0.51787000  1.0
  C  C130  1  0.15752000  0.69554000  0.41472000  1.0
  C  C131  1  0.84248000  0.30446000  0.58529000  1.0
  C  C132  1  0.17247000  0.69209000  0.56621000  1.0
  C  C133  1  0.82753000  0.30791000  0.43380000  1.0
  C  C134  1  0.86724000  0.36305000  0.36933000  1.0
  C  C135  1  0.13276000  0.63695000  0.63067000  1.0
  N  N136  1  0.17037000  0.20878000  0.77382000  1.0
  N  N137  1  0.82963000  0.79122000  0.22618000  1.0
  N  N138  1  0.17836000  0.22389000  0.04030000  1.0
  N  N139  1  0.82164000  0.77611000  0.95970000  1.0
  N  N140  1  0.19569000  0.42072000  0.91334000  1.0
  N  N141  1  0.80432000  0.57928000  0.08666000  1.0
  N  N142  1  0.38373000  0.22829000  0.93049000  1.0
  N  N143  1  0.61627000  0.77171000  0.06951000  1.0
  N  N144  1  0.15901000  0.01955000  0.89809000  1.0
  N  N145  1  0.84100000  0.98045000  0.10191000  1.0
  N  N146  1  0.97056000  0.21750000  0.88551000  1.0
  N  N147  1  0.02944000  0.78251000  0.11449000  1.0
