# generated using pymatgen
data_CdH11C15(NO)4
_symmetry_space_group_name_H-M   'P 1'
_cell_length_a   10.06340000
_cell_length_b   13.24110000
_cell_length_c   17.91460320
_cell_angle_alpha   89.50184340
_cell_angle_beta   73.69487932
_cell_angle_gamma   67.68160000
_symmetry_Int_Tables_number   1
_chemical_formula_structural   CdH11C15(NO)4
_chemical_formula_sum   'Cd4 H44 C60 N16 O16'
_cell_volume   2106.55743832
_cell_formula_units_Z   4
loop_
 _symmetry_equiv_pos_site_id
 _symmetry_equiv_pos_as_xyz
  1  'x, y, z'
loop_
 _atom_site_type_symbol
 _atom_site_label
 _atom_site_symmetry_multiplicity
 _atom_site_fract_x
 _atom_site_fract_y
 _atom_site_fract_z
 _atom_site_occupancy
  Cd  Cd0  1  0.64360000  0.09976000  0.93197000  1.0
  Cd  Cd1  1  0.17525000  0.40025000  0.56816000  1.0
  Cd  Cd2  1  0.35639000  0.90025000  0.06804000  1.0
  Cd  Cd3  1  0.82476000  0.59974000  0.43184000  1.0
  H  H4  1  0.54798000  0.20670000  0.77983000  1.0
  H  H5  1  0.03458000  0.29334000  0.72038000  1.0
  H  H6  1  0.45202000  0.79331000  0.22017000  1.0
  H  H7  1  0.96542000  0.70665000  0.27961000  1.0
  H  H8  1  0.55703000  0.35575000  0.69465000  1.0
  H  H9  1  0.10738000  0.14383000  0.80523000  1.0
  H  H10  1  0.44297000  0.64426000  0.30536000  1.0
  H  H11  1  0.89262000  0.85617000  0.19477000  1.0
  H  H12  1  0.76532000  0.45700000  0.84526000  1.0
  H  H13  1  0.56739000  0.04295000  0.65470000  1.0
  H  H14  1  0.23467000  0.54301000  0.15475000  1.0
  H  H15  1  0.43260000  0.95703000  0.34530000  1.0
  H  H16  1  0.75980000  0.29798000  0.91807000  1.0
  H  H17  1  0.47571000  0.20202000  0.58196000  1.0
  H  H18  1  0.24017000  0.70203000  0.08195000  1.0
  H  H19  1  0.52431000  0.79795000  0.41802000  1.0
  H  H20  1  0.81474000  0.69181000  0.80856000  1.0
  H  H21  1  0.81468000  0.80812000  0.69148000  1.0
  H  H22  1  0.18526000  0.30820000  0.19144000  1.0
  H  H23  1  0.18530000  0.19187000  0.30853000  1.0
  H  H24  1  0.67706000  0.81355000  0.93576000  1.0
  H  H25  1  0.92609000  0.68673000  0.56413000  1.0
  H  H26  1  0.32292000  0.18646000  0.06425000  1.0
  H  H27  1  0.07392000  0.31327000  0.43586000  1.0
  H  H28  1  0.29914000  0.74443000  0.96024000  1.0
  H  H29  1  0.50378000  0.75571000  0.53940000  1.0
  H  H30  1  0.70086000  0.25558000  0.03976000  1.0
  H  H31  1  0.49623000  0.24429000  0.46058000  1.0
  H  H32  1  0.42086000  0.61623000  0.83802000  1.0
  H  H33  1  0.37497000  0.88383000  0.66169000  1.0
  H  H34  1  0.57914000  0.38378000  0.16198000  1.0
  H  H35  1  0.62502000  0.11615000  0.33831000  1.0
  H  H36  1  0.34657000  0.65123000  0.64243000  1.0
  H  H37  1  0.13991000  0.84870000  0.85751000  1.0
  H  H38  1  0.65345000  0.34876000  0.35755000  1.0
  H  H39  1  0.86007000  0.15130000  0.14250000  1.0
  H  H40  1  0.38252000  0.56630000  0.71664000  1.0
  H  H41  1  0.16530000  0.93358000  0.78328000  1.0
  H  H42  1  0.61747000  0.43371000  0.28336000  1.0
  H  H43  1  0.83469000  0.06641000  0.21672000  1.0
  H  H44  1  0.59247000  0.51245000  0.54436000  1.0
  H  H45  1  0.14909000  0.98750000  0.95557000  1.0
  H  H46  1  0.40756000  0.48753000  0.45564000  1.0
  H  H47  1  0.85090000  0.01251000  0.04443000  1.0
  C  C48  1  0.59618000  0.26381000  0.79157000  1.0
  C  C49  1  0.15157000  0.23611000  0.70850000  1.0
  C  C50  1  0.40380000  0.73620000  0.20844000  1.0
  C  C51  1  0.84843000  0.76388000  0.29149000  1.0
  C  C52  1  0.59921000  0.34788000  0.74505000  1.0
  C  C53  1  0.19206000  0.15181000  0.75486000  1.0
  C  C54  1  0.40078000  0.65215000  0.25496000  1.0
  C  C55  1  0.80794000  0.84818000  0.24513000  1.0
  C  C56  1  0.65720000  0.42195000  0.76458000  1.0
  C  C57  1  0.34364000  0.07783000  0.73535000  1.0
  C  C58  1  0.34281000  0.57805000  0.23542000  1.0
  C  C59  1  0.65637000  0.92215000  0.26464000  1.0
  C  C60  1  0.71459000  0.40463000  0.82902000  1.0
  C  C61  1  0.44808000  0.09527000  0.67094000  1.0
  C  C62  1  0.28538000  0.59539000  0.17099000  1.0
  C  C63  1  0.55193000  0.90472000  0.32905000  1.0
  C  C64  1  0.71062000  0.31622000  0.87001000  1.0
  C  C65  1  0.39673000  0.18374000  0.63001000  1.0
  C  C66  1  0.28936000  0.68380000  0.13000000  1.0
  C  C67  1  0.60328000  0.81623000  0.36998000  1.0
  C  C68  1  0.63030000  0.64273000  0.81229000  1.0
  C  C69  1  0.58504000  0.85723000  0.68756000  1.0
  C  C70  1  0.36967000  0.35731000  0.18772000  1.0
  C  C71  1  0.41494000  0.14277000  0.31244000  1.0
  C  C72  1  0.70165000  0.70008000  0.84173000  1.0
  C  C73  1  0.74315000  0.79997000  0.65818000  1.0
  C  C74  1  0.29835000  0.29993000  0.15827000  1.0
  C  C75  1  0.25685000  0.20002000  0.34182000  1.0
  C  C76  1  0.62623000  0.76677000  0.91203000  1.0
  C  C77  1  0.80477000  0.73347000  0.58780000  1.0
  C  C78  1  0.37376000  0.23324000  0.08798000  1.0
  C  C79  1  0.19523000  0.26653000  0.41219000  1.0
  C  C80  1  0.41552000  0.72712000  0.92634000  1.0
  C  C81  1  0.56888000  0.77303000  0.57335000  1.0
  C  C82  1  0.58447000  0.27288000  0.07367000  1.0
  C  C83  1  0.43112000  0.22697000  0.42664000  1.0
  C  C84  1  0.48319000  0.65606000  0.85830000  1.0
  C  C85  1  0.49737000  0.84402000  0.64143000  1.0
  C  C86  1  0.51681000  0.34395000  0.14171000  1.0
  C  C87  1  0.50263000  0.15596000  0.35856000  1.0
  C  C88  1  0.84489000  0.44895000  0.58536000  1.0
  C  C89  1  0.37891000  0.05112000  0.91469000  1.0
  C  C90  1  0.15513000  0.55106000  0.41464000  1.0
  C  C91  1  0.62109000  0.94888000  0.08531000  1.0
  C  C92  1  0.68339000  0.49379000  0.63621000  1.0
  C  C93  1  0.31329000  0.00616000  0.86381000  1.0
  C  C94  1  0.31662000  0.50621000  0.36380000  1.0
  C  C95  1  0.68671000  0.99385000  0.13619000  1.0
  C  C96  1  0.56587000  0.52277000  0.60793000  1.0
  C  C97  1  0.19649000  0.97712000  0.89202000  1.0
  C  C98  1  0.43415000  0.47722000  0.39207000  1.0
  C  C99  1  0.80350000  0.02289000  0.10798000  1.0
  C  C100  1  0.40326000  0.56539000  0.65299000  1.0
  C  C101  1  0.12153000  0.93451000  0.84693000  1.0
  C  C102  1  0.59675000  0.43460000  0.34701000  1.0
  C  C103  1  0.87847000  0.06549000  0.15307000  1.0
  C  C104  1  0.32308000  0.50056000  0.62659000  1.0
  C  C105  1  0.95014000  0.99946000  0.87334000  1.0
  C  C106  1  0.67694000  0.49943000  0.37341000  1.0
  C  C107  1  0.04985000  0.00055000  0.12666000  1.0
  N  N108  1  0.65072000  0.24719000  0.85322000  1.0
  N  N109  1  0.25109000  0.25286000  0.64692000  1.0
  N  N110  1  0.34927000  0.75282000  0.14679000  1.0
  N  N111  1  0.74892000  0.74712000  0.35307000  1.0
  N  N112  1  0.66336000  0.50766000  0.71898000  1.0
  N  N113  1  0.38997000  0.99225000  0.78100000  1.0
  N  N114  1  0.33662000  0.49237000  0.28103000  1.0
  N  N115  1  0.61002000  0.00776000  0.21900000  1.0
  N  N116  1  0.69891000  0.58901000  0.73857000  1.0
  N  N117  1  0.52615000  0.91068000  0.76137000  1.0
  N  N118  1  0.30110000  0.41097000  0.26143000  1.0
  N  N119  1  0.47385000  0.08928000  0.23862000  1.0
  N  N120  1  0.48451000  0.78148000  0.95410000  1.0
  N  N121  1  0.71994000  0.71876000  0.54565000  1.0
  N  N122  1  0.51549000  0.21853000  0.04590000  1.0
  N  N123  1  0.28006000  0.28124000  0.45434000  1.0
  O  O124  1  0.94175000  0.40853000  0.62218000  1.0
  O  O125  1  0.47239000  0.09141000  0.87791000  1.0
  O  O126  1  0.05826000  0.59147000  0.37783000  1.0
  O  O127  1  0.52762000  0.90859000  0.12208000  1.0
  O  O128  1  0.87362000  0.45259000  0.51231000  1.0
  O  O129  1  0.33782000  0.04776000  0.98777000  1.0
  O  O130  1  0.12641000  0.54741000  0.48770000  1.0
  O  O131  1  0.66217000  0.95225000  0.01223000  1.0
  O  O132  1  0.18238000  0.53128000  0.65753000  1.0
  O  O133  1  0.87097000  0.96879000  0.84244000  1.0
  O  O134  1  0.81764000  0.46869000  0.34248000  1.0
  O  O135  1  0.12903000  0.03121000  0.15756000  1.0
  O  O136  1  0.40298000  0.41963000  0.57333000  1.0
  O  O137  1  0.89604000  0.08039000  0.92658000  1.0
  O  O138  1  0.59704000  0.58035000  0.42667000  1.0
  O  O139  1  0.10395000  0.91961000  0.07343000  1.0
