# generated using pymatgen
data_MnH8C12S2N2O5
_symmetry_space_group_name_H-M   'P 1'
_cell_length_a   9.57152000
_cell_length_b   13.89840000
_cell_length_c   13.89840000
_cell_angle_alpha   70.88510000
_cell_angle_beta   86.09770000
_cell_angle_gamma   86.09870000
_symmetry_Int_Tables_number   1
_chemical_formula_structural   MnH8C12S2N2O5
_chemical_formula_sum   'Mn4 H32 C48 S8 N8 O20'
_cell_volume   1740.84278133
_cell_formula_units_Z   4
loop_
 _symmetry_equiv_pos_site_id
 _symmetry_equiv_pos_as_xyz
  1  'x, y, z'
loop_
 _atom_site_type_symbol
 _atom_site_label
 _atom_site_symmetry_multiplicity
 _atom_site_fract_x
 _atom_site_fract_y
 _atom_site_fract_z
 _atom_site_occupancy
  Mn  Mn0  1  0.99999000  0.00001000  0.00000000  1.0
  Mn  Mn1  1  0.50000000  0.00000000  0.00000000  1.0
  Mn  Mn2  1  0.24999000  0.16726000  0.83275000  1.0
  Mn  Mn3  1  0.75000000  0.83275000  0.16725000  1.0
  H  H4  1  0.66973000  0.22006000  0.89029000  1.0
  H  H5  1  0.80796000  0.57471000  0.73288000  1.0
  H  H6  1  0.99332000  0.43696000  0.79878000  1.0
  H  H7  1  0.58834000  0.72876000  0.97198000  1.0
  H  H8  1  0.82770000  0.94023000  0.73153000  1.0
  H  H9  1  0.75109000  0.85563000  0.61135000  1.0
  H  H10  1  0.06216000  0.19154000  0.66387000  1.0
  H  H11  1  0.22850000  0.17797000  0.64338000  1.0
  H  H12  1  0.83023000  0.10971000  0.77994000  1.0
  H  H13  1  0.69204000  0.26714000  0.42528000  1.0
  H  H14  1  0.50666000  0.20123000  0.56303000  1.0
  H  H15  1  0.91166000  0.02802000  0.27124000  1.0
  H  H16  1  0.67231000  0.26847000  0.05977000  1.0
  H  H17  1  0.74891000  0.38865000  0.14437000  1.0
  H  H18  1  0.43785000  0.33614000  0.80846000  1.0
  H  H19  1  0.27149000  0.35664000  0.82204000  1.0
  H  H20  1  0.33026000  0.77994000  0.10972000  1.0
  H  H21  1  0.19203000  0.42529000  0.26713000  1.0
  H  H22  1  0.00667000  0.56304000  0.20123000  1.0
  H  H23  1  0.41167000  0.27123000  0.02803000  1.0
  H  H24  1  0.17230000  0.05976000  0.26847000  1.0
  H  H25  1  0.24891000  0.14436000  0.38865000  1.0
  H  H26  1  0.93784000  0.80846000  0.33612000  1.0
  H  H27  1  0.77150000  0.82202000  0.35660000  1.0
  H  H28  1  0.16977000  0.89028000  0.22006000  1.0
  H  H29  1  0.30797000  0.73286000  0.57471000  1.0
  H  H30  1  0.49335000  0.79877000  0.43697000  1.0
  H  H31  1  0.08833000  0.97198000  0.72876000  1.0
  H  H32  1  0.32769000  0.73153000  0.94024000  1.0
  H  H33  1  0.25109000  0.61135000  0.85564000  1.0
  H  H34  1  0.56216000  0.66386000  0.19154000  1.0
  H  H35  1  0.72851000  0.64336000  0.17797000  1.0
  C  C36  1  0.95376000  0.23330000  0.88489000  1.0
  C  C37  1  0.84553000  0.31818000  0.84945000  1.0
  C  C38  1  0.70337000  0.29792000  0.85586000  1.0
  C  C39  1  0.64199000  0.46759000  0.77505000  1.0
  C  C40  1  0.78081000  0.49568000  0.76769000  1.0
  C  C41  1  0.88327000  0.41931000  0.80475000  1.0
  C  C42  1  0.63257000  0.74566000  0.73248000  1.0
  C  C43  1  0.62675000  0.75777000  0.89245000  1.0
  C  C44  1  0.71268000  0.84117000  0.86090000  1.0
  C  C45  1  0.75872000  0.87680000  0.75814000  1.0
  C  C46  1  0.71625000  0.82996000  0.69162000  1.0
  C  C47  1  0.75692000  0.88812000  0.93546000  1.0
  C  C48  1  0.54620000  0.11513000  0.76669000  1.0
  C  C49  1  0.65444000  0.15056000  0.68181000  1.0
  C  C50  1  0.79660000  0.14414000  0.70207000  1.0
  C  C51  1  0.85800000  0.22496000  0.53241000  1.0
  C  C52  1  0.71918000  0.23233000  0.50431000  1.0
  C  C53  1  0.61671000  0.19526000  0.58068000  1.0
  C  C54  1  0.86743000  0.26752000  0.25434000  1.0
  C  C55  1  0.87325000  0.10755000  0.24224000  1.0
  C  C56  1  0.78732000  0.13909000  0.15884000  1.0
  C  C57  1  0.74129000  0.24186000  0.12321000  1.0
  C  C58  1  0.78374000  0.30837000  0.17005000  1.0
  C  C59  1  0.74309000  0.06452000  0.11188000  1.0
  C  C60  1  0.04622000  0.76671000  0.11511000  1.0
  C  C61  1  0.15446000  0.68182000  0.15056000  1.0
  C  C62  1  0.29663000  0.70208000  0.14415000  1.0
  C  C63  1  0.35800000  0.53241000  0.22496000  1.0
  C  C64  1  0.21918000  0.50432000  0.23232000  1.0
  C  C65  1  0.11672000  0.58069000  0.19525000  1.0
  C  C66  1  0.36743000  0.25433000  0.26752000  1.0
  C  C67  1  0.37325000  0.24223000  0.10756000  1.0
  C  C68  1  0.28733000  0.15882000  0.13910000  1.0
  C  C69  1  0.24129000  0.12319000  0.24186000  1.0
  C  C70  1  0.28375000  0.17003000  0.30838000  1.0
  C  C71  1  0.24309000  0.11188000  0.06452000  1.0
  C  C72  1  0.45383000  0.88488000  0.23329000  1.0
  C  C73  1  0.34558000  0.84944000  0.31818000  1.0
  C  C74  1  0.20341000  0.85586000  0.29792000  1.0
  C  C75  1  0.14201000  0.77504000  0.46759000  1.0
  C  C76  1  0.28083000  0.76767000  0.49569000  1.0
  C  C77  1  0.38330000  0.80474000  0.41931000  1.0
  C  C78  1  0.13257000  0.73248000  0.74566000  1.0
  C  C79  1  0.12674000  0.89245000  0.75777000  1.0
  C  C80  1  0.21267000  0.86091000  0.84118000  1.0
  C  C81  1  0.25870000  0.75814000  0.87680000  1.0
  C  C82  1  0.21625000  0.69163000  0.82996000  1.0
  C  C83  1  0.25691000  0.93549000  0.88812000  1.0
  S  S84  1  0.49806000  0.55447000  0.72921000  1.0
  S  S85  1  0.58761000  0.68484000  0.64406000  1.0
  S  S86  1  0.00193000  0.27080000  0.44554000  1.0
  S  S87  1  0.91240000  0.35594000  0.31516000  1.0
  S  S88  1  0.50193000  0.44553000  0.27080000  1.0
  S  S89  1  0.41239000  0.31516000  0.35594000  1.0
  S  S90  1  0.99807000  0.72920000  0.55446000  1.0
  S  S91  1  0.08761000  0.64406000  0.68484000  1.0
  N  N92  1  0.60333000  0.37100000  0.81907000  1.0
  N  N93  1  0.58943000  0.70901000  0.83010000  1.0
  N  N94  1  0.89665000  0.18094000  0.62900000  1.0
  N  N95  1  0.91058000  0.16991000  0.29099000  1.0
  N  N96  1  0.39666000  0.62899000  0.18095000  1.0
  N  N97  1  0.41057000  0.29098000  0.16991000  1.0
  N  N98  1  0.10336000  0.81906000  0.37100000  1.0
  N  N99  1  0.08942000  0.83009000  0.70902000  1.0
  O  O100  1  0.91021000  0.14337000  0.91906000  1.0
  O  O101  1  0.08179000  0.25631000  0.87546000  1.0
  O  O102  1  0.67231000  0.87953000  0.01464000  1.0
  O  O103  1  0.87188000  0.93132000  0.91777000  1.0
  O  O104  1  0.15769000  0.20502000  0.68257000  1.0
  O  O105  1  0.58977000  0.08095000  0.85662000  1.0
  O  O106  1  0.41817000  0.12457000  0.74369000  1.0
  O  O107  1  0.82769000  0.98534000  0.12046000  1.0
  O  O108  1  0.62813000  0.08223000  0.06867000  1.0
  O  O109  1  0.34230000  0.31745000  0.79498000  1.0
  O  O110  1  0.08975000  0.85665000  0.08092000  1.0
  O  O111  1  0.91820000  0.74368000  0.12453000  1.0
  O  O112  1  0.32769000  0.12048000  0.98534000  1.0
  O  O113  1  0.12812000  0.06868000  0.08221000  1.0
  O  O114  1  0.84231000  0.79498000  0.31741000  1.0
  O  O115  1  0.41029000  0.91908000  0.14335000  1.0
  O  O116  1  0.58185000  0.87542000  0.25631000  1.0
  O  O117  1  0.17231000  0.01467000  0.87953000  1.0
  O  O118  1  0.37187000  0.91779000  0.93132000  1.0
  O  O119  1  0.65770000  0.68256000  0.20501000  1.0
