# generated using pymatgen
data_HgH7C11N3Cl2OF2
_symmetry_space_group_name_H-M   'P 1'
_cell_length_a   3.92539000
_cell_length_b   10.73180000
_cell_length_c   31.51632822
_cell_angle_alpha   99.68537011
_cell_angle_beta   90.00000000
_cell_angle_gamma   90.00000000
_symmetry_Int_Tables_number   1
_chemical_formula_structural   HgH7C11N3Cl2OF2
_chemical_formula_sum   'Hg4 H28 C44 N12 Cl8 O4 F8'
_cell_volume   1308.74857738
_cell_formula_units_Z   4
loop_
 _symmetry_equiv_pos_site_id
 _symmetry_equiv_pos_as_xyz
  1  'x, y, z'
loop_
 _atom_site_type_symbol
 _atom_site_label
 _atom_site_symmetry_multiplicity
 _atom_site_fract_x
 _atom_site_fract_y
 _atom_site_fract_z
 _atom_site_occupancy
  Hg  Hg0  1  0.93227000  0.94230000  0.76171000  1.0
  Hg  Hg1  1  0.43231000  0.55771000  0.73829000  1.0
  Hg  Hg2  1  0.06769000  0.05771000  0.23829000  1.0
  Hg  Hg3  1  0.56770000  0.44230000  0.26171000  1.0
  H  H4  1  0.38798000  0.40137000  0.85497000  1.0
  H  H5  1  0.88795000  0.09863000  0.64503000  1.0
  H  H6  1  0.61205000  0.59863000  0.14503000  1.0
  H  H7  1  0.11201000  0.90137000  0.35497000  1.0
  H  H8  1  0.26616000  0.23253000  0.79100000  1.0
  H  H9  1  0.76615000  0.26747000  0.70900000  1.0
  H  H10  1  0.73385000  0.76746000  0.20900000  1.0
  H  H11  1  0.23384000  0.73255000  0.29101000  1.0
  H  H12  1  0.76307000  0.01991000  0.87081000  1.0
  H  H13  1  0.26308000  0.48010000  0.62919000  1.0
  H  H14  1  0.23693000  0.98009000  0.12919000  1.0
  H  H15  1  0.73692000  0.51991000  0.37081000  1.0
  H  H16  1  0.25051000  0.47320000  0.11324000  1.0
  H  H17  1  0.75051000  0.02680000  0.38676000  1.0
  H  H18  1  0.74947000  0.52679000  0.88676000  1.0
  H  H19  1  0.24948000  0.97320000  0.61324000  1.0
  H  H20  1  0.98251000  0.30385000  0.14910000  1.0
  H  H21  1  0.48252000  0.19614000  0.35090000  1.0
  H  H22  1  0.01747000  0.69614000  0.85090000  1.0
  H  H23  1  0.51749000  0.80386000  0.64910000  1.0
  H  H24  1  0.71966000  0.09449000  0.02451000  1.0
  H  H25  1  0.21967000  0.40550000  0.47549000  1.0
  H  H26  1  0.28036000  0.90550000  0.97549000  1.0
  H  H27  1  0.78034000  0.59450000  0.52451000  1.0
  H  H28  1  0.14221000  0.33736000  0.96841000  1.0
  H  H29  1  0.64223000  0.16264000  0.53159000  1.0
  H  H30  1  0.85780000  0.66264000  0.03159000  1.0
  H  H31  1  0.35778000  0.83736000  0.46841000  1.0
  C  C32  1  0.25419000  0.31502000  0.85900000  1.0
  C  C33  1  0.75416000  0.18498000  0.64100000  1.0
  C  C34  1  0.74584000  0.68497000  0.14100000  1.0
  C  C35  1  0.24581000  0.81503000  0.35900000  1.0
  C  C36  1  0.18219000  0.22294000  0.82328000  1.0
  C  C37  1  0.68218000  0.27705000  0.67671000  1.0
  C  C38  1  0.81782000  0.77704000  0.17671000  1.0
  C  C39  1  0.31781000  0.72296000  0.32329000  1.0
  C  C40  1  0.90744000  0.10420000  0.86719000  1.0
  C  C41  1  0.40745000  0.39581000  0.63281000  1.0
  C  C42  1  0.09257000  0.89580000  0.13281000  1.0
  C  C43  1  0.59255000  0.60420000  0.36719000  1.0
  C  C44  1  0.99030000  0.19564000  0.90297000  1.0
  C  C45  1  0.49029000  0.30437000  0.59703000  1.0
  C  C46  1  0.00972000  0.80436000  0.09703000  1.0
  C  C47  1  0.50970000  0.69564000  0.40297000  1.0
  C  C48  1  0.88628000  0.17570000  0.94735000  1.0
  C  C49  1  0.38628000  0.32430000  0.55264000  1.0
  C  C50  1  0.11374000  0.82429000  0.05265000  1.0
  C  C51  1  0.61372000  0.67571000  0.44735000  1.0
  C  C52  1  0.98705000  0.27147000  0.02343000  1.0
  C  C53  1  0.48705000  0.22853000  0.47657000  1.0
  C  C54  1  0.01296000  0.72852000  0.97657000  1.0
  C  C55  1  0.51295000  0.77148000  0.52343000  1.0
  C  C56  1  0.13145000  0.37643000  0.05008000  1.0
  C  C57  1  0.63145000  0.12356000  0.44992000  1.0
  C  C58  1  0.86854000  0.62356000  0.94992000  1.0
  C  C59  1  0.36854000  0.87644000  0.55008000  1.0
  C  C60  1  0.13175000  0.39041000  0.09444000  1.0
  C  C61  1  0.63175000  0.10958000  0.40556000  1.0
  C  C62  1  0.86823000  0.60959000  0.90556000  1.0
  C  C63  1  0.36824000  0.89041000  0.59444000  1.0
  C  C64  1  0.98360000  0.29686000  0.11427000  1.0
  C  C65  1  0.48360000  0.20313000  0.38573000  1.0
  C  C66  1  0.01638000  0.70313000  0.88573000  1.0
  C  C67  1  0.51640000  0.79687000  0.61427000  1.0
  C  C68  1  0.84122000  0.19336000  0.08790000  1.0
  C  C69  1  0.34121000  0.30663000  0.41210000  1.0
  C  C70  1  0.15878000  0.80663000  0.91210000  1.0
  C  C71  1  0.65879000  0.69337000  0.58790000  1.0
  C  C72  1  0.83593000  0.17758000  0.04332000  1.0
  C  C73  1  0.33593000  0.32243000  0.45669000  1.0
  C  C74  1  0.16407000  0.82241000  0.95668000  1.0
  C  C75  1  0.66408000  0.67757000  0.54331000  1.0
  N  N76  1  0.16293000  0.30083000  0.89877000  1.0
  N  N77  1  0.66291000  0.19918000  0.60123000  1.0
  N  N78  1  0.83710000  0.69917000  0.10123000  1.0
  N  N79  1  0.33706000  0.80083000  0.39877000  1.0
  N  N80  1  0.00847000  0.11820000  0.82767000  1.0
  N  N81  1  0.50848000  0.38179000  0.67232000  1.0
  N  N82  1  0.99153000  0.88178000  0.17232000  1.0
  N  N83  1  0.49152000  0.61822000  0.32768000  1.0
  N  N84  1  0.01155000  0.26629000  0.97909000  1.0
  N  N85  1  0.51156000  0.23371000  0.52091000  1.0
  N  N86  1  0.98846000  0.73370000  0.02091000  1.0
  N  N87  1  0.48845000  0.76629000  0.47909000  1.0
  Cl  Cl88  1  0.53620000  0.82803000  0.79793000  1.0
  Cl  Cl89  1  0.03620000  0.67196000  0.70206000  1.0
  Cl  Cl90  1  0.46380000  0.17196000  0.20206000  1.0
  Cl  Cl91  1  0.96380000  0.32805000  0.29794000  1.0
  Cl  Cl92  1  0.28967000  0.04156000  0.71603000  1.0
  Cl  Cl93  1  0.78966000  0.45845000  0.78397000  1.0
  Cl  Cl94  1  0.71032000  0.95845000  0.28397000  1.0
  Cl  Cl95  1  0.21034000  0.54155000  0.21603000  1.0
  O  O96  1  0.70578000  0.08520000  0.95257000  1.0
  O  O97  1  0.20579000  0.41480000  0.54742000  1.0
  O  O98  1  0.29424000  0.91480000  0.04743000  1.0
  O  O99  1  0.79423000  0.58520000  0.45257000  1.0
  F  F100  1  0.28293000  0.46707000  0.03054000  1.0
  F  F101  1  0.78294000  0.03293000  0.46946000  1.0
  F  F102  1  0.71705000  0.53293000  0.96946000  1.0
  F  F103  1  0.21705000  0.96707000  0.53054000  1.0
  F  F104  1  0.69866000  0.10069000  0.10693000  1.0
  F  F105  1  0.19867000  0.39930000  0.39307000  1.0
  F  F106  1  0.30134000  0.89930000  0.89307000  1.0
  F  F107  1  0.80135000  0.60070000  0.60693000  1.0
