# generated using pymatgen
data_Ni2H28C40N4O9
_symmetry_space_group_name_H-M   'P 1'
_cell_length_a   13.70860000
_cell_length_b   13.70860000
_cell_length_c   18.00412073
_cell_angle_alpha   103.09484166
_cell_angle_beta   103.09384156
_cell_angle_gamma   113.87000000
_symmetry_Int_Tables_number   1
_chemical_formula_structural   Ni2H28C40N4O9
_chemical_formula_sum   'Ni4 H56 C80 N8 O18'
_cell_volume   2814.67229698
_cell_formula_units_Z   2
loop_
 _symmetry_equiv_pos_site_id
 _symmetry_equiv_pos_as_xyz
  1  'x, y, z'
loop_
 _atom_site_type_symbol
 _atom_site_label
 _atom_site_symmetry_multiplicity
 _atom_site_fract_x
 _atom_site_fract_y
 _atom_site_fract_z
 _atom_site_occupancy
  Ni  Ni0  1  0.01267000  0.99675000  0.80185000  1.0
  Ni  Ni1  1  0.78930000  0.80526000  0.80186000  1.0
  Ni  Ni2  1  0.74675000  0.26266000  0.30185000  1.0
  Ni  Ni3  1  0.55526000  0.03929000  0.30187000  1.0
  H  H4  1  0.00848000  0.76771000  0.75875000  1.0
  H  H5  1  0.09863000  0.67501000  0.68382000  1.0
  H  H6  1  0.26959000  0.98766000  0.63979000  1.0
  H  H7  1  0.17329000  0.06650000  0.71751000  1.0
  H  H8  1  0.22853000  0.68742000  0.61243000  1.0
  H  H9  1  0.18012000  0.81416000  0.50225000  1.0
  H  H10  1  0.97504000  0.68392000  0.49774000  1.0
  H  H11  1  0.80271000  0.49467000  0.41434000  1.0
  H  H12  1  0.99138000  0.36336000  0.32268000  1.0
  H  H13  1  0.17377000  0.54655000  0.40181000  1.0
  H  H14  1  0.01018000  0.28363000  0.94605000  1.0
  H  H15  1  0.02366000  0.43614000  0.06145000  1.0
  H  H16  1  0.92843000  0.38125000  0.15961000  1.0
  H  H17  1  0.80604000  0.02773000  0.02754000  1.0
  H  H18  1  0.75004000  0.99117000  0.75851000  1.0
  H  H19  1  0.58480000  0.00873000  0.68359000  1.0
  H  H20  1  0.37022000  0.65207000  0.63979000  1.0
  H  H21  1  0.54441000  0.65115000  0.71739000  1.0
  H  H22  1  0.38358000  0.92484000  0.61242000  1.0
  H  H23  1  0.32187000  0.68806000  0.50221000  1.0
  H  H24  1  0.52249000  0.81370000  0.49776000  1.0
  H  H25  1  0.61158000  0.91956000  0.41443000  1.0
  H  H26  1  0.33161000  0.95974000  0.32290000  1.0
  H  H27  1  0.22812000  0.85554000  0.40189000  1.0
  H  H28  1  0.93590000  0.66259000  0.94614000  1.0
  H  H29  1  0.03768000  0.62527000  0.06150000  1.0
  H  H30  1  0.23114000  0.77826000  0.15967000  1.0
  H  H31  1  0.22160000  0.99992000  0.02773000  1.0
  H  H32  1  0.51769000  0.25848000  0.25874000  1.0
  H  H33  1  0.42500000  0.34863000  0.18381000  1.0
  H  H34  1  0.73767000  0.51959000  0.13979000  1.0
  H  H35  1  0.81648000  0.42327000  0.21750000  1.0
  H  H36  1  0.43742000  0.47853000  0.11242000  1.0
  H  H37  1  0.56417000  0.43013000  0.00225000  1.0
  H  H38  1  0.43393000  0.22504000  0.99772000  1.0
  H  H39  1  0.24469000  0.05272000  0.91434000  1.0
  H  H40  1  0.11335000  0.24138000  0.82268000  1.0
  H  H41  1  0.29655000  0.42377000  0.90182000  1.0
  H  H42  1  0.03362000  0.26017000  0.44604000  1.0
  H  H43  1  0.18614000  0.27365000  0.56144000  1.0
  H  H44  1  0.13126000  0.17844000  0.65961000  1.0
  H  H45  1  0.77773000  0.05604000  0.52755000  1.0
  H  H46  1  0.74117000  0.00005000  0.25852000  1.0
  H  H47  1  0.75873000  0.83481000  0.18359000  1.0
  H  H48  1  0.40208000  0.62021000  0.13980000  1.0
  H  H49  1  0.40115000  0.79439000  0.21740000  1.0
  H  H50  1  0.67485000  0.63359000  0.11242000  1.0
  H  H51  1  0.43807000  0.57188000  0.00221000  1.0
  H  H52  1  0.56371000  0.77251000  0.99777000  1.0
  H  H53  1  0.66956000  0.86160000  0.91443000  1.0
  H  H54  1  0.70972000  0.58160000  0.82288000  1.0
  H  H55  1  0.60553000  0.47812000  0.90188000  1.0
  H  H56  1  0.41259000  0.18591000  0.44615000  1.0
  H  H57  1  0.37529000  0.28772000  0.56152000  1.0
  H  H58  1  0.52829000  0.48117000  0.65969000  1.0
  H  H59  1  0.74994000  0.47160000  0.52774000  1.0
  C  C60  1  0.06947000  0.81420000  0.73357000  1.0
  C  C61  1  0.11969000  0.76306000  0.69078000  1.0
  C  C62  1  0.19305000  0.82335000  0.65544000  1.0
  C  C63  1  0.21373000  0.93535000  0.66577000  1.0
  C  C64  1  0.16119000  0.98082000  0.70930000  1.0
  C  C65  1  0.24060000  0.76774000  0.60375000  1.0
  C  C66  1  0.19480000  0.74304000  0.50944000  1.0
  C  C67  1  0.09037000  0.63192000  0.45719000  1.0
  C  C68  1  0.98349000  0.61590000  0.45947000  1.0
  C  C69  1  0.88690000  0.51113000  0.41321000  1.0
  C  C70  1  0.99324000  0.43728000  0.36274000  1.0
  C  C71  1  0.09386000  0.53983000  0.40718000  1.0
  C  C72  1  0.90698000  0.14646000  0.97899000  1.0
  C  C73  1  0.96856000  0.26195000  0.98921000  1.0
  C  C74  1  0.97583000  0.34634000  0.05372000  1.0
  C  C75  1  0.92235000  0.31603000  0.10848000  1.0
  C  C76  1  0.86045000  0.20097000  0.09888000  1.0
  C  C77  1  0.85316000  0.11674000  0.03389000  1.0
  C  C78  1  0.90107000  0.05625000  0.91001000  1.0
  C  C79  1  0.80167000  0.16574000  0.15775000  1.0
  C  C80  1  0.66395000  0.91946000  0.73338000  1.0
  C  C81  1  0.57085000  0.92771000  0.69061000  1.0
  C  C82  1  0.46220000  0.83202000  0.65537000  1.0
  C  C83  1  0.45199000  0.73041000  0.66574000  1.0
  C  C84  1  0.54819000  0.72861000  0.70921000  1.0
  C  C85  1  0.36286000  0.83586000  0.60373000  1.0
  C  C86  1  0.31442000  0.76638000  0.50942000  1.0
  C  C87  1  0.36672000  0.82535000  0.45724000  1.0
  C  C88  1  0.47589000  0.84362000  0.45956000  1.0
  C  C89  1  0.52631000  0.90213000  0.41333000  1.0
  C  C90  1  0.36969000  0.92572000  0.36289000  1.0
  C  C91  1  0.31337000  0.86754000  0.40725000  1.0
  C  C92  1  0.07209000  0.83266000  0.97912000  1.0
  C  C93  1  0.02067000  0.72738000  0.98930000  1.0
  C  C94  1  0.07780000  0.70737000  0.05380000  1.0
  C  C95  1  0.18607000  0.79239000  0.10857000  1.0
  C  C96  1  0.23841000  0.89790000  0.09902000  1.0
  C  C97  1  0.18078000  0.91723000  0.03405000  1.0
  C  C98  1  0.00905000  0.85388000  0.91012000  1.0
  C  C99  1  0.35609000  0.99199000  0.15788000  1.0
  C  C100  1  0.56420000  0.31947000  0.23357000  1.0
  C  C101  1  0.51306000  0.36969000  0.19078000  1.0
  C  C102  1  0.57334000  0.44303000  0.15543000  1.0
  C  C103  1  0.68534000  0.46372000  0.16576000  1.0
  C  C104  1  0.73080000  0.41117000  0.20929000  1.0
  C  C105  1  0.51776000  0.49061000  0.10375000  1.0
  C  C106  1  0.49304000  0.44480000  0.00943000  1.0
  C  C107  1  0.38193000  0.34038000  0.95719000  1.0
  C  C108  1  0.36591000  0.23350000  0.95946000  1.0
  C  C109  1  0.26115000  0.13691000  0.91321000  1.0
  C  C110  1  0.18729000  0.24325000  0.86275000  1.0
  C  C111  1  0.28983000  0.34386000  0.90718000  1.0
  C  C112  1  0.89645000  0.15697000  0.47899000  1.0
  C  C113  1  0.01193000  0.21856000  0.48920000  1.0
  C  C114  1  0.09633000  0.22583000  0.55371000  1.0
  C  C115  1  0.06604000  0.17236000  0.60848000  1.0
  C  C116  1  0.95098000  0.11046000  0.59889000  1.0
  C  C117  1  0.86675000  0.10317000  0.53390000  1.0
  C  C118  1  0.80625000  0.15107000  0.41002000  1.0
  C  C119  1  0.91577000  0.05169000  0.65776000  1.0
  C  C120  1  0.66945000  0.91394000  0.23338000  1.0
  C  C121  1  0.67770000  0.82085000  0.19061000  1.0
  C  C122  1  0.58202000  0.71220000  0.15537000  1.0
  C  C123  1  0.48042000  0.70199000  0.16576000  1.0
  C  C124  1  0.47860000  0.79817000  0.20922000  1.0
  C  C125  1  0.58585000  0.61286000  0.10372000  1.0
  C  C126  1  0.51638000  0.56442000  0.00941000  1.0
  C  C127  1  0.57535000  0.61673000  0.95724000  1.0
  C  C128  1  0.59362000  0.72590000  0.95956000  1.0
  C  C129  1  0.65213000  0.77633000  0.91333000  1.0
  C  C130  1  0.67571000  0.61969000  0.86287000  1.0
  C  C131  1  0.61754000  0.56337000  0.90724000  1.0
  C  C132  1  0.58266000  0.32209000  0.47913000  1.0
  C  C133  1  0.47738000  0.27067000  0.48931000  1.0
  C  C134  1  0.45739000  0.32782000  0.55381000  1.0
  C  C135  1  0.54241000  0.43608000  0.60858000  1.0
  C  C136  1  0.64791000  0.48841000  0.59902000  1.0
  C  C137  1  0.66724000  0.43077000  0.53405000  1.0
  C  C138  1  0.60388000  0.25906000  0.41013000  1.0
  C  C139  1  0.74200000  0.60610000  0.65788000  1.0
  N  N140  1  0.09028000  0.92145000  0.74260000  1.0
  N  N141  1  0.89161000  0.42322000  0.36570000  1.0
  N  N142  1  0.65233000  0.82131000  0.74248000  1.0
  N  N143  1  0.47421000  0.94260000  0.36579000  1.0
  N  N144  1  0.67145000  0.34027000  0.24260000  1.0
  N  N145  1  0.17323000  0.14163000  0.86570000  1.0
  N  N146  1  0.57130000  0.90231000  0.24248000  1.0
  N  N147  1  0.69259000  0.72421000  0.86578000  1.0
  O  O148  1  0.95869000  0.09189000  0.86625000  1.0
  O  O149  1  0.83951000  0.95235000  0.90038000  1.0
  O  O150  1  0.74602000  0.06264000  0.14603000  1.0
  O  O151  1  0.81875000  0.25278000  0.21662000  1.0
  O  O152  1  0.90769000  0.77450000  0.86635000  1.0
  O  O153  1  0.06102000  0.94812000  0.90046000  1.0
  O  O154  1  0.40004000  0.08337000  0.14611000  1.0
  O  O155  1  0.39794000  0.96381000  0.21670000  1.0
  O  O156  1  0.84188000  0.20868000  0.36625000  1.0
  O  O157  1  0.70235000  0.08952000  0.40039000  1.0
  O  O158  1  0.81264000  0.99602000  0.64604000  1.0
  O  O159  1  0.00278000  0.06876000  0.71662000  1.0
  O  O160  1  0.52449000  0.15769000  0.36635000  1.0
  O  O161  1  0.69812000  0.31102000  0.40047000  1.0
  O  O162  1  0.83340000  0.65004000  0.64611000  1.0
  O  O163  1  0.71383000  0.64796000  0.71670000  1.0
  O  O164  1  0.87527000  0.87525000  0.75038000  1.0
  O  O165  1  0.62526000  0.12527000  0.25039000  1.0
