# generated using pymatgen
data_H12PbC12(SO)4
_symmetry_space_group_name_H-M   'P 1'
_cell_length_a   12.27730000
_cell_length_b   16.94790000
_cell_length_c   16.94780000
_cell_angle_alpha   107.55900000
_cell_angle_beta   101.84500000
_cell_angle_gamma   101.84500000
_symmetry_Int_Tables_number   1
_chemical_formula_structural   H12PbC12(SO)4
_chemical_formula_sum   'H72 Pb6 C72 S24 O24'
_cell_volume   3152.72142681
_cell_formula_units_Z   6
loop_
 _symmetry_equiv_pos_site_id
 _symmetry_equiv_pos_as_xyz
  1  'x, y, z'
loop_
 _atom_site_type_symbol
 _atom_site_label
 _atom_site_symmetry_multiplicity
 _atom_site_fract_x
 _atom_site_fract_y
 _atom_site_fract_z
 _atom_site_occupancy
  H  H0  1  0.17246000  0.83372000  0.46177000  1.0
  H  H1  1  0.32754000  0.53823000  0.16628000  1.0
  H  H2  1  0.82754000  0.16628000  0.53823000  1.0
  H  H3  1  0.67246000  0.46177000  0.83372000  1.0
  H  H4  1  0.26131000  0.82295000  0.55354000  1.0
  H  H5  1  0.23869000  0.44646000  0.17705000  1.0
  H  H6  1  0.73869000  0.17705000  0.44646000  1.0
  H  H7  1  0.76131000  0.55354000  0.82295000  1.0
  H  H8  1  0.28557000  0.92616000  0.54131000  1.0
  H  H9  1  0.21443000  0.45869000  0.07383000  1.0
  H  H10  1  0.71443000  0.07384000  0.45869000  1.0
  H  H11  1  0.78557000  0.54131000  0.92616000  1.0
  H  H12  1  0.24626000  0.21172000  0.51089000  1.0
  H  H13  1  0.25374000  0.48911000  0.78828000  1.0
  H  H14  1  0.75374000  0.78828000  0.48911000  1.0
  H  H15  1  0.74626000  0.51089000  0.21172000  1.0
  H  H16  1  0.20082000  0.30766000  0.53879000  1.0
  H  H17  1  0.29918000  0.46121000  0.69233000  1.0
  H  H18  1  0.79918000  0.69234000  0.46121000  1.0
  H  H19  1  0.70082000  0.53879000  0.30767000  1.0
  H  H20  1  0.11124000  0.21572000  0.44655000  1.0
  H  H21  1  0.38876000  0.55345000  0.78428000  1.0
  H  H22  1  0.88876000  0.78428000  0.55345000  1.0
  H  H23  1  0.61124000  0.44655000  0.21572000  1.0
  H  H24  1  0.38166000  0.85795000  0.74501000  1.0
  H  H25  1  0.11834000  0.25499000  0.14205000  1.0
  H  H26  1  0.61834000  0.14205000  0.25499000  1.0
  H  H27  1  0.88166000  0.74501000  0.85795000  1.0
  H  H28  1  0.45635000  0.90018000  0.67954000  1.0
  H  H29  1  0.04365000  0.32046000  0.09982000  1.0
  H  H30  1  0.54365000  0.09982000  0.32046000  1.0
  H  H31  1  0.95635000  0.67954000  0.90018000  1.0
  H  H32  1  0.38692000  0.96558000  0.74465000  1.0
  H  H33  1  0.11308000  0.25535000  0.03442000  1.0
  H  H34  1  0.61308000  0.03442000  0.25535000  1.0
  H  H35  1  0.88692000  0.74465000  0.96558000  1.0
  H  H36  1  0.27258000  0.11156000  0.08805000  1.0
  H  H37  1  0.22742000  0.91195000  0.88844000  1.0
  H  H38  1  0.72742000  0.88843000  0.91195000  1.0
  H  H39  1  0.77259000  0.08805000  0.11157000  1.0
  H  H40  1  0.28723000  0.21920000  0.08868000  1.0
  H  H41  1  0.21277000  0.91132000  0.78080000  1.0
  H  H42  1  0.71277000  0.78080000  0.91132000  1.0
  H  H43  1  0.78723000  0.08868000  0.21920000  1.0
  H  H44  1  0.26412000  0.13460000  0.98949000  1.0
  H  H45  1  0.23588000  0.01051000  0.86540000  1.0
  H  H46  1  0.73588000  0.86540000  0.01051000  1.0
  H  H47  1  0.76412000  0.98949000  0.13460000  1.0
  H  H48  1  0.79182000  0.93836000  0.54506000  1.0
  H  H49  1  0.70818000  0.45494000  0.06163000  1.0
  H  H50  1  0.20818000  0.06164000  0.45494000  1.0
  H  H51  1  0.29182000  0.54506000  0.93836000  1.0
  H  H52  1  0.85504000  0.94684000  0.65432000  1.0
  H  H53  1  0.64496000  0.34568000  0.05316000  1.0
  H  H54  1  0.14496000  0.05316000  0.34568000  1.0
  H  H55  1  0.35504000  0.65432000  0.94684000  1.0
  H  H56  1  0.82361000  0.03863000  0.63414000  1.0
  H  H57  1  0.67639000  0.36586000  0.96137000  1.0
  H  H58  1  0.17639000  0.96137000  0.36586000  1.0
  H  H59  1  0.32361000  0.63414000  0.03863000  1.0
  H  H60  1  0.59306000  0.24447000  0.49344000  1.0
  H  H61  1  0.90694000  0.50656000  0.75553000  1.0
  H  H62  1  0.40694000  0.75553000  0.50656000  1.0
  H  H63  1  0.09306000  0.49344000  0.24447000  1.0
  H  H64  1  0.60641000  0.32314000  0.59565000  1.0
  H  H65  1  0.89359000  0.40435000  0.67686000  1.0
  H  H66  1  0.39359000  0.67686000  0.40435000  1.0
  H  H67  1  0.10641000  0.59565000  0.32314000  1.0
  H  H68  1  0.68124000  0.24262000  0.59207000  1.0
  H  H69  1  0.81876000  0.40793000  0.75738000  1.0
  H  H70  1  0.31875000  0.75738000  0.40793000  1.0
  H  H71  1  0.18125000  0.59207000  0.24262000  1.0
  Pb  Pb72  1  0.42488000  0.19800000  0.77621000  1.0
  Pb  Pb73  1  0.07512000  0.22379000  0.80200000  1.0
  Pb  Pb74  1  0.57512000  0.80200000  0.22379000  1.0
  Pb  Pb75  1  0.92488000  0.77621000  0.19800000  1.0
  Pb  Pb76  1  0.75000000  0.14640000  0.85360000  1.0
  Pb  Pb77  1  0.25000000  0.85360000  0.14640000  1.0
  C  C78  1  0.20066000  0.08449000  0.65068000  1.0
  C  C79  1  0.29934000  0.34932000  0.91551000  1.0
  C  C80  1  0.79934000  0.91551000  0.34932000  1.0
  C  C81  1  0.70066000  0.65068000  0.08450000  1.0
  C  C82  1  0.09324000  0.04061000  0.57480000  1.0
  C  C83  1  0.40676000  0.42520000  0.95939000  1.0
  C  C84  1  0.90676000  0.95939000  0.42520000  1.0
  C  C85  1  0.59324000  0.57480000  0.04061000  1.0
  C  C86  1  0.05201000  0.95002000  0.54065000  1.0
  C  C87  1  0.44799000  0.45935000  0.04997000  1.0
  C  C88  1  0.94799000  0.04997000  0.45935000  1.0
  C  C89  1  0.55201000  0.54065000  0.95003000  1.0
  C  C90  1  0.04246000  0.09137000  0.53488000  1.0
  C  C91  1  0.45754000  0.46512000  0.90863000  1.0
  C  C92  1  0.95754000  0.90863000  0.46512000  1.0
  C  C93  1  0.54246000  0.53489000  0.09137000  1.0
  C  C94  1  0.21980000  0.86648000  0.53053000  1.0
  C  C95  1  0.28020000  0.46947000  0.13352000  1.0
  C  C96  1  0.78020000  0.13352000  0.46947000  1.0
  C  C97  1  0.71980000  0.53053000  0.86648000  1.0
  C  C98  1  0.17082000  0.23676000  0.51159000  1.0
  C  C99  1  0.32918000  0.48841000  0.76324000  1.0
  C  C100  1  0.82918000  0.76324000  0.48841000  1.0
  C  C101  1  0.67082000  0.51159000  0.23676000  1.0
  C  C102  1  0.50173000  0.11994000  0.90866000  1.0
  C  C103  1  0.99827000  0.09134000  0.88006000  1.0
  C  C104  1  0.49827000  0.88006000  0.09134000  1.0
  C  C105  1  0.00173000  0.90866000  0.11994000  1.0
  C  C106  1  0.50476000  0.05868000  0.95727000  1.0
  C  C107  1  0.99524000  0.04272000  0.94132000  1.0
  C  C108  1  0.49524000  0.94131000  0.04272000  1.0
  C  C109  1  0.00476000  0.95728000  0.05869000  1.0
  C  C110  1  0.52659000  0.97943000  0.92046000  1.0
  C  C111  1  0.97342000  0.07954000  0.02057000  1.0
  C  C112  1  0.47341000  0.02057000  0.07954000  1.0
  C  C113  1  0.02659000  0.92046000  0.97943000  1.0
  C  C114  1  0.47899000  0.08032000  0.03677000  1.0
  C  C115  1  0.02101000  0.96323000  0.91968000  1.0
  C  C116  1  0.52101000  0.91967000  0.96322000  1.0
  C  C117  1  0.97899000  0.03677000  0.08033000  1.0
  C  C118  1  0.43354000  0.91661000  0.74055000  1.0
  C  C119  1  0.06646000  0.25945000  0.08339000  1.0
  C  C120  1  0.56646000  0.08339000  0.25945000  1.0
  C  C121  1  0.93354000  0.74055000  0.91661000  1.0
  C  C122  1  0.30522000  0.15803000  0.05918000  1.0
  C  C123  1  0.19478000  0.94082000  0.84197000  1.0
  C  C124  1  0.69478000  0.84197000  0.94082000  1.0
  C  C125  1  0.80522000  0.05918000  0.15804000  1.0
  C  C126  1  0.62404000  0.10938000  0.67636000  1.0
  C  C127  1  0.87596000  0.32364000  0.89062000  1.0
  C  C128  1  0.37596000  0.89062000  0.32364000  1.0
  C  C129  1  0.12404000  0.67636000  0.10938000  1.0
  C  C130  1  0.55936000  0.05395000  0.58428000  1.0
  C  C131  1  0.94064000  0.41572000  0.94605000  1.0
  C  C132  1  0.44064000  0.94605000  0.41572000  1.0
  C  C133  1  0.05936000  0.58428000  0.05395000  1.0
  C  C134  1  0.57022000  0.96965000  0.55460000  1.0
  C  C135  1  0.92978000  0.44540000  0.03035000  1.0
  C  C136  1  0.42978000  0.03035000  0.44540000  1.0
  C  C137  1  0.07022000  0.55460000  0.96965000  1.0
  C  C138  1  0.49014000  0.08502000  0.53116000  1.0
  C  C139  1  0.00986000  0.46884000  0.91498000  1.0
  C  C140  1  0.50986000  0.91498000  0.46884000  1.0
  C  C141  1  0.99014000  0.53116000  0.08502000  1.0
  C  C142  1  0.79570000  0.96806000  0.61293000  1.0
  C  C143  1  0.70430000  0.38708000  0.03194000  1.0
  C  C144  1  0.20430000  0.03194000  0.38707000  1.0
  C  C145  1  0.29570000  0.61292000  0.96806000  1.0
  C  C146  1  0.60228000  0.25568000  0.56206000  1.0
  C  C147  1  0.89772000  0.43794000  0.74432000  1.0
  C  C148  1  0.39772000  0.74432000  0.43794000  1.0
  C  C149  1  0.10228000  0.56206000  0.25569000  1.0
  S  S150  1  0.12032000  0.88987000  0.59399000  1.0
  S  S151  1  0.37968000  0.40601000  0.11013000  1.0
  S  S152  1  0.87968000  0.11013000  0.40601000  1.0
  S  S153  1  0.62032000  0.59399000  0.88987000  1.0
  S  S154  1  0.09495000  0.20588000  0.58383000  1.0
  S  S155  1  0.40505000  0.41617000  0.79412000  1.0
  S  S156  1  0.90505000  0.79412000  0.41617000  1.0
  S  S157  1  0.59495000  0.58383000  0.20588000  1.0
  S  S158  1  0.57089000  0.95772000  0.82434000  1.0
  S  S159  1  0.92911000  0.17566000  0.04228000  1.0
  S  S160  1  0.42911000  0.04228000  0.17566000  1.0
  S  S161  1  0.07089000  0.82434000  0.95772000  1.0
  S  S162  1  0.46166000  0.18422000  0.08287000  1.0
  S  S163  1  0.03835000  0.91713000  0.81578000  1.0
  S  S164  1  0.53834000  0.81577000  0.91713000  1.0
  S  S165  1  0.96166000  0.08287000  0.18423000  1.0
  S  S166  1  0.65397000  0.93315000  0.62747000  1.0
  S  S167  1  0.84603000  0.37253000  0.06685000  1.0
  S  S168  1  0.34603000  0.06685000  0.37253000  1.0
  S  S169  1  0.15397000  0.62747000  0.93315000  1.0
  S  S170  1  0.47525000  0.19050000  0.57518000  1.0
  S  S171  1  0.02475000  0.42482000  0.80950000  1.0
  S  S172  1  0.52475000  0.80950000  0.42482000  1.0
  S  S173  1  0.97525000  0.57518000  0.19051000  1.0
  O  O174  1  0.19290000  0.12049000  0.72593000  1.0
  O  O175  1  0.30710000  0.27407000  0.87951000  1.0
  O  O176  1  0.80710000  0.87951000  0.27407000  1.0
  O  O177  1  0.69290000  0.72593000  0.12049000  1.0
  O  O178  1  0.29741000  0.08590000  0.63393000  1.0
  O  O179  1  0.20259000  0.36607000  0.91410000  1.0
  O  O180  1  0.70259000  0.91410000  0.36607000  1.0
  O  O181  1  0.79741000  0.63393000  0.08590000  1.0
  O  O182  1  0.40489000  0.10230000  0.85163000  1.0
  O  O183  1  0.09511000  0.14837000  0.89770000  1.0
  O  O184  1  0.59512000  0.89770000  0.14837000  1.0
  O  O185  1  0.90489000  0.85163000  0.10230000  1.0
  O  O186  1  0.58960000  0.18239000  0.92449000  1.0
  O  O187  1  0.91040000  0.07551000  0.81761000  1.0
  O  O188  1  0.41041000  0.81761000  0.07550000  1.0
  O  O189  1  0.08960000  0.92449000  0.18239000  1.0
  O  O190  1  0.56673000  0.11383000  0.73245000  1.0
  O  O191  1  0.93327000  0.26755000  0.88618000  1.0
  O  O192  1  0.43327000  0.88618000  0.26755000  1.0
  O  O193  1  0.06673000  0.73245000  0.11382000  1.0
  O  O194  1  0.73208000  0.14297000  0.69581000  1.0
  O  O195  1  0.76792000  0.30419000  0.85702000  1.0
  O  O196  1  0.26792000  0.85703000  0.30419000  1.0
  O  O197  1  0.23208000  0.69581000  0.14298000  1.0
