# generated using pymatgen
data_SrH18(C11O3)2
_symmetry_space_group_name_H-M   'P 1'
_cell_length_a   7.91730000
_cell_length_b   11.26310000
_cell_length_c   11.96933348
_cell_angle_alpha   61.92682420
_cell_angle_beta   85.68767983
_cell_angle_gamma   90.00230000
_symmetry_Int_Tables_number   1
_chemical_formula_structural   SrH18(C11O3)2
_chemical_formula_sum   'Sr2 H36 C44 O12'
_cell_volume   938.34168163
_cell_formula_units_Z   2
loop_
 _symmetry_equiv_pos_site_id
 _symmetry_equiv_pos_as_xyz
  1  'x, y, z'
loop_
 _atom_site_type_symbol
 _atom_site_label
 _atom_site_symmetry_multiplicity
 _atom_site_fract_x
 _atom_site_fract_y
 _atom_site_fract_z
 _atom_site_occupancy
  Sr  Sr0  1  0.25005000  0.55648000  0.99996000  1.0
  Sr  Sr1  1  0.74995000  0.44352000  0.00004000  1.0
  H  H2  1  0.53603000  0.76885000  0.82950000  1.0
  H  H3  1  0.96383000  0.59845000  0.17025000  1.0
  H  H4  1  0.46397000  0.23115000  0.17050000  1.0
  H  H5  1  0.03617000  0.40155000  0.82975000  1.0
  H  H6  1  0.39199000  0.87669000  0.80017000  1.0
  H  H7  1  0.10785000  0.67677000  0.19980000  1.0
  H  H8  1  0.60800000  0.12331000  0.19983000  1.0
  H  H9  1  0.89215000  0.32323000  0.80020000  1.0
  H  H10  1  0.94664000  0.15984000  0.04231000  1.0
  H  H11  1  0.55310000  0.20190000  0.95792000  1.0
  H  H12  1  0.05335000  0.84016000  0.95769000  1.0
  H  H13  1  0.44691000  0.79811000  0.04208000  1.0
  H  H14  1  0.85546000  0.91950000  0.11711000  1.0
  H  H15  1  0.64429000  0.03626000  0.88320000  1.0
  H  H16  1  0.14454000  0.08050000  0.88290000  1.0
  H  H17  1  0.35572000  0.96374000  0.11680000  1.0
  H  H18  1  0.92759000  0.74258000  0.32889000  1.0
  H  H19  1  0.57250000  0.07134000  0.67125000  1.0
  H  H20  1  0.07241000  0.25742000  0.67111000  1.0
  H  H21  1  0.42751000  0.92866000  0.32875000  1.0
  H  H22  1  0.05365000  0.67669000  0.52745000  1.0
  H  H23  1  0.44653000  0.20409000  0.47258000  1.0
  H  H24  1  0.94636000  0.32331000  0.47255000  1.0
  H  H25  1  0.55346000  0.79591000  0.52742000  1.0
  H  H26  1  0.21771000  0.73424000  0.66588000  1.0
  H  H27  1  0.28234000  0.40001000  0.33423000  1.0
  H  H28  1  0.78229000  0.26577000  0.33412000  1.0
  H  H29  1  0.71767000  0.59999000  0.66577000  1.0
  H  H30  1  0.31195000  0.97324000  0.59120000  1.0
  H  H31  1  0.18803000  0.56427000  0.40891000  1.0
  H  H32  1  0.68805000  0.02676000  0.40880000  1.0
  H  H33  1  0.81196000  0.43572000  0.59109000  1.0
  H  H34  1  0.24803000  0.15125000  0.38100000  1.0
  H  H35  1  0.25164000  0.53197000  0.61917000  1.0
  H  H36  1  0.75197000  0.84875000  0.61899000  1.0
  H  H37  1  0.74835000  0.46803000  0.38083000  1.0
  C  C38  1  0.12561000  0.26284000  0.15578000  1.0
  C  C39  1  0.37438000  0.41847000  0.84424000  1.0
  C  C40  1  0.87438000  0.73717000  0.84422000  1.0
  C  C41  1  0.62562000  0.58153000  0.15576000  1.0
  C  C42  1  0.07452000  0.11723000  0.20753000  1.0
  C  C43  1  0.42523000  0.32443000  0.79268000  1.0
  C  C44  1  0.92548000  0.88277000  0.79247000  1.0
  C  C45  1  0.57477000  0.67556000  0.20733000  1.0
  C  C46  1  0.98003000  0.08126000  0.13424000  1.0
  C  C47  1  0.51966000  0.21514000  0.86605000  1.0
  C  C48  1  0.01997000  0.91875000  0.86576000  1.0
  C  C49  1  0.48034000  0.78486000  0.13395000  1.0
  C  C50  1  0.92941000  0.94569000  0.17629000  1.0
  C  C51  1  0.57029000  0.12163000  0.82401000  1.0
  C  C52  1  0.07059000  0.05432000  0.82371000  1.0
  C  C53  1  0.42971000  0.87837000  0.17599000  1.0
  C  C54  1  0.97036000  0.84719000  0.29341000  1.0
  C  C55  1  0.52957000  0.14040000  0.70679000  1.0
  C  C56  1  0.02964000  0.15282000  0.70659000  1.0
  C  C57  1  0.47043000  0.85960000  0.29321000  1.0
  C  C58  1  0.06302000  0.88002000  0.37260000  1.0
  C  C59  1  0.43700000  0.25244000  0.62755000  1.0
  C  C60  1  0.93698000  0.11998000  0.62740000  1.0
  C  C61  1  0.56301000  0.74755000  0.37246000  1.0
  C  C62  1  0.10043000  0.77976000  0.49494000  1.0
  C  C63  1  0.39977000  0.27461000  0.50514000  1.0
  C  C64  1  0.89957000  0.22023000  0.50507000  1.0
  C  C65  1  0.60023000  0.72539000  0.49486000  1.0
  C  C66  1  0.18994000  0.81189000  0.57199000  1.0
  C  C67  1  0.31024000  0.38382000  0.42808000  1.0
  C  C68  1  0.81006000  0.18811000  0.42801000  1.0
  C  C69  1  0.68977000  0.61618000  0.57192000  1.0
  C  C70  1  0.24372000  0.94715000  0.52945000  1.0
  C  C71  1  0.25633000  0.47649000  0.47065000  1.0
  C  C72  1  0.75627000  0.05285000  0.47055000  1.0
  C  C73  1  0.74368000  0.52351000  0.52935000  1.0
  C  C74  1  0.20870000  0.04733000  0.41168000  1.0
  C  C75  1  0.29122000  0.45881000  0.58847000  1.0
  C  C76  1  0.79129000  0.95267000  0.58832000  1.0
  C  C77  1  0.70878000  0.54118000  0.41153000  1.0
  C  C78  1  0.11870000  0.01719000  0.32917000  1.0
  C  C79  1  0.38117000  0.34612000  0.67101000  1.0
  C  C80  1  0.88130000  0.98281000  0.67083000  1.0
  C  C81  1  0.61883000  0.65388000  0.32899000  1.0
  O  O82  1  0.27598000  0.29721000  0.16418000  1.0
  O  O83  1  0.22413000  0.46148000  0.83568000  1.0
  O  O84  1  0.72402000  0.70279000  0.83582000  1.0
  O  O85  1  0.77587000  0.53852000  0.16432000  1.0
  O  O86  1  0.01677000  0.35064000  0.10153000  1.0
  O  O87  1  0.48330000  0.45196000  0.89846000  1.0
  O  O88  1  0.98323000  0.64937000  0.89846000  1.0
  O  O89  1  0.51670000  0.54804000  0.10154000  1.0
  O  O90  1  0.41116000  0.78078000  0.84113000  1.0
  O  O91  1  0.08867000  0.62217000  0.15851000  1.0
  O  O92  1  0.58883000  0.21921000  0.15888000  1.0
  O  O93  1  0.91132000  0.37783000  0.84149000  1.0
