# generated using pymatgen
data_Tb2Cu3H24(C4O5)6
_symmetry_space_group_name_H-M   'P 1'
_cell_length_a   13.06467080
_cell_length_b   13.06530000
_cell_length_c   16.20520000
_cell_angle_alpha   89.99980000
_cell_angle_beta   89.99990007
_cell_angle_gamma   60.05122564
_symmetry_Int_Tables_number   1
_chemical_formula_structural   Tb2Cu3H24(C4O5)6
_chemical_formula_sum   'Tb4 Cu6 H48 C48 O60'
_cell_volume   2396.77258543
_cell_formula_units_Z   2
loop_
 _symmetry_equiv_pos_site_id
 _symmetry_equiv_pos_as_xyz
  1  'x, y, z'
loop_
 _atom_site_type_symbol
 _atom_site_label
 _atom_site_symmetry_multiplicity
 _atom_site_fract_x
 _atom_site_fract_y
 _atom_site_fract_z
 _atom_site_occupancy
  Tb  Tb0  1  0.33333333  0.33333333  0.75000000  1.0
  Tb  Tb1  1  0.66666667  0.66661333  0.75002000  1.0
  Tb  Tb2  1  0.66666667  0.66662333  0.25000000  1.0
  Tb  Tb3  1  0.33333333  0.33333333  0.25000000  1.0
  Cu  Cu4  1  0.00000000  0.50000000  0.50001000  1.0
  Cu  Cu5  1  0.50001000  0.50000000  0.50001000  1.0
  Cu  Cu6  1  0.49999000  0.00000000  0.49999000  1.0
  Cu  Cu7  1  0.49999000  0.00001000  0.00000000  1.0
  Cu  Cu8  1  0.50000000  0.50000000  0.00001000  1.0
  Cu  Cu9  1  1.00000000  0.50002000  0.99999000  1.0
  H  H10  1  0.19095000  0.65155000  0.64359000  1.0
  H  H11  1  0.06522000  0.68986000  0.70836000  1.0
  H  H12  1  0.65141000  0.15763000  0.64359000  1.0
  H  H13  1  0.68994000  0.24498000  0.70830000  1.0
  H  H14  1  0.15759000  0.19084000  0.64359000  1.0
  H  H15  1  0.24488000  0.06512000  0.70836000  1.0
  H  H16  1  0.80902000  0.34849000  0.64360000  1.0
  H  H17  1  0.93478000  0.31014000  0.70836000  1.0
  H  H18  1  0.34860000  0.84234000  0.64359000  1.0
  H  H19  1  0.31008000  0.75499000  0.70831000  1.0
  H  H20  1  0.84240000  0.80910000  0.64359000  1.0
  H  H21  1  0.75515000  0.93487000  0.70832000  1.0
  H  H22  1  0.34844000  0.80905000  0.85641000  1.0
  H  H23  1  0.31014000  0.93477000  0.79165000  1.0
  H  H24  1  0.84235000  0.34856000  0.85642000  1.0
  H  H25  1  0.75497000  0.31010000  0.79168000  1.0
  H  H26  1  0.80916000  0.84243000  0.85641000  1.0
  H  H27  1  0.93487000  0.75513000  0.79164000  1.0
  H  H28  1  0.65154000  0.19095000  0.85641000  1.0
  H  H29  1  0.68986000  0.06522000  0.79165000  1.0
  H  H30  1  0.15763000  0.65139000  0.85641000  1.0
  H  H31  1  0.24498000  0.68993000  0.79172000  1.0
  H  H32  1  0.19087000  0.15762000  0.85641000  1.0
  H  H33  1  0.06513000  0.24486000  0.79166000  1.0
  H  H34  1  0.80908000  0.34843000  0.35640000  1.0
  H  H35  1  0.93481000  0.31015000  0.29163000  1.0
  H  H36  1  0.34859000  0.84236000  0.35642000  1.0
  H  H37  1  0.31010000  0.75498000  0.29170000  1.0
  H  H38  1  0.84240000  0.80919000  0.35640000  1.0
  H  H39  1  0.75510000  0.93490000  0.29163000  1.0
  H  H40  1  0.19092000  0.65156000  0.35640000  1.0
  H  H41  1  0.06520000  0.68984000  0.29164000  1.0
  H  H42  1  0.65144000  0.15765000  0.35641000  1.0
  H  H43  1  0.68990000  0.24503000  0.29168000  1.0
  H  H44  1  0.15760000  0.19079000  0.35639000  1.0
  H  H45  1  0.24489000  0.06511000  0.29161000  1.0
  H  H46  1  0.65151000  0.19100000  0.14359000  1.0
  H  H47  1  0.68986000  0.06524000  0.20833000  1.0
  H  H48  1  0.15764000  0.65139000  0.14358000  1.0
  H  H49  1  0.24498000  0.68992000  0.20831000  1.0
  H  H50  1  0.19090000  0.15759000  0.14357000  1.0
  H  H51  1  0.06514000  0.24483000  0.20830000  1.0
  H  H52  1  0.34849000  0.80900000  0.14360000  1.0
  H  H53  1  0.31015000  0.93475000  0.20834000  1.0
  H  H54  1  0.84237000  0.34860000  0.14358000  1.0
  H  H55  1  0.75502000  0.31007000  0.20830000  1.0
  H  H56  1  0.80912000  0.84240000  0.14358000  1.0
  H  H57  1  0.93487000  0.75516000  0.20833000  1.0
  C  C58  1  0.12164000  0.53321000  0.63462000  1.0
  C  C59  1  0.14821000  0.61618000  0.68441000  1.0
  C  C60  1  0.53329000  0.34512000  0.63460000  1.0
  C  C61  1  0.61616000  0.23568000  0.68436000  1.0
  C  C62  1  0.34513000  0.12166000  0.63461000  1.0
  C  C63  1  0.23563000  0.14816000  0.68439000  1.0
  C  C64  1  0.87837000  0.46681000  0.63464000  1.0
  C  C65  1  0.85178000  0.38385000  0.68442000  1.0
  C  C66  1  0.46674000  0.65485000  0.63461000  1.0
  C  C67  1  0.38386000  0.76429000  0.68437000  1.0
  C  C68  1  0.65485000  0.87834000  0.63461000  1.0
  C  C69  1  0.76436000  0.85183000  0.68438000  1.0
  C  C70  1  0.46678000  0.87837000  0.86539000  1.0
  C  C71  1  0.38382000  0.85179000  0.81560000  1.0
  C  C72  1  0.65487000  0.46672000  0.86541000  1.0
  C  C73  1  0.76429000  0.38386000  0.81564000  1.0
  C  C74  1  0.87834000  0.65489000  0.86540000  1.0
  C  C75  1  0.85183000  0.76439000  0.81561000  1.0
  C  C76  1  0.53319000  0.12164000  0.86538000  1.0
  C  C77  1  0.61617000  0.14821000  0.81560000  1.0
  C  C78  1  0.34512000  0.53328000  0.86541000  1.0
  C  C79  1  0.23569000  0.61614000  0.81564000  1.0
  C  C80  1  0.12165000  0.34515000  0.86538000  1.0
  C  C81  1  0.14816000  0.23564000  0.81561000  1.0
  C  C82  1  0.87837000  0.46679000  0.36538000  1.0
  C  C83  1  0.85181000  0.38382000  0.31559000  1.0
  C  C84  1  0.46674000  0.65487000  0.36541000  1.0
  C  C85  1  0.38387000  0.76429000  0.31564000  1.0
  C  C86  1  0.65487000  0.87834000  0.36539000  1.0
  C  C87  1  0.76436000  0.85186000  0.31561000  1.0
  C  C88  1  0.12163000  0.53319000  0.36538000  1.0
  C  C89  1  0.14819000  0.61617000  0.31559000  1.0
  C  C90  1  0.53326000  0.34514000  0.36540000  1.0
  C  C91  1  0.61614000  0.23571000  0.31563000  1.0
  C  C92  1  0.34512000  0.12165000  0.36538000  1.0
  C  C93  1  0.23564000  0.14813000  0.31559000  1.0
  C  C94  1  0.53319000  0.12164000  0.13462000  1.0
  C  C95  1  0.61616000  0.14822000  0.18440000  1.0
  C  C96  1  0.34513000  0.53328000  0.13461000  1.0
  C  C97  1  0.23570000  0.61614000  0.18436000  1.0
  C  C98  1  0.12166000  0.34513000  0.13459000  1.0
  C  C99  1  0.14817000  0.23563000  0.18436000  1.0
  C  C100  1  0.46682000  0.87835000  0.13462000  1.0
  C  C101  1  0.38385000  0.85177000  0.18440000  1.0
  C  C102  1  0.65488000  0.46672000  0.13460000  1.0
  C  C103  1  0.76431000  0.38386000  0.18436000  1.0
  C  C104  1  0.87835000  0.65487000  0.13461000  1.0
  C  C105  1  0.85184000  0.76437000  0.18438000  1.0
  O  O106  1  0.18083000  0.42400000  0.64889000  1.0
  O  O107  1  0.04017000  0.58536000  0.58130000  1.0
  O  O108  1  0.42410000  0.39509000  0.64896000  1.0
  O  O109  1  0.58544000  0.37452000  0.58125000  1.0
  O  O110  1  0.39523000  0.18089000  0.64891000  1.0
  O  O111  1  0.37442000  0.04013000  0.58131000  1.0
  O  O112  1  0.81918000  0.57602000  0.64892000  1.0
  O  O113  1  0.95982000  0.41466000  0.58131000  1.0
  O  O114  1  0.57593000  0.60489000  0.64898000  1.0
  O  O115  1  0.41460000  0.62546000  0.58126000  1.0
  O  O116  1  0.60475000  0.81911000  0.64893000  1.0
  O  O117  1  0.62556000  0.95987000  0.58131000  1.0
  O  O118  1  0.57600000  0.81917000  0.85113000  1.0
  O  O119  1  0.41463000  0.95984000  0.91871000  1.0
  O  O120  1  0.60491000  0.57592000  0.85106000  1.0
  O  O121  1  0.62547000  0.41457000  0.91876000  1.0
  O  O122  1  0.81910000  0.60480000  0.85110000  1.0
  O  O123  1  0.95988000  0.62559000  0.91868000  1.0
  O  O124  1  0.42398000  0.18083000  0.85110000  1.0
  O  O125  1  0.58534000  0.04018000  0.91870000  1.0
  O  O126  1  0.39509000  0.42409000  0.85104000  1.0
  O  O127  1  0.37452000  0.58542000  0.91876000  1.0
  O  O128  1  0.18089000  0.39524000  0.85107000  1.0
  O  O129  1  0.04011000  0.37446000  0.91867000  1.0
  O  O130  1  0.81918000  0.57600000  0.35111000  1.0
  O  O131  1  0.95983000  0.41464000  0.41871000  1.0
  O  O132  1  0.57594000  0.60490000  0.35105000  1.0
  O  O133  1  0.41460000  0.62547000  0.41876000  1.0
  O  O134  1  0.60478000  0.81910000  0.35108000  1.0
  O  O135  1  0.62556000  0.95988000  0.41867000  1.0
  O  O136  1  0.18083000  0.42398000  0.35111000  1.0
  O  O137  1  0.04017000  0.58535000  0.41871000  1.0
  O  O138  1  0.42407000  0.39510000  0.35104000  1.0
  O  O139  1  0.58541000  0.37453000  0.41875000  1.0
  O  O140  1  0.39521000  0.18089000  0.35108000  1.0
  O  O141  1  0.37442000  0.04012000  0.41867000  1.0
  O  O142  1  0.42398000  0.18083000  0.14889000  1.0
  O  O143  1  0.58535000  0.04017000  0.08129000  1.0
  O  O144  1  0.39511000  0.42408000  0.14898000  1.0
  O  O145  1  0.37453000  0.58542000  0.08126000  1.0
  O  O146  1  0.18089000  0.39523000  0.14891000  1.0
  O  O147  1  0.04013000  0.37443000  0.08130000  1.0
  O  O148  1  0.57603000  0.81917000  0.14889000  1.0
  O  O149  1  0.41466000  0.95981000  0.08130000  1.0
  O  O150  1  0.60490000  0.57592000  0.14897000  1.0
  O  O151  1  0.62548000  0.41458000  0.08125000  1.0
  O  O152  1  0.81912000  0.60477000  0.14893000  1.0
  O  O153  1  0.95989000  0.62557000  0.08133000  1.0
  O  O154  1  0.22510000  0.54978000  0.75000000  1.0
  O  O155  1  0.54978000  0.22509000  0.74999000  1.0
  O  O156  1  0.22511000  0.22513000  0.74999000  1.0
  O  O157  1  0.77492000  0.45023000  0.75003000  1.0
  O  O158  1  0.45022000  0.77490000  0.75000000  1.0
  O  O159  1  0.77484000  0.77492000  0.75002000  1.0
  O  O160  1  0.77491000  0.45022000  0.24999000  1.0
  O  O161  1  0.45024000  0.77491000  0.25002000  1.0
  O  O162  1  0.77490000  0.77487000  0.25001000  1.0
  O  O163  1  0.22509000  0.54977000  0.25000000  1.0
  O  O164  1  0.54977000  0.22508000  0.25002000  1.0
  O  O165  1  0.22509000  0.22514000  0.25000000  1.0
