# generated using pymatgen
data_Cu2H11(C4N)4
_symmetry_space_group_name_H-M   'P 1'
_cell_length_a   25.71790000
_cell_length_b   27.51840000
_cell_length_c   28.04300000
_cell_angle_alpha   90.96670000
_cell_angle_beta   91.09630000
_cell_angle_gamma   90.26140000
_symmetry_Int_Tables_number   1
_chemical_formula_structural   Cu2H11(C4N)4
_chemical_formula_sum   'Cu12 H66 C96 N24'
_cell_volume   19839.77060136
_cell_formula_units_Z   6
loop_
 _symmetry_equiv_pos_site_id
 _symmetry_equiv_pos_as_xyz
  1  'x, y, z'
loop_
 _atom_site_type_symbol
 _atom_site_label
 _atom_site_symmetry_multiplicity
 _atom_site_fract_x
 _atom_site_fract_y
 _atom_site_fract_z
 _atom_site_occupancy
  Cu  Cu0  1  0.77824000  0.75850000  0.84549000  1.0
  Cu  Cu1  1  0.88729000  0.77295000  0.80056000  1.0
  Cu  Cu2  1  0.78904000  0.82807000  0.75717000  1.0
  Cu  Cu3  1  0.76374000  0.21606000  0.15217000  1.0
  Cu  Cu4  1  0.84782000  0.20212000  0.23651000  1.0
  Cu  Cu5  1  0.78301000  0.11335000  0.19953000  1.0
  Cu  Cu6  1  0.25612000  0.79872000  0.13318000  1.0
  Cu  Cu7  1  0.17736000  0.79655000  0.21784000  1.0
  Cu  Cu8  1  0.23346000  0.89535000  0.18798000  1.0
  Cu  Cu9  1  0.18501000  0.24158000  0.87086000  1.0
  Cu  Cu10  1  0.08514000  0.20930000  0.81371000  1.0
  Cu  Cu11  1  0.19571000  0.16861000  0.78289000  1.0
  H  H12  1  0.80147000  0.66933000  0.91478000  1.0
  H  H13  1  0.95621000  0.70432000  0.86702000  1.0
  H  H14  1  0.69014000  0.89499000  0.77005000  1.0
  H  H15  1  0.68293000  0.80652000  0.89602000  1.0
  H  H16  1  0.97664000  0.82586000  0.74433000  1.0
  H  H17  1  0.84068000  0.88167000  0.67046000  1.0
  H  H18  1  0.80414000  0.31254000  0.10705000  1.0
  H  H19  1  0.92659000  0.28391000  0.21075000  1.0
  H  H20  1  0.71374000  0.04649000  0.13214000  1.0
  H  H21  1  0.67404000  0.18738000  0.07562000  1.0
  H  H22  1  0.91052000  0.15613000  0.32435000  1.0
  H  H23  1  0.83615000  0.02906000  0.25957000  1.0
  H  H24  1  0.21136000  0.71402000  0.06866000  1.0
  H  H25  1  0.10876000  0.70481000  0.18890000  1.0
  H  H26  1  0.30123000  0.96968000  0.12732000  1.0
  H  H27  1  0.34984000  0.83119000  0.06784000  1.0
  H  H28  1  0.11447000  0.83369000  0.30731000  1.0
  H  H29  1  0.17352000  0.96955000  0.25376000  1.0
  H  H30  1  0.13947000  0.32209000  0.94115000  1.0
  H  H31  1  0.99836000  0.26308000  0.87559000  1.0
  H  H32  1  0.30050000  0.11611000  0.80995000  1.0
  H  H33  1  0.27981000  0.20972000  0.93375000  1.0
  H  H34  1  0.01224000  0.14417000  0.74644000  1.0
  H  H35  1  0.16291000  0.10422000  0.69206000  1.0
  H  H36  1  0.06546000  0.04490000  0.53536000  1.0
  H  H37  1  0.95726000  0.92521000  0.52730000  1.0
  H  H38  1  0.06488000  0.92759000  0.46378000  1.0
  H  H39  1  0.95780000  0.04704000  0.47128000  1.0
  H  H40  1  0.00689000  0.98377000  0.66426000  1.0
  H  H41  1  0.00814000  0.99341000  0.33467000  1.0
  H  H42  1  0.03963000  0.53785000  0.10238000  1.0
  H  H43  1  0.94229000  0.54723000  0.97641000  1.0
  H  H44  1  0.91809000  0.48371000  0.09050000  1.0
  H  H45  1  0.04193000  0.47254000  0.98995000  1.0
  H  H46  1  0.02694000  0.67342000  0.02856000  1.0
  H  H47  1  0.96673000  0.34296000  0.03912000  1.0
  H  H48  1  0.54907000  0.05204000  0.01364000  1.0
  H  H49  1  0.53641000  0.94371000  0.90156000  1.0
  H  H50  1  0.48051000  0.05856000  0.89479000  1.0
  H  H51  1  0.46993000  0.96649000  0.01669000  1.0
  H  H52  1  0.68018000  0.96140000  0.98167000  1.0
  H  H53  1  0.33554000  0.04569000  0.96836000  1.0
  H  H54  1  0.88503000  0.60957000  0.95208000  1.0
  H  H55  1  0.97998000  0.67784000  0.95373000  1.0
  H  H56  1  0.95536000  0.33552000  0.12567000  1.0
  H  H57  1  0.86201000  0.40035000  0.10102000  1.0
  H  H58  1  0.11622000  0.66789000  0.04963000  1.0
  H  H59  1  0.07358000  0.62187000  0.14013000  1.0
  H  H60  1  0.98445000  0.32051000  0.96036000  1.0
  H  H61  1  0.07716000  0.39130000  0.96833000  1.0
  H  H62  1  0.60763000  0.91967000  0.84057000  1.0
  H  H63  1  0.67007000  0.89341000  0.93080000  1.0
  H  H64  1  0.33779000  0.12640000  0.94985000  1.0
  H  H65  1  0.39048000  0.08993000  0.85859000  1.0
  H  H66  1  0.61585000  0.10570000  0.03583000  1.0
  H  H67  1  0.68567000  0.01639000  0.04968000  1.0
  H  H68  1  0.40562000  0.91317000  0.03592000  1.0
  H  H69  1  0.33115000  0.99999000  0.04245000  1.0
  H  H70  1  0.99470000  0.90493000  0.68281000  1.0
  H  H71  1  0.91095000  0.90213000  0.60309000  1.0
  H  H72  1  0.09127000  0.97911000  0.31620000  1.0
  H  H73  1  0.08514000  0.89076000  0.38157000  1.0
  H  H74  1  0.01122000  0.06436000  0.68371000  1.0
  H  H75  1  0.10474000  0.06880000  0.61724000  1.0
  H  H76  1  0.92246000  0.00989000  0.31919000  1.0
  H  H77  1  0.93619000  0.09254000  0.39357000  1.0
  C  C78  1  0.83579000  0.68335000  0.89761000  1.0
  C  C79  1  0.88846000  0.67219000  0.90593000  1.0
  C  C80  1  0.91490000  0.70197000  0.87394000  1.0
  C  C81  1  0.69434000  0.86788000  0.79754000  1.0
  C  C82  1  0.66928000  0.86466000  0.84148000  1.0
  C  C83  1  0.69153000  0.82333000  0.86231000  1.0
  C  C84  1  0.93795000  0.83489000  0.73121000  1.0
  C  C85  1  0.92324000  0.86554000  0.69370000  1.0
  C  C86  1  0.86858000  0.86270000  0.69284000  1.0
  C  C87  1  0.82833000  0.30043000  0.13667000  1.0
  C  C88  1  0.87934000  0.31445000  0.14972000  1.0
  C  C89  1  0.89126000  0.28511000  0.18897000  1.0
  C  C90  1  0.71018000  0.08464000  0.12345000  1.0
  C  C91  1  0.67942000  0.10672000  0.08797000  1.0
  C  C92  1  0.68919000  0.15667000  0.09522000  1.0
  C  C93  1  0.88682000  0.13008000  0.30406000  1.0
  C  C94  1  0.88637000  0.07899000  0.30571000  1.0
  C  C95  1  0.84939000  0.06519000  0.27038000  1.0
  C  C96  1  0.19166000  0.71729000  0.10246000  1.0
  C  C97  1  0.14648000  0.69351000  0.11750000  1.0
  C  C98  1  0.13966000  0.71193000  0.16407000  1.0
  C  C99  1  0.30693000  0.93183000  0.11736000  1.0
  C  C100  1  0.34029000  0.91129000  0.08334000  1.0
  C  C101  1  0.33251000  0.86098000  0.08772000  1.0
  C  C102  1  0.13464000  0.86266000  0.28936000  1.0
  C  C103  1  0.13043000  0.91335000  0.29548000  1.0
  C  C104  1  0.16423000  0.93198000  0.26137000  1.0
  C  C105  1  0.10987000  0.30371000  0.91931000  1.0
  C  C106  1  0.05537000  0.30550000  0.92238000  1.0
  C  C107  1  0.03786000  0.27282000  0.88636000  1.0
  C  C108  1  0.28970000  0.14389000  0.83579000  1.0
  C  C109  1  0.30856000  0.15212000  0.88271000  1.0
  C  C110  1  0.27854000  0.19131000  0.89918000  1.0
  C  C111  1  0.05318000  0.13981000  0.73871000  1.0
  C  C112  1  0.07654000  0.10988000  0.70415000  1.0
  C  C113  1  0.12998000  0.11993000  0.71030000  1.0
  C  C114  1  0.04168000  0.01805000  0.55326000  1.0
  C  C115  1  0.01173000  0.98495000  0.52591000  1.0
  C  C116  1  0.98047000  0.95105000  0.54873000  1.0
  C  C117  1  0.97894000  0.94962000  0.59883000  1.0
  C  C118  1  0.00859000  0.98381000  0.62543000  1.0
  C  C119  1  0.03972000  0.01854000  0.60340000  1.0
  C  C120  1  0.01139000  0.98703000  0.47291000  1.0
  C  C121  1  0.04058000  0.95432000  0.44576000  1.0
  C  C122  1  0.04118000  0.95732000  0.39570000  1.0
  C  C123  1  0.00905000  0.99160000  0.37349000  1.0
  C  C124  1  0.97823000  0.02380000  0.39986000  1.0
  C  C125  1  0.98114000  0.02211000  0.44995000  1.0
  C  C126  1  0.02285000  0.55954000  0.07376000  1.0
  C  C127  1  0.98922000  0.53738000  0.03994000  1.0
  C  C128  1  0.96795000  0.56489000  0.00293000  1.0
  C  C129  1  0.98063000  0.61443000  0.99867000  1.0
  C  C130  1  0.01679000  0.63501000  0.03137000  1.0
  C  C131  1  0.03813000  0.60836000  0.06919000  1.0
  C  C132  1  0.98086000  0.48373000  0.04039000  1.0
  C  C133  1  0.94313000  0.46148000  0.06806000  1.0
  C  C134  1  0.93863000  0.41042000  0.06861000  1.0
  C  C135  1  0.97084000  0.38243000  0.03925000  1.0
  C  C136  1  0.00774000  0.40407000  0.00994000  1.0
  C  C137  1  0.01304000  0.45489000  0.01193000  1.0
  C  C138  1  0.56756000  0.02438000  0.99149000  1.0
  C  C139  1  0.53754000  0.99997000  0.95638000  1.0
  C  C140  1  0.56004000  0.96334000  0.92834000  1.0
  C  C141  1  0.61190000  0.94925000  0.93724000  1.0
  C  C142  1  0.64024000  0.97284000  0.97424000  1.0
  C  C143  1  0.61968000  0.01178000  0.00053000  1.0
  C  C144  1  0.48073000  0.01071000  0.95515000  1.0
  C  C145  1  0.45741000  0.04262000  0.92285000  1.0
  C  C146  1  0.40524000  0.05678000  0.92826000  1.0
  C  C147  1  0.37662000  0.03656000  0.96530000  1.0
  C  C148  1  0.39839000  0.00265000  0.99654000  1.0
  C  C149  1  0.45113000  0.99085000  0.99146000  1.0
  C  C150  1  0.91009000  0.63946000  0.94108000  1.0
  C  C151  1  0.95743000  0.64538000  0.96225000  1.0
  C  C152  1  0.91440000  0.34629000  0.12481000  1.0
  C  C153  1  0.90151000  0.38583000  0.09938000  1.0
  C  C154  1  0.11245000  0.66298000  0.08808000  1.0
  C  C155  1  0.07589000  0.63129000  0.10247000  1.0
  C  C156  1  0.02397000  0.33389000  0.95477000  1.0
  C  C157  1  0.03935000  0.37566000  0.97699000  1.0
  C  C158  1  0.63465000  0.89979000  0.86359000  1.0
  C  C159  1  0.63905000  0.91136000  0.91051000  1.0
  C  C160  1  0.34372000  0.12327000  0.91134000  1.0
  C  C161  1  0.37995000  0.09138000  0.89622000  1.0
  C  C162  1  0.64643000  0.08339000  0.05185000  1.0
  C  C163  1  0.65232000  0.03701000  0.03623000  1.0
  C  C164  1  0.37345000  0.93491000  0.04955000  1.0
  C  C165  1  0.36579000  0.97980000  0.03194000  1.0
  C  C166  1  0.95710000  0.89575000  0.66595000  1.0
  C  C167  1  0.94621000  0.91410000  0.62250000  1.0
  C  C168  1  0.09794000  0.94155000  0.32694000  1.0
  C  C169  1  0.07584000  0.92665000  0.36757000  1.0
  C  C170  1  0.05008000  0.07529000  0.67259000  1.0
  C  C171  1  0.06804000  0.05570000  0.63159000  1.0
  C  C172  1  0.91828000  0.04674000  0.33393000  1.0
  C  C173  1  0.94309000  0.05754000  0.37573000  1.0
  N  N174  1  0.88060000  0.72890000  0.84903000  1.0
  N  N175  1  0.83140000  0.71763000  0.86397000  1.0
  N  N176  1  0.72744000  0.80397000  0.83327000  1.0
  N  N177  1  0.72958000  0.83188000  0.79311000  1.0
  N  N178  1  0.85225000  0.83289000  0.72723000  1.0
  N  N179  1  0.89548000  0.81532000  0.75091000  1.0
  N  N180  1  0.85055000  0.25601000  0.19844000  1.0
  N  N181  1  0.81148000  0.26515000  0.16556000  1.0
  N  N182  1  0.72354000  0.16361000  0.13173000  1.0
  N  N183  1  0.73630000  0.11875000  0.14933000  1.0
  N  N184  1  0.82941000  0.10488000  0.24954000  1.0
  N  N185  1  0.85293000  0.14524000  0.27024000  1.0
  N  N186  1  0.17756000  0.74439000  0.17547000  1.0
  N  N187  1  0.21013000  0.74746000  0.13720000  1.0
  N  N188  1  0.29679000  0.85231000  0.12113000  1.0
  N  N189  1  0.28122000  0.89636000  0.13977000  1.0
  N  N190  1  0.18682000  0.89538000  0.23708000  1.0
  N  N191  1  0.16822000  0.85222000  0.25432000  1.0
  N  N192  1  0.07872000  0.25352000  0.86349000  1.0
  N  N193  1  0.12346000  0.27254000  0.88419000  1.0
  N  N194  1  0.24448000  0.20512000  0.86497000  1.0
  N  N195  1  0.25114000  0.17538000  0.82557000  1.0
  N  N196  1  0.13758000  0.15302000  0.74582000  1.0
  N  N197  1  0.08971000  0.16560000  0.76332000  1.0
