# generated using pymatgen
data_CdH10C18S(NO2)2
_symmetry_space_group_name_H-M   'P 1'
_cell_length_a   7.38297000
_cell_length_b   10.20300000
_cell_length_c   10.85010000
_cell_angle_alpha   80.61910000
_cell_angle_beta   72.72690000
_cell_angle_gamma   79.17250000
_symmetry_Int_Tables_number   1
_chemical_formula_structural   CdH10C18S(NO2)2
_chemical_formula_sum   'Cd2 H20 C36 S2 N4 O8'
_cell_volume   761.54041491
_cell_formula_units_Z   2
loop_
 _symmetry_equiv_pos_site_id
 _symmetry_equiv_pos_as_xyz
  1  'x, y, z'
loop_
 _atom_site_type_symbol
 _atom_site_label
 _atom_site_symmetry_multiplicity
 _atom_site_fract_x
 _atom_site_fract_y
 _atom_site_fract_z
 _atom_site_occupancy
  Cd  Cd0  1  0.20911000  0.39990000  0.88152000  1.0
  Cd  Cd1  1  0.79089000  0.60010000  0.11848000  1.0
  H  H2  1  0.36873000  0.39703000  0.53578000  1.0
  H  H3  1  0.63126000  0.60297000  0.46422000  1.0
  H  H4  1  0.88980000  0.31381000  0.38724000  1.0
  H  H5  1  0.11020000  0.68619000  0.61275000  1.0
  H  H6  1  0.75983000  0.34681000  0.98673000  1.0
  H  H7  1  0.24017000  0.65319000  0.01327000  1.0
  H  H8  1  0.56755000  0.16571000  0.01201000  1.0
  H  H9  1  0.43245000  0.83429000  0.98799000  1.0
  H  H10  1  0.72855000  0.95055000  0.90899000  1.0
  H  H11  1  0.27145000  0.04945000  0.09101000  1.0
  H  H12  1  0.02203000  0.82289000  0.78020000  1.0
  H  H13  1  0.97797000  0.17711000  0.21980000  1.0
  H  H14  1  0.36745000  0.80476000  0.66115000  1.0
  H  H15  1  0.63255000  0.19525000  0.33885000  1.0
  H  H16  1  0.65390000  0.29919000  0.69233000  1.0
  H  H17  1  0.34610000  0.70082000  0.30768000  1.0
  H  H18  1  0.83805000  0.10262000  0.57416000  1.0
  H  H19  1  0.16195000  0.89738000  0.42584000  1.0
  H  H20  1  0.67042000  0.90668000  0.58458000  1.0
  H  H21  1  0.32958000  0.09333000  0.41542000  1.0
  C  C22  1  0.50579000  0.45169000  0.26001000  1.0
  C  C23  1  0.49421000  0.54831000  0.73999000  1.0
  C  C24  1  0.19477000  0.36157000  0.15412000  1.0
  C  C25  1  0.80523000  0.63842000  0.84588000  1.0
  C  C26  1  0.18135000  0.36648000  0.29403000  1.0
  C  C27  1  0.81866000  0.63352000  0.70597000  1.0
  C  C28  1  0.33202000  0.39331000  0.34104000  1.0
  C  C29  1  0.66798000  0.60669000  0.65896000  1.0
  C  C30  1  0.28697000  0.37524000  0.47520000  1.0
  C  C31  1  0.71303000  0.62477000  0.52480000  1.0
  C  C32  1  0.02688000  0.33171000  0.39398000  1.0
  C  C33  1  0.97312000  0.66829000  0.60602000  1.0
  C  C34  1  0.82752000  0.25244000  0.94708000  1.0
  C  C35  1  0.17248000  0.74756000  0.05292000  1.0
  C  C36  1  0.71869000  0.14943000  0.95911000  1.0
  C  C37  1  0.28131000  0.85057000  0.04090000  1.0
  C  C38  1  0.80660000  0.03328000  0.90319000  1.0
  C  C39  1  0.19340000  0.96672000  0.09682000  1.0
  C  C40  1  0.10364000  0.12792000  0.83043000  1.0
  C  C41  1  0.89636000  0.87208000  0.16957000  1.0
  C  C42  1  0.00350000  0.02044000  0.83517000  1.0
  C  C43  1  0.99650000  0.97956000  0.16483000  1.0
  C  C44  1  0.10272000  0.90401000  0.77311000  1.0
  C  C45  1  0.89729000  0.09599000  0.22689000  1.0
  C  C46  1  0.29298000  0.89413000  0.70778000  1.0
  C  C47  1  0.70702000  0.10587000  0.29222000  1.0
  C  C48  1  0.39872000  0.00036000  0.70049000  1.0
  C  C49  1  0.60129000  0.99964000  0.29950000  1.0
  C  C50  1  0.30574000  0.11736000  0.76244000  1.0
  C  C51  1  0.69426000  0.88264000  0.23756000  1.0
  C  C52  1  0.58452000  0.21376000  0.69207000  1.0
  C  C53  1  0.41548000  0.78624000  0.30794000  1.0
  C  C54  1  0.68730000  0.10293000  0.62662000  1.0
  C  C55  1  0.31270000  0.89707000  0.37338000  1.0
  C  C56  1  0.59488000  0.99542000  0.63221000  1.0
  C  C57  1  0.40512000  0.00459000  0.36779000  1.0
  S  S58  1  0.06543000  0.32830000  0.54300000  1.0
  S  S59  1  0.93457000  0.67171000  0.45700000  1.0
  N  N60  1  0.01426000  0.24131000  0.88607000  1.0
  N  N61  1  0.98574000  0.75869000  0.11393000  1.0
  N  N62  1  0.40052000  0.22035000  0.75823000  1.0
  N  N63  1  0.59948000  0.77965000  0.24177000  1.0
  O  O64  1  0.64421000  0.44916000  0.30924000  1.0
  O  O65  1  0.35580000  0.55084000  0.69076000  1.0
  O  O66  1  0.50567000  0.50853000  0.14623000  1.0
  O  O67  1  0.49432000  0.49147000  0.85377000  1.0
  O  O68  1  0.30698000  0.26792000  0.09673000  1.0
  O  O69  1  0.69303000  0.73207000  0.90327000  1.0
  O  O70  1  0.08607000  0.44970000  0.09820000  1.0
  O  O71  1  0.91393000  0.55029000  0.90180000  1.0
