# generated using pymatgen
data_AlH12(C2O)12
_symmetry_space_group_name_H-M   'P 1'
_cell_length_a   4.21313000
_cell_length_b   24.44965000
_cell_length_c   24.44970000
_cell_angle_alpha   120.00020295
_cell_angle_beta   90.00010000
_cell_angle_gamma   89.99990000
_symmetry_Int_Tables_number   1
_chemical_formula_structural   AlH12(C2O)12
_chemical_formula_sum   'Al2 H24 C48 O24'
_cell_volume   2181.12614994
_cell_formula_units_Z   2
loop_
 _symmetry_equiv_pos_site_id
 _symmetry_equiv_pos_as_xyz
  1  'x, y, z'
loop_
 _atom_site_type_symbol
 _atom_site_label
 _atom_site_symmetry_multiplicity
 _atom_site_fract_x
 _atom_site_fract_y
 _atom_site_fract_z
 _atom_site_occupancy
  Al  Al0  1  0.04888000  0.50000000  0.00000000  1.0
  Al  Al1  1  0.04822000  0.83333000  0.66666000  1.0
  H  H2  1  0.31755000  0.72454000  0.29012000  1.0
  H  H3  1  0.31755000  0.60878000  0.37656000  1.0
  H  H4  1  0.77277000  0.82496000  0.49361000  1.0
  H  H5  1  0.75317000  0.76785000  0.37584000  1.0
  H  H6  1  0.77299000  0.50839000  0.17306000  1.0
  H  H7  1  0.75316000  0.56546000  0.29083000  1.0
  H  H8  1  0.31752000  0.56558000  0.77546000  1.0
  H  H9  1  0.31752000  0.76778000  0.89122000  1.0
  H  H10  1  0.77278000  0.66865000  0.67505000  1.0
  H  H11  1  0.75317000  0.60799000  0.73216000  1.0
  H  H12  1  0.77301000  0.66467000  0.99161000  1.0
  H  H13  1  0.75318000  0.72536000  0.93453000  1.0
  H  H14  1  0.31755000  0.20988000  0.93442000  1.0
  H  H15  1  0.31756000  0.12344000  0.73222000  1.0
  H  H16  1  0.77278000  0.00640000  0.83136000  1.0
  H  H17  1  0.75318000  0.12417000  0.89202000  1.0
  H  H18  1  0.77301000  0.32694000  0.83533000  1.0
  H  H19  1  0.75319000  0.20918000  0.77464000  1.0
  H  H20  1  0.69333000  0.69042000  0.14088000  1.0
  H  H21  1  0.69313000  0.64298000  0.52585000  1.0
  H  H22  1  0.69331000  0.45046000  0.80958000  1.0
  H  H23  1  0.69312000  0.88287000  0.85702000  1.0
  H  H24  1  0.69334000  0.35912000  0.04954000  1.0
  H  H25  1  0.69315000  0.97415000  0.61713000  1.0
  C  C26  1  0.55176000  0.40439000  0.95170000  1.0
  C  C27  1  0.55176000  0.54731000  0.09561000  1.0
  C  C28  1  0.55176000  0.54830000  0.95269000  1.0
  C  C29  1  0.55118000  0.78607000  0.57106000  1.0
  C  C30  1  0.55118000  0.78499000  0.71393000  1.0
  C  C31  1  0.55119000  0.92894000  0.71501000  1.0
  C  C32  1  0.55263000  0.58376000  0.16580000  1.0
  C  C33  1  0.55234000  0.74960000  0.50088000  1.0
  C  C34  1  0.42262000  0.64491000  0.19891000  1.0
  C  C35  1  0.41834000  0.67715000  0.26474000  1.0
  C  C36  1  0.42246000  0.68844000  0.46777000  1.0
  C  C37  1  0.41829000  0.65618000  0.40194000  1.0
  C  C38  1  0.67278000  0.77758000  0.46732000  1.0
  C  C39  1  0.66003000  0.74573000  0.40173000  1.0
  C  C40  1  0.67296000  0.55575000  0.19935000  1.0
  C  C41  1  0.66007000  0.58759000  0.26494000  1.0
  C  C42  1  0.53681000  0.64913000  0.29848000  1.0
  C  C43  1  0.53679000  0.68419000  0.36820000  1.0
  C  C44  1  0.55262000  0.58204000  0.91625000  1.0
  C  C45  1  0.55234000  0.75129000  0.75041000  1.0
  C  C46  1  0.42261000  0.55400000  0.85510000  1.0
  C  C47  1  0.41832000  0.58759000  0.82286000  1.0
  C  C48  1  0.42244000  0.77933000  0.81156000  1.0
  C  C49  1  0.41827000  0.74576000  0.84382000  1.0
  C  C50  1  0.67279000  0.68974000  0.72243000  1.0
  C  C51  1  0.66002000  0.65600000  0.75428000  1.0
  C  C52  1  0.67297000  0.64359000  0.94424000  1.0
  C  C53  1  0.66008000  0.67735000  0.91241000  1.0
  C  C54  1  0.53680000  0.64935000  0.85087000  1.0
  C  C55  1  0.53677000  0.68401000  0.81582000  1.0
  C  C56  1  0.55264000  0.33421000  0.91797000  1.0
  C  C57  1  0.55236000  0.99912000  0.74871000  1.0
  C  C58  1  0.42264000  0.30110000  0.94601000  1.0
  C  C59  1  0.41835000  0.23526000  0.91241000  1.0
  C  C60  1  0.42248000  0.03223000  0.72067000  1.0
  C  C61  1  0.41830000  0.09806000  0.75424000  1.0
  C  C62  1  0.67279000  0.03269000  0.81027000  1.0
  C  C63  1  0.66004000  0.09828000  0.84401000  1.0
  C  C64  1  0.67298000  0.30065000  0.85641000  1.0
  C  C65  1  0.66009000  0.23506000  0.82265000  1.0
  C  C66  1  0.53682000  0.20152000  0.85065000  1.0
  C  C67  1  0.53679000  0.13181000  0.81600000  1.0
  C  C68  1  0.28076000  0.67746000  0.16629000  1.0
  C  C69  1  0.28052000  0.65590000  0.50040000  1.0
  C  C70  1  0.28073000  0.48883000  0.82254000  1.0
  C  C71  1  0.28055000  0.84450000  0.84410000  1.0
  C  C72  1  0.28075000  0.33371000  0.01118000  1.0
  C  C73  1  0.28054000  0.99960000  0.65550000  1.0
  O  O74  1  0.78349000  0.55853000  0.99027000  1.0
  O  O75  1  0.78349000  0.43174000  0.94148000  1.0
  O  O76  1  0.78349000  0.50974000  0.06827000  1.0
  O  O77  1  0.31521000  0.51195000  0.94335000  1.0
  O  O78  1  0.31520000  0.55666000  0.06860000  1.0
  O  O79  1  0.31521000  0.43140000  0.98806000  1.0
  O  O80  1  0.78278000  0.90156000  0.72523000  1.0
  O  O81  1  0.78278000  0.82367000  0.59844000  1.0
  O  O82  1  0.78278000  0.77477000  0.67633000  1.0
  O  O83  1  0.31450000  0.90197000  0.67869000  1.0
  O  O84  1  0.31449000  0.82132000  0.72329000  1.0
  O  O85  1  0.31450000  0.77672000  0.59804000  1.0
  O  O86  1  0.45918000  0.69331000  0.13213000  1.0
  O  O87  1  0.99623000  0.69148000  0.17475000  1.0
  O  O88  1  0.45903000  0.64011000  0.53462000  1.0
  O  O89  1  0.99612000  0.64186000  0.49194000  1.0
  O  O90  1  0.45917000  0.43882000  0.80670000  1.0
  O  O91  1  0.99622000  0.48327000  0.80853000  1.0
  O  O92  1  0.45901000  0.89451000  0.85990000  1.0
  O  O93  1  0.99607000  0.85008000  0.85814000  1.0
  O  O94  1  0.45920000  0.36788000  0.06119000  1.0
  O  O95  1  0.99626000  0.32526000  0.01674000  1.0
  O  O96  1  0.45906000  0.96539000  0.60550000  1.0
  O  O97  1  0.99615000  0.00806000  0.64992000  1.0
