# generated using pymatgen
data_PrH12C20NO6
_symmetry_space_group_name_H-M   'P 1'
_cell_length_a   8.05105000
_cell_length_b   9.41679000
_cell_length_c   12.04560000
_cell_angle_alpha   92.64550000
_cell_angle_beta   93.13800000
_cell_angle_gamma   108.43000000
_symmetry_Int_Tables_number   1
_chemical_formula_structural   PrH12C20NO6
_chemical_formula_sum   'Pr2 H24 C40 N2 O12'
_cell_volume   863.15569300
_cell_formula_units_Z   2
loop_
 _symmetry_equiv_pos_site_id
 _symmetry_equiv_pos_as_xyz
  1  'x, y, z'
loop_
 _atom_site_type_symbol
 _atom_site_label
 _atom_site_symmetry_multiplicity
 _atom_site_fract_x
 _atom_site_fract_y
 _atom_site_fract_z
 _atom_site_occupancy
  Pr  Pr0  1  0.26485000  0.56187000  0.44072000  1.0
  Pr  Pr1  1  0.73515000  0.43812000  0.55928000  1.0
  H  H2  1  0.83030000  0.07476000  0.39310000  1.0
  H  H3  1  0.16969000  0.92524000  0.60690000  1.0
  H  H4  1  0.60291000  0.85013000  0.29818000  1.0
  H  H5  1  0.39708000  0.14988000  0.70182000  1.0
  H  H6  1  0.42701000  0.88203000  0.12970000  1.0
  H  H7  1  0.57299000  0.11797000  0.87029000  1.0
  H  H8  1  0.47679000  0.13456000  0.05996000  1.0
  H  H9  1  0.52322000  0.86544000  0.94003000  1.0
  H  H10  1  0.81395000  0.30655000  0.99264000  1.0
  H  H11  1  0.18605000  0.69345000  0.00736000  1.0
  H  H12  1  0.83898000  0.52368000  0.87802000  1.0
  H  H13  1  0.16102000  0.47632000  0.12197000  1.0
  H  H14  1  0.73284000  0.73077000  0.94828000  1.0
  H  H15  1  0.26716000  0.26923000  0.05172000  1.0
  H  H16  1  0.61499000  0.72087000  0.13569000  1.0
  H  H17  1  0.38502000  0.27913000  0.86431000  1.0
  H  H18  1  0.37662000  0.93617000  0.46452000  1.0
  H  H19  1  0.62338000  0.06383000  0.53548000  1.0
  H  H20  1  0.03059000  0.67327000  0.21253000  1.0
  H  H21  1  0.96941000  0.32673000  0.78747000  1.0
  H  H22  1  0.96602000  0.89592000  0.13983000  1.0
  H  H23  1  0.03398000  0.10408000  0.86017000  1.0
  H  H24  1  0.11431000  0.15142000  0.23982000  1.0
  H  H25  1  0.88569000  0.84858000  0.76018000  1.0
  C  C26  1  0.92694000  0.35370000  0.33830000  1.0
  C  C27  1  0.07307000  0.64630000  0.66170000  1.0
  C  C28  1  0.78242000  0.22862000  0.27938000  1.0
  C  C29  1  0.21757000  0.77138000  0.72062000  1.0
  C  C30  1  0.75139000  0.08589000  0.31964000  1.0
  C  C31  1  0.24860000  0.91411000  0.68036000  1.0
  C  C32  1  0.62593000  0.96052000  0.26601000  1.0
  C  C33  1  0.37407000  0.03949000  0.73399000  1.0
  C  C34  1  0.52786000  0.97871000  0.17177000  1.0
  C  C35  1  0.47214000  0.02129000  0.82823000  1.0
  C  C36  1  0.55580000  0.12090000  0.13261000  1.0
  C  C37  1  0.44420000  0.87910000  0.86739000  1.0
  C  C38  1  0.68372000  0.24847000  0.18468000  1.0
  C  C39  1  0.31628000  0.75153000  0.81532000  1.0
  C  C40  1  0.70990000  0.39312000  0.13122000  1.0
  C  C41  1  0.29011000  0.60689000  0.86878000  1.0
  C  C42  1  0.77250000  0.39945000  0.02437000  1.0
  C  C43  1  0.22750000  0.60055000  0.97563000  1.0
  C  C44  1  0.78607000  0.52077000  0.95952000  1.0
  C  C45  1  0.21394000  0.47923000  0.04048000  1.0
  C  C46  1  0.72891000  0.63737000  0.99959000  1.0
  C  C47  1  0.27110000  0.36263000  0.00041000  1.0
  C  C48  1  0.66348000  0.63231000  0.10436000  1.0
  C  C49  1  0.33652000  0.36769000  0.89564000  1.0
  C  C50  1  0.65790000  0.51437000  0.17285000  1.0
  C  C51  1  0.34210000  0.48563000  0.82715000  1.0
  C  C52  1  0.59508000  0.52723000  0.28696000  1.0
  C  C53  1  0.40492000  0.47277000  0.71304000  1.0
  C  C54  1  0.35016000  0.21043000  0.42221000  1.0
  C  C55  1  0.64984000  0.78957000  0.57779000  1.0
  C  C56  1  0.25608000  0.06231000  0.36013000  1.0
  C  C57  1  0.74392000  0.93768000  0.63987000  1.0
  C  C58  1  0.28527000  0.93166000  0.39347000  1.0
  C  C59  1  0.71473000  0.06834000  0.60653000  1.0
  C  C60  1  0.09388000  0.78551000  0.25209000  1.0
  C  C61  1  0.90612000  0.21448000  0.74791000  1.0
  C  C62  1  0.05851000  0.91047000  0.21216000  1.0
  C  C63  1  0.94149000  0.08953000  0.78785000  1.0
  C  C64  1  0.13946000  0.05091000  0.26730000  1.0
  C  C65  1  0.86054000  0.94909000  0.73270000  1.0
  N  N66  1  0.20547000  0.79532000  0.34197000  1.0
  N  N67  1  0.79453000  0.20468000  0.65803000  1.0
  O  O68  1  0.94613000  0.35617000  0.44572000  1.0
  O  O69  1  0.05387000  0.64383000  0.55428000  1.0
  O  O70  1  0.03396000  0.44972000  0.28414000  1.0
  O  O71  1  0.96605000  0.55027000  0.71586000  1.0
  O  O72  1  0.67157000  0.48640000  0.36914000  1.0
  O  O73  1  0.32843000  0.51360000  0.63086000  1.0
  O  O74  1  0.47173000  0.58392000  0.29593000  1.0
  O  O75  1  0.52827000  0.41608000  0.70407000  1.0
  O  O76  1  0.28946000  0.31701000  0.40547000  1.0
  O  O77  1  0.71054000  0.68299000  0.59453000  1.0
  O  O78  1  0.48416000  0.21979000  0.48682000  1.0
  O  O79  1  0.51585000  0.78021000  0.51318000  1.0
