# generated using pymatgen
data_Zn2H24C32N6O7
_symmetry_space_group_name_H-M   'P 1'
_cell_length_a   12.56190000
_cell_length_b   14.73900000
_cell_length_c   18.81566369
_cell_angle_alpha   81.84405249
_cell_angle_beta   70.55872306
_cell_angle_gamma   64.77640000
_symmetry_Int_Tables_number   1
_chemical_formula_structural   Zn2H24C32N6O7
_chemical_formula_sum   'Zn8 H96 C128 N24 O28'
_cell_volume   2971.85875663
_cell_formula_units_Z   4
loop_
 _symmetry_equiv_pos_site_id
 _symmetry_equiv_pos_as_xyz
  1  'x, y, z'
loop_
 _atom_site_type_symbol
 _atom_site_label
 _atom_site_symmetry_multiplicity
 _atom_site_fract_x
 _atom_site_fract_y
 _atom_site_fract_z
 _atom_site_occupancy
  Zn  Zn0  1  0.10945000  0.71070000  0.23713000  1.0
  Zn  Zn1  1  0.05765000  0.28928000  0.76278000  1.0
  Zn  Zn2  1  0.09697000  0.21067000  0.26276000  1.0
  Zn  Zn3  1  0.57005000  0.78943000  0.73719000  1.0
  Zn  Zn4  1  0.20396000  0.45427000  0.12526000  1.0
  Zn  Zn5  1  0.78361000  0.54569000  0.87492000  1.0
  Zn  Zn6  1  0.07971000  0.95417000  0.37477000  1.0
  Zn  Zn7  1  0.40848000  0.04573000  0.62507000  1.0
  H  H8  1  0.31622000  0.57680000  0.10003000  1.0
  H  H9  1  0.99349000  0.42300000  0.90001000  1.0
  H  H10  1  0.16695000  0.07678000  0.39979000  1.0
  H  H11  1  0.64325000  0.92306000  0.60000000  1.0
  H  H12  1  0.30477000  0.56434000  0.01873000  1.0
  H  H13  1  0.88866000  0.43547000  0.98136000  1.0
  H  H14  1  0.07450000  0.06438000  0.48114000  1.0
  H  H15  1  0.61960000  0.93568000  0.51860000  1.0
  H  H16  1  0.68144000  0.68110000  0.27202000  1.0
  H  H17  1  0.63513000  0.31862000  0.72781000  1.0
  H  H18  1  0.70339000  0.18131000  0.22814000  1.0
  H  H19  1  0.11270000  0.81897000  0.77158000  1.0
  H  H20  1  0.71720000  0.55533000  0.17776000  1.0
  H  H21  1  0.45108000  0.44389000  0.82235000  1.0
  H  H22  1  0.64507000  0.05578000  0.32261000  1.0
  H  H23  1  0.02308000  0.94444000  0.67709000  1.0
  H  H24  1  0.93587000  0.45148000  0.10512000  1.0
  H  H25  1  0.49322000  0.54781000  0.89513000  1.0
  H  H26  1  0.79146000  0.95183000  0.39516000  1.0
  H  H27  1  0.13788000  0.04837000  0.60452000  1.0
  H  H28  1  0.56403000  0.69961000  0.17990000  1.0
  H  H29  1  0.44394000  0.29982000  0.82044000  1.0
  H  H30  1  0.49438000  0.19995000  0.32007000  1.0
  H  H31  1  0.01375000  0.80007000  0.67999000  1.0
  H  H32  1  0.55318000  0.84261000  0.24747000  1.0
  H  H33  1  0.64340000  0.15704000  0.75262000  1.0
  H  H34  1  0.55064000  0.34306000  0.25253000  1.0
  H  H35  1  0.14573000  0.65713000  0.74765000  1.0
  H  H36  1  0.34628000  0.95569000  0.32830000  1.0
  H  H37  1  0.63030000  0.04432000  0.67146000  1.0
  H  H38  1  0.42428000  0.45604000  0.17170000  1.0
  H  H39  1  0.05173000  0.54422000  0.82855000  1.0
  H  H40  1  0.10081000  0.31858000  0.09313000  1.0
  H  H41  1  0.51284000  0.68127000  0.90706000  1.0
  H  H42  1  0.94448000  0.81865000  0.40696000  1.0
  H  H43  1  0.16990000  0.18131000  0.59292000  1.0
  H  H44  1  0.17713000  0.16867000  0.01672000  1.0
  H  H45  1  0.36299000  0.83122000  0.98343000  1.0
  H  H46  1  0.94443000  0.66874000  0.48335000  1.0
  H  H47  1  0.09610000  0.33126000  0.51659000  1.0
  H  H48  1  0.52783000  0.19434000  0.92601000  1.0
  H  H49  1  0.64829000  0.80512000  0.07487000  1.0
  H  H50  1  0.20353000  0.69477000  0.57490000  1.0
  H  H51  1  0.47244000  0.30555000  0.42545000  1.0
  H  H52  1  0.43391000  0.34977000  0.00144000  1.0
  H  H53  1  0.78523000  0.64976000  0.99935000  1.0
  H  H54  1  0.18536000  0.85001000  0.49929000  1.0
  H  H55  1  0.53412000  0.15010000  0.50085000  1.0
  H  H56  1  0.33030000  0.94466000  0.82821000  1.0
  H  H57  1  0.10355000  0.05533000  0.17167000  1.0
  H  H58  1  0.90864000  0.44500000  0.67194000  1.0
  H  H59  1  0.02492000  0.55539000  0.32803000  1.0
  H  H60  1  0.23792000  0.09622000  0.90685000  1.0
  H  H61  1  0.24146000  0.90349000  0.09329000  1.0
  H  H62  1  0.89486000  0.59676000  0.59356000  1.0
  H  H63  1  0.08427000  0.40366000  0.40654000  1.0
  H  H64  1  0.60245000  0.02572000  0.91890000  1.0
  H  H65  1  0.54725000  0.97411000  0.08165000  1.0
  H  H66  1  0.27167000  0.52551000  0.58138000  1.0
  H  H67  1  0.37826000  0.47434000  0.41869000  1.0
  H  H68  1  0.68027000  0.87826000  0.83712000  1.0
  H  H69  1  0.39581000  0.12182000  0.16311000  1.0
  H  H70  1  0.26779000  0.37777000  0.66283000  1.0
  H  H71  1  0.30831000  0.62196000  0.33706000  1.0
  H  H72  1  0.94134000  0.93381000  0.22093000  1.0
  H  H73  1  0.09612000  0.06617000  0.77891000  1.0
  H  H74  1  0.91200000  0.43372000  0.27897000  1.0
  H  H75  1  0.62432000  0.56635000  0.72083000  1.0
  H  H76  1  0.91627000  0.06674000  0.12234000  1.0
  H  H77  1  0.10519000  0.93332000  0.87753000  1.0
  H  H78  1  0.78837000  0.56671000  0.37750000  1.0
  H  H79  1  0.73276000  0.43341000  0.62221000  1.0
  H  H80  1  0.16242000  0.83042000  0.95632000  1.0
  H  H81  1  0.94880000  0.16972000  0.04353000  1.0
  H  H82  1  0.86988000  0.33062000  0.54354000  1.0
  H  H83  1  0.74316000  0.66981000  0.45634000  1.0
  H  H84  1  0.17248000  0.71125000  0.06224000  1.0
  H  H85  1  0.94553000  0.28885000  0.93760000  1.0
  H  H86  1  0.98598000  0.21145000  0.43769000  1.0
  H  H87  1  0.63341000  0.78895000  0.56227000  1.0
  H  H88  1  0.72537000  0.26106000  0.88743000  1.0
  H  H89  1  0.87372000  0.73939000  0.11252000  1.0
  H  H90  1  0.36295000  0.76079000  0.61251000  1.0
  H  H91  1  0.73700000  0.23914000  0.38759000  1.0
  H  H92  1  0.80987000  0.07753000  0.87901000  1.0
  H  H93  1  0.76639000  0.92289000  0.12090000  1.0
  H  H94  1  0.43870000  0.57730000  0.62093000  1.0
  H  H95  1  0.63767000  0.42262000  0.37912000  1.0
  H  H96  1  0.67041000  0.07221000  0.12289000  1.0
  H  H97  1  0.86530000  0.92809000  0.87699000  1.0
  H  H98  1  0.54319000  0.57199000  0.37701000  1.0
  H  H99  1  0.49186000  0.42794000  0.62295000  1.0
  H  H100  1  0.59605000  0.25599000  0.12006000  1.0
  H  H101  1  0.97199000  0.74433000  0.87987000  1.0
  H  H102  1  0.46627000  0.75576000  0.37985000  1.0
  H  H103  1  0.60156000  0.24417000  0.62018000  1.0
  C  C104  1  0.99147000  0.59617000  0.19574000  1.0
  C  C105  1  0.78395000  0.40376000  0.80407000  1.0
  C  C106  1  0.93775000  0.09613000  0.30411000  1.0
  C  C107  1  0.33770000  0.90394000  0.69560000  1.0
  C  C108  1  0.87070000  0.65485000  0.24258000  1.0
  C  C109  1  0.76876000  0.34507000  0.75715000  1.0
  C  C110  1  0.86361000  0.15492000  0.25732000  1.0
  C  C111  1  0.27563000  0.84526000  0.74242000  1.0
  C  C112  1  0.77354000  0.63807000  0.23507000  1.0
  C  C113  1  0.64738000  0.36158000  0.76478000  1.0
  C  C114  1  0.75882000  0.13829000  0.26499000  1.0
  C  C115  1  0.16187000  0.86193000  0.73471000  1.0
  C  C116  1  0.79297000  0.56813000  0.18395000  1.0
  C  C117  1  0.54583000  0.43136000  0.81599000  1.0
  C  C118  1  0.72719000  0.06846000  0.31623000  1.0
  C  C119  1  0.11152000  0.93177000  0.68347000  1.0
  C  C120  1  0.91432000  0.51081000  0.14278000  1.0
  C  C121  1  0.56860000  0.48870000  0.85728000  1.0
  C  C122  1  0.80749000  0.01106000  0.35738000  1.0
  C  C123  1  0.17553000  0.98911000  0.64231000  1.0
  C  C124  1  0.84376000  0.72694000  0.30309000  1.0
  C  C125  1  0.87426000  0.27315000  0.69655000  1.0
  C  C126  1  0.89704000  0.22696000  0.19673000  1.0
  C  C127  1  0.32053000  0.77330000  0.80300000  1.0
  C  C128  1  0.25517000  0.80785000  0.26592000  1.0
  C  C129  1  0.32908000  0.19192000  0.73418000  1.0
  C  C130  1  0.27113000  0.30799000  0.23411000  1.0
  C  C131  1  0.81287000  0.69214000  0.76604000  1.0
  C  C132  1  0.37143000  0.73902000  0.21950000  1.0
  C  C133  1  0.33025000  0.26067000  0.78062000  1.0
  C  C134  1  0.34126000  0.23912000  0.28043000  1.0
  C  C135  1  0.86034000  0.76089000  0.71962000  1.0
  C  C136  1  0.47673000  0.75266000  0.21507000  1.0
  C  C137  1  0.44476000  0.24692000  0.78514000  1.0
  C  C138  1  0.44203000  0.25289000  0.28491000  1.0
  C  C139  1  0.97930000  0.74716000  0.71519000  1.0
  C  C140  1  0.47117000  0.83106000  0.25189000  1.0
  C  C141  1  0.55429000  0.16862000  0.74818000  1.0
  C  C142  1  0.47309000  0.33136000  0.24811000  1.0
  C  C143  1  0.05210000  0.66878000  0.75205000  1.0
  C  C144  1  0.35634000  0.89431000  0.29676000  1.0
  C  C145  1  0.54746000  0.10551000  0.70318000  1.0
  C  C146  1  0.40288000  0.39463000  0.20327000  1.0
  C  C147  1  0.00041000  0.60558000  0.79697000  1.0
  C  C148  1  0.39114000  0.65399000  0.17303000  1.0
  C  C149  1  0.21858000  0.34570000  0.82707000  1.0
  C  C150  1  0.31478000  0.15405000  0.32685000  1.0
  C  C151  1  0.79522000  0.84583000  0.67308000  1.0
  C  C152  1  0.19295000  0.29239000  0.05244000  1.0
  C  C153  1  0.53807000  0.70737000  0.94789000  1.0
  C  C154  1  0.99583000  0.79248000  0.44776000  1.0
  C  C155  1  0.23576000  0.20755000  0.55218000  1.0
  C  C156  1  0.23757000  0.20653000  0.01039000  1.0
  C  C157  1  0.45487000  0.79324000  0.98992000  1.0
  C  C158  1  0.99830000  0.70671000  0.48987000  1.0
  C  C159  1  0.19446000  0.29337000  0.51009000  1.0
  C  C160  1  0.36057000  0.16736000  0.96415000  1.0
  C  C161  1  0.49244000  0.83232000  0.03630000  1.0
  C  C162  1  0.07490000  0.66764000  0.53628000  1.0
  C  C163  1  0.27824000  0.33255000  0.46378000  1.0
  C  C164  1  0.43207000  0.22010000  0.96127000  1.0
  C  C165  1  0.61369000  0.77950000  0.03939000  1.0
  C  C166  1  0.14339000  0.72039000  0.53936000  1.0
  C  C167  1  0.40253000  0.27979000  0.46081000  1.0
  C  C168  1  0.38011000  0.30739000  0.00292000  1.0
  C  C169  1  0.69061000  0.69221000  0.99772000  1.0
  C  C170  1  0.13310000  0.80764000  0.49766000  1.0
  C  C171  1  0.43789000  0.19252000  0.50249000  1.0
  C  C172  1  0.38791000  0.96505000  0.84925000  1.0
  C  C173  1  0.20258000  0.03492000  0.15078000  1.0
  C  C174  1  0.98738000  0.46523000  0.65090000  1.0
  C  C175  1  0.10295000  0.53499000  0.34907000  1.0
  C  C176  1  0.33619000  0.04924000  0.89423000  1.0
  C  C177  1  0.28007000  0.95052000  0.10599000  1.0
  C  C178  1  0.98058000  0.54958000  0.60608000  1.0
  C  C179  1  0.13551000  0.45071000  0.39399000  1.0
  C  C180  1  0.41243000  0.07520000  0.91964000  1.0
  C  C181  1  0.40762000  0.92453000  0.08073000  1.0
  C  C182  1  0.08223000  0.57543000  0.58071000  1.0
  C  C183  1  0.23776000  0.42478000  0.41936000  1.0
  C  C184  1  0.53852000  0.01134000  0.89945000  1.0
  C  C185  1  0.44956000  0.98848000  0.10096000  1.0
  C  C186  1  0.18820000  0.51132000  0.60081000  1.0
  C  C187  1  0.29992000  0.48870000  0.39923000  1.0
  C  C188  1  0.58239000  0.92840000  0.85397000  1.0
  C  C189  1  0.36503000  0.07159000  0.14624000  1.0
  C  C190  1  0.18670000  0.42822000  0.64610000  1.0
  C  C191  1  0.26069000  0.57173000  0.35385000  1.0
  C  C192  1  0.98906000  0.91525000  0.16148000  1.0
  C  C193  1  0.06564000  0.08481000  0.83836000  1.0
  C  C194  1  0.90066000  0.41521000  0.33841000  1.0
  C  C195  1  0.65385000  0.58492000  0.66142000  1.0
  C  C196  1  0.97625000  0.98891000  0.10603000  1.0
  C  C197  1  0.07107000  0.01117000  0.89381000  1.0
  C  C198  1  0.83234000  0.48890000  0.39382000  1.0
  C  C199  1  0.71489000  0.51128000  0.60596000  1.0
  C  C200  1  0.04043000  0.96182000  0.03004000  1.0
  C  C201  1  0.03230000  0.03827000  0.96981000  1.0
  C  C202  1  0.82101000  0.46190000  0.46981000  1.0
  C  C203  1  0.75240000  0.53837000  0.53001000  1.0
  C  C204  1  0.11213000  0.85938000  0.01375000  1.0
  C  C205  1  0.98504000  0.14073000  0.98610000  1.0
  C  C206  1  0.87665000  0.35951000  0.48613000  1.0
  C  C207  1  0.72153000  0.64083000  0.51374000  1.0
  C  C208  1  0.11842000  0.79114000  0.07295000  1.0
  C  C209  1  0.98222000  0.20894000  0.92689000  1.0
  C  C210  1  0.94212000  0.29126000  0.42696000  1.0
  C  C211  1  0.65936000  0.70905000  0.57295000  1.0
  C  C212  1  0.71454000  0.21679000  0.93891000  1.0
  C  C213  1  0.87016000  0.78361000  0.06102000  1.0
  C  C214  1  0.40354000  0.71654000  0.56103000  1.0
  C  C215  1  0.68158000  0.28338000  0.43906000  1.0
  C  C216  1  0.76087000  0.11272000  0.93432000  1.0
  C  C217  1  0.80779000  0.88766000  0.06560000  1.0
  C  C218  1  0.44521000  0.61250000  0.56562000  1.0
  C  C219  1  0.62369000  0.38743000  0.43442000  1.0
  C  C220  1  0.74810000  0.05567000  0.00065000  1.0
  C  C221  1  0.80435000  0.94468000  0.99922000  1.0
  C  C222  1  0.49874000  0.55547000  0.49927000  1.0
  C  C223  1  0.55357000  0.44449000  0.50073000  1.0
  C  C224  1  0.68537000  0.10980000  0.06853000  1.0
  C  C225  1  0.86359000  0.89053000  0.93135000  1.0
  C  C226  1  0.50383000  0.60960000  0.43138000  1.0
  C  C227  1  0.54467000  0.39036000  0.56861000  1.0
  C  C228  1  0.64284000  0.21400000  0.06730000  1.0
  C  C229  1  0.92401000  0.78632000  0.93262000  1.0
  C  C230  1  0.46022000  0.71380000  0.43262000  1.0
  C  C231  1  0.60649000  0.28616000  0.56742000  1.0
  N  N232  1  0.01013000  0.52347000  0.14935000  1.0
  N  N233  1  0.68358000  0.47625000  0.85063000  1.0
  N  N234  1  0.91005000  0.02356000  0.35062000  1.0
  N  N235  1  0.28387000  0.97650000  0.64906000  1.0
  N  N236  1  0.25349000  0.88171000  0.30422000  1.0
  N  N237  1  0.43945000  0.11813000  0.69574000  1.0
  N  N238  1  0.30752000  0.38194000  0.19583000  1.0
  N  N239  1  0.88494000  0.61827000  0.80443000  1.0
  N  N240  1  0.26257000  0.34274000  0.04847000  1.0
  N  N241  1  0.65403000  0.65698000  0.95199000  1.0
  N  N242  1  0.06138000  0.84288000  0.45187000  1.0
  N  N243  1  0.35578000  0.15715000  0.54811000  1.0
  N  N244  1  0.50916000  0.90575000  0.82804000  1.0
  N  N245  1  0.24325000  0.09433000  0.17198000  1.0
  N  N246  1  0.08751000  0.40568000  0.67200000  1.0
  N  N247  1  0.16480000  0.59437000  0.32793000  1.0
  N  N248  1  0.06035000  0.81761000  0.14572000  1.0
  N  N249  1  0.02358000  0.18244000  0.85411000  1.0
  N  N250  1  0.95661000  0.31762000  0.35418000  1.0
  N  N251  1  0.62754000  0.68257000  0.64571000  1.0
  N  N252  1  0.65642000  0.26825000  0.00392000  1.0
  N  N253  1  0.92846000  0.73212000  0.99603000  1.0
  N  N254  1  0.41052000  0.76800000  0.49602000  1.0
  N  N255  1  0.67473000  0.23194000  0.50407000  1.0
  O  O256  1  0.09432000  0.59863000  0.19366000  1.0
  O  O257  1  0.88716000  0.40143000  0.80607000  1.0
  O  O258  1  0.03863000  0.09857000  0.30603000  1.0
  O  O259  1  0.44291000  0.90154000  0.69370000  1.0
  O  O260  1  0.92626000  0.75804000  0.30134000  1.0
  O  O261  1  0.98613000  0.24209000  0.69827000  1.0
  O  O262  1  0.97781000  0.25803000  0.19850000  1.0
  O  O263  1  0.43405000  0.74226000  0.80141000  1.0
  O  O264  1  0.74091000  0.75113000  0.35327000  1.0
  O  O265  1  0.84564000  0.24900000  0.64635000  1.0
  O  O266  1  0.84425000  0.25106000  0.14654000  1.0
  O  O267  1  0.24177000  0.74914000  0.85312000  1.0
  O  O268  1  0.14747000  0.80868000  0.27819000  1.0
  O  O269  1  0.23444000  0.19110000  0.72194000  1.0
  O  O270  1  0.17572000  0.30876000  0.22182000  1.0
  O  O271  1  0.70601000  0.69135000  0.77827000  1.0
  O  O272  1  0.29441000  0.65140000  0.16282000  1.0
  O  O273  1  0.10898000  0.34847000  0.83726000  1.0
  O  O274  1  0.20793000  0.15135000  0.33706000  1.0
  O  O275  1  0.69586000  0.84851000  0.66287000  1.0
  O  O276  1  0.49860000  0.59134000  0.14508000  1.0
  O  O277  1  0.23557000  0.40833000  0.85498000  1.0
  O  O278  1  0.39441000  0.09141000  0.35474000  1.0
  O  O279  1  0.84012000  0.90838000  0.64504000  1.0
  O  O280  1  0.31872000  0.52824000  0.06442000  1.0
  O  O281  1  0.91188000  0.47152000  0.93560000  1.0
  O  O282  1  0.13390000  0.02827000  0.43543000  1.0
  O  O283  1  0.59729000  0.97167000  0.56437000  1.0
