# generated using pymatgen
data_ZnH12C14(NO2)2
_symmetry_space_group_name_H-M   'P 1'
_cell_length_a   5.13821000
_cell_length_b   9.36579000
_cell_length_c   13.77170000
_cell_angle_alpha   70.16400000
_cell_angle_beta   89.99930000
_cell_angle_gamma   89.99970000
_symmetry_Int_Tables_number   1
_chemical_formula_structural   ZnH12C14(NO2)2
_chemical_formula_sum   'Zn2 H24 C28 N4 O8'
_cell_volume   623.41905607
_cell_formula_units_Z   2
loop_
 _symmetry_equiv_pos_site_id
 _symmetry_equiv_pos_as_xyz
  1  'x, y, z'
loop_
 _atom_site_type_symbol
 _atom_site_label
 _atom_site_symmetry_multiplicity
 _atom_site_fract_x
 _atom_site_fract_y
 _atom_site_fract_z
 _atom_site_occupancy
  Zn  Zn0  1  0.00000000  0.00000000  0.00000000  1.0
  Zn  Zn1  1  0.50000000  0.50000000  1.00000000  1.0
  H  H2  1  0.56531000  0.91491000  0.13086000  1.0
  H  H3  1  0.06530000  0.58509000  0.86915000  1.0
  H  H4  1  0.43470000  0.08509000  0.86914000  1.0
  H  H5  1  0.93470000  0.41491000  0.13086000  1.0
  H  H6  1  0.68936000  0.79486000  0.07538000  1.0
  H  H7  1  0.18935000  0.70514000  0.92462000  1.0
  H  H8  1  0.31065000  0.20514000  0.92461000  1.0
  H  H9  1  0.81065000  0.29486000  0.07538000  1.0
  H  H10  1  0.62499000  0.87054000  0.30657000  1.0
  H  H11  1  0.12500000  0.62946000  0.69344000  1.0
  H  H12  1  0.37502000  0.12947000  0.69343000  1.0
  H  H13  1  0.87500000  0.37053000  0.30657000  1.0
  H  H14  1  0.86750000  0.73627000  0.46788000  1.0
  H  H15  1  0.36751000  0.76372000  0.53212000  1.0
  H  H16  1  0.13251000  0.26374000  0.53211000  1.0
  H  H17  1  0.63248000  0.23627000  0.46788000  1.0
  H  H18  1  0.24433000  0.56950000  0.46450000  1.0
  H  H19  1  0.74434000  0.93050000  0.53551000  1.0
  H  H20  1  0.75567000  0.43051000  0.53550000  1.0
  H  H21  1  0.25565000  0.06949000  0.46450000  1.0
  H  H22  1  0.37333000  0.53860000  0.29813000  1.0
  H  H23  1  0.87333000  0.96140000  0.70188000  1.0
  H  H24  1  0.62666000  0.46141000  0.70188000  1.0
  H  H25  1  0.12666000  0.03860000  0.29812000  1.0
  C  C26  1  0.17985000  0.67452000  0.11139000  1.0
  C  C27  1  0.67985000  0.82545000  0.88862000  1.0
  C  C28  1  0.82016000  0.32548000  0.88861000  1.0
  C  C29  1  0.32015000  0.17454000  0.11139000  1.0
  C  C30  1  0.07876000  0.68928000  0.20932000  1.0
  C  C31  1  0.57877000  0.81071000  0.79068000  1.0
  C  C32  1  0.92123000  0.31073000  0.79068000  1.0
  C  C33  1  0.42123000  0.18929000  0.20932000  1.0
  C  C34  1  0.86601000  0.78377000  0.21119000  1.0
  C  C35  1  0.36600000  0.71623000  0.78882000  1.0
  C  C36  1  0.13402000  0.21623000  0.78879000  1.0
  C  C37  1  0.63400000  0.28377000  0.21119000  1.0
  C  C38  1  0.79221000  0.79950000  0.30502000  1.0
  C  C39  1  0.29222000  0.70050000  0.69498000  1.0
  C  C40  1  0.20778000  0.20051000  0.69498000  1.0
  C  C41  1  0.70778000  0.29949000  0.30502000  1.0
  C  C42  1  0.92859000  0.72367000  0.39536000  1.0
  C  C43  1  0.42860000  0.77633000  0.60465000  1.0
  C  C44  1  0.07142000  0.27634000  0.60463000  1.0
  C  C45  1  0.57138000  0.22366000  0.39536000  1.0
  C  C46  1  0.13892000  0.62969000  0.39382000  1.0
  C  C47  1  0.63892000  0.87031000  0.60618000  1.0
  C  C48  1  0.86105000  0.37032000  0.60619000  1.0
  C  C49  1  0.36106000  0.12969000  0.39382000  1.0
  C  C50  1  0.21072000  0.61169000  0.30121000  1.0
  C  C51  1  0.71073000  0.88831000  0.69880000  1.0
  C  C52  1  0.78930000  0.38831000  0.69878000  1.0
  C  C53  1  0.28927000  0.11169000  0.30121000  1.0
  N  N54  1  0.73214000  0.86284000  0.11896000  1.0
  N  N55  1  0.23213000  0.63716000  0.88105000  1.0
  N  N56  1  0.26785000  0.13717000  0.88104000  1.0
  N  N57  1  0.76786000  0.36283000  0.11896000  1.0
  O  O58  1  0.18662000  0.79066000  0.02887000  1.0
  O  O59  1  0.68662000  0.70934000  0.97113000  1.0
  O  O60  1  0.81339000  0.20935000  0.97112000  1.0
  O  O61  1  0.31339000  0.29066000  0.02887000  1.0
  O  O62  1  0.26327000  0.54423000  0.11582000  1.0
  O  O63  1  0.76327000  0.95577000  0.88419000  1.0
  O  O64  1  0.73674000  0.45578000  0.88418000  1.0
  O  O65  1  0.23673000  0.04423000  0.11581000  1.0
