# generated using pymatgen
data_ZnH16C21(NO3)2
_symmetry_space_group_name_H-M   'P 1'
_cell_length_a   12.59220000
_cell_length_b   13.66410000
_cell_length_c   14.13580000
_cell_angle_alpha   94.55540000
_cell_angle_beta   104.88300000
_cell_angle_gamma   102.21300000
_symmetry_Int_Tables_number   1
_chemical_formula_structural   ZnH16C21(NO3)2
_chemical_formula_sum   'Zn4 H64 C84 N8 O24'
_cell_volume   2274.27526554
_cell_formula_units_Z   4
loop_
 _symmetry_equiv_pos_site_id
 _symmetry_equiv_pos_as_xyz
  1  'x, y, z'
loop_
 _atom_site_type_symbol
 _atom_site_label
 _atom_site_symmetry_multiplicity
 _atom_site_fract_x
 _atom_site_fract_y
 _atom_site_fract_z
 _atom_site_occupancy
  Zn  Zn0  1  0.19162000  0.34357000  0.58959000  1.0
  Zn  Zn1  1  0.80838000  0.65643000  0.41041000  1.0
  Zn  Zn2  1  0.72937000  0.22320000  0.94536000  1.0
  Zn  Zn3  1  0.27064000  0.77680000  0.05464000  1.0
  H  H4  1  0.01521000  0.18824000  0.27811000  1.0
  H  H5  1  0.98480000  0.81175000  0.72190000  1.0
  H  H6  1  0.88511000  0.35603000  0.26449000  1.0
  H  H7  1  0.11489000  0.64395000  0.73552000  1.0
  H  H8  1  0.25231000  0.98601000  0.63837000  1.0
  H  H9  1  0.74769000  0.01400000  0.36164000  1.0
  H  H10  1  0.59254000  0.96878000  0.63805000  1.0
  H  H11  1  0.40745000  0.03122000  0.36195000  1.0
  H  H12  1  0.50970000  0.25827000  0.67006000  1.0
  H  H13  1  0.49030000  0.74174000  0.32995000  1.0
  H  H14  1  0.52487000  0.81881000  0.69065000  1.0
  H  H15  1  0.47512000  0.18119000  0.30934000  1.0
  H  H16  1  0.48809000  0.80947000  0.55921000  1.0
  H  H17  1  0.51189000  0.19053000  0.44078000  1.0
  H  H18  1  0.22101000  0.71948000  0.57225000  1.0
  H  H19  1  0.77898000  0.28052000  0.42775000  1.0
  H  H20  1  0.12346000  0.53832000  0.55597000  1.0
  H  H21  1  0.87654000  0.46167000  0.44403000  1.0
  H  H22  1  0.42902000  0.45617000  0.64922000  1.0
  H  H23  1  0.57099000  0.54384000  0.35078000  1.0
  H  H24  1  0.54007000  0.63378000  0.65974000  1.0
  H  H25  1  0.45992000  0.36623000  0.34026000  1.0
  H  H26  1  0.71326000  0.30391000  0.73915000  1.0
  H  H27  1  0.28675000  0.69609000  0.26084000  1.0
  H  H28  1  0.65854000  0.29060000  0.60786000  1.0
  H  H29  1  0.34146000  0.70940000  0.39213000  1.0
  H  H30  1  0.87840000  0.44194000  0.72269000  1.0
  H  H31  1  0.12160000  0.55806000  0.27730000  1.0
  H  H32  1  0.07125000  0.47046000  0.69916000  1.0
  H  H33  1  0.92875000  0.52954000  0.30083000  1.0
  H  H34  1  0.01636000  0.17154000  0.57830000  1.0
  H  H35  1  0.98364000  0.82845000  0.42170000  1.0
  H  H36  1  0.81760000  0.13134000  0.59203000  1.0
  H  H37  1  0.18240000  0.86866000  0.40797000  1.0
  H  H38  1  0.66410000  0.57964000  0.87446000  1.0
  H  H39  1  0.33590000  0.42037000  0.12555000  1.0
  H  H40  1  0.32258000  0.59718000  0.87097000  1.0
  H  H41  1  0.67742000  0.40283000  0.12903000  1.0
  H  H42  1  0.41492000  0.31022000  0.87147000  1.0
  H  H43  1  0.58508000  0.68978000  0.12853000  1.0
  H  H44  1  0.42789000  0.75005000  0.94533000  1.0
  H  H45  1  0.57212000  0.24996000  0.05468000  1.0
  H  H46  1  0.38505000  0.74725000  0.81525000  1.0
  H  H47  1  0.61494000  0.25275000  0.18476000  1.0
  H  H48  1  0.68906000  0.84376000  0.94799000  1.0
  H  H49  1  0.31094000  0.15624000  0.05201000  1.0
  H  H50  1  0.78849000  0.02800000  0.97750000  1.0
  H  H51  1  0.21151000  0.97201000  0.02249000  1.0
  H  H52  1  0.48782000  0.11016000  0.86390000  1.0
  H  H53  1  0.51218000  0.88984000  0.13610000  1.0
  H  H54  1  0.37421000  0.93174000  0.84174000  1.0
  H  H55  1  0.62579000  0.06827000  0.15827000  1.0
  H  H56  1  0.27400000  0.28833000  0.94237000  1.0
  H  H57  1  0.72600000  0.71168000  0.05763000  1.0
  H  H58  1  0.21569000  0.25769000  0.81081000  1.0
  H  H59  1  0.78431000  0.74231000  0.18919000  1.0
  H  H60  1  0.11787000  0.43240000  0.97006000  1.0
  H  H61  1  0.88214000  0.56760000  0.02995000  1.0
  H  H62  1  0.91763000  0.39204000  0.98209000  1.0
  H  H63  1  0.08238000  0.60796000  0.01792000  1.0
  H  H64  1  0.85096000  0.10285000  0.83300000  1.0
  H  H65  1  0.14903000  0.89716000  0.16699000  1.0
  H  H66  1  0.04579000  0.13145000  0.81166000  1.0
  H  H67  1  0.95420000  0.86856000  0.18833000  1.0
  C  C68  1  0.05174000  0.31154000  0.40254000  1.0
  C  C69  1  0.94826000  0.68845000  0.59746000  1.0
  C  C70  1  0.99079000  0.25616000  0.30158000  1.0
  C  C71  1  0.00921000  0.74383000  0.69842000  1.0
  C  C72  1  0.90904000  0.28813000  0.24028000  1.0
  C  C73  1  0.09095000  0.71186000  0.75971000  1.0
  C  C74  1  0.85089000  0.23732000  0.13756000  1.0
  C  C75  1  0.14911000  0.76266000  0.86244000  1.0
  C  C76  1  0.28845000  0.18904000  0.65595000  1.0
  C  C77  1  0.71155000  0.81096000  0.34406000  1.0
  C  C78  1  0.37365000  0.12744000  0.65256000  1.0
  C  C79  1  0.62635000  0.87256000  0.34745000  1.0
  C  C80  1  0.33918000  0.02247000  0.64172000  1.0
  C  C81  1  0.66082000  0.97753000  0.35829000  1.0
  C  C82  1  0.41769000  0.96494000  0.63575000  1.0
  C  C83  1  0.58230000  0.03506000  0.36426000  1.0
  C  C84  1  0.52961000  0.01132000  0.64235000  1.0
  C  C85  1  0.47039000  0.98868000  0.35765000  1.0
  C  C86  1  0.56293000  0.11747000  0.65538000  1.0
  C  C87  1  0.43707000  0.88253000  0.34462000  1.0
  C  C88  1  0.48586000  0.17615000  0.65932000  1.0
  C  C89  1  0.51413000  0.82386000  0.34068000  1.0
  C  C90  1  0.45285000  0.79923000  0.62291000  1.0
  C  C91  1  0.54714000  0.20078000  0.37708000  1.0
  C  C92  1  0.38908000  0.69134000  0.61484000  1.0
  C  C93  1  0.61092000  0.30866000  0.38516000  1.0
  C  C94  1  0.27073000  0.66352000  0.58752000  1.0
  C  C95  1  0.72927000  0.33647000  0.41248000  1.0
  C  C96  1  0.21558000  0.56252000  0.58010000  1.0
  C  C97  1  0.78443000  0.43748000  0.41990000  1.0
  C  C98  1  0.38721000  0.51693000  0.62982000  1.0
  C  C99  1  0.61280000  0.48306000  0.37019000  1.0
  C  C100  1  0.44781000  0.61575000  0.63564000  1.0
  C  C101  1  0.55220000  0.38426000  0.36436000  1.0
  C  C102  1  0.71406000  0.26317000  0.66883000  1.0
  C  C103  1  0.28594000  0.73683000  0.33116000  1.0
  C  C104  1  0.83187000  0.28373000  0.65817000  1.0
  C  C105  1  0.16813000  0.71627000  0.34182000  1.0
  C  C106  1  0.90470000  0.37999000  0.68899000  1.0
  C  C107  1  0.09531000  0.62001000  0.31100000  1.0
  C  C108  1  0.01277000  0.39623000  0.67675000  1.0
  C  C109  1  0.98722000  0.60376000  0.32324000  1.0
  C  C110  1  0.98081000  0.22907000  0.60791000  1.0
  C  C111  1  0.01919000  0.77092000  0.39209000  1.0
  C  C112  1  0.87145000  0.20738000  0.61647000  1.0
  C  C113  1  0.12854000  0.79261000  0.38352000  1.0
  C  C114  1  0.63561000  0.38010000  0.88327000  1.0
  C  C115  1  0.36439000  0.61991000  0.11673000  1.0
  C  C116  1  0.54667000  0.43942000  0.87326000  1.0
  C  C117  1  0.45333000  0.56058000  0.12674000  1.0
  C  C118  1  0.57742000  0.54324000  0.87183000  1.0
  C  C119  1  0.42259000  0.45676000  0.12817000  1.0
  C  C120  1  0.49681000  0.60001000  0.87067000  1.0
  C  C121  1  0.50319000  0.39999000  0.12933000  1.0
  C  C122  1  0.38627000  0.55448000  0.86932000  1.0
  C  C123  1  0.61373000  0.44552000  0.13068000  1.0
  C  C124  1  0.35697000  0.44944000  0.86925000  1.0
  C  C125  1  0.64303000  0.55056000  0.13075000  1.0
  C  C126  1  0.43582000  0.39137000  0.87102000  1.0
  C  C127  1  0.56418000  0.60863000  0.12898000  1.0
  C  C128  1  0.45963000  0.76454000  0.88058000  1.0
  C  C129  1  0.54037000  0.23546000  0.11942000  1.0
  C  C130  1  0.52316000  0.87279000  0.89334000  1.0
  C  C131  1  0.47684000  0.12722000  0.10666000  1.0
  C  C132  1  0.64132000  0.90080000  0.93007000  1.0
  C  C133  1  0.35868000  0.09921000  0.06993000  1.0
  C  C134  1  0.69742000  0.00201000  0.94387000  1.0
  C  C135  1  0.30258000  0.99799000  0.05612000  1.0
  C  C136  1  0.52831000  0.04870000  0.88363000  1.0
  C  C137  1  0.47169000  0.95131000  0.11637000  1.0
  C  C138  1  0.46614000  0.94916000  0.87073000  1.0
  C  C139  1  0.53385000  0.05084000  0.12927000  1.0
  C  C140  1  0.21446000  0.30556000  0.87696000  1.0
  C  C141  1  0.78554000  0.69444000  0.12303000  1.0
  C  C142  1  0.09742000  0.28465000  0.88958000  1.0
  C  C143  1  0.90258000  0.71535000  0.11041000  1.0
  C  C144  1  0.06093000  0.35849000  0.93881000  1.0
  C  C145  1  0.93907000  0.64151000  0.06119000  1.0
  C  C146  1  0.95105000  0.33669000  0.94646000  1.0
  C  C147  1  0.04896000  0.66332000  0.05355000  1.0
  C  C148  1  0.91304000  0.17444000  0.86309000  1.0
  C  C149  1  0.08696000  0.82556000  0.13691000  1.0
  C  C150  1  0.02161000  0.19064000  0.85184000  1.0
  C  C151  1  0.97839000  0.80936000  0.14815000  1.0
  N  N152  1  0.27294000  0.49052000  0.60159000  1.0
  N  N153  1  0.72706000  0.50948000  0.39841000  1.0
  N  N154  1  0.05059000  0.32218000  0.63740000  1.0
  N  N155  1  0.94941000  0.67782000  0.36260000  1.0
  N  N156  1  0.64212000  0.07503000  0.92015000  1.0
  N  N157  1  0.35788000  0.92497000  0.07984000  1.0
  N  N158  1  0.87764000  0.24626000  0.90878000  1.0
  N  N159  1  0.12236000  0.75374000  0.09122000  1.0
  O  O160  1  0.12841000  0.27051000  0.45299000  1.0
  O  O161  1  0.87160000  0.72949000  0.54701000  1.0
  O  O162  1  0.02848000  0.39068000  0.43382000  1.0
  O  O163  1  0.97153000  0.60931000  0.56618000  1.0
  O  O164  1  0.78351000  0.28676000  0.08574000  1.0
  O  O165  1  0.21649000  0.71324000  0.91427000  1.0
  O  O166  1  0.86765000  0.15593000  0.10479000  1.0
  O  O167  1  0.13236000  0.84406000  0.89521000  1.0
  O  O168  1  0.31880000  0.28220000  0.64060000  1.0
  O  O169  1  0.68120000  0.71780000  0.35940000  1.0
  O  O170  1  0.19669000  0.14986000  0.67185000  1.0
  O  O171  1  0.80331000  0.85014000  0.32815000  1.0
  O  O172  1  0.60249000  0.28529000  0.89369000  1.0
  O  O173  1  0.39751000  0.71471000  0.10631000  1.0
  O  O174  1  0.73422000  0.42111000  0.88277000  1.0
  O  O175  1  0.26579000  0.57889000  0.11723000  1.0
  O  O176  1  0.37650000  0.86213000  0.62520000  1.0
  O  O177  1  0.62349000  0.13787000  0.37480000  1.0
  O  O178  1  0.67525000  0.15624000  0.66419000  1.0
  O  O179  1  0.32476000  0.84376000  0.33581000  1.0
  O  O180  1  0.53531000  0.70222000  0.87168000  1.0
  O  O181  1  0.46470000  0.29778000  0.12832000  1.0
  O  O182  1  0.24704000  0.41074000  0.86862000  1.0
  O  O183  1  0.75296000  0.58926000  0.13137000  1.0
