# generated using pymatgen
data_CuH26C32(N2O5)2
_symmetry_space_group_name_H-M   'P 1'
_cell_length_a   15.31520000
_cell_length_b   16.69040000
_cell_length_c   17.77456161
_cell_angle_alpha   118.00379827
_cell_angle_beta   115.52331237
_cell_angle_gamma   90.00190000
_symmetry_Int_Tables_number   1
_chemical_formula_structural   CuH26C32(N2O5)2
_chemical_formula_sum   'Cu4 H104 C128 N16 O40'
_cell_volume   3501.34355256
_cell_formula_units_Z   4
loop_
 _symmetry_equiv_pos_site_id
 _symmetry_equiv_pos_as_xyz
  1  'x, y, z'
loop_
 _atom_site_type_symbol
 _atom_site_label
 _atom_site_symmetry_multiplicity
 _atom_site_fract_x
 _atom_site_fract_y
 _atom_site_fract_z
 _atom_site_occupancy
  Cu  Cu0  1  0.00000000  0.50000000  0.50000000  1.0
  Cu  Cu1  1  0.50000000  0.50000000  0.50000000  1.0
  Cu  Cu2  1  0.50000000  1.00000000  0.50000000  1.0
  Cu  Cu3  1  0.00000000  1.00000000  0.50000000  1.0
  H  H4  1  0.88635000  0.61222000  0.42193000  1.0
  H  H5  1  0.53565000  0.30971000  0.42198000  1.0
  H  H6  1  0.61365000  0.19032000  0.57801000  1.0
  H  H7  1  0.96441000  0.88778000  0.57806000  1.0
  H  H8  1  0.11366000  0.38778000  0.57807000  1.0
  H  H9  1  0.46435000  0.69029000  0.57802000  1.0
  H  H10  1  0.38635000  0.80968000  0.42199000  1.0
  H  H11  1  0.03559000  0.11222000  0.42194000  1.0
  H  H12  1  0.90735000  0.70603000  0.35375000  1.0
  H  H13  1  0.44641000  0.14769000  0.35371000  1.0
  H  H14  1  0.59265000  0.35235000  0.64623000  1.0
  H  H15  1  0.05363000  0.79402000  0.64629000  1.0
  H  H16  1  0.09265000  0.29397000  0.64625000  1.0
  H  H17  1  0.55359000  0.85231000  0.64629000  1.0
  H  H18  1  0.40735000  0.64765000  0.35377000  1.0
  H  H19  1  0.94637000  0.20598000  0.35371000  1.0
  H  H20  1  0.19131000  0.63802000  0.39732000  1.0
  H  H21  1  0.20606000  0.25931000  0.39733000  1.0
  H  H22  1  0.30874000  0.24069000  0.60272000  1.0
  H  H23  1  0.29397000  0.86201000  0.60266000  1.0
  H  H24  1  0.80869000  0.36198000  0.60268000  1.0
  H  H25  1  0.79394000  0.74068000  0.60267000  1.0
  H  H26  1  0.69126000  0.75931000  0.39728000  1.0
  H  H27  1  0.70603000  0.13799000  0.39734000  1.0
  H  H28  1  0.15961000  0.54764000  0.46506000  1.0
  H  H29  1  0.30548000  0.41740000  0.46504000  1.0
  H  H30  1  0.34044000  0.08260000  0.53497000  1.0
  H  H31  1  0.19454000  0.95242000  0.53495000  1.0
  H  H32  1  0.84039000  0.45236000  0.53494000  1.0
  H  H33  1  0.69452000  0.58260000  0.53496000  1.0
  H  H34  1  0.65956000  0.91740000  0.46503000  1.0
  H  H35  1  0.80546000  0.04758000  0.46505000  1.0
  H  H36  1  0.01412000  0.77767000  0.32129000  1.0
  H  H37  1  0.30717000  0.04359000  0.32128000  1.0
  H  H38  1  0.48588000  0.45640000  0.67870000  1.0
  H  H39  1  0.19284000  0.72233000  0.67868000  1.0
  H  H40  1  0.98589000  0.22233000  0.67871000  1.0
  H  H41  1  0.69283000  0.95642000  0.67873000  1.0
  H  H42  1  0.51412000  0.54360000  0.32130000  1.0
  H  H43  1  0.80716000  0.27767000  0.32132000  1.0
  H  H44  1  0.14252000  0.77515000  0.36629000  1.0
  H  H45  1  0.22379000  0.09114000  0.36629000  1.0
  H  H46  1  0.35747000  0.40888000  0.63373000  1.0
  H  H47  1  0.27623000  0.72487000  0.63369000  1.0
  H  H48  1  0.85748000  0.22485000  0.63371000  1.0
  H  H49  1  0.77621000  0.90886000  0.63371000  1.0
  H  H50  1  0.64252000  0.59111000  0.36626000  1.0
  H  H51  1  0.72377000  0.27513000  0.36631000  1.0
  H  H52  1  0.81405000  0.49338000  0.93394000  1.0
  H  H53  1  0.11989000  0.94055000  0.93398000  1.0
  H  H54  1  0.68596000  0.55942000  0.06607000  1.0
  H  H55  1  0.38010000  0.00656000  0.06602000  1.0
  H  H56  1  0.18595000  0.50662000  0.06606000  1.0
  H  H57  1  0.88011000  0.05945000  0.06602000  1.0
  H  H58  1  0.31404000  0.44058000  0.93393000  1.0
  H  H59  1  0.61990000  0.99343000  0.93397000  1.0
  H  H60  1  0.24229000  0.61181000  0.79864000  1.0
  H  H61  1  0.55634000  0.68683000  0.79860000  1.0
  H  H62  1  0.25771000  0.81316000  0.20136000  1.0
  H  H63  1  0.94361000  0.88818000  0.20132000  1.0
  H  H64  1  0.75771000  0.38819000  0.20136000  1.0
  H  H65  1  0.44366000  0.31317000  0.20140000  1.0
  H  H66  1  0.74229000  0.18684000  0.79864000  1.0
  H  H67  1  0.05639000  0.11182000  0.79868000  1.0
  H  H68  1  0.39959000  0.70980000  0.95696000  1.0
  H  H69  1  0.55744000  0.74723000  0.95698000  1.0
  H  H70  1  0.10042000  0.75276000  0.04301000  1.0
  H  H71  1  0.94256000  0.79015000  0.04295000  1.0
  H  H72  1  0.60041000  0.29020000  0.04304000  1.0
  H  H73  1  0.44256000  0.25277000  0.04302000  1.0
  H  H74  1  0.89958000  0.24725000  0.95700000  1.0
  H  H75  1  0.05744000  0.20985000  0.95705000  1.0
  H  H76  1  0.06046000  0.68046000  0.74524000  1.0
  H  H77  1  0.68480000  0.56480000  0.74525000  1.0
  H  H78  1  0.43952000  0.93521000  0.25474000  1.0
  H  H79  1  0.81525000  0.81954000  0.25477000  1.0
  H  H80  1  0.93954000  0.31955000  0.25477000  1.0
  H  H81  1  0.31520000  0.43520000  0.25475000  1.0
  H  H82  1  0.56049000  0.06479000  0.74526000  1.0
  H  H83  1  0.18475000  0.18046000  0.74523000  1.0
  H  H84  1  0.94208000  0.60834000  0.69878000  1.0
  H  H85  1  0.75674000  0.59048000  0.69883000  1.0
  H  H86  1  0.55788000  0.90952000  0.30118000  1.0
  H  H87  1  0.74332000  0.89166000  0.30120000  1.0
  H  H88  1  0.05792000  0.39166000  0.30122000  1.0
  H  H89  1  0.24326000  0.40952000  0.30117000  1.0
  H  H90  1  0.44212000  0.09048000  0.69882000  1.0
  H  H91  1  0.25668000  0.10834000  0.69880000  1.0
  H  H92  1  0.95591000  0.73006000  0.73589000  1.0
  H  H93  1  0.78000000  0.50584000  0.73591000  1.0
  H  H94  1  0.54409000  0.99417000  0.26412000  1.0
  H  H95  1  0.72003000  0.76994000  0.26410000  1.0
  H  H96  1  0.04409000  0.26994000  0.26411000  1.0
  H  H97  1  0.22000000  0.49415000  0.26408000  1.0
  H  H98  1  0.45591000  0.00583000  0.73588000  1.0
  H  H99  1  0.27997000  0.23006000  0.73590000  1.0
  H  H100  1  0.88763000  0.61271000  0.55641000  1.0
  H  H101  1  0.66879000  0.44372000  0.55643000  1.0
  H  H102  1  0.61236000  0.05628000  0.44358000  1.0
  H  H103  1  0.83122000  0.88728000  0.44358000  1.0
  H  H104  1  0.11237000  0.38730000  0.44360000  1.0
  H  H105  1  0.33121000  0.55628000  0.44357000  1.0
  H  H106  1  0.38764000  0.94371000  0.55642000  1.0
  H  H107  1  0.16878000  0.11272000  0.55642000  1.0
  C  C108  1  0.95231000  0.61836000  0.41420000  1.0
  C  C109  1  0.46194000  0.29581000  0.41420000  1.0
  C  C110  1  0.54769000  0.20421000  0.58574000  1.0
  C  C111  1  0.03812000  0.88168000  0.58583000  1.0
  C  C112  1  0.04769000  0.38164000  0.58580000  1.0
  C  C113  1  0.53806000  0.70419000  0.58580000  1.0
  C  C114  1  0.45231000  0.79579000  0.41426000  1.0
  C  C115  1  0.96188000  0.11832000  0.41417000  1.0
  C  C116  1  0.96448000  0.67074000  0.37583000  1.0
  C  C117  1  0.41137000  0.20507000  0.37580000  1.0
  C  C118  1  0.53550000  0.29494000  0.62411000  1.0
  C  C119  1  0.08868000  0.82932000  0.62421000  1.0
  C  C120  1  0.03552000  0.32926000  0.62417000  1.0
  C  C121  1  0.58863000  0.79493000  0.62420000  1.0
  C  C122  1  0.46449000  0.70505000  0.37589000  1.0
  C  C123  1  0.91132000  0.17068000  0.37579000  1.0
  C  C124  1  0.05061000  0.67830000  0.36809000  1.0
  C  C125  1  0.31749000  0.18977000  0.36805000  1.0
  C  C126  1  0.44940000  0.31023000  0.63190000  1.0
  C  C127  1  0.18255000  0.82177000  0.63195000  1.0
  C  C128  1  0.94939000  0.32170000  0.63191000  1.0
  C  C129  1  0.68251000  0.81023000  0.63195000  1.0
  C  C130  1  0.55060000  0.68977000  0.36810000  1.0
  C  C131  1  0.81745000  0.17823000  0.36805000  1.0
  C  C132  1  0.12193000  0.63291000  0.40020000  1.0
  C  C133  1  0.27830000  0.26726000  0.40016000  1.0
  C  C134  1  0.37812000  0.23274000  0.59985000  1.0
  C  C135  1  0.22174000  0.86715000  0.59983000  1.0
  C  C136  1  0.87807000  0.36709000  0.59980000  1.0
  C  C137  1  0.72170000  0.73274000  0.59984000  1.0
  C  C138  1  0.62187000  0.76726000  0.40015000  1.0
  C  C139  1  0.77826000  0.13285000  0.40017000  1.0
  C  C140  1  0.10444000  0.58183000  0.43763000  1.0
  C  C141  1  0.33322000  0.35578000  0.43760000  1.0
  C  C142  1  0.39562000  0.14423000  0.56241000  1.0
  C  C143  1  0.16682000  0.91823000  0.56240000  1.0
  C  C144  1  0.89557000  0.41818000  0.56238000  1.0
  C  C145  1  0.66678000  0.64422000  0.56240000  1.0
  C  C146  1  0.60438000  0.85577000  0.43759000  1.0
  C  C147  1  0.83318000  0.08177000  0.43760000  1.0
  C  C148  1  0.06532000  0.73201000  0.32416000  1.0
  C  C149  1  0.25885000  0.09213000  0.32414000  1.0
  C  C150  1  0.43469000  0.40788000  0.67586000  1.0
  C  C151  1  0.24117000  0.76802000  0.67583000  1.0
  C  C152  1  0.93469000  0.26800000  0.67585000  1.0
  C  C153  1  0.74115000  0.90788000  0.67586000  1.0
  C  C154  1  0.56530000  0.59212000  0.32414000  1.0
  C  C155  1  0.75883000  0.23198000  0.32417000  1.0
  C  C156  1  0.95037000  0.62486000  0.14320000  1.0
  C  C157  1  0.19280000  0.01830000  0.14320000  1.0
  C  C158  1  0.54965000  0.48169000  0.85683000  1.0
  C  C159  1  0.30721000  0.87510000  0.85679000  1.0
  C  C160  1  0.04963000  0.37514000  0.85680000  1.0
  C  C161  1  0.80720000  0.98170000  0.85680000  1.0
  C  C162  1  0.45034000  0.51831000  0.14317000  1.0
  C  C163  1  0.69280000  0.12490000  0.14321000  1.0
  C  C164  1  0.12056000  0.63166000  0.20291000  1.0
  C  C165  1  0.08233000  0.07119000  0.20290000  1.0
  C  C166  1  0.37946000  0.42882000  0.79711000  1.0
  C  C167  1  0.41767000  0.86834000  0.79709000  1.0
  C  C168  1  0.87945000  0.36834000  0.79709000  1.0
  C  C169  1  0.91767000  0.92881000  0.79710000  1.0
  C  C170  1  0.62053000  0.57118000  0.20289000  1.0
  C  C171  1  0.58233000  0.13165000  0.20290000  1.0
  C  C172  1  0.96484000  0.55671000  0.06001000  1.0
  C  C173  1  0.09516000  0.00328000  0.06001000  1.0
  C  C174  1  0.53519000  0.49670000  0.94000000  1.0
  C  C175  1  0.40485000  0.94325000  0.93999000  1.0
  C  C176  1  0.03517000  0.44329000  0.93999000  1.0
  C  C177  1  0.90484000  0.99672000  0.93999000  1.0
  C  C178  1  0.46481000  0.50330000  0.06000000  1.0
  C  C179  1  0.59515000  0.05675000  0.06001000  1.0
  C  C180  1  0.89373000  0.49602000  0.96242000  1.0
  C  C181  1  0.06871000  0.96641000  0.96244000  1.0
  C  C182  1  0.60628000  0.53358000  0.03759000  1.0
  C  C183  1  0.43129000  0.00394000  0.03756000  1.0
  C  C184  1  0.10628000  0.50398000  0.03758000  1.0
  C  C185  1  0.93129000  0.03359000  0.03756000  1.0
  C  C186  1  0.39371000  0.46642000  0.96241000  1.0
  C  C187  1  0.56871000  0.99606000  0.96244000  1.0
  C  C188  1  0.93262000  0.43936000  0.90385000  1.0
  C  C189  1  0.97125000  0.96452000  0.90386000  1.0
  C  C190  1  0.56737000  0.53548000  0.09614000  1.0
  C  C191  1  0.52874000  0.06064000  0.09613000  1.0
  C  C192  1  0.06738000  0.56064000  0.09615000  1.0
  C  C193  1  0.02874000  0.03548000  0.09614000  1.0
  C  C194  1  0.43263000  0.46452000  0.90386000  1.0
  C  C195  1  0.47126000  0.93936000  0.90387000  1.0
  C  C196  1  0.21665000  0.53171000  0.61695000  1.0
  C  C197  1  0.40034000  0.58523000  0.61699000  1.0
  C  C198  1  0.28334000  0.91478000  0.38299000  1.0
  C  C199  1  0.09969000  0.96829000  0.38300000  1.0
  C  C200  1  0.78335000  0.46829000  0.38305000  1.0
  C  C201  1  0.59966000  0.41477000  0.38301000  1.0
  C  C202  1  0.71666000  0.08522000  0.61701000  1.0
  C  C203  1  0.90031000  0.03171000  0.61700000  1.0
  C  C204  1  0.31127000  0.59449000  0.71109000  1.0
  C  C205  1  0.39982000  0.61656000  0.71109000  1.0
  C  C206  1  0.18871000  0.88346000  0.28888000  1.0
  C  C207  1  0.10016000  0.90552000  0.28887000  1.0
  C  C208  1  0.68873000  0.40551000  0.28891000  1.0
  C  C209  1  0.60018000  0.38344000  0.28891000  1.0
  C  C210  1  0.81129000  0.11654000  0.71112000  1.0
  C  C211  1  0.89983000  0.09448000  0.71113000  1.0
  C  C212  1  0.31177000  0.62900000  0.79993000  1.0
  C  C213  1  0.48817000  0.67094000  0.79992000  1.0
  C  C214  1  0.18822000  0.82906000  0.20005000  1.0
  C  C215  1  0.01180000  0.87098000  0.20002000  1.0
  C  C216  1  0.68823000  0.37100000  0.20007000  1.0
  C  C217  1  0.51183000  0.32906000  0.20008000  1.0
  C  C218  1  0.81178000  0.17093000  0.79995000  1.0
  C  C219  1  0.98820000  0.12902000  0.79998000  1.0
  C  C220  1  0.39991000  0.68363000  0.88820000  1.0
  C  C221  1  0.48833000  0.70462000  0.88820000  1.0
  C  C222  1  0.10008000  0.79537000  0.11177000  1.0
  C  C223  1  0.01165000  0.81634000  0.11174000  1.0
  C  C224  1  0.60009000  0.31637000  0.11180000  1.0
  C  C225  1  0.51167000  0.29538000  0.11180000  1.0
  C  C226  1  0.89992000  0.20464000  0.88824000  1.0
  C  C227  1  0.98835000  0.18366000  0.88826000  1.0
  C  C228  1  0.97927000  0.66643000  0.70071000  1.0
  C  C229  1  0.72147000  0.53431000  0.70074000  1.0
  C  C230  1  0.52071000  0.96569000  0.29927000  1.0
  C  C231  1  0.77857000  0.83357000  0.29928000  1.0
  C  C232  1  0.02073000  0.33357000  0.29929000  1.0
  C  C233  1  0.27853000  0.46569000  0.29926000  1.0
  C  C234  1  0.47929000  0.03431000  0.70073000  1.0
  C  C235  1  0.22143000  0.16642000  0.70072000  1.0
  N  N236  1  0.02077000  0.57428000  0.44424000  1.0
  N  N237  1  0.42352000  0.36995000  0.44425000  1.0
  N  N238  1  0.47926000  0.13007000  0.55574000  1.0
  N  N239  1  0.07653000  0.92576000  0.55577000  1.0
  N  N240  1  0.97923000  0.42572000  0.55576000  1.0
  N  N241  1  0.57648000  0.63005000  0.55575000  1.0
  N  N242  1  0.52074000  0.86993000  0.44426000  1.0
  N  N243  1  0.92347000  0.07424000  0.44423000  1.0
  N  N244  1  0.04630000  0.66718000  0.22513000  1.0
  N  N245  1  0.17880000  0.05793000  0.22512000  1.0
  N  N246  1  0.45374000  0.44209000  0.77490000  1.0
  N  N247  1  0.32121000  0.83281000  0.77487000  1.0
  N  N248  1  0.95370000  0.33283000  0.77488000  1.0
  N  N249  1  0.82120000  0.94207000  0.77488000  1.0
  N  N250  1  0.54626000  0.55792000  0.22510000  1.0
  N  N251  1  0.67879000  0.16719000  0.22513000  1.0
  O  O252  1  0.87257000  0.64144000  0.14338000  1.0
  O  O253  1  0.27080000  0.00187000  0.14339000  1.0
  O  O254  1  0.62748000  0.49812000  0.85666000  1.0
  O  O255  1  0.22921000  0.85849000  0.85660000  1.0
  O  O256  1  0.12743000  0.35856000  0.85662000  1.0
  O  O257  1  0.72920000  0.99813000  0.85661000  1.0
  O  O258  1  0.37252000  0.50188000  0.14334000  1.0
  O  O259  1  0.77079000  0.14151000  0.14340000  1.0
  O  O260  1  0.20978000  0.65494000  0.26172000  1.0
  O  O261  1  0.05189000  0.10667000  0.26168000  1.0
  O  O262  1  0.29024000  0.39336000  0.73831000  1.0
  O  O263  1  0.44811000  0.84509000  0.73831000  1.0
  O  O264  1  0.79022000  0.34506000  0.73828000  1.0
  O  O265  1  0.94811000  0.89333000  0.73832000  1.0
  O  O266  1  0.70976000  0.60663000  0.26168000  1.0
  O  O267  1  0.55189000  0.15491000  0.26169000  1.0
  O  O268  1  0.13855000  0.56203000  0.61194000  1.0
  O  O269  1  0.47343000  0.54989000  0.61198000  1.0
  O  O270  1  0.36146000  0.95007000  0.38800000  1.0
  O  O271  1  0.02661000  0.93797000  0.38802000  1.0
  O  O272  1  0.86145000  0.43797000  0.38806000  1.0
  O  O273  1  0.52657000  0.45011000  0.38801000  1.0
  O  O274  1  0.63854000  0.04993000  0.61200000  1.0
  O  O275  1  0.97340000  0.06203000  0.61198000  1.0
  O  O276  1  0.22000000  0.45587000  0.55304000  1.0
  O  O277  1  0.33312000  0.59722000  0.55310000  1.0
  O  O278  1  0.27999000  0.90280000  0.44688000  1.0
  O  O279  1  0.16696000  0.04414000  0.44690000  1.0
  O  O280  1  0.78000000  0.54413000  0.44696000  1.0
  O  O281  1  0.66688000  0.40278000  0.44690000  1.0
  O  O282  1  0.72001000  0.09720000  0.55312000  1.0
  O  O283  1  0.83304000  0.95586000  0.55310000  1.0
  O  O284  1  0.95955000  0.64387000  0.60601000  1.0
  O  O285  1  0.64648000  0.46217000  0.60603000  1.0
  O  O286  1  0.54043000  0.03783000  0.39398000  1.0
  O  O287  1  0.85355000  0.85613000  0.39399000  1.0
  O  O288  1  0.04045000  0.35613000  0.39399000  1.0
  O  O289  1  0.35352000  0.53783000  0.39397000  1.0
  O  O290  1  0.45957000  0.96217000  0.60602000  1.0
  O  O291  1  0.14644000  0.14387000  0.60601000  1.0
