# generated using pymatgen
data_ErH29C26(NO4)2
_symmetry_space_group_name_H-M   'P 1'
_cell_length_a   10.80290000
_cell_length_b   11.44650000
_cell_length_c   12.60800000
_cell_angle_alpha   110.73900000
_cell_angle_beta   100.65500000
_cell_angle_gamma   109.97100000
_symmetry_Int_Tables_number   1
_chemical_formula_structural   ErH29C26(NO4)2
_chemical_formula_sum   'Er2 H58 C52 N4 O16'
_cell_volume   1284.71751419
_cell_formula_units_Z   2
loop_
 _symmetry_equiv_pos_site_id
 _symmetry_equiv_pos_as_xyz
  1  'x, y, z'
loop_
 _atom_site_type_symbol
 _atom_site_label
 _atom_site_symmetry_multiplicity
 _atom_site_fract_x
 _atom_site_fract_y
 _atom_site_fract_z
 _atom_site_occupancy
  Er  Er0  1  0.90276000  0.61360000  0.56859000  1.0
  Er  Er1  1  0.09725000  0.38640000  0.43141000  1.0
  H  H2  1  0.49665000  0.45760000  0.77552000  1.0
  H  H3  1  0.50334000  0.54240000  0.22448000  1.0
  H  H4  1  0.53441000  0.73685000  0.61692000  1.0
  H  H5  1  0.46560000  0.26315000  0.38309000  1.0
  H  H6  1  0.47196000  0.61601000  0.46525000  1.0
  H  H7  1  0.52805000  0.38399000  0.53476000  1.0
  H  H8  1  0.48006000  0.83216000  0.46448000  1.0
  H  H9  1  0.51994000  0.16784000  0.53553000  1.0
  H  H10  1  0.61652000  0.80637000  0.41751000  1.0
  H  H11  1  0.38348000  0.19363000  0.58250000  1.0
  H  H12  1  0.78233000  0.96620000  0.63915000  1.0
  H  H13  1  0.21767000  0.03380000  0.36086000  1.0
  H  H14  1  0.64542000  0.00961000  0.66707000  1.0
  H  H15  1  0.35458000  0.99039000  0.33293000  1.0
  H  H16  1  0.64329000  0.08202000  0.49498000  1.0
  H  H17  1  0.35670000  0.91798000  0.50502000  1.0
  H  H18  1  0.79077000  0.05167000  0.48734000  1.0
  H  H19  1  0.20923000  0.94832000  0.51265000  1.0
  H  H20  1  0.77478000  0.26954000  0.70563000  1.0
  H  H21  1  0.22522000  0.73046000  0.29436000  1.0
  H  H22  1  0.92138000  0.22989000  0.70789000  1.0
  H  H23  1  0.07861000  0.77010000  0.29211000  1.0
  H  H24  1  0.43590000  0.76273000  0.82257000  1.0
  H  H25  1  0.56409000  0.23727000  0.17743000  1.0
  H  H26  1  0.29033000  0.79163000  0.85130000  1.0
  H  H27  1  0.70966000  0.20837000  0.14870000  1.0
  H  H28  1  0.44091000  0.87951000  0.68881000  1.0
  H  H29  1  0.55909000  0.12050000  0.31119000  1.0
  H  H30  1  0.28883000  0.89616000  0.70523000  1.0
  H  H31  1  0.71117000  0.10385000  0.29477000  1.0
  H  H32  1  0.57400000  0.04342000  0.91043000  1.0
  H  H33  1  0.42600000  0.95658000  0.08958000  1.0
  H  H34  1  0.41930000  0.05391000  0.92779000  1.0
  H  H35  1  0.58070000  0.94609000  0.07221000  1.0
  H  H36  1  0.57420000  0.15107000  0.77126000  1.0
  H  H37  1  0.42581000  0.84892000  0.22874000  1.0
  H  H38  1  0.40527000  0.13703000  0.76297000  1.0
  H  H39  1  0.59473000  0.86297000  0.23703000  1.0
  H  H40  1  0.66999000  0.32784000  0.99216000  1.0
  H  H41  1  0.33001000  0.67217000  0.00783000  1.0
  H  H42  1  0.49740000  0.30478000  0.98380000  1.0
  H  H43  1  0.50261000  0.69523000  0.01620000  1.0
  H  H44  1  0.99998000  0.90559000  0.54029000  1.0
  H  H45  1  0.00003000  0.09441000  0.45972000  1.0
  H  H46  1  0.13346000  0.16851000  0.65050000  1.0
  H  H47  1  0.86656000  0.83149000  0.34950000  1.0
  H  H48  1  0.23525000  0.28356000  0.87732000  1.0
  H  H49  1  0.76476000  0.71644000  0.12268000  1.0
  H  H50  1  0.27464000  0.25967000  0.06822000  1.0
  H  H51  1  0.72536000  0.74033000  0.93178000  1.0
  H  H52  1  0.24513000  0.10896000  0.17128000  1.0
  H  H53  1  0.75486000  0.89105000  0.82872000  1.0
  H  H54  1  0.14467000  0.86941000  0.15797000  1.0
  H  H55  1  0.85532000  0.13059000  0.84203000  1.0
  H  H56  1  0.99149000  0.61270000  0.02867000  1.0
  H  H57  1  0.00850000  0.38730000  0.97133000  1.0
  H  H58  1  0.89313000  0.52231000  0.80379000  1.0
  H  H59  1  0.10688000  0.47769000  0.19621000  1.0
  C  C60  1  0.68911000  0.68892000  0.55290000  1.0
  C  C61  1  0.31090000  0.31109000  0.44711000  1.0
  C  C62  1  0.56091000  0.71537000  0.53419000  1.0
  C  C63  1  0.43910000  0.28463000  0.46582000  1.0
  C  C64  1  0.58131000  0.83071000  0.49552000  1.0
  C  C65  1  0.41869000  0.16928000  0.50449000  1.0
  C  C66  1  0.68919000  0.97457000  0.59600000  1.0
  C  C67  1  0.31081000  0.02543000  0.40400000  1.0
  C  C68  1  0.73595000  0.08262000  0.54946000  1.0
  C  C69  1  0.26405000  0.91737000  0.45053000  1.0
  C  C70  1  0.83258000  0.23107000  0.64979000  1.0
  C  C71  1  0.16743000  0.76893000  0.35021000  1.0
  C  C72  1  0.89258000  0.33012000  0.59761000  1.0
  C  C73  1  0.10743000  0.66987000  0.40238000  1.0
  C  C74  1  0.24275000  0.64133000  0.67066000  1.0
  C  C75  1  0.75725000  0.35867000  0.32933000  1.0
  C  C76  1  0.34296000  0.77379000  0.78442000  1.0
  C  C77  1  0.65704000  0.22621000  0.21557000  1.0
  C  C78  1  0.38507000  0.89656000  0.75331000  1.0
  C  C79  1  0.61493000  0.10344000  0.24669000  1.0
  C  C80  1  0.47476000  0.03884000  0.86264000  1.0
  C  C81  1  0.52523000  0.96117000  0.13737000  1.0
  C  C82  1  0.50393000  0.15525000  0.82424000  1.0
  C  C83  1  0.49607000  0.84475000  0.17577000  1.0
  C  C84  1  0.56752000  0.30103000  0.93042000  1.0
  C  C85  1  0.43248000  0.69896000  0.06958000  1.0
  C  C86  1  0.58738000  0.41563000  0.89290000  1.0
  C  C87  1  0.41260000  0.58435000  0.10709000  1.0
  C  C88  1  0.04770000  0.96078000  0.63845000  1.0
  C  C89  1  0.95231000  0.03922000  0.36155000  1.0
  C  C90  1  0.12097000  0.10703000  0.70051000  1.0
  C  C91  1  0.87903000  0.89297000  0.29949000  1.0
  C  C92  1  0.17858000  0.17054000  0.82533000  1.0
  C  C93  1  0.82143000  0.82946000  0.17467000  1.0
  C  C94  1  0.16340000  0.08770000  0.88712000  1.0
  C  C95  1  0.83661000  0.91231000  0.11289000  1.0
  C  C96  1  0.22048000  0.14650000  0.01626000  1.0
  C  C97  1  0.77952000  0.85351000  0.98375000  1.0
  C  C98  1  0.20318000  0.06291000  0.07271000  1.0
  C  C99  1  0.79680000  0.93709000  0.92729000  1.0
  C  C100  1  0.12556000  0.91457000  0.00445000  1.0
  C  C101  1  0.87443000  0.08543000  0.99555000  1.0
  C  C102  1  0.10074000  0.82519000  0.05983000  1.0
  C  C103  1  0.89925000  0.17481000  0.94017000  1.0
  C  C104  1  0.01765000  0.68414000  0.98882000  1.0
  C  C105  1  0.98234000  0.31586000  0.01118000  1.0
  C  C106  1  0.96145000  0.63264000  0.86259000  1.0
  C  C107  1  0.03855000  0.36736000  0.13741000  1.0
  C  C108  1  0.06594000  0.85238000  0.87600000  1.0
  C  C109  1  0.93406000  0.14762000  0.12400000  1.0
  C  C110  1  0.08746000  0.94057000  0.81637000  1.0
  C  C111  1  0.91254000  0.05943000  0.18363000  1.0
  N  N112  1  0.03164000  0.87924000  0.69370000  1.0
  N  N113  1  0.96836000  0.12076000  0.30629000  1.0
  N  N114  1  0.98611000  0.71293000  0.80674000  1.0
  N  N115  1  0.01389000  0.28708000  0.19326000  1.0
  O  O116  1  0.71348000  0.63633000  0.62465000  1.0
  O  O117  1  0.28653000  0.36367000  0.37536000  1.0
  O  O118  1  0.77185000  0.71731000  0.49581000  1.0
  O  O119  1  0.22816000  0.28270000  0.50421000  1.0
  O  O120  1  0.98530000  0.31484000  0.55240000  1.0
  O  O121  1  0.01472000  0.68515000  0.44760000  1.0
  O  O122  1  0.84503000  0.41867000  0.60141000  1.0
  O  O123  1  0.15498000  0.58132000  0.39858000  1.0
  O  O124  1  0.11528000  0.62002000  0.63006000  1.0
  O  O125  1  0.88472000  0.37997000  0.36993000  1.0
  O  O126  1  0.28712000  0.55800000  0.61472000  1.0
  O  O127  1  0.71289000  0.44201000  0.38527000  1.0
  O  O128  1  0.47573000  0.38165000  0.79881000  1.0
  O  O129  1  0.52424000  0.61834000  0.20118000  1.0
  O  O130  1  0.69137000  0.52871000  0.94142000  1.0
  O  O131  1  0.30862000  0.47130000  0.05857000  1.0
