# generated using pymatgen
data_KH20PtC18SN2ClO6
_symmetry_space_group_name_H-M   'P 1'
_cell_length_a   8.35751000
_cell_length_b   10.17340000
_cell_length_c   13.19950000
_cell_angle_alpha   101.54300000
_cell_angle_beta   104.31500000
_cell_angle_gamma   101.67400000
_symmetry_Int_Tables_number   1
_chemical_formula_structural   KH20PtC18SN2ClO6
_chemical_formula_sum   'K2 H40 Pt2 C36 S2 N4 Cl2 O12'
_cell_volume   1027.27376110
_cell_formula_units_Z   2
loop_
 _symmetry_equiv_pos_site_id
 _symmetry_equiv_pos_as_xyz
  1  'x, y, z'
loop_
 _atom_site_type_symbol
 _atom_site_label
 _atom_site_symmetry_multiplicity
 _atom_site_fract_x
 _atom_site_fract_y
 _atom_site_fract_z
 _atom_site_occupancy
  K  K0  1  0.22615000  0.94326000  0.00349000  1.0
  K  K1  1  0.77385000  0.05674000  0.99651000  1.0
  H  H2  1  0.53552000  0.55240000  0.15044000  1.0
  H  H3  1  0.46448000  0.44760000  0.84956000  1.0
  H  H4  1  0.76262000  0.16448000  0.32229000  1.0
  H  H5  1  0.23738000  0.83552000  0.67771000  1.0
  H  H6  1  0.02531000  0.24557000  0.27081000  1.0
  H  H7  1  0.97469000  0.75443000  0.72919000  1.0
  H  H8  1  0.03787000  0.43490000  0.17204000  1.0
  H  H9  1  0.96213000  0.56509000  0.82796000  1.0
  H  H10  1  0.78321000  0.53099000  0.13111000  1.0
  H  H11  1  0.21679000  0.46901000  0.86889000  1.0
  H  H12  1  0.42221000  0.70764000  0.23280000  1.0
  H  H13  1  0.57779000  0.29236000  0.76720000  1.0
  H  H14  1  0.29378000  0.79160000  0.37603000  1.0
  H  H15  1  0.70622000  0.20840000  0.62397000  1.0
  H  H16  1  0.20309000  0.63065000  0.48448000  1.0
  H  H17  1  0.79691000  0.36934000  0.51552000  1.0
  H  H18  1  0.13218000  0.47825000  0.56715000  1.0
  H  H19  1  0.86782000  0.52175000  0.43285000  1.0
  H  H20  1  0.05725000  0.28739000  0.65201000  1.0
  H  H21  1  0.94275000  0.71261000  0.34799000  1.0
  H  H22  1  0.13794000  0.06606000  0.59818000  1.0
  H  H23  1  0.86206000  0.93394000  0.40182000  1.0
  H  H24  1  0.28984000  0.03507000  0.46145000  1.0
  H  H25  1  0.71016000  0.96494000  0.53856000  1.0
  H  H26  1  0.15947000  0.09126000  0.19921000  1.0
  H  H27  1  0.84053000  0.90874000  0.80079000  1.0
  H  H28  1  0.10429000  0.87137000  0.23909000  1.0
  H  H29  1  0.89571000  0.12863000  0.76091000  1.0
  H  H30  1  0.88530000  0.85249000  0.16833000  1.0
  H  H31  1  0.11470000  0.14751000  0.83167000  1.0
  H  H32  1  0.98908000  0.98519000  0.29237000  1.0
  H  H33  1  0.01092000  0.01481000  0.70763000  1.0
  H  H34  1  0.43527000  0.16220000  0.91555000  1.0
  H  H35  1  0.56473000  0.83780000  0.08445000  1.0
  H  H36  1  0.45122000  0.04666000  0.82100000  1.0
  H  H37  1  0.54878000  0.95334000  0.17900000  1.0
  H  H38  1  0.19279000  0.62007000  0.05802000  1.0
  H  H39  1  0.80721000  0.37993000  0.94198000  1.0
  H  H40  1  0.02436000  0.66328000  0.03440000  1.0
  H  H41  1  0.97564000  0.33672000  0.96560000  1.0
  Pt  Pt42  1  0.43992000  0.24599000  0.33237000  1.0
  Pt  Pt43  1  0.56008000  0.75401000  0.66763000  1.0
  C  C44  1  0.49388000  0.46261000  0.18102000  1.0
  C  C45  1  0.50612000  0.53740000  0.81898000  1.0
  C  C46  1  0.77356000  0.24607000  0.28021000  1.0
  C  C47  1  0.22644000  0.75393000  0.71979000  1.0
  C  C48  1  0.91964000  0.29243000  0.25137000  1.0
  C  C49  1  0.08036000  0.70757000  0.74862000  1.0
  C  C50  1  0.92635000  0.39698000  0.19723000  1.0
  C  C51  1  0.07365000  0.60302000  0.80277000  1.0
  C  C52  1  0.78526000  0.45089000  0.17468000  1.0
  C  C53  1  0.21474000  0.54911000  0.82532000  1.0
  C  C54  1  0.64218000  0.40047000  0.20628000  1.0
  C  C55  1  0.35782000  0.59953000  0.79372000  1.0
  C  C56  1  0.42043000  0.51125000  0.27033000  1.0
  C  C57  1  0.57957000  0.48875000  0.72967000  1.0
  C  C58  1  0.38837000  0.64211000  0.28411000  1.0
  C  C59  1  0.61163000  0.35789000  0.71589000  1.0
  C  C60  1  0.31344000  0.68768000  0.36293000  1.0
  C  C61  1  0.68656000  0.31232000  0.63707000  1.0
  C  C62  1  0.26625000  0.59934000  0.42444000  1.0
  C  C63  1  0.73375000  0.40066000  0.57556000  1.0
  C  C64  1  0.29964000  0.46885000  0.40918000  1.0
  C  C65  1  0.70036000  0.53115000  0.59082000  1.0
  C  C66  1  0.29704000  0.23738000  0.43210000  1.0
  C  C67  1  0.70296000  0.76262000  0.56790000  1.0
  C  C68  1  0.25246000  0.36386000  0.46461000  1.0
  C  C69  1  0.74754000  0.63614000  0.53539000  1.0
  C  C70  1  0.16573000  0.38101000  0.54286000  1.0
  C  C71  1  0.83427000  0.61899000  0.45714000  1.0
  C  C72  1  0.12335000  0.27382000  0.59064000  1.0
  C  C73  1  0.87665000  0.72618000  0.40937000  1.0
  C  C74  1  0.16847000  0.14987000  0.56029000  1.0
  C  C75  1  0.83153000  0.85013000  0.43971000  1.0
  C  C76  1  0.25374000  0.13172000  0.48208000  1.0
  C  C77  1  0.74626000  0.86828000  0.51792000  1.0
  C  C78  1  0.00687000  0.92762000  0.21787000  1.0
  C  C79  1  0.99313000  0.07238000  0.78213000  1.0
  S  S80  1  0.32417000  0.34824000  0.05709000  1.0
  S  S81  1  0.67583000  0.65176000  0.94291000  1.0
  N  N82  1  0.63564000  0.29792000  0.25799000  1.0
  N  N83  1  0.36436000  0.70208000  0.74201000  1.0
  N  N84  1  0.38158000  0.42858000  0.33450000  1.0
  N  N85  1  0.61842000  0.57142000  0.66550000  1.0
  Cl  Cl86  1  0.48802000  0.02978000  0.33258000  1.0
  Cl  Cl87  1  0.51198000  0.97022000  0.66742000  1.0
  O  O88  1  0.25239000  0.21855000  0.08058000  1.0
  O  O89  1  0.74762000  0.78145000  0.91942000  1.0
  O  O90  1  0.19941000  0.43127000  0.03620000  1.0
  O  O91  1  0.80059000  0.56873000  0.96380000  1.0
  O  O92  1  0.41250000  0.33037000  0.97359000  1.0
  O  O93  1  0.58750000  0.66964000  0.02641000  1.0
  O  O94  1  0.05343000  0.01952000  0.15437000  1.0
  O  O95  1  0.94657000  0.98048000  0.84563000  1.0
  O  O96  1  0.44086000  0.06480000  0.89481000  1.0
  O  O97  1  0.55915000  0.93520000  0.10519000  1.0
  O  O98  1  0.14914000  0.70287000  0.06518000  1.0
  O  O99  1  0.85086000  0.29713000  0.93481000  1.0
