# generated using pymatgen
data_AgH8C10N3O2
_symmetry_space_group_name_H-M   'P 1'
_cell_length_a   6.32390000
_cell_length_b   7.94553000
_cell_length_c   19.76910000
_cell_angle_alpha   89.99950000
_cell_angle_beta   90.87080000
_cell_angle_gamma   89.99940000
_symmetry_Int_Tables_number   1
_chemical_formula_structural   AgH8C10N3O2
_chemical_formula_sum   'Ag4 H32 C40 N12 O8'
_cell_volume   993.21804930
_cell_formula_units_Z   4
loop_
 _symmetry_equiv_pos_site_id
 _symmetry_equiv_pos_as_xyz
  1  'x, y, z'
loop_
 _atom_site_type_symbol
 _atom_site_label
 _atom_site_symmetry_multiplicity
 _atom_site_fract_x
 _atom_site_fract_y
 _atom_site_fract_z
 _atom_site_occupancy
  Ag  Ag0  1  0.55408000  0.73217000  0.96622000  1.0
  Ag  Ag1  1  0.44593000  0.23217000  0.53377000  1.0
  Ag  Ag2  1  0.44591000  0.26784000  0.03378000  1.0
  Ag  Ag3  1  0.55407000  0.76783000  0.46622000  1.0
  H  H4  1  0.97576000  0.88574000  0.66947000  1.0
  H  H5  1  0.02423000  0.38572000  0.83052000  1.0
  H  H6  1  0.02424000  0.11426000  0.33053000  1.0
  H  H7  1  0.97578000  0.61425000  0.16947000  1.0
  H  H8  1  0.06709000  0.95000000  0.78858000  1.0
  H  H9  1  0.93291000  0.44999000  0.71141000  1.0
  H  H10  1  0.93291000  0.04998000  0.21142000  1.0
  H  H11  1  0.06711000  0.54999000  0.28858000  1.0
  H  H12  1  0.43354000  0.13435000  0.81828000  1.0
  H  H13  1  0.56645000  0.63437000  0.68173000  1.0
  H  H14  1  0.56646000  0.86565000  0.18172000  1.0
  H  H15  1  0.43356000  0.36564000  0.31828000  1.0
  H  H16  1  0.34525000  0.06989000  0.69787000  1.0
  H  H17  1  0.65473000  0.56989000  0.80214000  1.0
  H  H18  1  0.65476000  0.93012000  0.30212000  1.0
  H  H19  1  0.34526000  0.43011000  0.19787000  1.0
  H  H20  1  0.88281000  0.20306000  0.89361000  1.0
  H  H21  1  0.11718000  0.70308000  0.60640000  1.0
  H  H22  1  0.11718000  0.79693000  0.10639000  1.0
  H  H23  1  0.88283000  0.29693000  0.39361000  1.0
  H  H24  1  0.66087000  0.08241000  0.91606000  1.0
  H  H25  1  0.33912000  0.58244000  0.58394000  1.0
  H  H26  1  0.33912000  0.91757000  0.08393000  1.0
  H  H27  1  0.66088000  0.41758000  0.41606000  1.0
  H  H28  1  0.05814000  0.57860000  0.95623000  1.0
  H  H29  1  0.94187000  0.07862000  0.54377000  1.0
  H  H30  1  0.94186000  0.42140000  0.04378000  1.0
  H  H31  1  0.05813000  0.92139000  0.45623000  1.0
  H  H32  1  0.24389000  0.08175000  0.92024000  1.0
  H  H33  1  0.75610000  0.58176000  0.57976000  1.0
  H  H34  1  0.75610000  0.91826000  0.07976000  1.0
  H  H35  1  0.24389000  0.41826000  0.42024000  1.0
  C  C36  1  0.58993000  0.91267000  0.60637000  1.0
  C  C37  1  0.41005000  0.41266000  0.89363000  1.0
  C  C38  1  0.41008000  0.08734000  0.39362000  1.0
  C  C39  1  0.58993000  0.58733000  0.10637000  1.0
  C  C40  1  0.65287000  0.96993000  0.67650000  1.0
  C  C41  1  0.34711000  0.46993000  0.82349000  1.0
  C  C42  1  0.34713000  0.03007000  0.32349000  1.0
  C  C43  1  0.65288000  0.53006000  0.17651000  1.0
  C  C44  1  0.85723000  0.94020000  0.70231000  1.0
  C  C45  1  0.14276000  0.44020000  0.79769000  1.0
  C  C46  1  0.14276000  0.05978000  0.29769000  1.0
  C  C47  1  0.85724000  0.55978000  0.20231000  1.0
  C  C48  1  0.90811000  0.97768000  0.76939000  1.0
  C  C49  1  0.09188000  0.47768000  0.73061000  1.0
  C  C50  1  0.09190000  0.02230000  0.23060000  1.0
  C  C51  1  0.90812000  0.52231000  0.26939000  1.0
  C  C52  1  0.75523000  0.04522000  0.81217000  1.0
  C  C53  1  0.24476000  0.54523000  0.68783000  1.0
  C  C54  1  0.24477000  0.95477000  0.18783000  1.0
  C  C55  1  0.75525000  0.45477000  0.31217000  1.0
  C  C56  1  0.55318000  0.07994000  0.78580000  1.0
  C  C57  1  0.44681000  0.57995000  0.71420000  1.0
  C  C58  1  0.44683000  0.92006000  0.21420000  1.0
  C  C59  1  0.55320000  0.42006000  0.28580000  1.0
  C  C60  1  0.50278000  0.04427000  0.71850000  1.0
  C  C61  1  0.49721000  0.54427000  0.78150000  1.0
  C  C62  1  0.49723000  0.95573000  0.28149000  1.0
  C  C63  1  0.50280000  0.45572000  0.21850000  1.0
  C  C64  1  0.80529000  0.08057000  0.88591000  1.0
  C  C65  1  0.19471000  0.58058000  0.61409000  1.0
  C  C66  1  0.19470000  0.91943000  0.11408000  1.0
  C  C67  1  0.80530000  0.41943000  0.38591000  1.0
  C  C68  1  0.05530000  0.71165000  0.94395000  1.0
  C  C69  1  0.94470000  0.21167000  0.55605000  1.0
  C  C70  1  0.94470000  0.28835000  0.05606000  1.0
  C  C71  1  0.05530000  0.78834000  0.44395000  1.0
  C  C72  1  0.15724000  0.96370000  0.92485000  1.0
  C  C73  1  0.84275000  0.46371000  0.57515000  1.0
  C  C74  1  0.84275000  0.03630000  0.07515000  1.0
  C  C75  1  0.15725000  0.53631000  0.42485000  1.0
  N  N76  1  0.94720000  0.95410000  0.91464000  1.0
  N  N77  1  0.05280000  0.45412000  0.58536000  1.0
  N  N78  1  0.05280000  0.04589000  0.08536000  1.0
  N  N79  1  0.94720000  0.54589000  0.41464000  1.0
  N  N80  1  0.87988000  0.79378000  0.92626000  1.0
  N  N81  1  0.12012000  0.29380000  0.57374000  1.0
  N  N82  1  0.12011000  0.20622000  0.07374000  1.0
  N  N83  1  0.87989000  0.70622000  0.42626000  1.0
  N  N84  1  0.23013000  0.81221000  0.94378000  1.0
  N  N85  1  0.76987000  0.31222000  0.55622000  1.0
  N  N86  1  0.76987000  0.18780000  0.05623000  1.0
  N  N87  1  0.23013000  0.68779000  0.44378000  1.0
  O  O88  1  0.40476000  0.94475000  0.58446000  1.0
  O  O89  1  0.59521000  0.44474000  0.91555000  1.0
  O  O90  1  0.59524000  0.05526000  0.41554000  1.0
  O  O91  1  0.40476000  0.55527000  0.08446000  1.0
  O  O92  1  0.72869000  0.82953000  0.57313000  1.0
  O  O93  1  0.27129000  0.32950000  0.92686000  1.0
  O  O94  1  0.27133000  0.17048000  0.42686000  1.0
  O  O95  1  0.72869000  0.67047000  0.07313000  1.0
