# generated using pymatgen
data_CdH14C12NO6
_symmetry_space_group_name_H-M   'P 1'
_cell_length_a   10.92100000
_cell_length_b   11.22210000
_cell_length_c   11.22200000
_cell_angle_alpha   82.98620000
_cell_angle_beta   86.48290000
_cell_angle_gamma   86.48380000
_symmetry_Int_Tables_number   1
_chemical_formula_structural   CdH14C12NO6
_chemical_formula_sum   'Cd4 H56 C48 N4 O24'
_cell_volume   1360.45307920
_cell_formula_units_Z   4
loop_
 _symmetry_equiv_pos_site_id
 _symmetry_equiv_pos_as_xyz
  1  'x, y, z'
loop_
 _atom_site_type_symbol
 _atom_site_label
 _atom_site_symmetry_multiplicity
 _atom_site_fract_x
 _atom_site_fract_y
 _atom_site_fract_z
 _atom_site_occupancy
  Cd  Cd0  1  0.00531000  0.37237000  0.23571000  1.0
  Cd  Cd1  1  0.50531000  0.23571000  0.37237000  1.0
  Cd  Cd2  1  0.40268000  0.76423000  0.53833000  1.0
  Cd  Cd3  1  0.90268000  0.53833000  0.76423000  1.0
  H  H4  1  0.30141000  0.54122000  0.48019000  1.0
  H  H5  1  0.80141000  0.48020000  0.54122000  1.0
  H  H6  1  0.19205000  0.63723000  0.49324000  1.0
  H  H7  1  0.69206000  0.49324000  0.63723000  1.0
  H  H8  1  0.57518000  0.94887000  0.54788000  1.0
  H  H9  1  0.07518000  0.54788000  0.94887000  1.0
  H  H10  1  0.59819000  0.84902000  0.65886000  1.0
  H  H11  1  0.09820000  0.65886000  0.84902000  1.0
  H  H12  1  0.17647000  0.43487000  0.39874000  1.0
  H  H13  1  0.67648000  0.39874000  0.43485000  1.0
  H  H14  1  0.06487000  0.53053000  0.40966000  1.0
  H  H15  1  0.56488000  0.40966000  0.53052000  1.0
  H  H16  1  0.84612000  0.31595000  0.06843000  1.0
  H  H17  1  0.34612000  0.06843000  0.31595000  1.0
  H  H18  1  0.82618000  0.21953000  0.18614000  1.0
  H  H19  1  0.32618000  0.18614000  0.21954000  1.0
  H  H20  1  0.85203000  0.28628000  0.48756000  1.0
  H  H21  1  0.35203000  0.48756000  0.28629000  1.0
  H  H22  1  0.02865000  0.96246000  0.66299000  1.0
  H  H23  1  0.52865000  0.66299000  0.96245000  1.0
  H  H24  1  0.62934000  0.60568000  0.45664000  1.0
  H  H25  1  0.12934000  0.45664000  0.60569000  1.0
  H  H26  1  0.60325000  0.89503000  0.09425000  1.0
  H  H27  1  0.10325000  0.09426000  0.89503000  1.0
  H  H28  1  0.85870000  0.12636000  0.66182000  1.0
  H  H29  1  0.35870000  0.66182000  0.12637000  1.0
  H  H30  1  0.76747000  0.72542000  0.09739000  1.0
  H  H31  1  0.26747000  0.09739000  0.72542000  1.0
  H  H32  1  0.57332000  0.32888000  0.72320000  1.0
  H  H33  1  0.07332000  0.72321000  0.32888000  1.0
  H  H34  1  0.37114000  0.16765000  0.03679000  1.0
  H  H35  1  0.87114000  0.03679000  0.16765000  1.0
  H  H36  1  0.15650000  0.13086000  0.31676000  1.0
  H  H37  1  0.65649000  0.31676000  0.13086000  1.0
  H  H38  1  0.71604000  0.03382000  0.98351000  1.0
  H  H39  1  0.21604000  0.98351000  0.03382000  1.0
  H  H40  1  0.60322000  0.11282000  0.07033000  1.0
  H  H41  1  0.10323000  0.07032000  0.11282000  1.0
  H  H42  1  0.70879000  0.19340000  0.96886000  1.0
  H  H43  1  0.20879000  0.96886000  0.19340000  1.0
  H  H44  1  0.69830000  0.03070000  0.76342000  1.0
  H  H45  1  0.19830000  0.76341000  0.03070000  1.0
  H  H46  1  0.70440000  0.18993000  0.74713000  1.0
  H  H47  1  0.20440000  0.74712000  0.18993000  1.0
  H  H48  1  0.58513000  0.12239000  0.68255000  1.0
  H  H49  1  0.08513000  0.68255000  0.12239000  1.0
  H  H50  1  0.45805000  0.90538000  0.27366000  1.0
  H  H51  1  0.95805000  0.27366000  0.90539000  1.0
  H  H52  1  0.54869000  0.92396000  0.89858000  1.0
  H  H53  1  0.04869000  0.89858000  0.92395000  1.0
  H  H54  1  0.42598000  0.00523000  0.82477000  1.0
  H  H55  1  0.92599000  0.82477000  0.00523000  1.0
  H  H56  1  0.43303000  0.99997000  0.98383000  1.0
  H  H57  1  0.93303000  0.98383000  0.99997000  1.0
  H  H58  1  0.27739000  0.53032000  0.88679000  1.0
  H  H59  1  0.77739000  0.88679000  0.53032000  1.0
  C  C60  1  0.92274000  0.21363000  0.49066000  1.0
  C  C61  1  0.42273000  0.49066000  0.21364000  1.0
  C  C62  1  0.48216000  0.23270000  0.87898000  1.0
  C  C63  1  0.98216000  0.87898000  0.23271000  1.0
  C  C64  1  0.02091000  0.03434000  0.58883000  1.0
  C  C65  1  0.52090000  0.58883000  0.03434000  1.0
  C  C66  1  0.62710000  0.66689000  0.37388000  1.0
  C  C67  1  0.12710000  0.37389000  0.66690000  1.0
  C  C68  1  0.61254000  0.82837000  0.17233000  1.0
  C  C69  1  0.11253000  0.17233000  0.82838000  1.0
  C  C70  1  0.92747000  0.12422000  0.58793000  1.0
  C  C71  1  0.42746000  0.58792000  0.12422000  1.0
  C  C72  1  0.10758000  0.03645000  0.49173000  1.0
  C  C73  1  0.60758000  0.49173000  0.03645000  1.0
  C  C74  1  0.80483000  0.54910000  0.28310000  1.0
  C  C75  1  0.30483000  0.28311000  0.54910000  1.0
  C  C76  1  0.70346000  0.73585000  0.17418000  1.0
  C  C77  1  0.20346000  0.17418000  0.73586000  1.0
  C  C78  1  0.21424000  0.94591000  0.49292000  1.0
  C  C79  1  0.71423000  0.49292000  0.94591000  1.0
  C  C80  1  0.42818000  0.43954000  0.79677000  1.0
  C  C81  1  0.92819000  0.79678000  0.43954000  1.0
  C  C82  1  0.45141000  0.54528000  0.70494000  1.0
  C  C83  1  0.95140000  0.70495000  0.54529000  1.0
  C  C84  1  0.50083000  0.33262000  0.79373000  1.0
  C  C85  1  0.00083000  0.79374000  0.33262000  1.0
  C  C86  1  0.71113000  0.65272000  0.27718000  1.0
  C  C87  1  0.21113000  0.27718000  0.65273000  1.0
  C  C88  1  0.38783000  0.24303000  0.96816000  1.0
  C  C89  1  0.88783000  0.96816000  0.24303000  1.0
  C  C90  1  0.31243000  0.34846000  0.97146000  1.0
  C  C91  1  0.81243000  0.97146000  0.34846000  1.0
  C  C92  1  0.09384000  0.12722000  0.39595000  1.0
  C  C93  1  0.59384000  0.39596000  0.12722000  1.0
  C  C94  1  0.65292000  0.11422000  0.98206000  1.0
  C  C95  1  0.15293000  0.98206000  0.11422000  1.0
  C  C96  1  0.64211000  0.11566000  0.76059000  1.0
  C  C97  1  0.14211000  0.76059000  0.11566000  1.0
  C  C98  1  0.53115000  0.83513000  0.27197000  1.0
  C  C99  1  0.03114000  0.27198000  0.83513000  1.0
  C  C100  1  0.48783000  0.00582000  0.89815000  1.0
  C  C101  1  0.98784000  0.89815000  0.00583000  1.0
  C  C102  1  0.33311000  0.44684000  0.88505000  1.0
  C  C103  1  0.83311000  0.88505000  0.44684000  1.0
  C  C104  1  0.56497000  0.11758000  0.87916000  1.0
  C  C105  1  0.06497000  0.87916000  0.11758000  1.0
  C  C106  1  0.21079000  0.35510000  0.06647000  1.0
  C  C107  1  0.71078000  0.06647000  0.35510000  1.0
  N  N108  1  0.53839000  0.75535000  0.37158000  1.0
  N  N109  1  0.03838000  0.37158000  0.75535000  1.0
  N  N110  1  0.00417000  0.21469000  0.39539000  1.0
  N  N111  1  0.50417000  0.39539000  0.21470000  1.0
  O  O112  1  0.22026000  0.86681000  0.58433000  1.0
  O  O113  1  0.72025000  0.58432000  0.86680000  1.0
  O  O114  1  0.12430000  0.43705000  0.05233000  1.0
  O  O115  1  0.62430000  0.05233000  0.43705000  1.0
  O  O116  1  0.27963000  0.62828000  0.46572000  1.0
  O  O117  1  0.77963000  0.46572000  0.62828000  1.0
  O  O118  1  0.29464000  0.95094000  0.40540000  1.0
  O  O119  1  0.79464000  0.40540000  0.95094000  1.0
  O  O120  1  0.53385000  0.89334000  0.61294000  1.0
  O  O121  1  0.03385000  0.61294000  0.89334000  1.0
  O  O122  1  0.39098000  0.64397000  0.71812000  1.0
  O  O123  1  0.89097000  0.71812000  0.64398000  1.0
  O  O124  1  0.52863000  0.53235000  0.61603000  1.0
  O  O125  1  0.02863000  0.61604000  0.53236000  1.0
  O  O126  1  0.80523000  0.47189000  0.37726000  1.0
  O  O127  1  0.30522000  0.37727000  0.47189000  1.0
  O  O128  1  0.11021000  0.48045000  0.35268000  1.0
  O  O129  1  0.61022000  0.35268000  0.48044000  1.0
  O  O130  1  0.89017000  0.25976000  0.13023000  1.0
  O  O131  1  0.39018000  0.13024000  0.25976000  1.0
  O  O132  1  0.87900000  0.54239000  0.19244000  1.0
  O  O133  1  0.37899000  0.19245000  0.54239000  1.0
  O  O134  1  0.21067000  0.27848000  0.16058000  1.0
  O  O135  1  0.71067000  0.16058000  0.27848000  1.0
