# generated using pymatgen
data_Zr3H10C26(S5O16)2
_symmetry_space_group_name_H-M   'P 1'
_cell_length_a   16.49420000
_cell_length_b   16.49407661
_cell_length_c   16.52660000
_cell_angle_alpha   119.86756844
_cell_angle_beta   119.87040000
_cell_angle_gamma   89.44516992
_symmetry_Int_Tables_number   1
_chemical_formula_structural   Zr3H10C26(S5O16)2
_chemical_formula_sum   'Zr6 H20 C52 S20 O64'
_cell_volume   3206.70284195
_cell_formula_units_Z   2
loop_
 _symmetry_equiv_pos_site_id
 _symmetry_equiv_pos_as_xyz
  1  'x, y, z'
loop_
 _atom_site_type_symbol
 _atom_site_label
 _atom_site_symmetry_multiplicity
 _atom_site_fract_x
 _atom_site_fract_y
 _atom_site_fract_z
 _atom_site_occupancy
  Zr  Zr0  1  0.89604000  0.40318000  0.51175000  1.0
  Zr  Zr1  1  0.10010000  0.60731000  0.49160000  1.0
  Zr  Zr2  1  0.88802000  0.39559000  0.28922000  1.0
  Zr  Zr3  1  0.10772000  0.61530000  0.71405000  1.0
  Zr  Zr4  1  0.89113000  0.61213000  0.50163000  1.0
  Zr  Zr5  1  0.10472000  0.39856000  0.50164000  1.0
  H  H6  1  0.74764000  0.42098000  0.34086000  1.0
  H  H7  1  0.08230000  0.75565000  0.66243000  1.0
  H  H8  1  0.07697000  0.41515000  0.32774000  1.0
  H  H9  1  0.08818000  0.42634000  0.67559000  1.0
  H  H10  1  0.65050000  0.11986000  0.03259000  1.0
  H  H11  1  0.66895000  0.13277000  0.30775000  1.0
  H  H12  1  0.38394000  0.85212000  0.97050000  1.0
  H  H13  1  0.37003000  0.83478000  0.69538000  1.0
  H  H14  1  0.24923000  0.30667000  0.42139000  1.0
  H  H15  1  0.67212000  0.62099000  0.42934000  1.0
  H  H16  1  0.88279000  0.83176000  0.57527000  1.0
  H  H17  1  0.19665000  0.25361000  0.58168000  1.0
  H  H18  1  0.86902000  0.24645000  0.05837000  1.0
  H  H19  1  0.29809000  0.97662000  0.09509000  1.0
  H  H20  1  0.52703000  0.20489000  0.90748000  1.0
  H  H21  1  0.25689000  0.63417000  0.94448000  1.0
  H  H22  1  0.30219000  0.64421000  0.33451000  1.0
  H  H23  1  0.86026000  0.20151000  0.66962000  1.0
  H  H24  1  0.60150000  0.01376000  0.87135000  1.0
  H  H25  1  0.49018000  0.90117000  0.13180000  1.0
  C  C26  1  0.73136000  0.51979000  0.51621000  1.0
  C  C27  1  0.98325000  0.77189000  0.48705000  1.0
  C  C28  1  0.27068000  0.49497000  0.50027000  1.0
  C  C29  1  0.00830000  0.23260000  0.50307000  1.0
  C  C30  1  0.74123000  0.23128000  0.25353000  1.0
  C  C31  1  0.00024000  0.50942000  0.77754000  1.0
  C  C32  1  0.27204000  0.76204000  0.74974000  1.0
  C  C33  1  0.99429000  0.50329000  0.22604000  1.0
  C  C34  1  0.72696000  0.50332000  0.22829000  1.0
  C  C35  1  0.98817000  0.22419000  0.22278000  1.0
  C  C36  1  0.27902000  0.51489000  0.78038000  1.0
  C  C37  1  0.99997000  0.77638000  0.77493000  1.0
  C  C38  1  0.42116000  0.43669000  0.51257000  1.0
  C  C39  1  0.58495000  0.58157000  0.51389000  1.0
  C  C40  1  0.36386000  0.49927000  0.50966000  1.0
  C  C41  1  0.64311000  0.51964000  0.51777000  1.0
  C  C42  1  0.50577000  0.55275000  0.51539000  1.0
  C  C43  1  0.50354000  0.46796000  0.51686000  1.0
  C  C44  1  0.92147000  0.91834000  0.48952000  1.0
  C  C45  1  0.06613000  0.08179000  0.49026000  1.0
  C  C46  1  0.98330000  0.86009000  0.48542000  1.0
  C  C47  1  0.00381000  0.13933000  0.49353000  1.0
  C  C48  1  0.03480000  0.99946000  0.48600000  1.0
  C  C49  1  0.95017000  0.99742000  0.48779000  1.0
  C  C50  1  0.91927000  0.07887000  0.01533000  1.0
  C  C51  1  0.06696000  0.91710000  0.98341000  1.0
  C  C52  1  0.98624000  0.13376000  0.13336000  1.0
  C  C53  1  0.99924000  0.86281000  0.86561000  1.0
  C  C54  1  0.03743000  0.99606000  0.03853000  1.0
  C  C55  1  0.94863000  0.99974000  0.96100000  1.0
  C  C56  1  0.58628000  0.43623000  0.01976000  1.0
  C  C57  1  0.42418000  0.58358000  0.98781000  1.0
  C  C58  1  0.64046000  0.50394000  0.13756000  1.0
  C  C59  1  0.36929000  0.51663000  0.86980000  1.0
  C  C60  1  0.50337000  0.55430000  0.04212000  1.0
  C  C61  1  0.50718000  0.46561000  0.96461000  1.0
  C  C62  1  0.62239000  0.08601000  0.05943000  1.0
  C  C63  1  0.63316000  0.09472000  0.21683000  1.0
  C  C64  1  0.55647000  0.00719000  0.14196000  1.0
  C  C65  1  0.50585000  0.95941000  0.02183000  1.0
  C  C66  1  0.41756000  0.88057000  0.94370000  1.0
  C  C67  1  0.40824000  0.87040000  0.78629000  1.0
  C  C68  1  0.49568000  0.94723000  0.86119000  1.0
  C  C69  1  0.54369000  0.99760000  0.98134000  1.0
  C  C70  1  0.66399000  0.13474000  0.17457000  1.0
  C  C71  1  0.36859000  0.83922000  0.82859000  1.0
  C  C72  1  0.06387000  0.57286000  0.15455000  1.0
  C  C73  1  0.93096000  0.43985000  0.84920000  1.0
  C  C74  1  0.99681000  0.50691000  0.13995000  1.0
  C  C75  1  0.99672000  0.50707000  0.86376000  1.0
  C  C76  1  0.95531000  0.46444000  0.95567000  1.0
  C  C77  1  0.03925000  0.54858000  0.04808000  1.0
  S  S78  1  0.40938000  0.59504000  0.51136000  1.0
  S  S79  1  0.59981000  0.42558000  0.52016000  1.0
  S  S80  1  0.07714000  0.90319000  0.48263000  1.0
  S  S81  1  0.90810000  0.09397000  0.49206000  1.0
  S  S82  1  0.08362000  0.08816000  0.17694000  1.0
  S  S83  1  0.90150000  0.90759000  0.82243000  1.0
  S  S84  1  0.59551000  0.60150000  0.18074000  1.0
  S  S85  1  0.41504000  0.41937000  0.82617000  1.0
  S  S86  1  0.90558000  0.41660000  0.99866000  1.0
  S  S87  1  0.08687000  0.59847000  0.00504000  1.0
  S  S88  1  0.40126000  0.32937000  0.51000000  1.0
  S  S89  1  0.59522000  0.68218000  0.50250000  1.0
  S  S90  1  0.82124000  0.90821000  0.50150000  1.0
  S  S91  1  0.17322000  0.10144000  0.49237000  1.0
  S  S92  1  0.80916000  0.09504000  0.93084000  1.0
  S  S93  1  0.17536000  0.89795000  0.06675000  1.0
  S  S94  1  0.60572000  0.32807000  0.93649000  1.0
  S  S95  1  0.40815000  0.69379000  0.07235000  1.0
  S  S96  1  0.16742000  0.67826000  0.27994000  1.0
  S  S97  1  0.82585000  0.33606000  0.72388000  1.0
  O  O98  1  0.77191000  0.45605000  0.52431000  1.0
  O  O99  1  0.04702000  0.73138000  0.47893000  1.0
  O  O100  1  0.23509000  0.56332000  0.49970000  1.0
  O  O101  1  0.94007000  0.26832000  0.50381000  1.0
  O  O102  1  0.77100000  0.26533000  0.21485000  1.0
  O  O103  1  0.06791000  0.57856000  0.81086000  1.0
  O  O104  1  0.23804000  0.73225000  0.78844000  1.0
  O  O105  1  0.92508000  0.43562000  0.19260000  1.0
  O  O106  1  0.76114000  0.57422000  0.33086000  1.0
  O  O107  1  0.05572000  0.25830000  0.32569000  1.0
  O  O108  1  0.24494000  0.44739000  0.67747000  1.0
  O  O109  1  0.92904000  0.74216000  0.67234000  1.0
  O  O110  1  0.92212000  0.26475000  0.19078000  1.0
  O  O111  1  0.23857000  0.58105000  0.81240000  1.0
  O  O112  1  0.07147000  0.74248000  0.80492000  1.0
  O  O113  1  0.76095000  0.43188000  0.19834000  1.0
  O  O114  1  0.77356000  0.27704000  0.35887000  1.0
  O  O115  1  0.06402000  0.56877000  0.32947000  1.0
  O  O116  1  0.22616000  0.72983000  0.64440000  1.0
  O  O117  1  0.93481000  0.43958000  0.67415000  1.0
  O  O118  1  0.08199000  0.27324000  0.51208000  1.0
  O  O119  1  0.76102000  0.58360000  0.50476000  1.0
  O  O120  1  0.91957000  0.74230000  0.49869000  1.0
  O  O121  1  0.22992000  0.42127000  0.49113000  1.0
  O  O122  1  0.06356000  0.44905000  0.62634000  1.0
  O  O123  1  0.05425000  0.43978000  0.37697000  1.0
  O  O124  1  0.05578000  0.68430000  0.61486000  1.0
  O  O125  1  0.81899000  0.44750000  0.38843000  1.0
  O  O126  1  0.94965000  0.54683000  0.40917000  1.0
  O  O127  1  0.95647000  0.55364000  0.59412000  1.0
  O  O128  1  0.13036000  0.54760000  0.58551000  1.0
  O  O129  1  0.95568000  0.37295000  0.41777000  1.0
  O  O130  1  0.29084000  0.26734000  0.40211000  1.0
  O  O131  1  0.40767000  0.35811000  0.61102000  1.0
  O  O132  1  0.46241000  0.27658000  0.48090000  1.0
  O  O133  1  0.60936000  0.63787000  0.40228000  1.0
  O  O134  1  0.68105000  0.76252000  0.60638000  1.0
  O  O135  1  0.49922000  0.69459000  0.45900000  1.0
  O  O136  1  0.86624000  0.89468000  0.60227000  1.0
  O  O137  1  0.74089000  0.82212000  0.39808000  1.0
  O  O138  1  0.80869000  0.00415000  0.54471000  1.0
  O  O139  1  0.23568000  0.21168000  0.60058000  1.0
  O  O140  1  0.14427000  0.09541000  0.39150000  1.0
  O  O141  1  0.22581000  0.03991000  0.52083000  1.0
  O  O142  1  0.84359000  0.20649000  0.97611000  1.0
  O  O143  1  0.73955000  0.08029000  0.95491000  1.0
  O  O144  1  0.78322000  0.03682000  0.81703000  1.0
  O  O145  1  0.24624000  0.91295000  0.03094000  1.0
  O  O146  1  0.15416000  0.79804000  0.03214000  1.0
  O  O147  1  0.21841000  0.97970000  0.18251000  1.0
  O  O148  1  0.59048000  0.25699000  0.97195000  1.0
  O  O149  1  0.70572000  0.34940000  0.97144000  1.0
  O  O150  1  0.52418000  0.28516000  0.82067000  1.0
  O  O151  1  0.29659000  0.65969000  0.02679000  1.0
  O  O152  1  0.42348000  0.76346000  0.04860000  1.0
  O  O153  1  0.46608000  0.71952000  0.18609000  1.0
  O  O154  1  0.24402000  0.62962000  0.33378000  1.0
  O  O155  1  0.14305000  0.73875000  0.35778000  1.0
  O  O156  1  0.20660000  0.71782000  0.24143000  1.0
  O  O157  1  0.87499000  0.25977000  0.67055000  1.0
  O  O158  1  0.76516000  0.36009000  0.64575000  1.0
  O  O159  1  0.78640000  0.29684000  0.76245000  1.0
  O  O160  1  0.53082000  0.97581000  0.81745000  1.0
  O  O161  1  0.52830000  0.97181000  0.18578000  1.0
