# generated using pymatgen
data_CdH13C12NO5
_symmetry_space_group_name_H-M   'P 1'
_cell_length_a   7.29900000
_cell_length_b   10.91940000
_cell_length_c   16.17460000
_cell_angle_alpha   90.00000000
_cell_angle_beta   90.00010000
_cell_angle_gamma   89.99980000
_symmetry_Int_Tables_number   1
_chemical_formula_structural   CdH13C12NO5
_chemical_formula_sum   'Cd4 H52 C48 N4 O20'
_cell_volume   1289.12695191
_cell_formula_units_Z   4
loop_
 _symmetry_equiv_pos_site_id
 _symmetry_equiv_pos_as_xyz
  1  'x, y, z'
loop_
 _atom_site_type_symbol
 _atom_site_label
 _atom_site_symmetry_multiplicity
 _atom_site_fract_x
 _atom_site_fract_y
 _atom_site_fract_z
 _atom_site_occupancy
  Cd  Cd0  1  0.54455000  0.49016000  0.77842000  1.0
  Cd  Cd1  1  0.45545000  0.99016000  0.22158000  1.0
  Cd  Cd2  1  0.04455000  0.49016000  0.72159000  1.0
  Cd  Cd3  1  0.95545000  0.99016000  0.27842000  1.0
  H  H4  1  0.68078000  0.44913000  0.51254000  1.0
  H  H5  1  0.31922000  0.94913000  0.48746000  1.0
  H  H6  1  0.18078000  0.44913000  0.98746000  1.0
  H  H7  1  0.81923000  0.94913000  0.01254000  1.0
  H  H8  1  0.54073000  0.23796000  0.29678000  1.0
  H  H9  1  0.45928000  0.73796000  0.70322000  1.0
  H  H10  1  0.04073000  0.23796000  0.20323000  1.0
  H  H11  1  0.95927000  0.73796000  0.79678000  1.0
  H  H12  1  0.18104000  0.24089000  0.50727000  1.0
  H  H13  1  0.81896000  0.74089000  0.49273000  1.0
  H  H14  1  0.68104000  0.24089000  0.99273000  1.0
  H  H15  1  0.31896000  0.74089000  0.00727000  1.0
  H  H16  1  0.82353000  0.34147000  0.29833000  1.0
  H  H17  1  0.17647000  0.84147000  0.70167000  1.0
  H  H18  1  0.32353000  0.34147000  0.20167000  1.0
  H  H19  1  0.67647000  0.84147000  0.79833000  1.0
  H  H20  1  0.92565000  0.37176000  0.39595000  1.0
  H  H21  1  0.07435000  0.87176000  0.60405000  1.0
  H  H22  1  0.42565000  0.37176000  0.10405000  1.0
  H  H23  1  0.57435000  0.87176000  0.89595000  1.0
  H  H24  1  0.80088000  0.48862000  0.34518000  1.0
  H  H25  1  0.19911000  0.98862000  0.65482000  1.0
  H  H26  1  0.30089000  0.48862000  0.15482000  1.0
  H  H27  1  0.69911000  0.98861000  0.84518000  1.0
  H  H28  1  0.37277000  0.14935000  0.99590000  1.0
  H  H29  1  0.62721000  0.64935000  0.00410000  1.0
  H  H30  1  0.87279000  0.14935000  0.50410000  1.0
  H  H31  1  0.12722000  0.64935000  0.49590000  1.0
  H  H32  1  0.29658000  0.01166000  0.94796000  1.0
  H  H33  1  0.70341000  0.51166000  0.05204000  1.0
  H  H34  1  0.79659000  0.01166000  0.55204000  1.0
  H  H35  1  0.20341000  0.51166000  0.44796000  1.0
  H  H36  1  0.13432000  0.11293000  0.99394000  1.0
  H  H37  1  0.86567000  0.61292000  0.00605000  1.0
  H  H38  1  0.63433000  0.11293000  0.50605000  1.0
  H  H39  1  0.36567000  0.61293000  0.49395000  1.0
  H  H40  1  0.10704000  0.18408000  0.76773000  1.0
  H  H41  1  0.89296000  0.68409000  0.23227000  1.0
  H  H42  1  0.60703000  0.18409000  0.73227000  1.0
  H  H43  1  0.39296000  0.68409000  0.26773000  1.0
  H  H44  1  0.96716000  0.13836000  0.85297000  1.0
  H  H45  1  0.03284000  0.63836000  0.14702000  1.0
  H  H46  1  0.46716000  0.13837000  0.64702000  1.0
  H  H47  1  0.53284000  0.63836000  0.35298000  1.0
  H  H48  1  0.12501000  0.03155000  0.80956000  1.0
  H  H49  1  0.87500000  0.53155000  0.19043000  1.0
  H  H50  1  0.62500000  0.03155000  0.69043000  1.0
  H  H51  1  0.37500000  0.53155000  0.30957000  1.0
  H  H52  1  0.44573000  0.29367000  0.91170000  1.0
  H  H53  1  0.55426000  0.79366000  0.08831000  1.0
  H  H54  1  0.94574000  0.29367000  0.58831000  1.0
  H  H55  1  0.05426000  0.79367000  0.41169000  1.0
  C  C56  1  0.37695000  0.40244000  0.60169000  1.0
  C  C57  1  0.62304000  0.90243000  0.39830000  1.0
  C  C58  1  0.87696000  0.40243000  0.89830000  1.0
  C  C59  1  0.12304000  0.90244000  0.10169000  1.0
  C  C60  1  0.42635000  0.35053000  0.51824000  1.0
  C  C61  1  0.57365000  0.85053000  0.48176000  1.0
  C  C62  1  0.92635000  0.35053000  0.98176000  1.0
  C  C63  1  0.07365000  0.85053000  0.01824000  1.0
  C  C64  1  0.58892000  0.38726000  0.47944000  1.0
  C  C65  1  0.41108000  0.88726000  0.52055000  1.0
  C  C66  1  0.08891000  0.38727000  0.02055000  1.0
  C  C67  1  0.91109000  0.88727000  0.97945000  1.0
  C  C68  1  0.63152000  0.34786000  0.39931000  1.0
  C  C69  1  0.36849000  0.84786000  0.60069000  1.0
  C  C70  1  0.13152000  0.34786000  0.10069000  1.0
  C  C71  1  0.86848000  0.84786000  0.89931000  1.0
  C  C72  1  0.50795000  0.27055000  0.35860000  1.0
  C  C73  1  0.49205000  0.77056000  0.64140000  1.0
  C  C74  1  0.00795000  0.27056000  0.14141000  1.0
  C  C75  1  0.99205000  0.77056000  0.85860000  1.0
  C  C76  1  0.34631000  0.23096000  0.39707000  1.0
  C  C77  1  0.65369000  0.73096000  0.60292000  1.0
  C  C78  1  0.84632000  0.23096000  0.10293000  1.0
  C  C79  1  0.15368000  0.73097000  0.89708000  1.0
  C  C80  1  0.30660000  0.27103000  0.47725000  1.0
  C  C81  1  0.69340000  0.77103000  0.52275000  1.0
  C  C82  1  0.80660000  0.27103000  0.02275000  1.0
  C  C83  1  0.19341000  0.77103000  0.97725000  1.0
  C  C84  1  0.80463000  0.38942000  0.35727000  1.0
  C  C85  1  0.19537000  0.88942000  0.64274000  1.0
  C  C86  1  0.30463000  0.38942000  0.14273000  1.0
  C  C87  1  0.69537000  0.88942000  0.85727000  1.0
  C  C88  1  0.21449000  0.14897000  0.35292000  1.0
  C  C89  1  0.78551000  0.64897000  0.64708000  1.0
  C  C90  1  0.71449000  0.14898000  0.14708000  1.0
  C  C91  1  0.28551000  0.64898000  0.85292000  1.0
  C  C92  1  0.26312000  0.10830000  0.95894000  1.0
  C  C93  1  0.73687000  0.60830000  0.04106000  1.0
  C  C94  1  0.76313000  0.10831000  0.54106000  1.0
  C  C95  1  0.23687000  0.60830000  0.45894000  1.0
  C  C96  1  0.10278000  0.12874000  0.82404000  1.0
  C  C97  1  0.89723000  0.62874000  0.17596000  1.0
  C  C98  1  0.60277000  0.12874000  0.67596000  1.0
  C  C99  1  0.39723000  0.62874000  0.32404000  1.0
  C  C100  1  0.34762000  0.26850000  0.86287000  1.0
  C  C101  1  0.65237000  0.76850000  0.13713000  1.0
  C  C102  1  0.84763000  0.26850000  0.63713000  1.0
  C  C103  1  0.15237000  0.76850000  0.36287000  1.0
  N  N104  1  0.24331000  0.17177000  0.88056000  1.0
  N  N105  1  0.75668000  0.67177000  0.11944000  1.0
  N  N106  1  0.74332000  0.17177000  0.61944000  1.0
  N  N107  1  0.25668000  0.67177000  0.38056000  1.0
  O  O108  1  0.50505000  0.45399000  0.64171000  1.0
  O  O109  1  0.49495000  0.95399000  0.35829000  1.0
  O  O110  1  0.00504000  0.45400000  0.85829000  1.0
  O  O111  1  0.99495000  0.95400000  0.14171000  1.0
  O  O112  1  0.21013000  0.39240000  0.62359000  1.0
  O  O113  1  0.78985000  0.89239000  0.37640000  1.0
  O  O114  1  0.71014000  0.39240000  0.87641000  1.0
  O  O115  1  0.28987000  0.89241000  0.12359000  1.0
  O  O116  1  0.24204000  0.12306000  0.27590000  1.0
  O  O117  1  0.75796000  0.62306000  0.72410000  1.0
  O  O118  1  0.74204000  0.12306000  0.22410000  1.0
  O  O119  1  0.25796000  0.62306000  0.77590000  1.0
  O  O120  1  0.07370000  0.10987000  0.39050000  1.0
  O  O121  1  0.92631000  0.60988000  0.60951000  1.0
  O  O122  1  0.57370000  0.10988000  0.10951000  1.0
  O  O123  1  0.42630000  0.60988000  0.89049000  1.0
  O  O124  1  0.34133000  0.32682000  0.79591000  1.0
  O  O125  1  0.65867000  0.82682000  0.20409000  1.0
  O  O126  1  0.84133000  0.32681000  0.70409000  1.0
  O  O127  1  0.15867000  0.82681000  0.29590000  1.0
