# generated using pymatgen
data_MnH14C12(N2O)6
_symmetry_space_group_name_H-M   'P 1'
_cell_length_a   7.56754000
_cell_length_b   8.48091000
_cell_length_c   14.40080000
_cell_angle_alpha   89.99910000
_cell_angle_beta   95.53640000
_cell_angle_gamma   89.99920000
_symmetry_Int_Tables_number   1
_chemical_formula_structural   MnH14C12(N2O)6
_chemical_formula_sum   'Mn2 H28 C24 N24 O12'
_cell_volume   919.92648157
_cell_formula_units_Z   2
loop_
 _symmetry_equiv_pos_site_id
 _symmetry_equiv_pos_as_xyz
  1  'x, y, z'
loop_
 _atom_site_type_symbol
 _atom_site_label
 _atom_site_symmetry_multiplicity
 _atom_site_fract_x
 _atom_site_fract_y
 _atom_site_fract_z
 _atom_site_occupancy
  Mn  Mn0  1  0.00000000  0.00000000  0.50000000  1.0
  Mn  Mn1  1  0.50000000  0.50000000  1.00000000  1.0
  H  H2  1  0.70638000  0.56997000  0.81056000  1.0
  H  H3  1  0.79362000  0.06997000  0.68944000  1.0
  H  H4  1  0.29361000  0.43003000  0.18944000  1.0
  H  H5  1  0.20637000  0.93003000  0.31056000  1.0
  H  H6  1  0.28954000  0.25200000  0.84649000  1.0
  H  H7  1  0.21047000  0.75200000  0.65352000  1.0
  H  H8  1  0.71047000  0.74799000  0.15351000  1.0
  H  H9  1  0.78954000  0.24801000  0.34648000  1.0
  H  H10  1  0.15608000  0.32652000  0.61421000  1.0
  H  H11  1  0.34393000  0.82652000  0.88579000  1.0
  H  H12  1  0.84392000  0.67348000  0.38579000  1.0
  H  H13  1  0.65607000  0.17348000  0.11421000  1.0
  H  H14  1  0.63475000  0.19708000  0.51355000  1.0
  H  H15  1  0.86527000  0.69707000  0.98645000  1.0
  H  H16  1  0.36526000  0.80293000  0.48645000  1.0
  H  H17  1  0.13474000  0.30293000  0.01355000  1.0
  H  H18  1  0.47649000  0.42560000  0.57593000  1.0
  H  H19  1  0.02351000  0.92560000  0.92407000  1.0
  H  H20  1  0.52350000  0.57440000  0.42407000  1.0
  H  H21  1  0.97648000  0.07440000  0.07593000  1.0
  H  H22  1  0.69902000  0.83837000  0.49793000  1.0
  H  H23  1  0.80098000  0.33835000  0.00207000  1.0
  H  H24  1  0.30098000  0.16164000  0.50207000  1.0
  H  H25  1  0.19902000  0.66164000  0.99793000  1.0
  H  H26  1  0.69337000  0.94172000  0.40167000  1.0
  H  H27  1  0.80662000  0.44169000  0.09833000  1.0
  H  H28  1  0.30663000  0.05828000  0.59833000  1.0
  H  H29  1  0.19339000  0.55831000  0.90167000  1.0
  C  C30  1  0.60034000  0.48460000  0.80042000  1.0
  C  C31  1  0.89966000  0.98460000  0.69958000  1.0
  C  C32  1  0.39966000  0.51540000  0.19958000  1.0
  C  C33  1  0.10034000  0.01540000  0.30042000  1.0
  C  C34  1  0.38971000  0.32111000  0.81598000  1.0
  C  C35  1  0.11029000  0.82111000  0.68402000  1.0
  C  C36  1  0.61030000  0.67888000  0.18402000  1.0
  C  C37  1  0.88971000  0.17890000  0.31597000  1.0
  C  C38  1  0.01306000  0.32679000  0.59899000  1.0
  C  C39  1  0.48695000  0.82679000  0.90101000  1.0
  C  C40  1  0.98694000  0.67321000  0.40101000  1.0
  C  C41  1  0.51305000  0.17320000  0.09899000  1.0
  C  C42  1  0.74974000  0.25762000  0.54692000  1.0
  C  C43  1  0.75027000  0.75761000  0.95308000  1.0
  C  C44  1  0.25026000  0.74239000  0.45308000  1.0
  C  C45  1  0.24973000  0.24239000  0.04692000  1.0
  C  C46  1  0.58706000  0.46864000  0.62500000  1.0
  C  C47  1  0.91294000  0.96863000  0.87500000  1.0
  C  C48  1  0.41294000  0.53137000  0.37500000  1.0
  C  C49  1  0.08705000  0.03138000  0.12500000  1.0
  C  C50  1  0.59913000  0.65057000  0.60904000  1.0
  C  C51  1  0.90086000  0.15057000  0.89095000  1.0
  C  C52  1  0.40087000  0.34943000  0.39096000  1.0
  C  C53  1  0.09914000  0.84943000  0.10905000  1.0
  N  N54  1  0.91982000  0.21437000  0.54504000  1.0
  N  N55  1  0.58019000  0.71436000  0.95496000  1.0
  N  N56  1  0.08018000  0.78564000  0.45496000  1.0
  N  N57  1  0.41981000  0.28564000  0.04504000  1.0
  N  N58  1  0.74425000  0.38819000  0.59997000  1.0
  N  N59  1  0.75575000  0.88819000  0.90003000  1.0
  N  N60  1  0.25574000  0.61181000  0.40003000  1.0
  N  N61  1  0.24425000  0.11180000  0.09997000  1.0
  N  N62  1  0.91021000  0.43416000  0.63332000  1.0
  N  N63  1  0.58979000  0.93416000  0.86667000  1.0
  N  N64  1  0.08979000  0.56584000  0.36668000  1.0
  N  N65  1  0.41021000  0.06584000  0.13333000  1.0
  N  N66  1  0.54232000  0.42399000  0.71676000  1.0
  N  N67  1  0.95769000  0.92398000  0.78324000  1.0
  N  N68  1  0.45768000  0.57601000  0.28324000  1.0
  N  N69  1  0.04231000  0.07601000  0.21676000  1.0
  N  N70  1  0.40762000  0.31896000  0.72540000  1.0
  N  N71  1  0.09239000  0.81896000  0.77459000  1.0
  N  N72  1  0.59239000  0.68103000  0.27460000  1.0
  N  N73  1  0.90761000  0.18104000  0.22540000  1.0
  N  N74  1  0.50515000  0.42316000  0.86565000  1.0
  N  N75  1  0.99485000  0.92315000  0.63435000  1.0
  N  N76  1  0.49485000  0.57684000  0.13435000  1.0
  N  N77  1  0.00515000  0.07685000  0.36565000  1.0
  O  O78  1  0.54089000  0.74281000  0.66553000  1.0
  O  O79  1  0.95908000  0.24281000  0.83445000  1.0
  O  O80  1  0.45907000  0.25718000  0.33446000  1.0
  O  O81  1  0.04093000  0.75719000  0.16555000  1.0
  O  O82  1  0.65989000  0.68033000  0.53089000  1.0
  O  O83  1  0.84011000  0.18033000  0.96910000  1.0
  O  O84  1  0.34011000  0.31967000  0.46911000  1.0
  O  O85  1  0.15988000  0.81967000  0.03090000  1.0
  O  O86  1  0.73582000  0.94425000  0.46785000  1.0
  O  O87  1  0.76416000  0.44424000  0.03216000  1.0
  O  O88  1  0.26418000  0.05575000  0.53216000  1.0
  O  O89  1  0.23584000  0.55575000  0.96785000  1.0
