# generated using pymatgen
data_CoH6C8(N2O)2
_symmetry_space_group_name_H-M   'P 1'
_cell_length_a   7.33409000
_cell_length_b   7.33400000
_cell_length_c   10.04310000
_cell_angle_alpha   68.59500000
_cell_angle_beta   68.59500000
_cell_angle_gamma   89.96630000
_symmetry_Int_Tables_number   1
_chemical_formula_structural   CoH6C8(N2O)2
_chemical_formula_sum   'Co2 H12 C16 N8 O4'
_cell_volume   462.73696641
_cell_formula_units_Z   2
loop_
 _symmetry_equiv_pos_site_id
 _symmetry_equiv_pos_as_xyz
  1  'x, y, z'
loop_
 _atom_site_type_symbol
 _atom_site_label
 _atom_site_symmetry_multiplicity
 _atom_site_fract_x
 _atom_site_fract_y
 _atom_site_fract_z
 _atom_site_occupancy
  Co  Co0  1  0.49992000  0.49989000  0.00007000  1.0
  Co  Co1  1  0.24989000  0.74992000  0.50007000  1.0
  H  H2  1  0.37491000  0.20535000  0.75002000  1.0
  H  H3  1  0.87515000  0.04476000  0.74980000  1.0
  H  H4  1  0.79476000  0.12516000  0.24979000  1.0
  H  H5  1  0.95535000  0.62492000  0.25001000  1.0
  H  H6  1  0.41503000  0.91286000  0.96689000  1.0
  H  H7  1  0.61842000  0.12049000  0.96672000  1.0
  H  H8  1  0.08725000  0.38182000  0.03304000  1.0
  H  H9  1  0.87949000  0.58491000  0.03320000  1.0
  H  H10  1  0.13181000  0.33723000  0.53305000  1.0
  H  H11  1  0.33492000  0.12950000  0.53319000  1.0
  H  H12  1  0.87049000  0.86842000  0.46670000  1.0
  H  H13  1  0.66286000  0.66502000  0.46690000  1.0
  C  C14  1  0.37496000  0.67773000  0.75010000  1.0
  C  C15  1  0.87497000  0.57223000  0.75002000  1.0
  C  C16  1  0.32222000  0.12495000  0.25002000  1.0
  C  C17  1  0.42773000  0.62495000  0.25010000  1.0
  C  C18  1  0.37490000  0.05682000  0.75009000  1.0
  C  C19  1  0.87507000  0.19327000  0.74982000  1.0
  C  C20  1  0.94326000  0.12508000  0.24983000  1.0
  C  C21  1  0.80682000  0.62490000  0.25009000  1.0
  C  C22  1  0.39907000  0.89766000  0.86757000  1.0
  C  C23  1  0.73355000  0.23504000  0.86737000  1.0
  C  C24  1  0.10245000  0.26657000  0.13239000  1.0
  C  C25  1  0.76498000  0.60079000  0.13260000  1.0
  C  C26  1  0.01657000  0.35245000  0.63238000  1.0
  C  C27  1  0.35076000  0.01497000  0.63260000  1.0
  C  C28  1  0.98503000  0.98355000  0.36738000  1.0
  C  C29  1  0.64767000  0.64910000  0.36756000  1.0
  N  N30  1  0.40469000  0.71553000  0.86668000  1.0
  N  N31  1  0.72873000  0.41796000  0.86660000  1.0
  N  N32  1  0.28450000  0.27127000  0.13337000  1.0
  N  N33  1  0.58201000  0.59518000  0.13347000  1.0
  N  N34  1  0.02127000  0.53450000  0.63337000  1.0
  N  N35  1  0.34519000  0.83201000  0.63346000  1.0
  N  N36  1  0.16797000  0.97873000  0.36660000  1.0
  N  N37  1  0.46552000  0.65467000  0.36670000  1.0
  O  O38  1  0.37499000  0.50684000  0.75008000  1.0
  O  O39  1  0.87495000  0.74309000  0.75009000  1.0
  O  O40  1  0.49307000  0.12494000  0.25011000  1.0
  O  O41  1  0.25683000  0.62498000  0.25010000  1.0
