# generated using pymatgen
data_Ni2H28C40N8O9
_symmetry_space_group_name_H-M   'P 1'
_cell_length_a   13.01840000
_cell_length_b   13.18953453
_cell_length_c   20.83509092
_cell_angle_alpha   81.15265915
_cell_angle_beta   71.80678028
_cell_angle_gamma   60.45088805
_symmetry_Int_Tables_number   1
_chemical_formula_structural   Ni2H28C40N8O9
_chemical_formula_sum   'Ni4 H56 C80 N16 O18'
_cell_volume   2956.62430419
_cell_formula_units_Z   2
loop_
 _symmetry_equiv_pos_site_id
 _symmetry_equiv_pos_as_xyz
  1  'x, y, z'
loop_
 _atom_site_type_symbol
 _atom_site_label
 _atom_site_symmetry_multiplicity
 _atom_site_fract_x
 _atom_site_fract_y
 _atom_site_fract_z
 _atom_site_occupancy
  Ni  Ni0  1  0.66664000  0.48899000  0.46291000  1.0
  Ni  Ni1  1  0.84448000  0.48909000  0.53722000  1.0
  Ni  Ni2  1  0.87936000  0.98912000  0.03722000  1.0
  Ni  Ni3  1  0.13156000  0.98907000  0.96285000  1.0
  H  H4  1  0.72573000  0.85135000  0.21791000  1.0
  H  H5  1  0.42301000  0.85105000  0.78249000  1.0
  H  H6  1  0.69379000  0.35120000  0.28252000  1.0
  H  H7  1  0.95592000  0.35054000  0.71762000  1.0
  H  H8  1  0.01132000  0.63834000  0.36139000  1.0
  H  H9  1  0.35067000  0.63812000  0.63873000  1.0
  H  H10  1  0.12260000  0.13883000  0.13867000  1.0
  H  H11  1  0.73951000  0.13781000  0.86116000  1.0
  H  H12  1  0.66536000  0.75028000  0.32353000  1.0
  H  H13  1  0.58448000  0.75034000  0.67674000  1.0
  H  H14  1  0.73882000  0.25016000  0.17692000  1.0
  H  H15  1  0.01153000  0.24964000  0.82335000  1.0
  H  H16  1  0.61855000  0.53342000  0.31803000  1.0
  H  H17  1  0.84768000  0.53415000  0.68190000  1.0
  H  H18  1  0.68616000  0.03354000  0.18206000  1.0
  H  H19  1  0.27911000  0.03367000  0.81793000  1.0
  H  H20  1  0.06973000  0.74347000  0.25734000  1.0
  H  H21  1  0.18725000  0.74277000  0.74294000  1.0
  H  H22  1  0.07711000  0.24399000  0.24266000  1.0
  H  H23  1  0.68033000  0.24271000  0.75696000  1.0
  H  H24  1  0.16977000  0.90724000  0.10557000  1.0
  H  H25  1  0.92279000  0.90716000  0.89452000  1.0
  H  H26  1  0.02506000  0.40634000  0.39461000  1.0
  H  H27  1  0.56690000  0.40713000  0.60563000  1.0
  H  H28  1  0.57552000  0.70966000  0.11280000  1.0
  H  H29  1  0.71512000  0.70930000  0.88695000  1.0
  H  H30  1  0.43826000  0.20968000  0.38706000  1.0
  H  H31  1  0.35184000  0.20946000  0.61258000  1.0
  H  H32  1  0.60246000  0.66048000  0.22780000  1.0
  H  H33  1  0.73743000  0.66059000  0.77180000  1.0
  H  H34  1  0.57977000  0.16045000  0.27194000  1.0
  H  H35  1  0.25879000  0.16055000  0.72763000  1.0
  H  H36  1  0.19142000  0.80138000  0.19286000  1.0
  H  H37  1  0.00753000  0.80118000  0.80728000  1.0
  H  H38  1  0.13389000  0.30016000  0.30752000  1.0
  H  H39  1  0.56493000  0.30027000  0.69265000  1.0
  H  H40  1  0.21960000  0.74925000  0.30752000  1.0
  H  H41  1  0.03160000  0.74940000  0.69247000  1.0
  H  H42  1  0.27650000  0.24765000  0.19276000  1.0
  H  H43  1  0.47394000  0.24842000  0.80735000  1.0
  H  H44  1  0.42072000  0.78842000  0.91483000  1.0
  H  H45  1  0.79076000  0.78807000  0.08515000  1.0
  H  H46  1  0.08613000  0.28921000  0.58533000  1.0
  H  H47  1  0.62702000  0.28767000  0.41477000  1.0
  H  H48  1  0.25023000  0.78549000  0.40489000  1.0
  H  H49  1  0.96556000  0.78510000  0.59475000  1.0
  H  H50  1  0.40435000  0.28463000  0.09514000  1.0
  H  H51  1  0.30958000  0.28524000  0.90467000  1.0
  H  H52  1  0.36717000  0.66913000  0.50589000  1.0
  H  H53  1  0.96470000  0.66862000  0.49389000  1.0
  H  H54  1  0.62271000  0.16922000  0.99420000  1.0
  H  H55  1  0.20815000  0.16884000  0.00577000  1.0
  H  H56  1  0.54508000  0.67608000  0.01366000  1.0
  H  H57  1  0.77911000  0.67555000  0.98620000  1.0
  H  H58  1  0.30916000  0.17664000  0.48641000  1.0
  H  H59  1  0.51607000  0.17513000  0.51343000  1.0
  C  C60  1  0.83388000  0.68994000  0.34915000  1.0
  C  C61  1  0.47637000  0.68984000  0.65107000  1.0
  C  C62  1  0.93295000  0.19005000  0.15111000  1.0
  C  C63  1  0.87762000  0.18938000  0.84892000  1.0
  C  C64  1  0.78750000  0.80612000  0.25001000  1.0
  C  C65  1  0.40659000  0.80580000  0.75032000  1.0
  C  C66  1  0.78759000  0.30614000  0.25033000  1.0
  C  C67  1  0.90728000  0.30530000  0.74972000  1.0
  C  C68  1  0.90129000  0.80516000  0.23149000  1.0
  C  C69  1  0.29383000  0.80467000  0.76881000  1.0
  C  C70  1  0.88284000  0.30542000  0.26874000  1.0
  C  C71  1  0.81295000  0.30435000  0.73120000  1.0
  C  C72  1  0.94829000  0.68734000  0.33034000  1.0
  C  C73  1  0.36466000  0.68705000  0.66987000  1.0
  C  C74  1  0.02858000  0.18765000  0.16981000  1.0
  C  C75  1  0.78474000  0.18665000  0.83005000  1.0
  C  C76  1  0.75377000  0.74967000  0.30844000  1.0
  C  C77  1  0.49675000  0.74955000  0.69183000  1.0
  C  C78  1  0.81219000  0.24966000  0.19191000  1.0
  C  C79  1  0.93891000  0.24897000  0.80819000  1.0
  C  C80  1  0.41298000  0.70018000  0.27512000  1.0
  C  C81  1  0.88717000  0.70046000  0.72468000  1.0
  C  C82  1  0.43746000  0.19954000  0.22492000  1.0
  C  C83  1  0.36150000  0.19999000  0.77495000  1.0
  C  C84  1  0.79848000  0.62661000  0.41105000  1.0
  C  C85  1  0.57502000  0.62656000  0.58910000  1.0
  C  C86  1  0.95940000  0.12672000  0.08917000  1.0
  C  C87  1  0.91408000  0.12635000  0.91096000  1.0
  C  C88  1  0.53467000  0.58579000  0.35549000  1.0
  C  C89  1  0.87953000  0.58625000  0.64439000  1.0
  C  C90  1  0.63969000  0.08572000  0.14458000  1.0
  C  C91  1  0.27352000  0.08587000  0.85537000  1.0
  C  C92  1  0.98105000  0.74497000  0.27234000  1.0
  C  C93  1  0.27434000  0.74444000  0.72793000  1.0
  C  C94  1  0.00339000  0.24537000  0.22778000  1.0
  C  C95  1  0.75251000  0.24415000  0.77200000  1.0
  C  C96  1  0.25574000  0.86278000  0.06710000  1.0
  C  C97  1  0.88133000  0.86265000  0.93296000  1.0
  C  C98  1  0.07275000  0.36227000  0.43306000  1.0
  C  C99  1  0.56425000  0.36249000  0.56709000  1.0
  C  C100  1  0.93875000  0.86890000  0.16923000  1.0
  C  C101  1  0.19254000  0.86837000  0.83103000  1.0
  C  C102  1  0.85804000  0.36917000  0.33100000  1.0
  C  C103  1  0.77386000  0.36819000  0.66901000  1.0
  C  C104  1  0.49805000  0.71603000  0.15522000  1.0
  C  C105  1  0.78619000  0.71584000  0.84457000  1.0
  C  C106  1  0.40303000  0.21579000  0.34475000  1.0
  C  C107  1  0.38054000  0.21574000  0.65503000  1.0
  C  C108  1  0.51315000  0.68862000  0.22008000  1.0
  C  C109  1  0.79853000  0.68874000  0.77963000  1.0
  C  C110  1  0.48275000  0.18836000  0.27983000  1.0
  C  C111  1  0.32784000  0.18852000  0.71991000  1.0
  C  C112  1  0.38280000  0.75557000  0.14520000  1.0
  C  C113  1  0.86190000  0.75529000  0.85472000  1.0
  C  C114  1  0.27780000  0.25501000  0.35490000  1.0
  C  C115  1  0.46651000  0.25502000  0.64504000  1.0
  C  C116  1  0.28199000  0.76931000  0.20038000  1.0
  C  C117  1  0.94904000  0.76915000  0.79965000  1.0
  C  C118  1  0.23199000  0.26824000  0.29987000  1.0
  C  C119  1  0.49862000  0.26852000  0.70020000  1.0
  C  C120  1  0.29756000  0.74127000  0.26496000  1.0
  C  C121  1  0.96155000  0.74140000  0.73498000  1.0
  C  C122  1  0.31193000  0.24010000  0.23524000  1.0
  C  C123  1  0.44635000  0.24068000  0.76479000  1.0
  C  C124  1  0.38955000  0.79745000  0.96932000  1.0
  C  C125  1  0.81290000  0.79717000  0.03067000  1.0
  C  C126  1  0.10925000  0.29785000  0.53083000  1.0
  C  C127  1  0.59434000  0.29678000  0.46925000  1.0
  C  C128  1  0.34196000  0.71522000  0.40228000  1.0
  C  C129  1  0.94378000  0.71501000  0.59745000  1.0
  C  C130  1  0.49359000  0.21465000  0.09775000  1.0
  C  C131  1  0.29055000  0.21506000  0.90212000  1.0
  C  C132  1  0.40016000  0.65742000  0.45157000  1.0
  C  C133  1  0.94316000  0.65719000  0.54822000  1.0
  C  C134  1  0.60131000  0.15736000  0.04850000  1.0
  C  C135  1  0.24090000  0.15726000  0.95145000  1.0
  C  C136  1  0.45133000  0.74262000  0.01750000  1.0
  C  C137  1  0.80610000  0.74227000  0.98243000  1.0
  C  C138  1  0.21912000  0.24295000  0.48260000  1.0
  C  C139  1  0.53914000  0.24190000  0.51733000  1.0
  N  N140  1  0.36529000  0.78466000  0.07963000  1.0
  N  N141  1  0.85009000  0.78439000  0.92035000  1.0
  N  N142  1  0.19490000  0.28439000  0.42050000  1.0
  N  N143  1  0.52052000  0.28417000  0.57950000  1.0
  N  N144  1  0.42878000  0.66932000  0.34101000  1.0
  N  N145  1  0.90232000  0.66957000  0.65878000  1.0
  N  N146  1  0.51912000  0.16878000  0.15903000  1.0
  N  N147  1  0.31054000  0.16929000  0.84086000  1.0
  N  N148  1  0.51948000  0.57722000  0.42150000  1.0
  N  N149  1  0.90345000  0.57740000  0.57840000  1.0
  N  N150  1  0.69066000  0.07743000  0.07859000  1.0
  N  N151  1  0.23156000  0.07721000  0.92139000  1.0
  N  N152  1  0.26878000  0.87174000  0.00132000  1.0
  N  N153  1  0.85926000  0.87161000  0.99874000  1.0
  N  N154  1  0.02026000  0.37161000  0.49885000  1.0
  N  N155  1  0.60834000  0.37137000  0.50135000  1.0
  O  O156  1  0.79140000  0.41770000  0.49994000  1.0
  O  O157  1  0.04112000  0.91778000  0.99996000  1.0
  O  O158  1  0.70349000  0.61661000  0.41737000  1.0
  O  O159  1  0.68001000  0.61652000  0.58280000  1.0
  O  O160  1  0.87074000  0.11673000  0.08283000  1.0
  O  O161  1  0.01281000  0.11624000  0.91726000  1.0
  O  O162  1  0.86554000  0.58940000  0.45140000  1.0
  O  O163  1  0.54514000  0.58935000  0.54875000  1.0
  O  O164  1  0.06679000  0.08956000  0.04878000  1.0
  O  O165  1  0.84361000  0.08954000  0.95141000  1.0
  O  O166  1  0.87706000  0.89310000  0.12610000  1.0
  O  O167  1  0.22993000  0.89282000  0.87412000  1.0
  O  O168  1  0.75335000  0.39301000  0.37416000  1.0
  O  O169  1  0.85401000  0.39321000  0.62609000  1.0
  O  O170  1  0.02202000  0.89332000  0.16526000  1.0
  O  O171  1  0.08493000  0.89254000  0.83502000  1.0
  O  O172  1  0.93708000  0.39397000  0.33494000  1.0
  O  O173  1  0.67045000  0.39191000  0.66490000  1.0
