# generated using pymatgen
data_H24PbC24(N3O2)2
_symmetry_space_group_name_H-M   'P 1'
_cell_length_a   7.65400000
_cell_length_b   10.67940000
_cell_length_c   15.24771728
_cell_angle_alpha   69.50284662
_cell_angle_beta   86.09535142
_cell_angle_gamma   89.99480000
_symmetry_Int_Tables_number   1
_chemical_formula_structural   H24PbC24(N3O2)2
_chemical_formula_sum   'H48 Pb2 C48 N12 O8'
_cell_volume   1164.35715626
_cell_formula_units_Z   2
loop_
 _symmetry_equiv_pos_site_id
 _symmetry_equiv_pos_as_xyz
  1  'x, y, z'
loop_
 _atom_site_type_symbol
 _atom_site_label
 _atom_site_symmetry_multiplicity
 _atom_site_fract_x
 _atom_site_fract_y
 _atom_site_fract_z
 _atom_site_occupancy
  H  H0  1  0.47393000  0.33201000  0.99369000  1.0
  H  H1  1  0.02626000  0.32605000  0.00650000  1.0
  H  H2  1  0.52617000  0.66800000  0.00633000  1.0
  H  H3  1  0.97389000  0.67391000  0.99352000  1.0
  H  H4  1  0.33849000  0.55614000  0.92466000  1.0
  H  H5  1  0.16163000  0.48114000  0.07560000  1.0
  H  H6  1  0.66152000  0.44387000  0.07536000  1.0
  H  H7  1  0.83837000  0.51889000  0.92444000  1.0
  H  H8  1  0.36808000  0.66970000  0.74862000  1.0
  H  H9  1  0.13198000  0.41854000  0.25165000  1.0
  H  H10  1  0.63192000  0.33033000  0.25141000  1.0
  H  H11  1  0.86796000  0.58142000  0.74841000  1.0
  H  H12  1  0.53143000  0.55451000  0.65084000  1.0
  H  H13  1  0.96865000  0.20555000  0.34936000  1.0
  H  H14  1  0.46866000  0.44557000  0.34918000  1.0
  H  H15  1  0.03144000  0.79431000  0.65066000  1.0
  H  H16  1  0.71941000  0.22065000  0.76910000  1.0
  H  H17  1  0.78088000  0.99003000  0.23100000  1.0
  H  H18  1  0.28056000  0.77937000  0.23090000  1.0
  H  H19  1  0.21906000  0.01001000  0.76898000  1.0
  H  H20  1  0.70445000  0.57809000  0.42751000  1.0
  H  H21  1  0.79560000  0.00563000  0.57267000  1.0
  H  H22  1  0.29576000  0.42203000  0.57250000  1.0
  H  H23  1  0.20439000  0.99429000  0.42734000  1.0
  H  H24  1  0.89983000  0.42772000  0.37374000  1.0
  H  H25  1  0.60043000  0.80133000  0.62634000  1.0
  H  H26  1  0.10030000  0.57236000  0.62627000  1.0
  H  H27  1  0.39949000  0.19857000  0.37363000  1.0
  H  H28  1  0.99842000  0.21600000  0.49594000  1.0
  H  H29  1  0.50171000  0.71214000  0.50403000  1.0
  H  H30  1  0.00157000  0.78403000  0.50406000  1.0
  H  H31  1  0.49816000  0.28790000  0.49590000  1.0
  H  H32  1  0.89216000  0.16525000  0.66441000  1.0
  H  H33  1  0.60792000  0.83002000  0.33557000  1.0
  H  H34  1  0.10768000  0.83472000  0.33557000  1.0
  H  H35  1  0.39191000  0.17005000  0.66438000  1.0
  H  H36  1  0.66656000  0.95325000  0.72060000  1.0
  H  H37  1  0.83387000  0.67359000  0.27944000  1.0
  H  H38  1  0.33351000  0.04672000  0.27940000  1.0
  H  H39  1  0.16619000  0.32641000  0.72055000  1.0
  H  H40  1  0.47144000  0.88759000  0.79465000  1.0
  H  H41  1  0.02892000  0.68206000  0.20531000  1.0
  H  H42  1  0.52856000  0.11244000  0.20531000  1.0
  H  H43  1  0.97111000  0.31799000  0.79464000  1.0
  H  H44  1  0.66675000  0.79630000  0.81476000  1.0
  H  H45  1  0.83357000  0.61103000  0.18516000  1.0
  H  H46  1  0.33322000  0.20368000  0.18526000  1.0
  H  H47  1  0.16647000  0.38897000  0.81483000  1.0
  Pb  Pb48  1  0.75004000  0.09018000  0.00008000  1.0
  Pb  Pb49  1  0.24962000  0.90972000  0.99996000  1.0
  C  C50  1  0.48686000  0.38708000  0.91805000  1.0
  C  C51  1  0.01338000  0.30543000  0.08214000  1.0
  C  C52  1  0.51316000  0.61293000  0.08196000  1.0
  C  C53  1  0.98670000  0.69455000  0.91787000  1.0
  C  C54  1  0.41033000  0.51101000  0.87978000  1.0
  C  C55  1  0.08987000  0.39104000  0.12046000  1.0
  C  C56  1  0.58970000  0.48900000  0.12025000  1.0
  C  C57  1  0.91013000  0.60897000  0.87957000  1.0
  C  C58  1  0.42766000  0.57352000  0.78210000  1.0
  C  C59  1  0.07249000  0.35584000  0.21814000  1.0
  C  C60  1  0.57234000  0.42650000  0.21792000  1.0
  C  C61  1  0.92752000  0.64413000  0.78189000  1.0
  C  C62  1  0.51697000  0.51146000  0.72694000  1.0
  C  C63  1  0.98321000  0.23861000  0.27327000  1.0
  C  C64  1  0.48305000  0.48857000  0.27307000  1.0
  C  C65  1  0.01688000  0.76130000  0.72675000  1.0
  C  C66  1  0.59161000  0.38623000  0.77195000  1.0
  C  C67  1  0.90860000  0.15844000  0.22820000  1.0
  C  C68  1  0.40835000  0.61378000  0.22805000  1.0
  C  C69  1  0.09146000  0.84152000  0.77179000  1.0
  C  C70  1  0.74942000  0.48520000  0.47768000  1.0
  C  C71  1  0.75067000  0.96294000  0.52246000  1.0
  C  C72  1  0.25073000  0.51490000  0.52233000  1.0
  C  C73  1  0.24931000  0.03698000  0.47754000  1.0
  C  C74  1  0.85822000  0.40171000  0.44777000  1.0
  C  C75  1  0.64199000  0.84951000  0.55232000  1.0
  C  C76  1  0.14189000  0.59836000  0.55224000  1.0
  C  C77  1  0.35796000  0.15044000  0.44766000  1.0
  C  C78  1  0.91188000  0.28422000  0.51573000  1.0
  C  C79  1  0.58827000  0.80012000  0.48429000  1.0
  C  C80  1  0.08813000  0.71582000  0.48427000  1.0
  C  C81  1  0.41163000  0.19990000  0.51566000  1.0
  C  C82  1  0.85367000  0.25518000  0.60891000  1.0
  C  C83  1  0.64641000  0.86437000  0.39111000  1.0
  C  C84  1  0.14626000  0.74483000  0.39108000  1.0
  C  C85  1  0.35346000  0.13568000  0.60884000  1.0
  C  C86  1  0.74163000  0.34622000  0.63202000  1.0
  C  C87  1  0.75848000  0.97849000  0.36807000  1.0
  C  C88  1  0.25837000  0.65382000  0.36798000  1.0
  C  C89  1  0.24149000  0.02151000  0.63190000  1.0
  C  C90  1  0.66520000  0.96438000  0.85919000  1.0
  C  C91  1  0.83509000  0.82349000  0.14096000  1.0
  C  C92  1  0.33475000  0.03560000  0.14080000  1.0
  C  C93  1  0.16489000  0.17648000  0.85904000  1.0
  C  C94  1  0.61424000  0.89750000  0.79234000  1.0
  C  C95  1  0.88612000  0.68969000  0.20767000  1.0
  C  C96  1  0.38577000  0.10249000  0.20765000  1.0
  C  C97  1  0.11391000  0.31031000  0.79232000  1.0
  N  N98  1  0.57741000  0.32623000  0.86672000  1.0
  N  N99  1  0.92283000  0.19325000  0.13343000  1.0
  N  N100  1  0.42255000  0.67376000  0.13329000  1.0
  N  N101  1  0.07727000  0.80673000  0.86656000  1.0
  N  N102  1  0.68448000  0.31415000  0.72593000  1.0
  N  N103  1  0.81573000  0.04034000  0.27420000  1.0
  N  N104  1  0.31549000  0.68586000  0.27407000  1.0
  N  N105  1  0.18428000  0.95965000  0.72579000  1.0
  N  N106  1  0.69101000  0.45952000  0.56756000  1.0
  N  N107  1  0.80905000  0.02727000  0.43259000  1.0
  N  N108  1  0.30911000  0.54056000  0.43245000  1.0
  N  N109  1  0.19097000  0.97267000  0.56741000  1.0
  O  O110  1  0.58811000  0.92526000  0.94199000  1.0
  O  O111  1  0.91198000  0.86726000  0.05810000  1.0
  O  O112  1  0.41179000  0.07471000  0.05800000  1.0
  O  O113  1  0.08796000  0.13274000  0.94189000  1.0
  O  O114  1  0.78486000  0.05534000  0.83376000  1.0
  O  O115  1  0.71554000  0.88899000  0.16651000  1.0
  O  O116  1  0.21511000  0.94463000  0.16626000  1.0
  O  O117  1  0.28441000  0.11096000  0.83350000  1.0
