# generated using pymatgen
data_LiH8C4IO
_symmetry_space_group_name_H-M   'P 1'
_cell_length_a   4.46553000
_cell_length_b   8.74344000
_cell_length_c   8.96937000
_cell_angle_alpha   102.63400000
_cell_angle_beta   99.73250000
_cell_angle_gamma   102.42200000
_symmetry_Int_Tables_number   1
_chemical_formula_structural   LiH8C4IO
_chemical_formula_sum   'Li2 H16 C8 I2 O2'
_cell_volume   325.02785760
_cell_formula_units_Z   2
loop_
 _symmetry_equiv_pos_site_id
 _symmetry_equiv_pos_as_xyz
  1  'x, y, z'
loop_
 _atom_site_type_symbol
 _atom_site_label
 _atom_site_symmetry_multiplicity
 _atom_site_fract_x
 _atom_site_fract_y
 _atom_site_fract_z
 _atom_site_occupancy
  Li  Li0  1  0.76867000  0.11552000  0.95027000  1.0
  Li  Li1  1  0.23133000  0.88448000  0.04973000  1.0
  H  H2  1  0.79997000  0.00813000  0.60026000  1.0
  H  H3  1  0.20003000  0.99188000  0.39973000  1.0
  H  H4  1  0.16684000  0.14318000  0.71532000  1.0
  H  H5  1  0.83316000  0.85682000  0.28468000  1.0
  H  H6  1  0.15039000  0.26971000  0.50630000  1.0
  H  H7  1  0.84962000  0.73030000  0.49370000  1.0
  H  H8  1  0.74111000  0.18815000  0.43447000  1.0
  H  H9  1  0.25889000  0.81185000  0.56553000  1.0
  H  H10  1  0.64177000  0.42022000  0.57785000  1.0
  H  H11  1  0.35823000  0.57979000  0.42215000  1.0
  H  H12  1  0.05055000  0.51116000  0.64826000  1.0
  H  H13  1  0.94946000  0.48885000  0.35175000  1.0
  H  H14  1  0.07548000  0.42408000  0.87971000  1.0
  H  H15  1  0.92451000  0.57591000  0.12030000  1.0
  H  H16  1  0.66645000  0.41925000  0.84835000  1.0
  H  H17  1  0.33354000  0.58075000  0.15165000  1.0
  C  C18  1  0.92584000  0.13597000  0.65459000  1.0
  C  C19  1  0.07416000  0.86403000  0.34541000  1.0
  C  C20  1  0.92561000  0.24513000  0.54214000  1.0
  C  C21  1  0.07439000  0.75487000  0.45786000  1.0
  C  C22  1  0.86337000  0.40186000  0.63568000  1.0
  C  C23  1  0.13663000  0.59814000  0.36432000  1.0
  C  C24  1  0.84492000  0.37287000  0.79598000  1.0
  C  C25  1  0.15507000  0.62713000  0.20403000  1.0
  I  I26  1  0.37497000  0.21751000  0.12779000  1.0
  I  I27  1  0.62503000  0.78248000  0.87220000  1.0
  O  O28  1  0.75835000  0.19778000  0.76984000  1.0
  O  O29  1  0.24165000  0.80222000  0.23015000  1.0
