# generated using pymatgen
data_AlH8(C5O3)2
_symmetry_space_group_name_H-M   'P 1'
_cell_length_a   6.68352000
_cell_length_b   8.84582000
_cell_length_c   14.37998285
_cell_angle_alpha   102.26987344
_cell_angle_beta   92.09834724
_cell_angle_gamma   104.91640000
_symmetry_Int_Tables_number   1
_chemical_formula_structural   AlH8(C5O3)2
_chemical_formula_sum   'Al2 H16 C20 O12'
_cell_volume   798.98522091
_cell_formula_units_Z   2
loop_
 _symmetry_equiv_pos_site_id
 _symmetry_equiv_pos_as_xyz
  1  'x, y, z'
loop_
 _atom_site_type_symbol
 _atom_site_label
 _atom_site_symmetry_multiplicity
 _atom_site_fract_x
 _atom_site_fract_y
 _atom_site_fract_z
 _atom_site_occupancy
  Al  Al0  1  0.50031000  0.00027000  0.49999000  1.0
  Al  Al1  1  0.00029000  0.00019000  0.49997000  1.0
  H  H2  1  0.26672000  0.07137000  0.39309000  1.0
  H  H3  1  0.73304000  0.92730000  0.60631000  1.0
  H  H4  1  0.19564000  0.52096000  0.92264000  1.0
  H  H5  1  0.80208000  0.47718000  0.07794000  1.0
  H  H6  1  0.37374000  0.83540000  0.20841000  1.0
  H  H7  1  0.27423000  0.66584000  0.04690000  1.0
  H  H8  1  0.62779000  0.16650000  0.79120000  1.0
  H  H9  1  0.72760000  0.33650000  0.95252000  1.0
  H  H10  1  0.21449000  0.37123000  0.50853000  1.0
  H  H11  1  0.78606000  0.62901000  0.49142000  1.0
  H  H12  1  0.97165000  0.44419000  0.79339000  1.0
  H  H13  1  0.08564000  0.40282000  0.68432000  1.0
  H  H14  1  0.92492000  0.24373000  0.72415000  1.0
  H  H15  1  0.07437000  0.75413000  0.27624000  1.0
  H  H16  1  0.91164000  0.59579000  0.31603000  1.0
  H  H17  1  0.02580000  0.55345000  0.20710000  1.0
  C  C18  1  0.68712000  0.86209000  0.33276000  1.0
  C  C19  1  0.84338000  0.27929000  0.48772000  1.0
  C  C20  1  0.31339000  0.13835000  0.66716000  1.0
  C  C21  1  0.15724000  0.72109000  0.51228000  1.0
  C  C22  1  0.10273000  0.54677000  0.50753000  1.0
  C  C23  1  0.89791000  0.45358000  0.49249000  1.0
  C  C24  1  0.35544000  0.24318000  0.76554000  1.0
  C  C25  1  0.64483000  0.75722000  0.23441000  1.0
  C  C26  1  0.23039000  0.34434000  0.80338000  1.0
  C  C27  1  0.29208000  0.44229000  0.89533000  1.0
  C  C28  1  0.76892000  0.65510000  0.19681000  1.0
  C  C29  1  0.70690000  0.55705000  0.10492000  1.0
  C  C30  1  0.46845000  0.75714000  0.17835000  1.0
  C  C31  1  0.41208000  0.65977000  0.08710000  1.0
  C  C32  1  0.53252000  0.24414000  0.82142000  1.0
  C  C33  1  0.58887000  0.34165000  0.91261000  1.0
  C  C34  1  0.47002000  0.44555000  0.95189000  1.0
  C  C35  1  0.52984000  0.55480000  0.04811000  1.0
  C  C36  1  0.04265000  0.35911000  0.74883000  1.0
  C  C37  1  0.95568000  0.63924000  0.25155000  1.0
  O  O38  1  0.53153000  0.89722000  0.37197000  1.0
  O  O39  1  0.99615000  0.21499000  0.49150000  1.0
  O  O40  1  0.12640000  0.08880000  0.62816000  1.0
  O  O41  1  0.34791000  0.79587000  0.51936000  1.0
  O  O42  1  0.46911000  0.10350000  0.62794000  1.0
  O  O43  1  0.00442000  0.78533000  0.50848000  1.0
  O  O44  1  0.87418000  0.91139000  0.37171000  1.0
  O  O45  1  0.65269000  0.20458000  0.48062000  1.0
  O  O46  1  0.25887000  0.03848000  0.45319000  1.0
  O  O47  1  0.74165000  0.96181000  0.54671000  1.0
  O  O48  1  0.26957000  0.48972000  0.51731000  1.0
  O  O49  1  0.73099000  0.51055000  0.48270000  1.0
