# generated using pymatgen
data_CuH11C11N5O2
_symmetry_space_group_name_H-M   'P 1'
_cell_length_a   9.19268000
_cell_length_b   10.79340000
_cell_length_c   13.49060000
_cell_angle_alpha   89.99990000
_cell_angle_beta   89.99870000
_cell_angle_gamma   78.65600000
_symmetry_Int_Tables_number   1
_chemical_formula_structural   CuH11C11N5O2
_chemical_formula_sum   'Cu4 H44 C44 N20 O8'
_cell_volume   1312.39112576
_cell_formula_units_Z   4
loop_
 _symmetry_equiv_pos_site_id
 _symmetry_equiv_pos_as_xyz
  1  'x, y, z'
loop_
 _atom_site_type_symbol
 _atom_site_label
 _atom_site_symmetry_multiplicity
 _atom_site_fract_x
 _atom_site_fract_y
 _atom_site_fract_z
 _atom_site_occupancy
  Cu  Cu0  1  0.22626000  0.41799000  0.00313000  1.0
  Cu  Cu1  1  0.27376000  0.08200000  0.50314000  1.0
  Cu  Cu2  1  0.77375000  0.58200000  0.99687000  1.0
  Cu  Cu3  1  0.72626000  0.91799000  0.49687000  1.0
  H  H4  1  0.05805000  0.09715000  0.84578000  1.0
  H  H5  1  0.44195000  0.40285000  0.34578000  1.0
  H  H6  1  0.94195000  0.90285000  0.15422000  1.0
  H  H7  1  0.55805000  0.59715000  0.65422000  1.0
  H  H8  1  0.22939000  0.98804000  0.85149000  1.0
  H  H9  1  0.27061000  0.51196000  0.35149000  1.0
  H  H10  1  0.77061000  0.01196000  0.14851000  1.0
  H  H11  1  0.72939000  0.48804000  0.64851000  1.0
  H  H12  1  0.20711000  0.12127000  0.76926000  1.0
  H  H13  1  0.29289000  0.37873000  0.26926000  1.0
  H  H14  1  0.79289000  0.87873000  0.23074000  1.0
  H  H15  1  0.70711000  0.62127000  0.73074000  1.0
  H  H16  1  0.31995000  0.00811000  0.01108000  1.0
  H  H17  1  0.18005000  0.49188000  0.51108000  1.0
  H  H18  1  0.68005000  0.99189000  0.98892000  1.0
  H  H19  1  0.81995000  0.50811000  0.48892000  1.0
  H  H20  1  0.54870000  0.13044000  0.17938000  1.0
  H  H21  1  0.95130000  0.36955000  0.67938000  1.0
  H  H22  1  0.45130000  0.86955000  0.82062000  1.0
  H  H23  1  0.04870000  0.63045000  0.32062000  1.0
  H  H24  1  0.46011000  0.99987000  0.15528000  1.0
  H  H25  1  0.03990000  0.50013000  0.65528000  1.0
  H  H26  1  0.53990000  0.00013000  0.84473000  1.0
  H  H27  1  0.96010000  0.49987000  0.34472000  1.0
  H  H28  1  0.37549000  0.12755000  0.23452000  1.0
  H  H29  1  0.12451000  0.37244000  0.73452000  1.0
  H  H30  1  0.62451000  0.87244000  0.76548000  1.0
  H  H31  1  0.87549000  0.62755000  0.26548000  1.0
  H  H32  1  0.36111000  0.68444000  0.71243000  1.0
  H  H33  1  0.13890000  0.81556000  0.21243000  1.0
  H  H34  1  0.63890000  0.31556000  0.28757000  1.0
  H  H35  1  0.86110000  0.18444000  0.78758000  1.0
  H  H36  1  0.42120000  0.84072000  0.59008000  1.0
  H  H37  1  0.07880000  0.65928000  0.09008000  1.0
  H  H38  1  0.57881000  0.15928000  0.40992000  1.0
  H  H39  1  0.92120000  0.34072000  0.90992000  1.0
  H  H40  1  0.90766000  0.88974000  0.71085000  1.0
  H  H41  1  0.59234000  0.61026000  0.21085000  1.0
  H  H42  1  0.09234000  0.11026000  0.28915000  1.0
  H  H43  1  0.40766000  0.38974000  0.78915000  1.0
  H  H44  1  0.98629000  0.04226000  0.59469000  1.0
  H  H45  1  0.51371000  0.45774000  0.09469000  1.0
  H  H46  1  0.01371000  0.95774000  0.40531000  1.0
  H  H47  1  0.48629000  0.54226000  0.90531000  1.0
  C  C48  1  0.17914000  0.08807000  0.84249000  1.0
  C  C49  1  0.32085000  0.41192000  0.34249000  1.0
  C  C50  1  0.82085000  0.91192000  0.15751000  1.0
  C  C51  1  0.67914000  0.58808000  0.65751000  1.0
  C  C52  1  0.22758000  0.16864000  0.92241000  1.0
  C  C53  1  0.27242000  0.33137000  0.42241000  1.0
  C  C54  1  0.77242000  0.83136000  0.07759000  1.0
  C  C55  1  0.72758000  0.66864000  0.57759000  1.0
  C  C56  1  0.30275000  0.11057000  0.00581000  1.0
  C  C57  1  0.19725000  0.38942000  0.50581000  1.0
  C  C58  1  0.69725000  0.88941000  0.99419000  1.0
  C  C59  1  0.80275000  0.61057000  0.49419000  1.0
  C  C60  1  0.36344000  0.17487000  0.08096000  1.0
  C  C61  1  0.13656000  0.32514000  0.58096000  1.0
  C  C62  1  0.63656000  0.82512000  0.91904000  1.0
  C  C63  1  0.86344000  0.67488000  0.41904000  1.0
  C  C64  1  0.44186000  0.10215000  0.16690000  1.0
  C  C65  1  0.05815000  0.39784000  0.66690000  1.0
  C  C66  1  0.55815000  0.89784000  0.83310000  1.0
  C  C67  1  0.94186000  0.60216000  0.33310000  1.0
  C  C68  1  0.09533000  0.68843000  0.79720000  1.0
  C  C69  1  0.40466000  0.81158000  0.29721000  1.0
  C  C70  1  0.90467000  0.31157000  0.20279000  1.0
  C  C71  1  0.59533000  0.18843000  0.70279000  1.0
  C  C72  1  0.12961000  0.77438000  0.72171000  1.0
  C  C73  1  0.37038000  0.72561000  0.22170000  1.0
  C  C74  1  0.87039000  0.22562000  0.27829000  1.0
  C  C75  1  0.62961000  0.27439000  0.77829000  1.0
  C  C76  1  0.27497000  0.76100000  0.68557000  1.0
  C  C77  1  0.22503000  0.73900000  0.18558000  1.0
  C  C78  1  0.72503000  0.23900000  0.31443000  1.0
  C  C79  1  0.77497000  0.26100000  0.81443000  1.0
  C  C80  1  0.30855000  0.84782000  0.61799000  1.0
  C  C81  1  0.19146000  0.65218000  0.11799000  1.0
  C  C82  1  0.69147000  0.15218000  0.38200000  1.0
  C  C83  1  0.80854000  0.34782000  0.88201000  1.0
  C  C84  1  0.02240000  0.87514000  0.68590000  1.0
  C  C85  1  0.47761000  0.62487000  0.18591000  1.0
  C  C86  1  0.97760000  0.12487000  0.31410000  1.0
  C  C87  1  0.52240000  0.37513000  0.81409000  1.0
  C  C88  1  0.06560000  0.95965000  0.61976000  1.0
  C  C89  1  0.43440000  0.54035000  0.11976000  1.0
  C  C90  1  0.93440000  0.04036000  0.38024000  1.0
  C  C91  1  0.56561000  0.45965000  0.88024000  1.0
  N  N92  1  0.12299000  0.54982000  0.90942000  1.0
  N  N93  1  0.37703000  0.95016000  0.40941000  1.0
  N  N94  1  0.87702000  0.45017000  0.09059000  1.0
  N  N95  1  0.62299000  0.04982000  0.59057000  1.0
  N  N96  1  0.97712000  0.59533000  0.89942000  1.0
  N  N97  1  0.52288000  0.90468000  0.39942000  1.0
  N  N98  1  0.02287000  0.40468000  0.10058000  1.0
  N  N99  1  0.47713000  0.09533000  0.60057000  1.0
  N  N100  1  0.20011000  0.60586000  0.84645000  1.0
  N  N101  1  0.29989000  0.89413000  0.34645000  1.0
  N  N102  1  0.79989000  0.39413000  0.15355000  1.0
  N  N103  1  0.70010000  0.10586000  0.65355000  1.0
  N  N104  1  0.95738000  0.68320000  0.82917000  1.0
  N  N105  1  0.54260000  0.81682000  0.32918000  1.0
  N  N106  1  0.04261000  0.31681000  0.17083000  1.0
  N  N107  1  0.45738000  0.18320000  0.67083000  1.0
  N  N108  1  0.20603000  0.94689000  0.58649000  1.0
  N  N109  1  0.29397000  0.55310000  0.08649000  1.0
  N  N110  1  0.79397000  0.05310000  0.41351000  1.0
  N  N111  1  0.70603000  0.44690000  0.91351000  1.0
  O  O112  1  0.35896000  0.29457000  0.08339000  1.0
  O  O113  1  0.14105000  0.20543000  0.58338000  1.0
  O  O114  1  0.64104000  0.70545000  0.91662000  1.0
  O  O115  1  0.85896000  0.79457000  0.41661000  1.0
  O  O116  1  0.19340000  0.28864000  0.90700000  1.0
  O  O117  1  0.30659000  0.21136000  0.40701000  1.0
  O  O118  1  0.80659000  0.71138000  0.09299000  1.0
  O  O119  1  0.69340000  0.78864000  0.59300000  1.0
