# generated using pymatgen
data_Co3H32C42(NO7)2
_symmetry_space_group_name_H-M   'P 1'
_cell_length_a   10.81470000
_cell_length_b   10.81450000
_cell_length_c   21.16280000
_cell_angle_alpha   95.64070000
_cell_angle_beta   95.64030000
_cell_angle_gamma   107.02200000
_symmetry_Int_Tables_number   1
_chemical_formula_structural   Co3H32C42(NO7)2
_chemical_formula_sum   'Co6 H64 C84 N4 O28'
_cell_volume   2334.12955517
_cell_formula_units_Z   2
loop_
 _symmetry_equiv_pos_site_id
 _symmetry_equiv_pos_as_xyz
  1  'x, y, z'
loop_
 _atom_site_type_symbol
 _atom_site_label
 _atom_site_symmetry_multiplicity
 _atom_site_fract_x
 _atom_site_fract_y
 _atom_site_fract_z
 _atom_site_occupancy
  Co  Co0  1  0.02646000  0.49645000  0.80695000  1.0
  Co  Co1  1  0.50353000  0.97355000  0.69305000  1.0
  Co  Co2  1  0.97358000  0.50350000  0.19307000  1.0
  Co  Co3  1  0.49648000  0.02647000  0.30693000  1.0
  Co  Co4  1  0.24540000  0.75458000  0.75000000  1.0
  Co  Co5  1  0.75460000  0.24541000  0.25000000  1.0
  H  H6  1  0.05379000  0.67775000  0.61181000  1.0
  H  H7  1  0.05415000  0.76964000  0.50816000  1.0
  H  H8  1  0.03650000  0.73780000  0.38931000  1.0
  H  H9  1  0.26555000  0.03606000  0.53468000  1.0
  H  H10  1  0.19847000  0.07597000  0.42372000  1.0
  H  H11  1  0.54547000  0.74411000  0.89250000  1.0
  H  H12  1  0.26906000  0.38177000  0.91707000  1.0
  H  H13  1  0.31119000  0.26518000  0.00957000  1.0
  H  H14  1  0.75743000  0.28571000  0.81179000  1.0
  H  H15  1  0.57227000  0.25879000  0.84709000  1.0
  H  H16  1  0.56417000  0.25976000  0.93106000  1.0
  H  H17  1  0.58245000  0.40697000  0.89625000  1.0
  H  H18  1  0.97419000  0.90388000  0.65778000  1.0
  H  H19  1  0.79826000  0.49794000  0.98252000  1.0
  H  H20  1  0.77711000  0.33902000  0.00481000  1.0
  H  H21  1  0.92010000  0.41888000  0.97038000  1.0
  H  H22  1  0.32221000  0.94622000  0.88819000  1.0
  H  H23  1  0.23033000  0.94584000  0.99184000  1.0
  H  H24  1  0.26217000  0.96349000  0.11068000  1.0
  H  H25  1  0.96393000  0.73444000  0.96532000  1.0
  H  H26  1  0.92403000  0.80151000  0.07628000  1.0
  H  H27  1  0.25591000  0.45451000  0.60751000  1.0
  H  H28  1  0.61823000  0.73094000  0.58294000  1.0
  H  H29  1  0.73482000  0.68882000  0.49044000  1.0
  H  H30  1  0.71431000  0.24259000  0.68822000  1.0
  H  H31  1  0.74124000  0.42775000  0.65292000  1.0
  H  H32  1  0.74027000  0.43584000  0.56894000  1.0
  H  H33  1  0.59305000  0.41758000  0.60376000  1.0
  H  H34  1  0.09610000  0.02579000  0.84222000  1.0
  H  H35  1  0.50207000  0.20176000  0.51749000  1.0
  H  H36  1  0.66099000  0.22290000  0.49520000  1.0
  H  H37  1  0.58112000  0.07991000  0.52962000  1.0
  H  H38  1  0.94621000  0.32223000  0.38819000  1.0
  H  H39  1  0.94583000  0.23035000  0.49187000  1.0
  H  H40  1  0.96352000  0.26221000  0.61070000  1.0
  H  H41  1  0.73443000  0.96391000  0.46533000  1.0
  H  H42  1  0.80150000  0.92401000  0.57627000  1.0
  H  H43  1  0.45455000  0.25591000  0.10750000  1.0
  H  H44  1  0.73097000  0.61823000  0.08293000  1.0
  H  H45  1  0.68882000  0.73485000  0.99044000  1.0
  H  H46  1  0.24263000  0.71427000  0.18824000  1.0
  H  H47  1  0.42777000  0.74122000  0.15292000  1.0
  H  H48  1  0.43585000  0.74024000  0.06895000  1.0
  H  H49  1  0.41760000  0.59303000  0.10376000  1.0
  H  H50  1  0.02577000  0.09609000  0.34222000  1.0
  H  H51  1  0.20174000  0.50206000  0.01749000  1.0
  H  H52  1  0.22289000  0.66098000  0.99521000  1.0
  H  H53  1  0.07991000  0.58112000  0.02965000  1.0
  H  H54  1  0.67774000  0.05381000  0.11180000  1.0
  H  H55  1  0.76960000  0.05419000  0.00813000  1.0
  H  H56  1  0.73776000  0.03652000  0.88929000  1.0
  H  H57  1  0.03609000  0.26557000  0.03467000  1.0
  H  H58  1  0.07598000  0.19848000  0.92373000  1.0
  H  H59  1  0.74407000  0.54550000  0.39249000  1.0
  H  H60  1  0.38176000  0.26907000  0.41705000  1.0
  H  H61  1  0.26517000  0.31119000  0.50956000  1.0
  H  H62  1  0.28565000  0.75741000  0.31178000  1.0
  H  H63  1  0.25874000  0.57225000  0.34710000  1.0
  H  H64  1  0.25972000  0.56418000  0.43107000  1.0
  H  H65  1  0.40692000  0.58243000  0.39625000  1.0
  H  H66  1  0.90392000  0.97422000  0.15779000  1.0
  H  H67  1  0.49794000  0.79826000  0.48250000  1.0
  H  H68  1  0.33904000  0.77713000  0.50481000  1.0
  H  H69  1  0.41889000  0.92012000  0.47037000  1.0
  C  C70  1  0.01580000  0.56444000  0.51721000  1.0
  C  C71  1  0.02885000  0.58040000  0.58494000  1.0
  C  C72  1  0.01421000  0.49045000  0.68824000  1.0
  C  C73  1  0.03261000  0.67232000  0.48200000  1.0
  C  C74  1  0.00849000  0.47282000  0.61779000  1.0
  C  C75  1  0.02250000  0.65486000  0.41619000  1.0
  C  C76  1  0.06703000  0.01733000  0.49425000  1.0
  C  C77  1  0.22840000  0.94147000  0.64815000  1.0
  C  C78  1  0.16378000  0.01119000  0.54313000  1.0
  C  C79  1  0.13025000  0.96824000  0.60052000  1.0
  C  C80  1  0.09767000  0.05473000  0.43367000  1.0
  C  C81  1  0.43984000  0.44874000  0.98947000  1.0
  C  C82  1  0.51887000  0.66257000  0.92001000  1.0
  C  C83  1  0.39880000  0.56263000  0.89976000  1.0
  C  C84  1  0.36170000  0.45728000  0.93358000  1.0
  C  C85  1  0.30616000  0.57582000  0.84533000  1.0
  C  C86  1  0.40251000  0.34306000  0.02580000  1.0
  C  C87  1  0.81759000  0.33166000  0.85797000  1.0
  C  C88  1  0.60883000  0.31620000  0.89437000  1.0
  C  C89  1  0.99787000  0.93623000  0.61205000  1.0
  C  C90  1  0.81561000  0.40407000  0.96986000  1.0
  C  C91  1  0.43551000  0.98422000  0.98279000  1.0
  C  C92  1  0.41956000  0.97118000  0.91506000  1.0
  C  C93  1  0.50951000  0.98581000  0.81175000  1.0
  C  C94  1  0.32764000  0.96740000  0.01800000  1.0
  C  C95  1  0.52713000  0.99154000  0.88220000  1.0
  C  C96  1  0.34511000  0.97749000  0.08381000  1.0
  C  C97  1  0.98265000  0.93295000  0.00573000  1.0
  C  C98  1  0.05850000  0.77157000  0.85185000  1.0
  C  C99  1  0.98880000  0.83620000  0.95687000  1.0
  C  C100  1  0.03174000  0.86972000  0.89948000  1.0
  C  C101  1  0.94527000  0.90231000  0.06633000  1.0
  C  C102  1  0.55126000  0.56017000  0.51053000  1.0
  C  C103  1  0.33744000  0.48112000  0.58000000  1.0
  C  C104  1  0.43737000  0.60119000  0.60024000  1.0
  C  C105  1  0.54272000  0.63831000  0.56642000  1.0
  C  C106  1  0.42418000  0.69382000  0.65468000  1.0
  C  C107  1  0.65693000  0.59751000  0.47420000  1.0
  C  C108  1  0.66836000  0.18243000  0.64204000  1.0
  C  C109  1  0.68383000  0.39120000  0.60564000  1.0
  C  C110  1  0.06375000  0.00210000  0.88794000  1.0
  C  C111  1  0.59594000  0.18440000  0.53015000  1.0
  C  C112  1  0.98419000  0.43547000  0.48281000  1.0
  C  C113  1  0.97116000  0.41955000  0.41508000  1.0
  C  C114  1  0.98578000  0.50949000  0.31174000  1.0
  C  C115  1  0.96740000  0.32764000  0.51802000  1.0
  C  C116  1  0.99152000  0.52712000  0.38221000  1.0
  C  C117  1  0.97750000  0.34511000  0.58382000  1.0
  C  C118  1  0.93296000  0.98264000  0.50574000  1.0
  C  C119  1  0.77155000  0.05851000  0.35184000  1.0
  C  C120  1  0.83621000  0.98879000  0.45688000  1.0
  C  C121  1  0.86972000  0.03174000  0.39948000  1.0
  C  C122  1  0.90231000  0.94527000  0.56633000  1.0
  C  C123  1  0.56016000  0.55127000  0.01053000  1.0
  C  C124  1  0.48115000  0.33745000  0.07999000  1.0
  C  C125  1  0.60122000  0.43737000  0.10023000  1.0
  C  C126  1  0.63832000  0.54272000  0.06642000  1.0
  C  C127  1  0.69388000  0.42413000  0.15465000  1.0
  C  C128  1  0.59750000  0.65695000  0.97420000  1.0
  C  C129  1  0.18245000  0.66834000  0.14206000  1.0
  C  C130  1  0.39121000  0.68380000  0.10564000  1.0
  C  C131  1  0.00208000  0.06373000  0.38794000  1.0
  C  C132  1  0.18440000  0.59594000  0.03016000  1.0
  C  C133  1  0.56447000  0.01583000  0.01719000  1.0
  C  C134  1  0.58040000  0.02887000  0.08492000  1.0
  C  C135  1  0.49049000  0.01423000  0.18825000  1.0
  C  C136  1  0.67232000  0.03263000  0.98197000  1.0
  C  C137  1  0.47284000  0.00848000  0.11778000  1.0
  C  C138  1  0.65485000  0.02252000  0.91618000  1.0
  C  C139  1  0.01734000  0.06702000  0.99424000  1.0
  C  C140  1  0.94153000  0.22845000  0.14817000  1.0
  C  C141  1  0.01120000  0.16378000  0.04312000  1.0
  C  C142  1  0.96827000  0.13028000  0.10052000  1.0
  C  C143  1  0.05472000  0.09768000  0.93366000  1.0
  C  C144  1  0.44874000  0.43985000  0.48947000  1.0
  C  C145  1  0.66254000  0.51890000  0.42000000  1.0
  C  C146  1  0.56262000  0.39882000  0.39975000  1.0
  C  C147  1  0.45727000  0.36171000  0.43357000  1.0
  C  C148  1  0.57584000  0.30618000  0.34531000  1.0
  C  C149  1  0.34306000  0.40251000  0.52580000  1.0
  C  C150  1  0.33163000  0.81760000  0.35796000  1.0
  C  C151  1  0.31616000  0.60882000  0.39437000  1.0
  C  C152  1  0.93627000  0.99790000  0.11206000  1.0
  C  C153  1  0.40407000  0.81562000  0.46985000  1.0
  N  N154  1  0.74997000  0.34609000  0.90587000  1.0
  N  N155  1  0.65393000  0.25005000  0.59413000  1.0
  N  N156  1  0.25007000  0.65391000  0.09415000  1.0
  N  N157  1  0.34606000  0.74996000  0.40586000  1.0
  O  O158  1  0.07840000  0.59810000  0.72289000  1.0
  O  O159  1  0.18204000  0.85900000  0.68474000  1.0
  O  O160  1  0.95043000  0.39764000  0.71720000  1.0
  O  O161  1  0.19727000  0.48332000  0.83326000  1.0
  O  O162  1  0.94085000  0.36578000  0.86396000  1.0
  O  O163  1  0.33829000  0.67747000  0.81833000  1.0
  O  O164  1  0.35010000  0.99955000  0.64584000  1.0
  O  O165  1  0.40185000  0.92158000  0.77711000  1.0
  O  O166  1  0.14094000  0.81793000  0.81524000  1.0
  O  O167  1  0.60235000  0.04958000  0.78280000  1.0
  O  O168  1  0.51667000  0.80273000  0.66673000  1.0
  O  O169  1  0.63423000  0.05917000  0.63604000  1.0
  O  O170  1  0.32255000  0.66168000  0.68170000  1.0
  O  O171  1  0.00048000  0.64987000  0.85416000  1.0
  O  O172  1  0.92156000  0.40178000  0.27713000  1.0
  O  O173  1  0.81789000  0.14099000  0.31525000  1.0
  O  O174  1  0.04957000  0.60241000  0.28283000  1.0
  O  O175  1  0.80280000  0.51661000  0.16668000  1.0
  O  O176  1  0.05921000  0.63427000  0.13607000  1.0
  O  O177  1  0.66174000  0.32254000  0.18170000  1.0
  O  O178  1  0.64986000  0.00044000  0.35415000  1.0
  O  O179  1  0.59820000  0.07843000  0.22287000  1.0
  O  O180  1  0.85901000  0.18210000  0.18475000  1.0
  O  O181  1  0.39760000  0.95045000  0.21718000  1.0
  O  O182  1  0.48335000  0.19728000  0.33326000  1.0
  O  O183  1  0.36576000  0.94085000  0.36394000  1.0
  O  O184  1  0.67747000  0.33831000  0.31829000  1.0
  O  O185  1  0.99967000  0.35013000  0.14585000  1.0
