# generated using pymatgen
data_AgH11C13N2O3
_symmetry_space_group_name_H-M   'P 1'
_cell_length_a   7.19670000
_cell_length_b   10.72900000
_cell_length_c   16.61120000
_cell_angle_alpha   107.80300000
_cell_angle_beta   89.99960000
_cell_angle_gamma   90.00000000
_symmetry_Int_Tables_number   1
_chemical_formula_structural   AgH11C13N2O3
_chemical_formula_sum   'Ag4 H44 C52 N8 O12'
_cell_volume   1221.18742162
_cell_formula_units_Z   4
loop_
 _symmetry_equiv_pos_site_id
 _symmetry_equiv_pos_as_xyz
  1  'x, y, z'
loop_
 _atom_site_type_symbol
 _atom_site_label
 _atom_site_symmetry_multiplicity
 _atom_site_fract_x
 _atom_site_fract_y
 _atom_site_fract_z
 _atom_site_occupancy
  Ag  Ag0  1  0.21368000  0.95127000  0.83557000  1.0
  Ag  Ag1  1  0.71367000  0.04872000  0.66442000  1.0
  Ag  Ag2  1  0.78633000  0.04872000  0.16442000  1.0
  Ag  Ag3  1  0.28633000  0.95129000  0.33557000  1.0
  H  H4  1  0.04074000  0.69843000  0.84002000  1.0
  H  H5  1  0.54075000  0.30158000  0.65999000  1.0
  H  H6  1  0.95924000  0.30158000  0.15999000  1.0
  H  H7  1  0.45924000  0.69842000  0.34001000  1.0
  H  H8  1  0.97640000  0.56982000  0.93913000  1.0
  H  H9  1  0.47640000  0.43020000  0.56088000  1.0
  H  H10  1  0.02358000  0.43020000  0.06088000  1.0
  H  H11  1  0.52358000  0.56981000  0.43911000  1.0
  H  H12  1  0.05621000  0.67148000  0.09371000  1.0
  H  H13  1  0.55620000  0.32853000  0.40630000  1.0
  H  H14  1  0.94379000  0.32853000  0.90630000  1.0
  H  H15  1  0.44379000  0.67147000  0.59370000  1.0
  H  H16  1  0.19740000  0.89241000  0.13986000  1.0
  H  H17  1  0.69739000  0.10760000  0.36014000  1.0
  H  H18  1  0.80261000  0.10760000  0.86014000  1.0
  H  H19  1  0.30261000  0.89240000  0.63985000  1.0
  H  H20  1  0.28828000  0.08595000  0.98471000  1.0
  H  H21  1  0.78829000  0.91405000  0.51529000  1.0
  H  H22  1  0.71173000  0.91405000  0.01529000  1.0
  H  H23  1  0.21173000  0.08596000  0.48471000  1.0
  H  H24  1  0.33189000  0.06777000  0.16569000  1.0
  H  H25  1  0.83191000  0.93223000  0.33431000  1.0
  H  H26  1  0.66811000  0.93223000  0.83431000  1.0
  H  H27  1  0.16810000  0.06776000  0.66569000  1.0
  H  H28  1  0.49572000  0.22702000  0.26245000  1.0
  H  H29  1  0.99574000  0.77298000  0.23755000  1.0
  H  H30  1  0.50427000  0.77297000  0.73754000  1.0
  H  H31  1  0.00427000  0.22702000  0.76245000  1.0
  H  H32  1  0.66590000  0.43993000  0.30837000  1.0
  H  H33  1  0.16590000  0.56006000  0.19162000  1.0
  H  H34  1  0.33410000  0.56006000  0.69163000  1.0
  H  H35  1  0.83410000  0.43993000  0.80837000  1.0
  H  H36  1  0.67386000  0.58101000  0.21420000  1.0
  H  H37  1  0.17387000  0.41899000  0.28580000  1.0
  H  H38  1  0.32613000  0.41898000  0.78580000  1.0
  H  H39  1  0.82613000  0.58101000  0.71420000  1.0
  H  H40  1  0.52310000  0.50755000  0.07395000  1.0
  H  H41  1  0.02310000  0.49245000  0.42605000  1.0
  H  H42  1  0.47690000  0.49245000  0.92605000  1.0
  H  H43  1  0.97690000  0.50755000  0.57395000  1.0
  H  H44  1  0.36930000  0.29062000  0.02398000  1.0
  H  H45  1  0.86930000  0.70938000  0.47602000  1.0
  H  H46  1  0.63071000  0.70938000  0.97602000  1.0
  H  H47  1  0.13070000  0.29062000  0.52398000  1.0
  C  C48  1  0.07376000  0.73785000  0.90704000  1.0
  C  C49  1  0.57376000  0.26216000  0.59296000  1.0
  C  C50  1  0.92624000  0.26215000  0.09296000  1.0
  C  C51  1  0.42624000  0.73784000  0.40703000  1.0
  C  C52  1  0.03851000  0.66666667  0.96262000  1.0
  C  C53  1  0.53851000  0.33333333  0.53739000  1.0
  C  C54  1  0.96149000  0.33333333  0.03739000  1.0
  C  C55  1  0.46148000  0.66666667  0.46261000  1.0
  C  C56  1  0.08364000  0.72295000  0.04770000  1.0
  C  C57  1  0.58364000  0.27706000  0.45231000  1.0
  C  C58  1  0.91635000  0.27706000  0.95231000  1.0
  C  C59  1  0.41636000  0.72294000  0.54769000  1.0
  C  C60  1  0.16238000  0.84685000  0.07370000  1.0
  C  C61  1  0.66238000  0.15315000  0.42631000  1.0
  C  C62  1  0.83762000  0.15315000  0.92630000  1.0
  C  C63  1  0.33761000  0.84685000  0.57369000  1.0
  C  C64  1  0.19654000  0.91421000  0.01463000  1.0
  C  C65  1  0.69655000  0.08580000  0.48537000  1.0
  C  C66  1  0.80347000  0.08579000  0.98537000  1.0
  C  C67  1  0.30346000  0.91421000  0.51463000  1.0
  C  C68  1  0.27824000  0.04423000  0.03713000  1.0
  C  C69  1  0.77824000  0.95577000  0.46287000  1.0
  C  C70  1  0.72177000  0.95576000  0.96287000  1.0
  C  C71  1  0.22177000  0.04424000  0.53713000  1.0
  C  C72  1  0.33973000  0.11278000  0.11500000  1.0
  C  C73  1  0.83973000  0.88722000  0.38500000  1.0
  C  C74  1  0.66027000  0.88721000  0.88500000  1.0
  C  C75  1  0.16027000  0.11278000  0.61500000  1.0
  C  C76  1  0.42243000  0.24273000  0.14003000  1.0
  C  C77  1  0.92243000  0.75726000  0.35997000  1.0
  C  C78  1  0.57757000  0.75726000  0.85996000  1.0
  C  C79  1  0.07756000  0.24273000  0.64003000  1.0
  C  C80  1  0.50440000  0.28841000  0.22090000  1.0
  C  C81  1  0.00440000  0.71159000  0.27910000  1.0
  C  C82  1  0.49560000  0.71158000  0.77909000  1.0
  C  C83  1  0.99559000  0.28841000  0.72090000  1.0
  C  C84  1  0.59577000  0.40862000  0.24733000  1.0
  C  C85  1  0.09577000  0.59137000  0.25267000  1.0
  C  C86  1  0.40423000  0.59137000  0.75267000  1.0
  C  C87  1  0.90423000  0.40862000  0.74733000  1.0
  C  C88  1  0.60231000  0.48726000  0.19430000  1.0
  C  C89  1  0.10231000  0.51274000  0.30570000  1.0
  C  C90  1  0.39769000  0.51274000  0.80570000  1.0
  C  C91  1  0.89769000  0.48726000  0.69430000  1.0
  C  C92  1  0.51816000  0.44465000  0.11453000  1.0
  C  C93  1  0.01817000  0.55535000  0.38547000  1.0
  C  C94  1  0.48184000  0.55535000  0.88547000  1.0
  C  C95  1  0.98183000  0.44465000  0.61453000  1.0
  C  C96  1  0.43046000  0.32344000  0.08705000  1.0
  C  C97  1  0.93047000  0.67656000  0.41295000  1.0
  C  C98  1  0.56954000  0.67656000  0.91295000  1.0
  C  C99  1  0.06953000  0.32344000  0.58705000  1.0
  N  N100  1  0.15023000  0.85798000  0.93183000  1.0
  N  N101  1  0.65024000  0.14203000  0.56817000  1.0
  N  N102  1  0.84976000  0.14202000  0.06817000  1.0
  N  N103  1  0.34977000  0.85798000  0.43183000  1.0
  N  N104  1  0.43493000  0.16781000  0.80996000  1.0
  N  N105  1  0.93493000  0.83219000  0.69004000  1.0
  N  N106  1  0.56507000  0.83219000  0.19004000  1.0
  N  N107  1  0.06507000  0.16782000  0.30996000  1.0
  O  O108  1  0.31952000  0.21814000  0.86706000  1.0
  O  O109  1  0.81952000  0.78185000  0.63295000  1.0
  O  O110  1  0.68049000  0.78185000  0.13295000  1.0
  O  O111  1  0.18048000  0.21816000  0.36706000  1.0
  O  O112  1  0.56346000  0.23194000  0.78998000  1.0
  O  O113  1  0.06346000  0.76806000  0.71002000  1.0
  O  O114  1  0.43654000  0.76806000  0.21002000  1.0
  O  O115  1  0.93653000  0.23194000  0.28998000  1.0
  O  O116  1  0.42309000  0.04289000  0.76892000  1.0
  O  O117  1  0.92309000  0.95710000  0.73108000  1.0
  O  O118  1  0.57691000  0.95710000  0.23108000  1.0
  O  O119  1  0.07691000  0.04290000  0.26892000  1.0
