# generated using pymatgen
data_ZnH8C18N(O2F)2
_symmetry_space_group_name_H-M   'P 1'
_cell_length_a   13.97540000
_cell_length_b   15.30430000
_cell_length_c   16.23640000
_cell_angle_alpha   89.73270000
_cell_angle_beta   89.98300000
_cell_angle_gamma   89.98460000
_symmetry_Int_Tables_number   1
_chemical_formula_structural   ZnH8C18N(O2F)2
_chemical_formula_sum   'Zn2 H16 C36 N2 O8 F4'
_cell_volume   3472.66346947
_cell_formula_units_Z   2
loop_
 _symmetry_equiv_pos_site_id
 _symmetry_equiv_pos_as_xyz
  1  'x, y, z'
loop_
 _atom_site_type_symbol
 _atom_site_label
 _atom_site_symmetry_multiplicity
 _atom_site_fract_x
 _atom_site_fract_y
 _atom_site_fract_z
 _atom_site_occupancy
  Zn  Zn0  1  0.60037000  0.49988000  0.49996000  1.0
  Zn  Zn1  1  0.39950000  0.49993000  0.50003000  1.0
  H  H2  1  0.64518000  0.05826000  0.54683000  1.0
  H  H3  1  0.35654000  0.93904000  0.54599000  1.0
  H  H4  1  0.64522000  0.94150000  0.45317000  1.0
  H  H5  1  0.35654000  0.06085000  0.45400000  1.0
  H  H6  1  0.64634000  0.22104000  0.54567000  1.0
  H  H7  1  0.35788000  0.77604000  0.54406000  1.0
  H  H8  1  0.64640000  0.77871000  0.45430000  1.0
  H  H9  1  0.35789000  0.22385000  0.45594000  1.0
  H  H10  1  0.06847000  0.43205000  0.61732000  1.0
  H  H11  1  0.93149000  0.62677000  0.44057000  1.0
  H  H12  1  0.06852000  0.56781000  0.38272000  1.0
  H  H13  1  0.93154000  0.37309000  0.55945000  1.0
  H  H14  1  0.24756000  0.43539000  0.61216000  1.0
  H  H15  1  0.75224000  0.62083000  0.44308000  1.0
  H  H16  1  0.24761000  0.56446000  0.38789000  1.0
  H  H17  1  0.75228000  0.37899000  0.55691000  1.0
  C  C18  1  0.50317000  0.33016000  0.50068000  1.0
  C  C19  1  0.50317000  0.66966000  0.49930000  1.0
  C  C20  1  0.50080000  0.04808000  0.50034000  1.0
  C  C21  1  0.50080000  0.95174000  0.49964000  1.0
  C  C22  1  0.10481000  0.46148000  0.56468000  1.0
  C  C23  1  0.89513000  0.56988000  0.46629000  1.0
  C  C24  1  0.10483000  0.53836000  0.43536000  1.0
  C  C25  1  0.89515000  0.42996000  0.53373000  1.0
  C  C26  1  0.20418000  0.46310000  0.56268000  1.0
  C  C27  1  0.79578000  0.56758000  0.46758000  1.0
  C  C28  1  0.20421000  0.53675000  0.43737000  1.0
  C  C29  1  0.79580000  0.43224000  0.53241000  1.0
  C  C30  1  0.05285000  0.49993000  0.50003000  1.0
  C  C31  1  0.94718000  0.49993000  0.50002000  1.0
  C  C32  1  0.49634000  0.49884000  0.66102000  1.0
  C  C33  1  0.49634000  0.50108000  0.33897000  1.0
  C  C34  1  0.58457000  0.49986000  0.04274000  1.0
  C  C35  1  0.41236000  0.50076000  0.95727000  1.0
  C  C36  1  0.58457000  0.49968000  0.95724000  1.0
  C  C37  1  0.41236000  0.50128000  0.04274000  1.0
  C  C38  1  0.49844000  0.50067000  0.08809000  1.0
  C  C39  1  0.49848000  0.49995000  0.91191000  1.0
  C  C40  1  0.49812000  0.50090000  0.17476000  1.0
  C  C41  1  0.49817000  0.49950000  0.82523000  1.0
  C  C42  1  0.49710000  0.49909000  0.75025000  1.0
  C  C43  1  0.49708000  0.50104000  0.24974000  1.0
  C  C44  1  0.58252000  0.09439000  0.52553000  1.0
  C  C45  1  0.41970000  0.90402000  0.52444000  1.0
  C  C46  1  0.58256000  0.90538000  0.47447000  1.0
  C  C47  1  0.41970000  0.09584000  0.47554000  1.0
  C  C48  1  0.58326000  0.18521000  0.52561000  1.0
  C  C49  1  0.42034000  0.81312000  0.52415000  1.0
  C  C50  1  0.58329000  0.81457000  0.47437000  1.0
  C  C51  1  0.42034000  0.18673000  0.47583000  1.0
  C  C52  1  0.50221000  0.23241000  0.50079000  1.0
  C  C53  1  0.50223000  0.76741000  0.49919000  1.0
  N  N54  1  0.25288000  0.49993000  0.50003000  1.0
  N  N55  1  0.74705000  0.49990000  0.49998000  1.0
  O  O56  1  0.58288000  0.36772000  0.51547000  1.0
  O  O57  1  0.42434000  0.63086000  0.51435000  1.0
  O  O58  1  0.58288000  0.63206000  0.48447000  1.0
  O  O59  1  0.42434000  0.36900000  0.48567000  1.0
  O  O60  1  0.57593000  0.51398000  0.62590000  1.0
  O  O61  1  0.41601000  0.51630000  0.37308000  1.0
  O  O62  1  0.57594000  0.48584000  0.37402000  1.0
  O  O63  1  0.41601000  0.48358000  0.62699000  1.0
  F  F64  1  0.66878000  0.49902000  0.91676000  1.0
  F  F65  1  0.32813000  0.50216000  0.08324000  1.0
  F  F66  1  0.66876000  0.49938000  0.08319000  1.0
  F  F67  1  0.32815000  0.50120000  0.91678000  1.0
