# generated using pymatgen
data_CdH30C34N6(ClO2)2
_symmetry_space_group_name_H-M   'P 1'
_cell_length_a   4.96805000
_cell_length_b   12.04903150
_cell_length_c   15.69350000
_cell_angle_alpha   93.86192875
_cell_angle_beta   99.11040000
_cell_angle_gamma   101.90012505
_symmetry_Int_Tables_number   1
_chemical_formula_structural   CdH30C34N6(ClO2)2
_chemical_formula_sum   'Cd1 H30 C34 N6 Cl2 O4'
_cell_volume   902.75560999
_cell_formula_units_Z   1
loop_
 _symmetry_equiv_pos_site_id
 _symmetry_equiv_pos_as_xyz
  1  'x, y, z'
loop_
 _atom_site_type_symbol
 _atom_site_label
 _atom_site_symmetry_multiplicity
 _atom_site_fract_x
 _atom_site_fract_y
 _atom_site_fract_z
 _atom_site_occupancy
  Cd  Cd0  1  0.62325000  0.00012000  0.99990000  1.0
  H  H1  1  0.74544000  0.75323000  0.95380000  1.0
  H  H2  1  0.03875000  0.24705000  0.04619000  1.0
  H  H3  1  0.97217000  0.65375000  0.85083000  1.0
  H  H4  1  0.46792000  0.34644000  0.14921000  1.0
  H  H5  1  0.13216000  0.96638000  0.72945000  1.0
  H  H6  1  0.43644000  0.03361000  0.27036000  1.0
  H  H7  1  0.91279000  0.05416000  0.84008000  1.0
  H  H8  1  0.01872000  0.94593000  0.15963000  1.0
  H  H9  1  0.42808000  0.90466000  0.67698000  1.0
  H  H10  1  0.84737000  0.09532000  0.32269000  1.0
  H  H11  1  0.55715000  0.60074000  0.54615000  1.0
  H  H12  1  0.41030000  0.39922000  0.45401000  1.0
  H  H13  1  0.00304000  0.57342000  0.73120000  1.0
  H  H14  1  0.69877000  0.42657000  0.26881000  1.0
  H  H15  1  0.18628000  0.74676000  0.44061000  1.0
  H  H16  1  0.99862000  0.25320000  0.55948000  1.0
  H  H17  1  0.24314000  0.73542000  0.26771000  1.0
  H  H18  1  0.23991000  0.26459000  0.73238000  1.0
  H  H19  1  0.25325000  0.86753000  0.32779000  1.0
  H  H20  1  0.05752000  0.13250000  0.67235000  1.0
  H  H21  1  0.75961000  0.76905000  0.30111000  1.0
  H  H22  1  0.68911000  0.23090000  0.69893000  1.0
  H  H23  1  0.69716000  0.90178000  0.27179000  1.0
  H  H24  1  0.52319000  0.09819000  0.72830000  1.0
  H  H25  1  0.00993000  0.89602000  0.43298000  1.0
  H  H26  1  0.68046000  0.10384000  0.56715000  1.0
  H  H27  1  0.74738000  0.97604000  0.42570000  1.0
  H  H28  1  0.34501000  0.02388000  0.57440000  1.0
  H  H29  1  0.95151000  0.57937000  0.38100000  1.0
  H  H30  1  0.99067000  0.42054000  0.61894000  1.0
  C  C31  1  0.83403000  0.79670000  0.90251000  1.0
  C  C32  1  0.13519000  0.20348000  0.09742000  1.0
  C  C33  1  0.95931000  0.74196000  0.84413000  1.0
  C  C34  1  0.37366000  0.25819000  0.15581000  1.0
  C  C35  1  0.07329000  0.80136000  0.77948000  1.0
  C  C36  1  0.49271000  0.19869000  0.22042000  1.0
  C  C37  1  0.05597000  0.91607000  0.77888000  1.0
  C  C38  1  0.36123000  0.08396000  0.22093000  1.0
  C  C39  1  0.92808000  0.96509000  0.83929000  1.0
  C  C40  1  0.12391000  0.03500000  0.16049000  1.0
  C  C41  1  0.20427000  0.74656000  0.71473000  1.0
  C  C42  1  0.74323000  0.25342000  0.28523000  1.0
  C  C43  1  0.38056000  0.81213000  0.66666667  1.0
  C  C44  1  0.90232000  0.18785000  0.33327000  1.0
  C  C45  1  0.49882000  0.76036000  0.60388000  1.0
  C  C46  1  0.13481000  0.23958000  0.39615000  1.0
  C  C47  1  0.45486000  0.64157000  0.59162000  1.0
  C  C48  1  0.22189000  0.35837000  0.40847000  1.0
  C  C49  1  0.27653000  0.57524000  0.63848000  1.0
  C  C50  1  0.06313000  0.42467000  0.36153000  1.0
  C  C51  1  0.15007000  0.62734000  0.69858000  1.0
  C  C52  1  0.82441000  0.37262000  0.30144000  1.0
  C  C53  1  0.67424000  0.83584000  0.55187000  1.0
  C  C54  1  0.28645000  0.16404000  0.44821000  1.0
  C  C55  1  0.36891000  0.74158000  0.41034000  1.0
  C  C56  1  0.21670000  0.25834000  0.58975000  1.0
  C  C57  1  0.35709000  0.79574000  0.32342000  1.0
  C  C58  1  0.23760000  0.20424000  0.67666000  1.0
  C  C59  1  0.66577000  0.84006000  0.31946000  1.0
  C  C60  1  0.50580000  0.15990000  0.68062000  1.0
  C  C61  1  0.78571000  0.89017000  0.41283000  1.0
  C  C62  1  0.48227000  0.10973000  0.58728000  1.0
  C  C63  1  0.37961000  0.61577000  0.39423000  1.0
  C  C64  1  0.36935000  0.38416000  0.60590000  1.0
  N  N65  1  0.81636000  0.90644000  0.89992000  1.0
  N  N66  1  0.01030000  0.09373000  0.09989000  1.0
  N  N67  1  0.62363000  0.81193000  0.46397000  1.0
  N  N68  1  0.34743000  0.18797000  0.53612000  1.0
  N  N69  1  0.12395000  0.54499000  0.37850000  1.0
  N  N70  1  0.20000000  0.45494000  0.62147000  1.0
  Cl  Cl71  1  0.51240000  0.16103000  0.92666000  1.0
  Cl  Cl72  1  0.42504000  0.83920000  0.07319000  1.0
  O  O73  1  0.85936000  0.91943000  0.58762000  1.0
  O  O74  1  0.35204000  0.08039000  0.41253000  1.0
  O  O75  1  0.60166000  0.58370000  0.39301000  1.0
  O  O76  1  0.62479000  0.41626000  0.60728000  1.0
