# generated using pymatgen
data_CdH11C13I2N3
_symmetry_space_group_name_H-M   'P 1'
_cell_length_a   12.88190000
_cell_length_b   16.77800000
_cell_length_c   17.31920000
_cell_angle_alpha   117.66400000
_cell_angle_beta   90.00000000
_cell_angle_gamma   90.00000000
_symmetry_Int_Tables_number   1
_chemical_formula_structural   CdH11C13I2N3
_chemical_formula_sum   'Cd8 H88 C104 I16 N24'
_cell_volume   3315.33551051
_cell_formula_units_Z   8
loop_
 _symmetry_equiv_pos_site_id
 _symmetry_equiv_pos_as_xyz
  1  'x, y, z'
loop_
 _atom_site_type_symbol
 _atom_site_label
 _atom_site_symmetry_multiplicity
 _atom_site_fract_x
 _atom_site_fract_y
 _atom_site_fract_z
 _atom_site_occupancy
  Cd  Cd0  1  0.46453000  0.86936000  0.18943000  1.0
  Cd  Cd1  1  0.96453000  0.63064000  0.81057000  1.0
  Cd  Cd2  1  0.53547000  0.13064000  0.81057000  1.0
  Cd  Cd3  1  0.03547000  0.36936000  0.18943000  1.0
  Cd  Cd4  1  0.52097000  0.54329000  0.26522000  1.0
  Cd  Cd5  1  0.02097000  0.95671000  0.73478000  1.0
  Cd  Cd6  1  0.47903000  0.45671000  0.73478000  1.0
  Cd  Cd7  1  0.97903000  0.04329000  0.26522000  1.0
  H  H8  1  0.66493000  0.79307000  0.22706000  1.0
  H  H9  1  0.16493000  0.70693000  0.77294000  1.0
  H  H10  1  0.33507000  0.20693000  0.77294000  1.0
  H  H11  1  0.83507000  0.29307000  0.22706000  1.0
  H  H12  1  0.77206000  0.65440000  0.17431000  1.0
  H  H13  1  0.27206000  0.84560000  0.82569000  1.0
  H  H14  1  0.22794000  0.34560000  0.82569000  1.0
  H  H15  1  0.72794000  0.15440000  0.17431000  1.0
  H  H16  1  0.57707000  0.53682000  0.94539000  1.0
  H  H17  1  0.07707000  0.96318000  0.05461000  1.0
  H  H18  1  0.42293000  0.46318000  0.05461000  1.0
  H  H19  1  0.92293000  0.03682000  0.94539000  1.0
  H  H20  1  0.47440000  0.67974000  0.00983000  1.0
  H  H21  1  0.97440000  0.82026000  0.99016000  1.0
  H  H22  1  0.52560000  0.32026000  0.99016000  1.0
  H  H23  1  0.02560000  0.17973000  0.00984000  1.0
  H  H24  1  0.70048000  0.43947000  0.00217000  1.0
  H  H25  1  0.20048000  0.06053000  0.99783000  1.0
  H  H26  1  0.29952000  0.56053000  0.99783000  1.0
  H  H27  1  0.79952000  0.93947000  0.00217000  1.0
  H  H28  1  0.77259000  0.48822000  0.94873000  1.0
  H  H29  1  0.27259000  0.01178000  0.05127000  1.0
  H  H30  1  0.22741000  0.51178000  0.05127000  1.0
  H  H31  1  0.72741000  0.98822000  0.94873000  1.0
  H  H32  1  0.80731000  0.38174000  0.07992000  1.0
  H  H33  1  0.30731000  0.11826000  0.92007000  1.0
  H  H34  1  0.19269000  0.61826000  0.92007000  1.0
  H  H35  1  0.69269000  0.88174000  0.07993000  1.0
  H  H36  1  0.89342000  0.65199000  0.03517000  1.0
  H  H37  1  0.39342000  0.84801000  0.96483000  1.0
  H  H38  1  0.10658000  0.34801000  0.96483000  1.0
  H  H39  1  0.60658000  0.15199000  0.03517000  1.0
  H  H40  1  0.05817000  0.73455000  0.09901000  1.0
  H  H41  1  0.55817000  0.76545000  0.90099000  1.0
  H  H42  1  0.94183000  0.26545000  0.90099000  1.0
  H  H43  1  0.44183000  0.23455000  0.09901000  1.0
  H  H44  1  0.17564000  0.68848000  0.18268000  1.0
  H  H45  1  0.67564000  0.81152000  0.81732000  1.0
  H  H46  1  0.82436000  0.31152000  0.81732000  1.0
  H  H47  1  0.32436000  0.18848000  0.18268000  1.0
  H  H48  1  0.13613000  0.55520000  0.20572000  1.0
  H  H49  1  0.63613000  0.94480000  0.79428000  1.0
  H  H50  1  0.86387000  0.44480000  0.79428000  1.0
  H  H51  1  0.36387000  0.05520000  0.20572000  1.0
  H  H52  1  0.57195000  0.75101000  0.36041000  1.0
  H  H53  1  0.07195000  0.74899000  0.63959000  1.0
  H  H54  1  0.42805000  0.24899000  0.63959000  1.0
  H  H55  1  0.92805000  0.25101000  0.36041000  1.0
  H  H56  1  0.71788000  0.85677000  0.39467000  1.0
  H  H57  1  0.21788000  0.64323000  0.60533000  1.0
  H  H58  1  0.28212000  0.14323000  0.60533000  1.0
  H  H59  1  0.78212000  0.35677000  0.39467000  1.0
  H  H60  1  0.92681000  0.62956000  0.31776000  1.0
  H  H61  1  0.42681000  0.87044000  0.68223000  1.0
  H  H62  1  0.07319000  0.37044000  0.68223000  1.0
  H  H63  1  0.57319000  0.12956000  0.31777000  1.0
  H  H64  1  0.77075000  0.53257000  0.28877000  1.0
  H  H65  1  0.27075000  0.96743000  0.71123000  1.0
  H  H66  1  0.22925000  0.46743000  0.71123000  1.0
  H  H67  1  0.72925000  0.03257000  0.28877000  1.0
  H  H68  1  0.00103000  0.77627000  0.35610000  1.0
  H  H69  1  0.50103000  0.72373000  0.64390000  1.0
  H  H70  1  0.99897000  0.22373000  0.64390000  1.0
  H  H71  1  0.49897000  0.27627000  0.35610000  1.0
  H  H72  1  0.92233000  0.84615000  0.32939000  1.0
  H  H73  1  0.42233000  0.65385000  0.67061000  1.0
  H  H74  1  0.07767000  0.15386000  0.67061000  1.0
  H  H75  1  0.57767000  0.34614000  0.32939000  1.0
  H  H76  1  0.02788000  0.81694000  0.51609000  1.0
  H  H77  1  0.52789000  0.68306000  0.48391000  1.0
  H  H78  1  0.97212000  0.18306000  0.48391000  1.0
  H  H79  1  0.47212000  0.31694000  0.51609000  1.0
  H  H80  1  0.79944000  0.97922000  0.39574000  1.0
  H  H81  1  0.29944000  0.52079000  0.60426000  1.0
  H  H82  1  0.20056000  0.02078000  0.60426000  1.0
  H  H83  1  0.70056000  0.47922000  0.39574000  1.0
  H  H84  1  0.71675000  0.12303000  0.50057000  1.0
  H  H85  1  0.21675000  0.37697000  0.49943000  1.0
  H  H86  1  0.28325000  0.87697000  0.49943000  1.0
  H  H87  1  0.78325000  0.62303000  0.50057000  1.0
  H  H88  1  0.74662000  0.18768000  0.65929000  1.0
  H  H89  1  0.24662000  0.31232000  0.34071000  1.0
  H  H90  1  0.25338000  0.81232000  0.34071000  1.0
  H  H91  1  0.75338000  0.68768000  0.65929000  1.0
  H  H92  1  0.86035000  0.10995000  0.72022000  1.0
  H  H93  1  0.36036000  0.39005000  0.27978000  1.0
  H  H94  1  0.13964000  0.89005000  0.27979000  1.0
  H  H95  1  0.63964000  0.60995000  0.72021000  1.0
  C  C96  1  0.64763000  0.73427000  0.16520000  1.0
  C  C97  1  0.14763000  0.76574000  0.83480000  1.0
  C  C98  1  0.35237000  0.26574000  0.83480000  1.0
  C  C99  1  0.85237000  0.23426000  0.16520000  1.0
  C  C100  1  0.70678000  0.65627000  0.13545000  1.0
  C  C101  1  0.20678000  0.84373000  0.86455000  1.0
  C  C102  1  0.29322000  0.34373000  0.86455000  1.0
  C  C103  1  0.79322000  0.15627000  0.13545000  1.0
  C  C104  1  0.68313000  0.58333000  0.05509000  1.0
  C  C105  1  0.18313000  0.91667000  0.94491000  1.0
  C  C106  1  0.31687000  0.41667000  0.94491000  1.0
  C  C107  1  0.81687000  0.08333000  0.05509000  1.0
  C  C108  1  0.59792000  0.59164000  0.00896000  1.0
  C  C109  1  0.09792000  0.90835000  0.99104000  1.0
  C  C110  1  0.40209000  0.40836000  0.99104000  1.0
  C  C111  1  0.90208000  0.09164000  0.00896000  1.0
  C  C112  1  0.54141000  0.67116000  0.04391000  1.0
  C  C113  1  0.04141000  0.82884000  0.95609000  1.0
  C  C114  1  0.45859000  0.32884000  0.95609000  1.0
  C  C115  1  0.95859000  0.17116000  0.04391000  1.0
  C  C116  1  0.74760000  0.49861000  0.01358000  1.0
  C  C117  1  0.24760000  0.00139000  0.98642000  1.0
  C  C118  1  0.25240000  0.50139000  0.98642000  1.0
  C  C119  1  0.75240000  0.99861000  0.01358000  1.0
  C  C120  1  0.85981000  0.43693000  0.09182000  1.0
  C  C121  1  0.35981000  0.06307000  0.90818000  1.0
  C  C122  1  0.14019000  0.56307000  0.90818000  1.0
  C  C123  1  0.64019000  0.93693000  0.09182000  1.0
  C  C124  1  0.99054000  0.52954000  0.13389000  1.0
  C  C125  1  0.49054000  0.97046000  0.86611000  1.0
  C  C126  1  0.00946000  0.47046000  0.86611000  1.0
  C  C127  1  0.50946000  0.02954000  0.13389000  1.0
  C  C128  1  0.92237000  0.55799000  0.08730000  1.0
  C  C129  1  0.42237000  0.94201000  0.91270000  1.0
  C  C130  1  0.07763000  0.44201000  0.91270000  1.0
  C  C131  1  0.57763000  0.05799000  0.08730000  1.0
  C  C132  1  0.94472000  0.63131000  0.07274000  1.0
  C  C133  1  0.44472000  0.86869000  0.92726000  1.0
  C  C134  1  0.05528000  0.36869000  0.92726000  1.0
  C  C135  1  0.55528000  0.13131000  0.07274000  1.0
  C  C136  1  0.03697000  0.67686000  0.10849000  1.0
  C  C137  1  0.53697000  0.82314000  0.89151000  1.0
  C  C138  1  0.96303000  0.32314000  0.89151000  1.0
  C  C139  1  0.46302000  0.17686000  0.10849000  1.0
  C  C140  1  0.10394000  0.65084000  0.15704000  1.0
  C  C141  1  0.60394000  0.84916000  0.84296000  1.0
  C  C142  1  0.89606000  0.34916000  0.84296000  1.0
  C  C143  1  0.39606000  0.15084000  0.15704000  1.0
  C  C144  1  0.08249000  0.57661000  0.17016000  1.0
  C  C145  1  0.58249000  0.92339000  0.82984000  1.0
  C  C146  1  0.91751000  0.42339000  0.82984000  1.0
  C  C147  1  0.41751000  0.07661000  0.17016000  1.0
  C  C148  1  0.65190000  0.72679000  0.35394000  1.0
  C  C149  1  0.15190000  0.77321000  0.64606000  1.0
  C  C150  1  0.34810000  0.27321000  0.64606000  1.0
  C  C151  1  0.84810000  0.22679000  0.35394000  1.0
  C  C152  1  0.73462000  0.78571000  0.37173000  1.0
  C  C153  1  0.23462000  0.71429000  0.62827000  1.0
  C  C154  1  0.26538000  0.21429000  0.62827000  1.0
  C  C155  1  0.76538000  0.28571000  0.37173000  1.0
  C  C156  1  0.83612000  0.75187000  0.35703000  1.0
  C  C157  1  0.33612000  0.74813000  0.64296000  1.0
  C  C158  1  0.16388000  0.24813000  0.64297000  1.0
  C  C159  1  0.66388000  0.25187000  0.35703000  1.0
  C  C160  1  0.84979000  0.65977000  0.32857000  1.0
  C  C161  1  0.34979000  0.84023000  0.67143000  1.0
  C  C162  1  0.15021000  0.34023000  0.67143000  1.0
  C  C163  1  0.65021000  0.15977000  0.32857000  1.0
  C  C164  1  0.76278000  0.60509000  0.31278000  1.0
  C  C165  1  0.26278000  0.89491000  0.68722000  1.0
  C  C166  1  0.23722000  0.39491000  0.68722000  1.0
  C  C167  1  0.73722000  0.10509000  0.31278000  1.0
  C  C168  1  0.92759000  0.81364000  0.37183000  1.0
  C  C169  1  0.42759000  0.68636000  0.62817000  1.0
  C  C170  1  0.07241000  0.18637000  0.62817000  1.0
  C  C171  1  0.57240000  0.31364000  0.37183000  1.0
  C  C172  1  0.97898000  0.87426000  0.52813000  1.0
  C  C173  1  0.47898000  0.62574000  0.47187000  1.0
  C  C174  1  0.02102000  0.12574000  0.47187000  1.0
  C  C175  1  0.52102000  0.37426000  0.52813000  1.0
  C  C176  1  0.87619000  0.96403000  0.50043000  1.0
  C  C177  1  0.37619000  0.53597000  0.49957000  1.0
  C  C178  1  0.12381000  0.03597000  0.49957000  1.0
  C  C179  1  0.62381000  0.46403000  0.50043000  1.0
  C  C180  1  0.81348000  0.00729000  0.46557000  1.0
  C  C181  1  0.31348000  0.49271000  0.53443000  1.0
  C  C182  1  0.18652000  0.99271000  0.53443000  1.0
  C  C183  1  0.68652000  0.50729000  0.46557000  1.0
  C  C184  1  0.76838000  0.08826000  0.52489000  1.0
  C  C185  1  0.26838000  0.41174000  0.47511000  1.0
  C  C186  1  0.23162000  0.91174000  0.47511000  1.0
  C  C187  1  0.73162000  0.58826000  0.52489000  1.0
  C  C188  1  0.78551000  0.12507000  0.61545000  1.0
  C  C189  1  0.28551000  0.37493000  0.38455000  1.0
  C  C190  1  0.21449000  0.87493000  0.38455000  1.0
  C  C191  1  0.71449000  0.62507000  0.61545000  1.0
  C  C192  1  0.84870000  0.08223000  0.65006000  1.0
  C  C193  1  0.34870000  0.41777000  0.34993000  1.0
  C  C194  1  0.15130000  0.91777000  0.34993000  1.0
  C  C195  1  0.65130000  0.58223000  0.65007000  1.0
  C  C196  1  0.89423000  0.00072000  0.59127000  1.0
  C  C197  1  0.39424000  0.49928000  0.40873000  1.0
  C  C198  1  0.10577000  0.99928000  0.40873000  1.0
  C  C199  1  0.60577000  0.50072000  0.59127000  1.0
  I  I200  1  0.51692000  0.95517000  0.36251000  1.0
  I  I201  1  0.01692000  0.54483000  0.63749000  1.0
  I  I202  1  0.48308000  0.04483000  0.63749000  1.0
  I  I203  1  0.98308000  0.45517000  0.36251000  1.0
  I  I204  1  0.27639000  0.82257000  0.10556000  1.0
  I  I205  1  0.77639000  0.67743000  0.89444000  1.0
  I  I206  1  0.72361000  0.17743000  0.89444000  1.0
  I  I207  1  0.22361000  0.32257000  0.10556000  1.0
  I  I208  1  0.38778000  0.64048000  0.22048000  1.0
  I  I209  1  0.88778000  0.85952000  0.77953000  1.0
  I  I210  1  0.61222000  0.35952000  0.77953000  1.0
  I  I211  1  0.11222000  0.14048000  0.22047000  1.0
  I  I212  1  0.61801000  0.38108000  0.17853000  1.0
  I  I213  1  0.11800000  0.11892000  0.82147000  1.0
  I  I214  1  0.38200000  0.61892000  0.82147000  1.0
  I  I215  1  0.88199000  0.88108000  0.17853000  1.0
  N  N216  1  0.56658000  0.74198000  0.12055000  1.0
  N  N217  1  0.06658000  0.75802000  0.87945000  1.0
  N  N218  1  0.43342000  0.25802000  0.87945000  1.0
  N  N219  1  0.93342000  0.24197000  0.12055000  1.0
  N  N220  1  0.83878000  0.49846000  0.06310000  1.0
  N  N221  1  0.33878000  0.00154000  0.93690000  1.0
  N  N222  1  0.16122000  0.50154000  0.93690000  1.0
  N  N223  1  0.66122000  0.99846000  0.06310000  1.0
  N  N224  1  0.94920000  0.45319000  0.13448000  1.0
  N  N225  1  0.44920000  0.04681000  0.86552000  1.0
  N  N226  1  0.05080000  0.54681000  0.86552000  1.0
  N  N227  1  0.55080000  0.95319000  0.13448000  1.0
  N  N228  1  0.66550000  0.63774000  0.32405000  1.0
  N  N229  1  0.16550000  0.86226000  0.67595000  1.0
  N  N230  1  0.33450000  0.36226000  0.67595000  1.0
  N  N231  1  0.83450000  0.13774000  0.32405000  1.0
  N  N232  1  0.93176000  0.88349000  0.46244000  1.0
  N  N233  1  0.43176000  0.61651000  0.53756000  1.0
  N  N234  1  0.06824000  0.11651000  0.53756000  1.0
  N  N235  1  0.56824000  0.38349000  0.46244000  1.0
  N  N236  1  0.95943000  0.94277000  0.60568000  1.0
  N  N237  1  0.45944000  0.55723000  0.39432000  1.0
  N  N238  1  0.04057000  0.05723000  0.39432000  1.0
  N  N239  1  0.54057000  0.44277000  0.60568000  1.0
