# generated using pymatgen
data_Zn2H12C9N6O5
_symmetry_space_group_name_H-M   'P 1'
_cell_length_a   9.22950000
_cell_length_b   9.76338000
_cell_length_c   18.05830000
_cell_angle_alpha   95.04090000
_cell_angle_beta   97.44460000
_cell_angle_gamma   109.61000000
_symmetry_Int_Tables_number   1
_chemical_formula_structural   Zn2H12C9N6O5
_chemical_formula_sum   'Zn8 H48 C36 N24 O20'
_cell_volume   1504.84607552
_cell_formula_units_Z   4
loop_
 _symmetry_equiv_pos_site_id
 _symmetry_equiv_pos_as_xyz
  1  'x, y, z'
loop_
 _atom_site_type_symbol
 _atom_site_label
 _atom_site_symmetry_multiplicity
 _atom_site_fract_x
 _atom_site_fract_y
 _atom_site_fract_z
 _atom_site_occupancy
  Zn  Zn0  1  0.22110000  0.30719000  0.08580000  1.0
  Zn  Zn1  1  0.77891000  0.69281000  0.91420000  1.0
  Zn  Zn2  1  0.00551000  0.76543000  0.25008000  1.0
  Zn  Zn3  1  0.99448000  0.23457000  0.74992000  1.0
  Zn  Zn4  1  0.42488000  0.91730000  0.28975000  1.0
  Zn  Zn5  1  0.57512000  0.08270000  0.71025000  1.0
  Zn  Zn6  1  0.76484000  0.21973000  0.40800000  1.0
  Zn  Zn7  1  0.23516000  0.78027000  0.59200000  1.0
  H  H8  1  0.89790000  0.72562000  0.09182000  1.0
  H  H9  1  0.10210000  0.27439000  0.90818000  1.0
  H  H10  1  0.76338000  0.62026000  0.13088000  1.0
  H  H11  1  0.23662000  0.37974000  0.86912000  1.0
  H  H12  1  0.75757000  0.50058000  0.22928000  1.0
  H  H13  1  0.24243000  0.49942000  0.77072000  1.0
  H  H14  1  0.87022000  0.48611000  0.30176000  1.0
  H  H15  1  0.12978000  0.51390000  0.69824000  1.0
  H  H16  1  0.46728000  0.59497000  0.18933000  1.0
  H  H17  1  0.53272000  0.40503000  0.81067000  1.0
  H  H18  1  0.98058000  0.45770000  0.14544000  1.0
  H  H19  1  0.01942000  0.54230000  0.85456000  1.0
  H  H20  1  0.00162000  0.03722000  0.38136000  1.0
  H  H21  1  0.99837000  0.96277000  0.61864000  1.0
  H  H22  1  0.64713000  0.77254000  0.20700000  1.0
  H  H23  1  0.35287000  0.22746000  0.79300000  1.0
  H  H24  1  0.98001000  0.73890000  0.43742000  1.0
  H  H25  1  0.01998000  0.26110000  0.56258000  1.0
  H  H26  1  0.46894000  0.87201000  0.47098000  1.0
  H  H27  1  0.53106000  0.12799000  0.52902000  1.0
  H  H28  1  0.47268000  0.18465000  0.17841000  1.0
  H  H29  1  0.52731000  0.81535000  0.82159000  1.0
  H  H30  1  0.98315000  0.03812000  0.15230000  1.0
  H  H31  1  0.01685000  0.96188000  0.84770000  1.0
  H  H32  1  0.78509000  0.41916000  0.05484000  1.0
  H  H33  1  0.21491000  0.58084000  0.94516000  1.0
  H  H34  1  0.66049000  0.41872000  0.97148000  1.0
  H  H35  1  0.33952000  0.58128000  0.02852000  1.0
  H  H36  1  0.52625000  0.15398000  0.95799000  1.0
  H  H37  1  0.47376000  0.84602000  0.04201000  1.0
  H  H38  1  0.62025000  0.14309000  0.04808000  1.0
  H  H39  1  0.37976000  0.85690000  0.95192000  1.0
  H  H40  1  0.73682000  0.05936000  0.94304000  1.0
  H  H41  1  0.26319000  0.94064000  0.05696000  1.0
  H  H42  1  0.79478000  0.23644000  0.91633000  1.0
  H  H43  1  0.20522000  0.76356000  0.08367000  1.0
  H  H44  1  0.19473000  0.56750000  0.36272000  1.0
  H  H45  1  0.80527000  0.43251000  0.63728000  1.0
  H  H46  1  0.16278000  0.42014000  0.29287000  1.0
  H  H47  1  0.83722000  0.57986000  0.70713000  1.0
  H  H48  1  0.43936000  0.52418000  0.36835000  1.0
  H  H49  1  0.56065000  0.47581000  0.63165000  1.0
  H  H50  1  0.36363000  0.46545000  0.44947000  1.0
  H  H51  1  0.63637000  0.53455000  0.55053000  1.0
  H  H52  1  0.26943000  0.20556000  0.39050000  1.0
  H  H53  1  0.73057000  0.79444000  0.60950000  1.0
  H  H54  1  0.31364000  0.25609000  0.30305000  1.0
  H  H55  1  0.68635000  0.74391000  0.69695000  1.0
  C  C56  1  0.35041000  0.59676000  0.18889000  1.0
  C  C57  1  0.64959000  0.40324000  0.81111000  1.0
  C  C58  1  0.10172000  0.52482000  0.16548000  1.0
  C  C59  1  0.89828000  0.47517000  0.83452000  1.0
  C  C60  1  0.88982000  0.98393000  0.34476000  1.0
  C  C61  1  0.11017000  0.01607000  0.65525000  1.0
  C  C62  1  0.70888000  0.84973000  0.25705000  1.0
  C  C63  1  0.29111000  0.15027000  0.74295000  1.0
  C  C64  1  0.09974000  0.77850000  0.42760000  1.0
  C  C65  1  0.90025000  0.22150000  0.57240000  1.0
  C  C66  1  0.34823000  0.84602000  0.44529000  1.0
  C  C67  1  0.65177000  0.15399000  0.55471000  1.0
  C  C68  1  0.35241000  0.12178000  0.18154000  1.0
  C  C69  1  0.64758000  0.87821000  0.81846000  1.0
  C  C70  1  0.10341000  0.04695000  0.16907000  1.0
  C  C71  1  0.89659000  0.95305000  0.83093000  1.0
  C  C72  1  0.55002000  0.39085000  0.06813000  1.0
  C  C73  1  0.44999000  0.60914000  0.93187000  1.0
  C  C74  1  0.66725000  0.36512000  0.02221000  1.0
  C  C75  1  0.33275000  0.63488000  0.97779000  1.0
  C  C76  1  0.63570000  0.20146000  0.99864000  1.0
  C  C77  1  0.36432000  0.79854000  0.00136000  1.0
  C  C78  1  0.76946000  0.17663000  0.96457000  1.0
  C  C79  1  0.23054000  0.82337000  0.03543000  1.0
  C  C80  1  0.91776000  0.21584000  0.02178000  1.0
  C  C81  1  0.08226000  0.78416000  0.97822000  1.0
  C  C82  1  0.04945000  0.36235000  0.38580000  1.0
  C  C83  1  0.95055000  0.63765000  0.61419000  1.0
  C  C84  1  0.18937000  0.45308000  0.35447000  1.0
  C  C85  1  0.81064000  0.54693000  0.64553000  1.0
  C  C86  1  0.34408000  0.44056000  0.38770000  1.0
  C  C87  1  0.65592000  0.55944000  0.61230000  1.0
  C  C88  1  0.35155000  0.28933000  0.36432000  1.0
  C  C89  1  0.64844000  0.71067000  0.63569000  1.0
  C  C90  1  0.51130000  0.27957000  0.38475000  1.0
  C  C91  1  0.48870000  0.72043000  0.61525000  1.0
  N  N92  1  0.31051000  0.70097000  0.22408000  1.0
  N  N93  1  0.68949000  0.29903000  0.77592000  1.0
  N  N94  1  0.15005000  0.65387000  0.20896000  1.0
  N  N95  1  0.84994000  0.34613000  0.79104000  1.0
  N  N96  1  0.22361000  0.48489000  0.15104000  1.0
  N  N97  1  0.77639000  0.51511000  0.84896000  1.0
  N  N98  1  0.76622000  0.02217000  0.35202000  1.0
  N  N99  1  0.23378000  0.97783000  0.64798000  1.0
  N  N100  1  0.64837000  0.93453000  0.29544000  1.0
  N  N101  1  0.35163000  0.06547000  0.70456000  1.0
  N  N102  1  0.85903000  0.87624000  0.28622000  1.0
  N  N103  1  0.14096000  0.12376000  0.71378000  1.0
  N  N104  1  0.30269000  0.85337000  0.37325000  1.0
  N  N105  1  0.69730000  0.14663000  0.62674000  1.0
  N  N106  1  0.14262000  0.80915000  0.36151000  1.0
  N  N107  1  0.85738000  0.19085000  0.63849000  1.0
  N  N108  1  0.22508000  0.80063000  0.48156000  1.0
  N  N109  1  0.77492000  0.19937000  0.51844000  1.0
  N  N110  1  0.30893000  0.00774000  0.21927000  1.0
  N  N111  1  0.69106000  0.99226000  0.78073000  1.0
  N  N112  1  0.14952000  0.95981000  0.21136000  1.0
  N  N113  1  0.85047000  0.04019000  0.78864000  1.0
  N  N114  1  0.22675000  0.14977000  0.14889000  1.0
  N  N115  1  0.77325000  0.85023000  0.85111000  1.0
  O  O116  1  0.59613000  0.46629000  0.13331000  1.0
  O  O117  1  0.40388000  0.53370000  0.86670000  1.0
  O  O118  1  0.40645000  0.33065000  0.03657000  1.0
  O  O119  1  0.59356000  0.66934000  0.96344000  1.0
  O  O120  1  0.91277000  0.20992000  0.09024000  1.0
  O  O121  1  0.08725000  0.79010000  0.90977000  1.0
  O  O122  1  0.05026000  0.25456000  0.99613000  1.0
  O  O123  1  0.94976000  0.74545000  0.00387000  1.0
  O  O124  1  0.91398000  0.36791000  0.35714000  1.0
  O  O125  1  0.08602000  0.63209000  0.64286000  1.0
  O  O126  1  0.06025000  0.28330000  0.43565000  1.0
  O  O127  1  0.93975000  0.71671000  0.56435000  1.0
  O  O128  1  0.53104000  0.15652000  0.36185000  1.0
  O  O129  1  0.46896000  0.84347000  0.63815000  1.0
  O  O130  1  0.62319000  0.38409000  0.42287000  1.0
  O  O131  1  0.37681000  0.61590000  0.57713000  1.0
  O  O132  1  0.85564000  0.71245000  0.13977000  1.0
  O  O133  1  0.14436000  0.28755000  0.86023000  1.0
  O  O134  1  0.84070000  0.55672000  0.27132000  1.0
  O  O135  1  0.15930000  0.44328000  0.72868000  1.0
