# generated using pymatgen
data_Ho2Cu3H38C42(N3O17)2
_symmetry_space_group_name_H-M   'P 1'
_cell_length_a   11.39090000
_cell_length_b   13.11110000
_cell_length_c   18.95930000
_cell_angle_alpha   89.99950000
_cell_angle_beta   91.99470000
_cell_angle_gamma   90.00000000
_symmetry_Int_Tables_number   1
_chemical_formula_structural   Ho2Cu3H38C42(N3O17)2
_chemical_formula_sum   'Ho4 Cu6 H76 C84 N12 O68'
_cell_volume   2829.80316252
_cell_formula_units_Z   2
loop_
 _symmetry_equiv_pos_site_id
 _symmetry_equiv_pos_as_xyz
  1  'x, y, z'
loop_
 _atom_site_type_symbol
 _atom_site_label
 _atom_site_symmetry_multiplicity
 _atom_site_fract_x
 _atom_site_fract_y
 _atom_site_fract_z
 _atom_site_occupancy
  Ho  Ho0  1  0.86365000  0.93496000  0.14610000  1.0
  Ho  Ho1  1  0.63636000  0.43497000  0.35391000  1.0
  Ho  Ho2  1  0.13635000  0.06504000  0.85391000  1.0
  Ho  Ho3  1  0.36365000  0.56505000  0.64610000  1.0
  Cu  Cu4  1  0.15544000  0.59329000  0.32742000  1.0
  Cu  Cu5  1  0.34456000  0.09329000  0.17257000  1.0
  Cu  Cu6  1  0.84456000  0.40671000  0.67257000  1.0
  Cu  Cu7  1  0.65544000  0.90671000  0.82743000  1.0
  Cu  Cu8  1  0.00000000  0.00000000  0.50000000  1.0
  Cu  Cu9  1  0.50000000  0.50000000  0.00000000  1.0
  H  H10  1  0.80412000  0.79255000  0.26082000  1.0
  H  H11  1  0.69588000  0.29255000  0.23919000  1.0
  H  H12  1  0.19588000  0.20745000  0.73918000  1.0
  H  H13  1  0.30412000  0.70745000  0.76082000  1.0
  H  H14  1  0.80602000  0.74607000  0.18335000  1.0
  H  H15  1  0.69398000  0.24608000  0.31666000  1.0
  H  H16  1  0.19398000  0.25392000  0.81666000  1.0
  H  H17  1  0.30602000  0.75393000  0.68335000  1.0
  H  H18  1  0.98776000  0.74644000  0.09541000  1.0
  H  H19  1  0.51225000  0.24644000  0.40459000  1.0
  H  H20  1  0.01224000  0.25356000  0.90459000  1.0
  H  H21  1  0.48776000  0.75356000  0.59541000  1.0
  H  H22  1  0.85372000  0.74051000  0.06216000  1.0
  H  H23  1  0.64628000  0.24052000  0.43785000  1.0
  H  H24  1  0.14627000  0.25948000  0.93785000  1.0
  H  H25  1  0.35372000  0.75949000  0.56215000  1.0
  H  H26  1  0.81018000  0.97236000  0.99645000  1.0
  H  H27  1  0.68985000  0.47242000  0.50354000  1.0
  H  H28  1  0.18983000  0.02763000  0.00355000  1.0
  H  H29  1  0.31020000  0.52770000  0.49645000  1.0
  H  H30  1  0.92714000  0.04544000  0.00292000  1.0
  H  H31  1  0.57270000  0.54530000  0.49710000  1.0
  H  H32  1  0.07282000  0.95460000  0.99709000  1.0
  H  H33  1  0.42701000  0.45446000  0.50293000  1.0
  H  H34  1  0.64760000  0.08027000  0.17840000  1.0
  H  H35  1  0.85240000  0.58028000  0.32160000  1.0
  H  H36  1  0.35240000  0.91973000  0.82160000  1.0
  H  H37  1  0.14760000  0.41973000  0.67840000  1.0
  H  H38  1  0.75626000  0.07269000  0.23457000  1.0
  H  H39  1  0.74375000  0.57270000  0.26542000  1.0
  H  H40  1  0.24374000  0.92731000  0.76543000  1.0
  H  H41  1  0.25625000  0.42731000  0.73457000  1.0
  H  H42  1  0.03779000  0.09959000  0.15500000  1.0
  H  H43  1  0.46221000  0.59959000  0.34499000  1.0
  H  H44  1  0.96221000  0.90040000  0.84500000  1.0
  H  H45  1  0.53778000  0.40040000  0.65499000  1.0
  H  H46  1  0.93049000  0.16223000  0.11940000  1.0
  H  H47  1  0.56950000  0.66217000  0.38064000  1.0
  H  H48  1  0.06951000  0.83778000  0.88061000  1.0
  H  H49  1  0.43047000  0.33772000  0.61942000  1.0
  H  H50  1  0.39097000  0.65250000  0.18733000  1.0
  H  H51  1  0.10903000  0.15250000  0.31267000  1.0
  H  H52  1  0.60903000  0.34750000  0.81267000  1.0
  H  H53  1  0.89097000  0.84750000  0.68733000  1.0
  H  H54  1  0.57012000  0.75989000  0.20614000  1.0
  H  H55  1  0.92988000  0.25990000  0.29387000  1.0
  H  H56  1  0.42988000  0.24010000  0.79387000  1.0
  H  H57  1  0.07012000  0.74010000  0.70613000  1.0
  H  H58  1  0.54985000  0.94876000  0.20204000  1.0
  H  H59  1  0.95015000  0.44876000  0.29796000  1.0
  H  H60  1  0.45016000  0.05124000  0.79796000  1.0
  H  H61  1  0.04984000  0.55124000  0.70203000  1.0
  H  H62  1  0.20122000  0.03200000  0.33602000  1.0
  H  H63  1  0.29879000  0.53200000  0.16398000  1.0
  H  H64  1  0.79879000  0.96800000  0.66398000  1.0
  H  H65  1  0.70121000  0.46800000  0.83602000  1.0
  H  H66  1  0.38061000  0.92950000  0.35414000  1.0
  H  H67  1  0.11940000  0.42950000  0.14586000  1.0
  H  H68  1  0.61940000  0.07049000  0.64586000  1.0
  H  H69  1  0.88060000  0.57049000  0.85414000  1.0
  H  H70  1  0.36257000  0.73705000  0.35440000  1.0
  H  H71  1  0.13744000  0.23705000  0.14559000  1.0
  H  H72  1  0.63744000  0.26295000  0.64559000  1.0
  H  H73  1  0.86256000  0.76295000  0.85441000  1.0
  H  H74  1  0.07568000  0.43599000  0.48505000  1.0
  H  H75  1  0.42432000  0.93599000  0.01495000  1.0
  H  H76  1  0.92432000  0.56401000  0.51495000  1.0
  H  H77  1  0.57568000  0.06401000  0.98505000  1.0
  H  H78  1  0.25106000  0.32194000  0.49527000  1.0
  H  H79  1  0.24894000  0.82195000  0.00473000  1.0
  H  H80  1  0.74894000  0.67804000  0.50472000  1.0
  H  H81  1  0.75106000  0.17805000  0.99528000  1.0
  H  H82  1  0.22085000  0.13269000  0.50331000  1.0
  H  H83  1  0.27915000  0.63269000  0.99670000  1.0
  H  H84  1  0.77914000  0.86731000  0.49669000  1.0
  H  H85  1  0.72085000  0.36731000  0.00331000  1.0
  C  C86  1  0.16295000  0.95168000  0.15901000  1.0
  C  C87  1  0.33705000  0.45168000  0.34099000  1.0
  C  C88  1  0.83705000  0.04832000  0.84099000  1.0
  C  C89  1  0.66295000  0.54831000  0.65901000  1.0
  C  C90  1  0.27118000  0.88800000  0.16942000  1.0
  C  C91  1  0.22882000  0.38800000  0.33058000  1.0
  C  C92  1  0.72882000  0.11200000  0.83058000  1.0
  C  C93  1  0.77118000  0.61200000  0.66942000  1.0
  C  C94  1  0.27426000  0.78096000  0.16999000  1.0
  C  C95  1  0.22574000  0.28096000  0.33002000  1.0
  C  C96  1  0.72574000  0.21904000  0.83001000  1.0
  C  C97  1  0.77426000  0.71904000  0.66998000  1.0
  C  C98  1  0.16971000  0.71102000  0.15311000  1.0
  C  C99  1  0.33029000  0.21103000  0.34690000  1.0
  C  C100  1  0.83029000  0.28898000  0.84689000  1.0
  C  C101  1  0.66971000  0.78898000  0.65311000  1.0
  C  C102  1  0.38374000  0.73510000  0.18529000  1.0
  C  C103  1  0.11626000  0.23510000  0.31472000  1.0
  C  C104  1  0.61626000  0.26490000  0.81471000  1.0
  C  C105  1  0.88374000  0.76489000  0.68528000  1.0
  C  C106  1  0.48383000  0.79380000  0.19636000  1.0
  C  C107  1  0.01617000  0.29380000  0.30364000  1.0
  C  C108  1  0.51617000  0.20620000  0.80364000  1.0
  C  C109  1  0.98383000  0.70620000  0.69635000  1.0
  C  C110  1  0.47363000  0.89979000  0.19394000  1.0
  C  C111  1  0.02638000  0.39979000  0.30606000  1.0
  C  C112  1  0.52638000  0.10020000  0.80606000  1.0
  C  C113  1  0.97362000  0.60020000  0.69393000  1.0
  C  C114  1  0.97208000  0.73224000  0.33379000  1.0
  C  C115  1  0.52793000  0.23224000  0.16621000  1.0
  C  C116  1  0.02793000  0.26775000  0.66621000  1.0
  C  C117  1  0.47208000  0.76776000  0.83379000  1.0
  C  C118  1  0.08202000  0.79528000  0.33351000  1.0
  C  C119  1  0.41798000  0.29528000  0.16649000  1.0
  C  C120  1  0.91799000  0.20472000  0.66648000  1.0
  C  C121  1  0.58202000  0.70472000  0.83352000  1.0
  C  C122  1  0.08408000  0.90174000  0.32932000  1.0
  C  C123  1  0.41593000  0.40174000  0.17068000  1.0
  C  C124  1  0.91593000  0.09826000  0.67068000  1.0
  C  C125  1  0.58407000  0.59826000  0.82932000  1.0
  C  C126  1  0.97624000  0.96860000  0.31797000  1.0
  C  C127  1  0.52376000  0.46860000  0.18203000  1.0
  C  C128  1  0.02376000  0.03139000  0.68203000  1.0
  C  C129  1  0.47624000  0.53139000  0.81796000  1.0
  C  C130  1  0.19405000  0.94945000  0.33730000  1.0
  C  C131  1  0.30596000  0.44945000  0.16269000  1.0
  C  C132  1  0.80596000  0.05054000  0.66269000  1.0
  C  C133  1  0.69404000  0.55054000  0.83731000  1.0
  C  C134  1  0.29568000  0.89214000  0.34702000  1.0
  C  C135  1  0.20433000  0.39214000  0.15298000  1.0
  C  C136  1  0.70433000  0.10785000  0.65298000  1.0
  C  C137  1  0.79567000  0.60786000  0.84702000  1.0
  C  C138  1  0.28632000  0.78627000  0.34772000  1.0
  C  C139  1  0.21369000  0.28627000  0.15228000  1.0
  C  C140  1  0.71369000  0.21372000  0.65228000  1.0
  C  C141  1  0.78632000  0.71372000  0.84772000  1.0
  C  C142  1  0.82842000  0.14749000  0.49672000  1.0
  C  C143  1  0.67158000  0.64749000  0.00329000  1.0
  C  C144  1  0.17158000  0.85252000  0.50328000  1.0
  C  C145  1  0.32842000  0.35251000  0.99671000  1.0
  C  C146  1  0.94302000  0.20490000  0.49431000  1.0
  C  C147  1  0.55698000  0.70490000  0.00570000  1.0
  C  C148  1  0.05698000  0.79510000  0.50569000  1.0
  C  C149  1  0.44301000  0.29510000  0.99431000  1.0
  C  C150  1  0.95173000  0.31077000  0.48890000  1.0
  C  C151  1  0.54827000  0.81076000  0.01110000  1.0
  C  C152  1  0.04827000  0.68924000  0.51110000  1.0
  C  C153  1  0.45173000  0.18924000  0.98890000  1.0
  C  C154  1  0.84560000  0.37876000  0.47931000  1.0
  C  C155  1  0.65441000  0.87875000  0.02069000  1.0
  C  C156  1  0.15441000  0.62125000  0.52070000  1.0
  C  C157  1  0.34560000  0.12124000  0.97931000  1.0
  C  C158  1  0.06436000  0.35390000  0.49020000  1.0
  C  C159  1  0.43564000  0.85390000  0.00980000  1.0
  C  C160  1  0.93564000  0.64610000  0.50980000  1.0
  C  C161  1  0.56436000  0.14610000  0.99020000  1.0
  C  C162  1  0.16251000  0.29116000  0.49606000  1.0
  C  C163  1  0.33749000  0.79116000  0.00394000  1.0
  C  C164  1  0.83749000  0.70884000  0.50394000  1.0
  C  C165  1  0.66251000  0.20884000  0.99606000  1.0
  C  C166  1  0.14735000  0.18580000  0.50022000  1.0
  C  C167  1  0.35265000  0.68580000  0.99978000  1.0
  C  C168  1  0.85264000  0.81420000  0.49978000  1.0
  C  C169  1  0.64735000  0.31420000  0.00023000  1.0
  N  N170  1  0.36968000  0.94485000  0.18138000  1.0
  N  N171  1  0.13032000  0.44485000  0.31862000  1.0
  N  N172  1  0.63032000  0.05515000  0.81861000  1.0
  N  N173  1  0.86967000  0.55514000  0.68138000  1.0
  N  N174  1  0.18208000  0.74018000  0.34081000  1.0
  N  N175  1  0.31793000  0.24018000  0.15919000  1.0
  N  N176  1  0.81793000  0.25981000  0.65919000  1.0
  N  N177  1  0.68207000  0.75981000  0.84081000  1.0
  N  N178  1  0.03965000  0.14533000  0.49950000  1.0
  N  N179  1  0.46034000  0.64533000  0.00050000  1.0
  N  N180  1  0.96034000  0.85467000  0.50049000  1.0
  N  N181  1  0.53965000  0.35467000  0.99951000  1.0
  O  O182  1  0.06515000  0.91098000  0.14542000  1.0
  O  O183  1  0.43485000  0.41099000  0.35459000  1.0
  O  O184  1  0.93485000  0.08901000  0.85458000  1.0
  O  O185  1  0.56515000  0.58901000  0.64542000  1.0
  O  O186  1  0.17621000  0.04936000  0.16535000  1.0
  O  O187  1  0.32379000  0.54936000  0.33465000  1.0
  O  O188  1  0.82379000  0.95064000  0.83465000  1.0
  O  O189  1  0.67620000  0.45063000  0.66534000  1.0
  O  O190  1  0.12349000  0.71924000  0.09151000  1.0
  O  O191  1  0.37652000  0.21924000  0.40850000  1.0
  O  O192  1  0.87651000  0.28077000  0.90849000  1.0
  O  O193  1  0.62348000  0.78076000  0.59151000  1.0
  O  O194  1  0.14323000  0.64808000  0.20030000  1.0
  O  O195  1  0.35678000  0.14809000  0.29971000  1.0
  O  O196  1  0.85677000  0.35192000  0.79970000  1.0
  O  O197  1  0.64323000  0.85192000  0.70030000  1.0
  O  O198  1  0.98729000  0.63389000  0.33188000  1.0
  O  O199  1  0.51271000  0.13388000  0.16812000  1.0
  O  O200  1  0.01272000  0.36611000  0.66812000  1.0
  O  O201  1  0.48729000  0.86611000  0.83188000  1.0
  O  O202  1  0.87332000  0.77265000  0.33737000  1.0
  O  O203  1  0.62669000  0.27264000  0.16264000  1.0
  O  O204  1  0.12669000  0.22735000  0.66264000  1.0
  O  O205  1  0.37332000  0.72735000  0.83737000  1.0
  O  O206  1  0.91957000  0.95940000  0.25863000  1.0
  O  O207  1  0.58043000  0.45939000  0.24137000  1.0
  O  O208  1  0.08043000  0.04060000  0.74137000  1.0
  O  O209  1  0.41957000  0.54060000  0.75863000  1.0
  O  O210  1  0.95551000  0.03217000  0.36479000  1.0
  O  O211  1  0.54450000  0.53217000  0.13521000  1.0
  O  O212  1  0.04450000  0.96783000  0.63521000  1.0
  O  O213  1  0.45550000  0.46783000  0.86479000  1.0
  O  O214  1  0.83652000  0.05015000  0.50195000  1.0
  O  O215  1  0.66348000  0.55014000  0.99805000  1.0
  O  O216  1  0.16347000  0.94986000  0.49804000  1.0
  O  O217  1  0.33652000  0.44986000  0.00195000  1.0
  O  O218  1  0.73409000  0.19674000  0.49682000  1.0
  O  O219  1  0.76591000  0.69673000  0.00319000  1.0
  O  O220  1  0.26591000  0.80327000  0.50318000  1.0
  O  O221  1  0.23409000  0.30327000  0.99682000  1.0
  O  O222  1  0.80713000  0.39124000  0.41614000  1.0
  O  O223  1  0.69288000  0.89123000  0.08386000  1.0
  O  O224  1  0.19287000  0.60877000  0.58387000  1.0
  O  O225  1  0.30712000  0.10876000  0.91614000  1.0
  O  O226  1  0.80723000  0.42469000  0.53280000  1.0
  O  O227  1  0.69279000  0.92469000  0.96721000  1.0
  O  O228  1  0.19280000  0.57532000  0.46721000  1.0
  O  O229  1  0.30721000  0.07532000  0.03280000  1.0
  O  O230  1  0.77084000  0.80005000  0.21165000  1.0
  O  O231  1  0.72917000  0.30005000  0.28835000  1.0
  O  O232  1  0.22917000  0.19995000  0.78835000  1.0
  O  O233  1  0.27083000  0.69995000  0.71165000  1.0
  O  O234  1  0.90474000  0.77345000  0.09979000  1.0
  O  O235  1  0.59526000  0.27345000  0.40021000  1.0
  O  O236  1  0.09526000  0.22655000  0.90021000  1.0
  O  O237  1  0.40474000  0.72656000  0.59979000  1.0
  O  O238  1  0.88158000  0.99461000  0.02750000  1.0
  O  O239  1  0.61852000  0.49472000  0.47246000  1.0
  O  O240  1  0.11845000  0.00536000  0.97249000  1.0
  O  O241  1  0.38165000  0.50547000  0.52747000  1.0
  O  O242  1  0.72104000  0.04211000  0.19206000  1.0
  O  O243  1  0.77897000  0.54211000  0.30793000  1.0
  O  O244  1  0.27896000  0.95789000  0.80794000  1.0
  O  O245  1  0.22104000  0.45789000  0.69205000  1.0
  O  O246  1  0.95071000  0.10893000  0.15327000  1.0
  O  O247  1  0.54930000  0.60895000  0.34671000  1.0
  O  O248  1  0.04930000  0.89106000  0.84673000  1.0
  O  O249  1  0.45069000  0.39108000  0.65325000  1.0
