# generated using pymatgen
data_CdH7C7NO7
_symmetry_space_group_name_H-M   'P 1'
_cell_length_a   6.28495000
_cell_length_b   10.75070000
_cell_length_c   15.78224283
_cell_angle_alpha   82.94713594
_cell_angle_beta   79.89441161
_cell_angle_gamma   78.45300000
_symmetry_Int_Tables_number   1
_chemical_formula_structural   CdH7C7NO7
_chemical_formula_sum   'Cd4 H28 C28 N4 O28'
_cell_volume   1024.32060524
_cell_formula_units_Z   4
loop_
 _symmetry_equiv_pos_site_id
 _symmetry_equiv_pos_as_xyz
  1  'x, y, z'
loop_
 _atom_site_type_symbol
 _atom_site_label
 _atom_site_symmetry_multiplicity
 _atom_site_fract_x
 _atom_site_fract_y
 _atom_site_fract_z
 _atom_site_occupancy
  Cd  Cd0  1  0.37835000  0.40461000  0.43316000  1.0
  Cd  Cd1  1  0.62165000  0.59539000  0.56684000  1.0
  Cd  Cd2  1  0.41771000  0.47006000  0.12711000  1.0
  Cd  Cd3  1  0.58229000  0.52994000  0.87289000  1.0
  H  H4  1  0.44039000  0.16127000  0.74526000  1.0
  H  H5  1  0.55961000  0.83874000  0.25474000  1.0
  H  H6  1  0.80636000  0.95186000  0.53173000  1.0
  H  H7  1  0.19364000  0.04814000  0.46827000  1.0
  H  H8  1  0.01454000  0.83641000  0.33429000  1.0
  H  H9  1  0.98546000  0.16359000  0.66571000  1.0
  H  H10  1  0.00145000  0.95084000  0.06271000  1.0
  H  H11  1  0.99856000  0.04916000  0.93729000  1.0
  H  H12  1  0.77764000  0.87273000  0.67812000  1.0
  H  H13  1  0.22235000  0.12727000  0.32189000  1.0
  H  H14  1  0.86997000  0.04143000  0.28192000  1.0
  H  H15  1  0.13003000  0.95856000  0.71808000  1.0
  H  H16  1  0.92848000  0.39563000  0.42074000  1.0
  H  H17  1  0.07153000  0.60437000  0.57926000  1.0
  H  H18  1  0.97698000  0.33001000  0.50970000  1.0
  H  H19  1  0.02302000  0.66999000  0.49030000  1.0
  H  H20  1  0.77927000  0.60363000  0.06071000  1.0
  H  H21  1  0.22073000  0.39637000  0.93929000  1.0
  H  H22  1  0.76977000  0.58736000  0.16616000  1.0
  H  H23  1  0.23023000  0.41264000  0.83384000  1.0
  H  H24  1  0.58143000  0.25955000  0.24607000  1.0
  H  H25  1  0.41857000  0.74045000  0.75393000  1.0
  H  H26  1  0.67530000  0.23353000  0.14613000  1.0
  H  H27  1  0.32470000  0.76646000  0.85387000  1.0
  H  H28  1  0.12252000  0.29208000  0.08919000  1.0
  H  H29  1  0.87749000  0.70792000  0.91080000  1.0
  H  H30  1  0.99946000  0.43407000  0.08854000  1.0
  H  H31  1  0.00054000  0.56593000  0.91146000  1.0
  C  C32  1  0.32339000  0.38527000  0.64505000  1.0
  C  C33  1  0.67661000  0.61473000  0.35494000  1.0
  C  C34  1  0.44126000  0.25595000  0.61675000  1.0
  C  C35  1  0.55874000  0.74404000  0.38325000  1.0
  C  C36  1  0.49457000  0.15338000  0.67654000  1.0
  C  C37  1  0.50543000  0.84663000  0.32346000  1.0
  C  C38  1  0.62628000  0.04081000  0.64667000  1.0
  C  C39  1  0.37371000  0.95919000  0.35333000  1.0
  C  C40  1  0.69901000  0.03569000  0.55771000  1.0
  C  C41  1  0.30098000  0.96431000  0.44229000  1.0
  C  C42  1  0.63066000  0.14143000  0.50236000  1.0
  C  C43  1  0.36934000  0.85857000  0.49764000  1.0
  C  C44  1  0.69763000  0.14290000  0.40531000  1.0
  C  C45  1  0.30237000  0.85710000  0.59469000  1.0
  C  C46  1  0.21788000  0.59177000  0.31170000  1.0
  C  C47  1  0.78213000  0.40823000  0.68829000  1.0
  C  C48  1  0.15637000  0.69686000  0.24417000  1.0
  C  C49  1  0.84363000  0.30315000  0.75583000  1.0
  C  C50  1  0.05212000  0.81722000  0.26675000  1.0
  C  C51  1  0.94789000  0.18278000  0.73324000  1.0
  C  C52  1  0.99370000  0.91295000  0.20105000  1.0
  C  C53  1  0.00630000  0.08705000  0.79895000  1.0
  C  C54  1  0.04492000  0.88010000  0.11522000  1.0
  C  C55  1  0.95509000  0.11990000  0.88478000  1.0
  C  C56  1  0.15510000  0.75799000  0.09881000  1.0
  C  C57  1  0.84490000  0.24202000  0.90118000  1.0
  C  C58  1  0.22701000  0.72216000  0.00712000  1.0
  C  C59  1  0.77299000  0.27784000  0.99288000  1.0
  N  N60  1  0.50375000  0.24806000  0.53141000  1.0
  N  N61  1  0.49626000  0.75195000  0.46858000  1.0
  N  N62  1  0.21091000  0.66705000  0.16191000  1.0
  N  N63  1  0.78909000  0.33295000  0.83809000  1.0
  O  O64  1  0.25553000  0.39521000  0.72342000  1.0
  O  O65  1  0.74447000  0.60480000  0.27657000  1.0
  O  O66  1  0.30869000  0.47860000  0.58432000  1.0
  O  O67  1  0.69131000  0.52140000  0.41568000  1.0
  O  O68  1  0.67988000  0.94399000  0.70594000  1.0
  O  O69  1  0.32012000  0.05601000  0.29406000  1.0
  O  O70  1  0.84085000  0.05006000  0.37792000  1.0
  O  O71  1  0.15915000  0.94994000  0.62208000  1.0
  O  O72  1  0.60565000  0.23595000  0.35840000  1.0
  O  O73  1  0.39434000  0.76405000  0.64161000  1.0
  O  O74  1  0.17662000  0.61371000  0.39118000  1.0
  O  O75  1  0.82339000  0.38630000  0.60882000  1.0
  O  O76  1  0.31726000  0.48350000  0.28798000  1.0
  O  O77  1  0.68274000  0.51651000  0.71202000  1.0
  O  O78  1  0.89248000  0.03011000  0.21661000  1.0
  O  O79  1  0.10752000  0.96988000  0.78339000  1.0
  O  O80  1  0.15136000  0.79705000  0.94728000  1.0
  O  O81  1  0.84864000  0.20296000  0.05272000  1.0
  O  O82  1  0.36400000  0.61708000  0.99843000  1.0
  O  O83  1  0.63600000  0.38292000  0.00157000  1.0
  O  O84  1  0.03925000  0.33041000  0.44765000  1.0
  O  O85  1  0.96075000  0.66959000  0.55235000  1.0
  O  O86  1  0.76907000  0.54510000  0.11382000  1.0
  O  O87  1  0.23092000  0.45490000  0.88618000  1.0
  O  O88  1  0.54629000  0.27455000  0.18655000  1.0
  O  O89  1  0.45371000  0.72545000  0.81345000  1.0
  O  O90  1  0.14590000  0.37926000  0.07096000  1.0
  O  O91  1  0.85410000  0.62074000  0.92904000  1.0
