# generated using pymatgen
data_ErH14C24(NO3)2
_symmetry_space_group_name_H-M   'P 1'
_cell_length_a   9.93848000
_cell_length_b   11.06070000
_cell_length_c   12.83440000
_cell_angle_alpha   98.16780000
_cell_angle_beta   107.83300000
_cell_angle_gamma   111.13600000
_symmetry_Int_Tables_number   1
_chemical_formula_structural   ErH14C24(NO3)2
_chemical_formula_sum   'Er2 H28 C48 N4 O12'
_cell_volume   1200.98399416
_cell_formula_units_Z   2
loop_
 _symmetry_equiv_pos_site_id
 _symmetry_equiv_pos_as_xyz
  1  'x, y, z'
loop_
 _atom_site_type_symbol
 _atom_site_label
 _atom_site_symmetry_multiplicity
 _atom_site_fract_x
 _atom_site_fract_y
 _atom_site_fract_z
 _atom_site_occupancy
  Er  Er0  1  0.15700000  0.70409000  0.19817000  1.0
  Er  Er1  1  0.84299000  0.29591000  0.80183000  1.0
  H  H2  1  0.74005000  0.62295000  0.17777000  1.0
  H  H3  1  0.25993000  0.37704000  0.82221000  1.0
  H  H4  1  0.50869000  0.35662000  0.83603000  1.0
  H  H5  1  0.49128000  0.64336000  0.16396000  1.0
  H  H6  1  0.82647000  0.90757000  0.29379000  1.0
  H  H7  1  0.17354000  0.09244000  0.70622000  1.0
  H  H8  1  0.23292000  0.95258000  0.57126000  1.0
  H  H9  1  0.76709000  0.04744000  0.42875000  1.0
  H  H10  1  0.20958000  0.40155000  0.42714000  1.0
  H  H11  1  0.79042000  0.59846000  0.57287000  1.0
  H  H12  1  0.64201000  0.68893000  0.43343000  1.0
  H  H13  1  0.35798000  0.31107000  0.56658000  1.0
  H  H14  1  0.95564000  0.62262000  0.91117000  1.0
  H  H15  1  0.04434000  0.37738000  0.08882000  1.0
  H  H16  1  0.88928000  0.72586000  0.75579000  1.0
  H  H17  1  0.11072000  0.27415000  0.24420000  1.0
  H  H18  1  0.01914000  0.98145000  0.79824000  1.0
  H  H19  1  0.98087000  0.01856000  0.20176000  1.0
  H  H20  1  0.21196000  0.20290000  0.93873000  1.0
  H  H21  1  0.78806000  0.79711000  0.06128000  1.0
  H  H22  1  0.41283000  0.33477000  0.13358000  1.0
  H  H23  1  0.58719000  0.66523000  0.86643000  1.0
  H  H24  1  0.56632000  0.33813000  0.33222000  1.0
  H  H25  1  0.43369000  0.66186000  0.66779000  1.0
  H  H26  1  0.62863000  0.20476000  0.46881000  1.0
  H  H27  1  0.37137000  0.79522000  0.53119000  1.0
  H  H28  1  0.47638000  0.95303000  0.40460000  1.0
  H  H29  1  0.52362000  0.04695000  0.59539000  1.0
  C  C30  1  0.78681000  0.47933000  0.01472000  1.0
  C  C31  1  0.21318000  0.52066000  0.98526000  1.0
  C  C32  1  0.63779000  0.48804000  0.00823000  1.0
  C  C33  1  0.36220000  0.51195000  0.99176000  1.0
  C  C34  1  0.63377000  0.56893000  0.10082000  1.0
  C  C35  1  0.36621000  0.43106000  0.89917000  1.0
  C  C36  1  0.50326000  0.41883000  0.90724000  1.0
  C  C37  1  0.49671000  0.58115000  0.09274000  1.0
  C  C38  1  0.07328000  0.84291000  0.34401000  1.0
  C  C39  1  0.92674000  0.15710000  0.65600000  1.0
  C  C40  1  0.03409000  0.92253000  0.42451000  1.0
  C  C41  1  0.96591000  0.07749000  0.57550000  1.0
  C  C42  1  0.90239000  0.94890000  0.38414000  1.0
  C  C43  1  0.09761000  0.05111000  0.61587000  1.0
  C  C44  1  0.13120000  0.97384000  0.54095000  1.0
  C  C45  1  0.86881000  0.02618000  0.45907000  1.0
  C  C46  1  0.32753000  0.60197000  0.33799000  1.0
  C  C47  1  0.67247000  0.39803000  0.66201000  1.0
  C  C48  1  0.41704000  0.54903000  0.42103000  1.0
  C  C49  1  0.58295000  0.45098000  0.57897000  1.0
  C  C50  1  0.33682000  0.44309000  0.45898000  1.0
  C  C51  1  0.66317000  0.55691000  0.54103000  1.0
  C  C52  1  0.58100000  0.60599000  0.46282000  1.0
  C  C53  1  0.41900000  0.39402000  0.53719000  1.0
  C  C54  1  0.01159000  0.73192000  0.92800000  1.0
  C  C55  1  0.98841000  0.26808000  0.07199000  1.0
  C  C56  1  0.97515000  0.79134000  0.83971000  1.0
  C  C57  1  0.02486000  0.20867000  0.16029000  1.0
  C  C58  1  0.04728000  0.93003000  0.86252000  1.0
  C  C59  1  0.95274000  0.06998000  0.13748000  1.0
  C  C60  1  0.15970000  0.00869000  0.97329000  1.0
  C  C61  1  0.84031000  0.99132000  0.02671000  1.0
  C  C62  1  0.24137000  0.15274000  0.00357000  1.0
  C  C63  1  0.75864000  0.84726000  0.99644000  1.0
  C  C64  1  0.35115000  0.22495000  0.11099000  1.0
  C  C65  1  0.64887000  0.77505000  0.88901000  1.0
  C  C66  1  0.38859000  0.15853000  0.19613000  1.0
  C  C67  1  0.61142000  0.84147000  0.80387000  1.0
  C  C68  1  0.50412000  0.22806000  0.30744000  1.0
  C  C69  1  0.49589000  0.77193000  0.69257000  1.0
  C  C70  1  0.53763000  0.15587000  0.38332000  1.0
  C  C71  1  0.46237000  0.84411000  0.61667000  1.0
  C  C72  1  0.45305000  0.01438000  0.34818000  1.0
  C  C73  1  0.54695000  0.98560000  0.65182000  1.0
  C  C74  1  0.30814000  0.01558000  0.16894000  1.0
  C  C75  1  0.69187000  0.98441000  0.83106000  1.0
  C  C76  1  0.19032000  0.93988000  0.05651000  1.0
  C  C77  1  0.80969000  0.06012000  0.94349000  1.0
  N  N78  1  0.11398000  0.80342000  0.03390000  1.0
  N  N79  1  0.88602000  0.19657000  0.96610000  1.0
  N  N80  1  0.34031000  0.94578000  0.24495000  1.0
  N  N81  1  0.65969000  0.05421000  0.75505000  1.0
  O  O82  1  0.90954000  0.55027000  0.10417000  1.0
  O  O83  1  0.09044000  0.44973000  0.89581000  1.0
  O  O84  1  0.78280000  0.40323000  0.92899000  1.0
  O  O85  1  0.21719000  0.59676000  0.07100000  1.0
  O  O86  1  0.01270000  0.82797000  0.23675000  1.0
  O  O87  1  0.98729000  0.17202000  0.76326000  1.0
  O  O88  1  0.16881000  0.79219000  0.38264000  1.0
  O  O89  1  0.83123000  0.20785000  0.61737000  1.0
  O  O90  1  0.17937000  0.53393000  0.28541000  1.0
  O  O91  1  0.82061000  0.46607000  0.71459000  1.0
  O  O92  1  0.39944000  0.71502000  0.32160000  1.0
  O  O93  1  0.60055000  0.28497000  0.67839000  1.0
