# generated using pymatgen
data_CuH8C12N6O7
_symmetry_space_group_name_H-M   'P 1'
_cell_length_a   8.35770000
_cell_length_b   8.35780000
_cell_length_c   12.25090000
_cell_angle_alpha   72.66530000
_cell_angle_beta   72.66690000
_cell_angle_gamma   66.55810000
_symmetry_Int_Tables_number   1
_chemical_formula_structural   CuH8C12N6O7
_chemical_formula_sum   'Cu2 H16 C24 N12 O14'
_cell_volume   733.56826784
_cell_formula_units_Z   2
loop_
 _symmetry_equiv_pos_site_id
 _symmetry_equiv_pos_as_xyz
  1  'x, y, z'
loop_
 _atom_site_type_symbol
 _atom_site_label
 _atom_site_symmetry_multiplicity
 _atom_site_fract_x
 _atom_site_fract_y
 _atom_site_fract_z
 _atom_site_occupancy
  Cu  Cu0  1  0.00000000  0.00000000  0.00000000  1.0
  Cu  Cu1  1  0.00000000  0.00000000  0.50000000  1.0
  H  H2  1  0.39212000  0.38465000  0.16886000  1.0
  H  H3  1  0.38468000  0.39208000  0.66886000  1.0
  H  H4  1  0.60788000  0.61535000  0.83114000  1.0
  H  H5  1  0.61532000  0.60792000  0.33114000  1.0
  H  H6  1  0.38535000  0.23711000  0.01889000  1.0
  H  H7  1  0.23711000  0.38533000  0.51889000  1.0
  H  H8  1  0.61465000  0.76290000  0.98111000  1.0
  H  H9  1  0.76289000  0.61466000  0.48111000  1.0
  H  H10  1  0.21446000  0.42405000  0.86192000  1.0
  H  H11  1  0.42407000  0.21444000  0.36190000  1.0
  H  H12  1  0.78553000  0.57595000  0.13808000  1.0
  H  H13  1  0.57592000  0.78556000  0.63810000  1.0
  H  H14  1  0.05843000  0.74899000  0.85736000  1.0
  H  H15  1  0.74896000  0.05846000  0.35735000  1.0
  H  H16  1  0.94156000  0.25102000  0.14264000  1.0
  H  H17  1  0.25103000  0.94154000  0.64265000  1.0
  C  C18  1  0.22417000  0.64212000  0.09224000  1.0
  C  C19  1  0.64212000  0.22416000  0.59222000  1.0
  C  C20  1  0.77584000  0.35789000  0.90776000  1.0
  C  C21  1  0.35788000  0.77584000  0.40778000  1.0
  C  C22  1  0.31966000  0.46041000  0.09890000  1.0
  C  C23  1  0.46041000  0.31964000  0.59889000  1.0
  C  C24  1  0.68033000  0.53960000  0.90110000  1.0
  C  C25  1  0.53959000  0.68035000  0.40111000  1.0
  C  C26  1  0.31693000  0.37923000  0.01567000  1.0
  C  C27  1  0.37922000  0.31690000  0.51567000  1.0
  C  C28  1  0.68307000  0.62077000  0.98432000  1.0
  C  C29  1  0.62077000  0.68310000  0.48433000  1.0
  C  C30  1  0.22188000  0.48226000  0.92785000  1.0
  C  C31  1  0.48225000  0.22188000  0.42784000  1.0
  C  C32  1  0.77813000  0.51774000  0.07214000  1.0
  C  C33  1  0.51775000  0.77812000  0.57216000  1.0
  C  C34  1  0.13248000  0.66354000  0.92527000  1.0
  C  C35  1  0.66354000  0.13250000  0.42526000  1.0
  C  C36  1  0.86752000  0.33646000  0.07473000  1.0
  C  C37  1  0.33646000  0.86749000  0.57475000  1.0
  C  C38  1  0.20856000  0.73555000  0.17970000  1.0
  C  C39  1  0.73556000  0.20854000  0.67969000  1.0
  C  C40  1  0.79145000  0.26445000  0.82030000  1.0
  C  C41  1  0.26445000  0.79145000  0.32031000  1.0
  N  N42  1  0.13329000  0.74156000  0.00613000  1.0
  N  N43  1  0.74156000  0.13329000  0.50612000  1.0
  N  N44  1  0.86671000  0.25844000  0.99387000  1.0
  N  N45  1  0.25844000  0.86671000  0.49388000  1.0
  N  N46  1  0.08170000  0.88282000  0.20405000  1.0
  N  N47  1  0.88281000  0.08169000  0.70405000  1.0
  N  N48  1  0.91830000  0.11718000  0.79595000  1.0
  N  N49  1  0.11719000  0.91831000  0.29595000  1.0
  N  N50  1  0.35739000  0.01738000  0.87267000  1.0
  N  N51  1  0.01738000  0.35739000  0.37268000  1.0
  N  N52  1  0.64261000  0.98262000  0.12733000  1.0
  N  N53  1  0.98261000  0.64261000  0.62732000  1.0
  O  O54  1  0.32959000  0.67042000  0.25001000  1.0
  O  O55  1  0.67042000  0.32958000  0.74999000  1.0
  O  O56  1  0.22185000  0.06777000  0.95762000  1.0
  O  O57  1  0.06776000  0.22184000  0.45762000  1.0
  O  O58  1  0.77814000  0.93224000  0.04238000  1.0
  O  O59  1  0.93224000  0.77816000  0.54237000  1.0
  O  O60  1  0.48416000  0.07040000  0.85766000  1.0
  O  O61  1  0.07040000  0.48416000  0.35767000  1.0
  O  O62  1  0.51584000  0.92960000  0.14234000  1.0
  O  O63  1  0.92959000  0.51584000  0.64233000  1.0
  O  O64  1  0.35556000  0.92146000  0.81251000  1.0
  O  O65  1  0.92149000  0.35558000  0.31249000  1.0
  O  O66  1  0.64444000  0.07854000  0.18749000  1.0
  O  O67  1  0.07851000  0.64443000  0.68751000  1.0
