# generated using pymatgen
data_ZnH3C9N(O2F)2
_symmetry_space_group_name_H-M   'P 1'
_cell_length_a   7.48102000
_cell_length_b   8.93243000
_cell_length_c   16.25160000
_cell_angle_alpha   88.43530000
_cell_angle_beta   77.37220000
_cell_angle_gamma   84.93570000
_symmetry_Int_Tables_number   1
_chemical_formula_structural   ZnH3C9N(O2F)2
_chemical_formula_sum   'Zn2 H6 C18 N2 O8 F4'
_cell_volume   1055.54986678
_cell_formula_units_Z   2
loop_
 _symmetry_equiv_pos_site_id
 _symmetry_equiv_pos_as_xyz
  1  'x, y, z'
loop_
 _atom_site_type_symbol
 _atom_site_label
 _atom_site_symmetry_multiplicity
 _atom_site_fract_x
 _atom_site_fract_y
 _atom_site_fract_z
 _atom_site_occupancy
  Zn  Zn0  1  0.69044000  0.50624000  0.47059000  1.0
  Zn  Zn1  1  0.30958000  0.49381000  0.52941000  1.0
  H  H2  1  0.58904000  0.74354000  0.93787000  1.0
  H  H3  1  0.41092000  0.25646000  0.06214000  1.0
  H  H4  1  0.28803000  0.00440000  0.51929000  1.0
  H  H5  1  0.71200000  0.99566000  0.48069000  1.0
  H  H6  1  0.91607000  0.49308000  0.58482000  1.0
  H  H7  1  0.08395000  0.50696000  0.41519000  1.0
  C  C8  1  0.45931000  0.78946000  0.50249000  1.0
  C  C9  1  0.63030000  0.38995000  0.96685000  1.0
  C  C10  1  0.47262000  0.50247000  0.24953000  1.0
  C  C11  1  0.52738000  0.49757000  0.75047000  1.0
  C  C12  1  0.66173000  0.52981000  0.01736000  1.0
  C  C13  1  0.33823000  0.47019000  0.98264000  1.0
  C  C14  1  0.48263000  0.50259000  0.08696000  1.0
  C  C15  1  0.51734000  0.49741000  0.91305000  1.0
  C  C16  1  0.47059000  0.50183000  0.17483000  1.0
  C  C17  1  0.52938000  0.49819000  0.82517000  1.0
  C  C18  1  0.54072000  0.21057000  0.49749000  1.0
  C  C19  1  0.48452000  0.50289000  0.33704000  1.0
  C  C20  1  0.51549000  0.49715000  0.66296000  1.0
  C  C21  1  0.43024000  0.95599000  0.50582000  1.0
  C  C22  1  0.56980000  0.04407000  0.49417000  1.0
  C  C23  1  0.54889000  0.63613000  0.96640000  1.0
  C  C24  1  0.45105000  0.36388000  0.03361000  1.0
  C  C25  1  0.36966000  0.61005000  0.03316000  1.0
  N  N26  1  0.02846000  0.49550000  0.53315000  1.0
  N  N27  1  0.97156000  0.50454000  0.46686000  1.0
  O  O28  1  0.62355000  0.72890000  0.48197000  1.0
  O  O29  1  0.37648000  0.27114000  0.51803000  1.0
  O  O30  1  0.31378000  0.71970000  0.52125000  1.0
  O  O31  1  0.68623000  0.28034000  0.47873000  1.0
  O  O32  1  0.64494000  0.50657000  0.35090000  1.0
  O  O33  1  0.35506000  0.49349000  0.64910000  1.0
  O  O34  1  0.33538000  0.49929000  0.39286000  1.0
  O  O35  1  0.66463000  0.50072000  0.60714000  1.0
  F  F36  1  0.23992000  0.72092000  0.06622000  1.0
  F  F37  1  0.76004000  0.27908000  0.93379000  1.0
  F  F38  1  0.17770000  0.43872000  0.96412000  1.0
  F  F39  1  0.82225000  0.56128000  0.03589000  1.0
