# generated using pymatgen
data_Zn4H4C24S4Br2O13F2
_symmetry_space_group_name_H-M   'P 1'
_cell_length_a   19.68870000
_cell_length_b   19.72390000
_cell_length_c   33.42390000
_cell_angle_alpha   78.98830000
_cell_angle_beta   79.08940000
_cell_angle_gamma   63.87300000
_symmetry_Int_Tables_number   1
_chemical_formula_structural   Zn4H4C24S4Br2O13F2
_chemical_formula_sum   'Zn16 H16 C96 S16 Br8 O52 F8'
_cell_volume   11357.20183805
_cell_formula_units_Z   4
loop_
 _symmetry_equiv_pos_site_id
 _symmetry_equiv_pos_as_xyz
  1  'x, y, z'
loop_
 _atom_site_type_symbol
 _atom_site_label
 _atom_site_symmetry_multiplicity
 _atom_site_fract_x
 _atom_site_fract_y
 _atom_site_fract_z
 _atom_site_occupancy
  Zn  Zn0  1  0.05624000  0.40000000  0.47810000  1.0
  Zn  Zn1  1  0.98519000  0.48416000  0.56000000  1.0
  Zn  Zn2  1  0.05800000  0.56194000  0.48257000  1.0
  Zn  Zn3  1  0.90032000  0.55429000  0.47961000  1.0
  Zn  Zn4  1  0.69450000  0.34978000  0.27156000  1.0
  Zn  Zn5  1  0.68857000  0.18995000  0.26663000  1.0
  Zn  Zn6  1  0.76913000  0.26518000  0.19015000  1.0
  Zn  Zn7  1  0.84713000  0.19393000  0.27231000  1.0
  Zn  Zn8  1  0.26649000  0.76690000  0.68947000  1.0
  Zn  Zn9  1  0.34907000  0.69701000  0.77156000  1.0
  Zn  Zn10  1  0.19264000  0.84897000  0.77163000  1.0
  Zn  Zn11  1  0.19230000  0.68812000  0.76734000  1.0
  Zn  Zn12  1  0.56063000  0.06026000  0.98343000  1.0
  Zn  Zn13  1  0.40118000  0.05500000  0.97795000  1.0
  Zn  Zn14  1  0.55623000  0.90127000  0.97871000  1.0
  Zn  Zn15  1  0.48281000  0.98218000  0.06005000  1.0
  H  H16  1  0.74894000  0.45177000  0.35017000  1.0
  H  H17  1  0.00143000  0.29800000  0.39963000  1.0
  H  H18  1  0.20104000  0.70062000  0.59890000  1.0
  H  H19  1  0.04976000  0.55010000  0.65083000  1.0
  H  H20  1  0.46318000  0.24021000  0.34103000  1.0
  H  H21  1  0.47949000  0.70272000  0.60130000  1.0
  H  H22  1  0.20286000  0.97940000  0.60143000  1.0
  H  H23  1  0.94774000  0.97037000  0.34785000  1.0
  H  H24  1  0.65082000  0.15124000  0.04953000  1.0
  H  H25  1  0.59883000  0.09865000  0.20048000  1.0
  H  H26  1  0.54748000  0.77029000  0.14840000  1.0
  H  H27  1  0.16249000  0.14165000  0.04038000  1.0
  H  H28  1  0.29796000  0.00147000  0.89971000  1.0
  H  H29  1  0.45133000  0.74956000  0.85038000  1.0
  H  H30  1  0.30105000  0.28013000  0.90205000  1.0
  H  H31  1  0.78694000  0.01016000  0.90882000  1.0
  C  C32  1  0.06164000  0.31655000  0.56165000  1.0
  C  C33  1  0.06937000  0.57032000  0.56875000  1.0
  C  C34  1  0.18344000  0.43950000  0.43868000  1.0
  C  C35  1  0.93692000  0.68402000  0.43887000  1.0
  C  C36  1  0.93063000  0.43058000  0.43112000  1.0
  C  C37  1  0.81694000  0.56111000  0.56228000  1.0
  C  C38  1  0.56559000  0.31134000  0.31136000  1.0
  C  C39  1  0.68132000  0.18044000  0.18077000  1.0
  C  C40  1  0.68969000  0.43315000  0.18842000  1.0
  C  C41  1  0.93484000  0.18748000  0.18950000  1.0
  C  C42  1  0.81925000  0.31872000  0.31921000  1.0
  C  C43  1  0.81055000  0.06559000  0.31146000  1.0
  C  C44  1  0.43377000  0.68946000  0.68816000  1.0
  C  C45  1  0.31827000  0.82034000  0.81908000  1.0
  C  C46  1  0.18862000  0.93382000  0.68821000  1.0
  C  C47  1  0.06616000  0.81015000  0.81131000  1.0
  C  C48  1  0.18142000  0.68043000  0.68104000  1.0
  C  C49  1  0.31341000  0.56620000  0.81142000  1.0
  C  C50  1  0.43827000  0.18399000  0.93861000  1.0
  C  C51  1  0.43112000  0.93068000  0.93096000  1.0
  C  C52  1  0.68449000  0.93915000  0.93884000  1.0
  C  C53  1  0.56148000  0.81560000  0.06161000  1.0
  C  C54  1  0.56901000  0.06869000  0.06926000  1.0
  C  C55  1  0.31555000  0.06129000  0.06097000  1.0
  C  C56  1  0.90085000  0.40354000  0.40222000  1.0
  C  C57  1  0.84942000  0.34614000  0.34769000  1.0
  C  C58  1  0.82955000  0.44560000  0.38746000  1.0
  C  C59  1  0.92082000  0.30417000  0.36234000  1.0
  C  C60  1  0.80445000  0.41775000  0.36094000  1.0
  C  C61  1  0.94592000  0.33202000  0.38886000  1.0
  C  C62  1  0.09892000  0.59922000  0.59677000  1.0
  C  C63  1  0.15191000  0.65154000  0.65298000  1.0
  C  C64  1  0.14202000  0.64207000  0.58315000  1.0
  C  C65  1  0.10879000  0.60867000  0.66666667  1.0
  C  C66  1  0.16783000  0.66759000  0.61046000  1.0
  C  C67  1  0.08297000  0.58316000  0.63929000  1.0
  C  C68  1  0.30462000  0.45480000  0.40102000  1.0
  C  C69  1  0.44605000  0.29689000  0.34900000  1.0
  C  C70  1  0.25841000  0.41600000  0.41398000  1.0
  C  C71  1  0.49083000  0.33677000  0.33645000  1.0
  C  C72  1  0.37796000  0.33985000  0.37261000  1.0
  C  C73  1  0.37269000  0.41153000  0.37745000  1.0
  C  C74  1  0.72593000  0.57575000  0.63030000  1.0
  C  C75  1  0.52423000  0.67365000  0.62126000  1.0
  C  C76  1  0.74291000  0.58509000  0.58783000  1.0
  C  C77  1  0.50895000  0.66378000  0.66360000  1.0
  C  C78  1  0.60351000  0.64149000  0.60898000  1.0
  C  C79  1  0.64657000  0.60784000  0.64243000  1.0
  C  C80  1  0.07609000  0.22569000  0.62981000  1.0
  C  C81  1  0.17385000  0.02417000  0.62127000  1.0
  C  C82  1  0.08552000  0.24255000  0.58730000  1.0
  C  C83  1  0.16368000  0.00899000  0.66361000  1.0
  C  C84  1  0.14183000  0.10331000  0.60883000  1.0
  C  C85  1  0.10809000  0.14644000  0.64213000  1.0
  C  C86  1  0.84223000  0.80092000  0.39712000  1.0
  C  C87  1  0.90361000  0.94971000  0.35245000  1.0
  C  C88  1  0.91064000  0.75843000  0.41373000  1.0
  C  C89  1  0.83493000  0.99078000  0.33636000  1.0
  C  C90  1  0.90651000  0.88022000  0.37468000  1.0
  C  C91  1  0.83976000  0.87028000  0.37489000  1.0
  C  C92  1  0.65300000  0.15280000  0.15145000  1.0
  C  C93  1  0.59686000  0.09685000  0.09854000  1.0
  C  C94  1  0.66655000  0.16663000  0.10844000  1.0
  C  C95  1  0.58319000  0.08318000  0.14156000  1.0
  C  C96  1  0.63928000  0.13947000  0.08266000  1.0
  C  C97  1  0.61044000  0.11035000  0.16733000  1.0
  C  C98  1  0.67416000  0.52385000  0.12017000  1.0
  C  C99  1  0.57642000  0.72545000  0.12860000  1.0
  C  C100  1  0.66503000  0.50708000  0.16270000  1.0
  C  C101  1  0.58657000  0.74049000  0.08624000  1.0
  C  C102  1  0.60840000  0.64632000  0.14109000  1.0
  C  C103  1  0.64203000  0.60310000  0.10781000  1.0
  C  C104  1  0.08247000  0.12361000  0.17807000  1.0
  C  C105  1  0.16997000  0.12514000  0.07275000  1.0
  C  C106  1  0.01024000  0.16242000  0.16528000  1.0
  C  C107  1  0.24111000  0.08628000  0.08630000  1.0
  C  C108  1  0.11184000  0.13890000  0.10621000  1.0
  C  C109  1  0.14041000  0.11012000  0.14448000  1.0
  C  C110  1  0.34567000  0.85011000  0.84777000  1.0
  C  C111  1  0.40361000  0.90092000  0.90233000  1.0
  C  C112  1  0.30377000  0.92127000  0.86245000  1.0
  C  C113  1  0.44549000  0.82973000  0.88767000  1.0
  C  C114  1  0.33189000  0.94608000  0.88897000  1.0
  C  C115  1  0.41739000  0.80495000  0.86112000  1.0
  C  C116  1  0.40791000  0.44855000  0.85301000  1.0
  C  C117  1  0.34550000  0.30037000  0.89749000  1.0
  C  C118  1  0.33962000  0.49147000  0.83634000  1.0
  C  C119  1  0.41401000  0.25889000  0.91369000  1.0
  C  C120  1  0.34307000  0.36973000  0.87527000  1.0
  C  C121  1  0.41004000  0.37921000  0.87515000  1.0
  C  C122  1  0.94503000  0.79504000  0.84918000  1.0
  C  C123  1  0.80396000  0.95342000  0.90098000  1.0
  C  C124  1  0.99131000  0.83372000  0.83606000  1.0
  C  C125  1  0.75911000  0.91366000  0.91371000  1.0
  C  C126  1  0.87193000  0.91024000  0.87737000  1.0
  C  C127  1  0.87702000  0.83852000  0.87272000  1.0
  S  S128  1  0.29884000  0.32637000  0.39722000  1.0
  S  S129  1  0.45097000  0.42625000  0.35313000  1.0
  S  S130  1  0.66131000  0.63319000  0.56283000  1.0
  S  S131  1  0.59009000  0.61557000  0.68878000  1.0
  S  S132  1  0.13370000  0.16092000  0.56257000  1.0
  S  S133  1  0.11548000  0.09011000  0.68859000  1.0
  S  S134  1  0.97189000  0.80377000  0.40192000  1.0
  S  S135  1  0.77364000  0.94579000  0.34793000  1.0
  S  S136  1  0.61674000  0.58880000  0.18738000  1.0
  S  S137  1  0.63462000  0.65928000  0.06132000  1.0
  S  S138  1  0.01369000  0.18244000  0.11198000  1.0
  S  S139  1  0.23820000  0.06625000  0.13948000  1.0
  S  S140  1  0.27805000  0.44648000  0.84796000  1.0
  S  S141  1  0.47578000  0.30339000  0.90217000  1.0
  S  S142  1  0.95106000  0.92353000  0.85262000  1.0
  S  S143  1  0.79872000  0.82402000  0.89723000  1.0
  Br  Br144  1  0.28462000  0.55225000  0.41183000  1.0
  Br  Br145  1  0.79537000  0.52737000  0.66928000  1.0
  Br  Br146  1  0.02776000  0.29500000  0.66869000  1.0
  Br  Br147  1  0.76015000  0.77447000  0.40179000  1.0
  Br  Br148  1  0.72191000  0.45435000  0.08139000  1.0
  Br  Br149  1  0.10609000  0.09102000  0.23229000  1.0
  Br  Br150  1  0.49043000  0.47432000  0.84845000  1.0
  Br  Br151  1  0.96503000  0.69754000  0.83846000  1.0
  O  O152  1  0.00065000  0.49886000  0.49974000  1.0
  O  O153  1  0.07770000  0.31459000  0.52274000  1.0
  O  O154  1  0.03217000  0.53129000  0.58622000  1.0
  O  O155  1  0.15427000  0.50541000  0.45030000  1.0
  O  O156  1  0.02747000  0.37564000  0.58018000  1.0
  O  O157  1  0.15426000  0.39098000  0.44621000  1.0
  O  O158  1  0.08338000  0.58677000  0.53036000  1.0
  O  O159  1  0.00384000  0.65860000  0.44964000  1.0
  O  O160  1  0.88755000  0.49506000  0.44314000  1.0
  O  O161  1  0.89172000  0.65150000  0.44778000  1.0
  O  O162  1  0.99692000  0.38611000  0.44122000  1.0
  O  O163  1  0.87649000  0.52695000  0.58060000  1.0
  O  O164  1  0.81447000  0.57719000  0.52339000  1.0
  O  O165  1  0.74862000  0.25041000  0.25040000  1.0
  O  O166  1  0.59690000  0.35795000  0.30353000  1.0
  O  O167  1  0.66284000  0.16421000  0.21894000  1.0
  O  O168  1  0.72567000  0.37389000  0.17013000  1.0
  O  O169  1  0.59218000  0.24541000  0.29976000  1.0
  O  O170  1  0.67258000  0.43537000  0.22731000  1.0
  O  O171  1  0.72117000  0.21728000  0.16542000  1.0
  O  O172  1  0.87769000  0.22294000  0.16890000  1.0
  O  O173  1  0.86100000  0.25298000  0.30842000  1.0
  O  O174  1  0.93251000  0.17204000  0.22837000  1.0
  O  O175  1  0.75379000  0.36398000  0.30827000  1.0
  O  O176  1  0.74426000  0.09318000  0.29971000  1.0
  O  O177  1  0.85765000  0.09607000  0.30385000  1.0
  O  O178  1  0.25029000  0.75058000  0.74971000  1.0
  O  O179  1  0.37561000  0.72425000  0.66856000  1.0
  O  O180  1  0.36403000  0.75509000  0.80821000  1.0
  O  O181  1  0.17222000  0.93375000  0.72714000  1.0
  O  O182  1  0.43395000  0.67440000  0.72715000  1.0
  O  O183  1  0.22409000  0.87589000  0.66862000  1.0
  O  O184  1  0.25255000  0.86184000  0.80803000  1.0
  O  O185  1  0.09487000  0.85907000  0.80350000  1.0
  O  O186  1  0.16706000  0.66394000  0.71939000  1.0
  O  O187  1  0.09593000  0.74405000  0.79988000  1.0
  O  O188  1  0.21882000  0.71937000  0.66372000  1.0
  O  O189  1  0.35823000  0.59919000  0.80311000  1.0
  O  O190  1  0.24681000  0.59145000  0.80027000  1.0
  O  O191  1  0.49989000  0.00045000  0.99981000  1.0
  O  O192  1  0.50464000  0.15658000  0.95023000  1.0
  O  O193  1  0.38622000  0.99660000  0.94128000  1.0
  O  O194  1  0.65363000  0.89217000  0.94691000  1.0
  O  O195  1  0.39130000  0.15330000  0.94634000  1.0
  O  O196  1  0.65737000  0.00528000  0.95028000  1.0
  O  O197  1  0.49625000  0.88832000  0.94255000  1.0
  O  O198  1  0.57810000  0.81579000  0.02267000  1.0
  O  O199  1  0.53089000  0.03010000  0.08467000  1.0
  O  O200  1  0.52558000  0.87359000  0.08113000  1.0
  O  O201  1  0.58632000  0.08606000  0.03108000  1.0
  O  O202  1  0.31532000  0.07752000  0.02211000  1.0
  O  O203  1  0.37393000  0.02533000  0.08049000  1.0
  F  F204  1  0.78219000  0.51533000  0.39856000  1.0
  F  F205  1  0.96830000  0.23452000  0.35111000  1.0
  F  F206  1  0.16026000  0.66016000  0.54264000  1.0
  F  F207  1  0.09053000  0.59052000  0.70711000  1.0
  F  F208  1  0.70687000  0.20729000  0.09030000  1.0
  F  F209  1  0.54268000  0.04269000  0.15970000  1.0
  F  F210  1  0.23401000  0.96877000  0.85118000  1.0
  F  F211  1  0.51525000  0.78228000  0.89890000  1.0
