# generated using pymatgen
data_CoH24C24(NO2)4
_symmetry_space_group_name_H-M   'P 1'
_cell_length_a   7.24440000
_cell_length_b   8.58232000
_cell_length_c   11.01120000
_cell_angle_alpha   68.00740000
_cell_angle_beta   74.98630000
_cell_angle_gamma   72.60120000
_symmetry_Int_Tables_number   1
_chemical_formula_structural   CoH24C24(NO2)4
_chemical_formula_sum   'Co1 H24 C24 N4 O8'
_cell_volume   597.32002411
_cell_formula_units_Z   1
loop_
 _symmetry_equiv_pos_site_id
 _symmetry_equiv_pos_as_xyz
  1  'x, y, z'
loop_
 _atom_site_type_symbol
 _atom_site_label
 _atom_site_symmetry_multiplicity
 _atom_site_fract_x
 _atom_site_fract_y
 _atom_site_fract_z
 _atom_site_occupancy
  Co  Co0  1  0.50000000  0.50000000  0.00000000  1.0
  H  H1  1  0.09398000  0.67103000  0.96898000  1.0
  H  H2  1  0.90603000  0.32894000  0.03104000  1.0
  H  H3  1  0.13322000  0.49467000  0.08350000  1.0
  H  H4  1  0.86678000  0.50528000  0.91650000  1.0
  H  H5  1  0.48376000  0.04788000  0.83483000  1.0
  H  H6  1  0.51626000  0.95212000  0.16513000  1.0
  H  H7  1  0.65552000  0.02938000  0.93301000  1.0
  H  H8  1  0.34441000  0.97067000  0.06699000  1.0
  H  H9  1  0.84725000  0.15345000  0.40070000  1.0
  H  H10  1  0.15275000  0.84653000  0.59930000  1.0
  H  H11  1  0.04746000  0.33699000  0.40925000  1.0
  H  H12  1  0.95254000  0.66300000  0.59074000  1.0
  H  H13  1  0.04731000  0.36556000  0.63007000  1.0
  H  H14  1  0.95268000  0.63448000  0.36990000  1.0
  H  H15  1  0.86055000  0.19621000  0.83438000  1.0
  H  H16  1  0.13947000  0.80384000  0.16562000  1.0
  H  H17  1  0.63325000  0.71041000  0.72527000  1.0
  H  H18  1  0.36681000  0.28956000  0.27473000  1.0
  H  H19  1  0.64511000  0.71472000  0.50493000  1.0
  H  H20  1  0.35489000  0.28529000  0.49506000  1.0
  H  H21  1  0.31262000  0.31696000  0.67550000  1.0
  H  H22  1  0.68734000  0.68304000  0.32450000  1.0
  H  H23  1  0.29140000  0.34518000  0.89064000  1.0
  H  H24  1  0.70862000  0.65478000  0.10939000  1.0
  C  C25  1  0.68161000  0.80084000  0.88512000  1.0
  C  C26  1  0.31839000  0.19920000  0.11488000  1.0
  C  C27  1  0.63709000  0.99734000  0.84985000  1.0
  C  C28  1  0.36290000  0.00266000  0.15015000  1.0
  C  C29  1  0.74475000  0.06775000  0.61175000  1.0
  C  C30  1  0.25528000  0.93227000  0.38825000  1.0
  C  C31  1  0.85726000  0.16281000  0.49454000  1.0
  C  C32  1  0.14275000  0.83718000  0.50547000  1.0
  C  C33  1  0.96583000  0.26511000  0.50051000  1.0
  C  C34  1  0.03420000  0.73491000  0.49948000  1.0
  C  C35  1  0.97057000  0.27875000  0.62366000  1.0
  C  C36  1  0.02941000  0.72126000  0.37633000  1.0
  C  C37  1  0.86820000  0.18598000  0.73732000  1.0
  C  C38  1  0.13179000  0.81405000  0.26268000  1.0
  C  C39  1  0.56679000  0.62075000  0.71321000  1.0
  C  C40  1  0.43321000  0.37922000  0.28679000  1.0
  C  C41  1  0.57499000  0.62051000  0.58628000  1.0
  C  C42  1  0.42497000  0.37947000  0.41372000  1.0
  C  C43  1  0.49191000  0.50600000  0.56604000  1.0
  C  C44  1  0.50805000  0.49403000  0.43398000  1.0
  C  C45  1  0.38777000  0.40625000  0.68047000  1.0
  C  C46  1  0.61223000  0.59378000  0.31953000  1.0
  C  C47  1  0.37858000  0.41784000  0.80389000  1.0
  C  C48  1  0.62144000  0.58216000  0.19611000  1.0
  N  N49  1  0.76186000  0.08239000  0.73200000  1.0
  N  N50  1  0.23818000  0.91762000  0.26800000  1.0
  N  N51  1  0.47510000  0.51747000  0.82364000  1.0
  N  N52  1  0.52493000  0.48252000  0.17635000  1.0
  O  O53  1  0.16003000  0.61335000  0.04681000  1.0
  O  O54  1  0.83997000  0.38660000  0.95322000  1.0
  O  O55  1  0.52711000  0.73867000  0.93479000  1.0
  O  O56  1  0.47286000  0.26134000  0.06522000  1.0
  O  O57  1  0.85727000  0.71726000  0.87000000  1.0
  O  O58  1  0.14274000  0.28273000  0.13000000  1.0
  O  O59  1  0.63497000  0.97761000  0.61585000  1.0
  O  O60  1  0.36503000  0.02239000  0.38417000  1.0
