# generated using pymatgen
data_ZnH17C24NCl7O4
_symmetry_space_group_name_H-M   'P 1'
_cell_length_a   14.64860000
_cell_length_b   15.14170000
_cell_length_c   15.87450000
_cell_angle_alpha   91.70210000
_cell_angle_beta   89.56810000
_cell_angle_gamma   89.93600000
_symmetry_Int_Tables_number   1
_chemical_formula_structural   ZnH17C24NCl7O4
_chemical_formula_sum   'Zn2 H34 C48 N2 Cl14 O8'
_cell_volume   3519.38207510
_cell_formula_units_Z   2
loop_
 _symmetry_equiv_pos_site_id
 _symmetry_equiv_pos_as_xyz
  1  'x, y, z'
loop_
 _atom_site_type_symbol
 _atom_site_label
 _atom_site_symmetry_multiplicity
 _atom_site_fract_x
 _atom_site_fract_y
 _atom_site_fract_z
 _atom_site_occupancy
  Zn  Zn0  1  0.39500000  0.49632000  0.50282000  1.0
  Zn  Zn1  1  0.60256000  0.49941000  0.49801000  1.0
  H  H2  1  0.93629000  0.52381000  0.62472000  1.0
  H  H3  1  0.64413000  0.16881000  0.32557000  1.0
  H  H4  1  0.68778000  0.64107000  0.92593000  1.0
  H  H5  1  0.57672000  0.68655000  0.92072000  1.0
  H  H6  1  0.61643000  0.61278000  0.83897000  1.0
  H  H7  1  0.32503000  0.55181000  0.83708000  1.0
  H  H8  1  0.28074000  0.48259000  0.91569000  1.0
  H  H9  1  0.26535000  0.59876000  0.92532000  1.0
  H  H10  1  0.71826000  0.58101000  0.08169000  1.0
  H  H11  1  0.65162000  0.54731000  0.16879000  1.0
  H  H12  1  0.69119000  0.46839000  0.09148000  1.0
  H  H13  1  0.06109000  0.62945000  0.53810000  1.0
  H  H14  1  0.24870000  0.54262000  0.06275000  1.0
  H  H15  1  0.29762000  0.43869000  0.03644000  1.0
  H  H16  1  0.30805000  0.48536000  0.14114000  1.0
  H  H17  1  0.43336000  0.27339000  0.06837000  1.0
  H  H18  1  0.44586000  0.33764000  0.16280000  1.0
  H  H19  1  0.35360000  0.35699000  0.09479000  1.0
  H  H20  1  0.64222000  0.37531000  0.03455000  1.0
  H  H21  1  0.59879000  0.37240000  0.14042000  1.0
  H  H22  1  0.57599000  0.28559000  0.06644000  1.0
  H  H23  1  0.40640000  0.01546000  0.38467000  1.0
  H  H24  1  0.42256000  0.07161000  0.61733000  1.0
  H  H25  1  0.46481000  0.94519000  0.31044000  1.0
  H  H26  1  0.35891000  0.91164000  0.35171000  1.0
  H  H27  1  0.59408000  0.02447000  0.64083000  1.0
  H  H28  1  0.52926000  0.95705000  0.70847000  1.0
  H  H29  1  0.64006000  0.92347000  0.67751000  1.0
  H  H30  1  0.59558000  0.04648000  0.39812000  1.0
  H  H31  1  0.36698000  0.28746000  0.61183000  1.0
  H  H32  1  0.39691000  0.20592000  0.68565000  1.0
  H  H33  1  0.47076000  0.29615000  0.66658000  1.0
  H  H34  1  0.59218000  0.27416000  0.34447000  1.0
  H  H35  1  0.69114000  0.24640000  0.39999000  1.0
  C  C36  1  0.52016000  0.66504000  0.50349000  1.0
  C  C37  1  0.54181000  0.81380000  0.57670000  1.0
  C  C38  1  0.51367000  0.76425000  0.50585000  1.0
  C  C39  1  0.50418000  0.94984000  0.50970000  1.0
  C  C40  1  0.46336000  0.10195000  0.56819000  1.0
  C  C41  1  0.56036000  0.08803000  0.44547000  1.0
  C  C42  1  0.47408000  0.49742000  0.66102000  1.0
  C  C43  1  0.47044000  0.19403000  0.56797000  1.0
  C  C44  1  0.56976000  0.17977000  0.44286000  1.0
  C  C45  1  0.52408000  0.23257000  0.50453000  1.0
  C  C46  1  0.50790000  0.04797000  0.50770000  1.0
  C  C47  1  0.49277000  0.40154000  0.05070000  1.0
  C  C48  1  0.90062000  0.51372000  0.56536000  1.0
  C  C49  1  0.09727000  0.56868000  0.52095000  1.0
  C  C50  1  0.80553000  0.51711000  0.56355000  1.0
  C  C51  1  0.19217000  0.56524000  0.52627000  1.0
  C  C52  1  0.80329000  0.48613000  0.42053000  1.0
  C  C53  1  0.19586000  0.42048000  0.47694000  1.0
  C  C54  1  0.89933000  0.48505000  0.41554000  1.0
  C  C55  1  0.09994000  0.41656000  0.47271000  1.0
  C  C56  1  0.94882000  0.49652000  0.49056000  1.0
  C  C57  1  0.04990000  0.49359000  0.49322000  1.0
  C  C58  1  0.47857000  0.40249000  0.95196000  1.0
  C  C59  1  0.52926000  0.33123000  0.50088000  1.0
  C  C60  1  0.46837000  0.49956000  0.34141000  1.0
  C  C61  1  0.40300000  0.56203000  0.95214000  1.0
  C  C62  1  0.58475000  0.54526000  0.95328000  1.0
  C  C63  1  0.57735000  0.55641000  0.05292000  1.0
  C  C64  1  0.39436000  0.54998000  0.05085000  1.0
  C  C65  1  0.47291000  0.50259000  0.25061000  1.0
  C  C66  1  0.48992000  0.50205000  0.91872000  1.0
  C  C67  1  0.48712000  0.50513000  0.08376000  1.0
  C  C68  1  0.42360000  0.24860000  0.63654000  1.0
  C  C69  1  0.48271000  0.50531000  0.17474000  1.0
  C  C70  1  0.62724000  0.21917000  0.37439000  1.0
  C  C71  1  0.61721000  0.62777000  0.90699000  1.0
  C  C72  1  0.31259000  0.54604000  0.90481000  1.0
  C  C73  1  0.66506000  0.53506000  0.10142000  1.0
  C  C74  1  0.30702000  0.49942000  0.07386000  1.0
  C  C75  1  0.42548000  0.33998000  0.09657000  1.0
  C  C76  1  0.58442000  0.35727000  0.07384000  1.0
  C  C77  1  0.42242000  0.94649000  0.36800000  1.0
  C  C78  1  0.57808000  0.95599000  0.65536000  1.0
  C  C79  1  0.48879000  0.49948000  0.82783000  1.0
  C  C80  1  0.48038000  0.49839000  0.75187000  1.0
  C  C81  1  0.46907000  0.90182000  0.43935000  1.0
  C  C82  1  0.54009000  0.90651000  0.57995000  1.0
  C  C83  1  0.47697000  0.80942000  0.43830000  1.0
  N  N84  1  0.75744000  0.50204000  0.49297000  1.0
  N  N85  1  0.24093000  0.49325000  0.50336000  1.0
  Cl  Cl86  1  0.37002000  0.65345000  0.10821000  1.0
  Cl  Cl87  1  0.68214000  0.47321000  0.92424000  1.0
  Cl  Cl88  1  0.36946000  0.35511000  0.92073000  1.0
  Cl  Cl89  1  0.55220000  0.32500000  0.89540000  1.0
  Cl  Cl90  1  0.44190000  0.74888000  0.34965000  1.0
  Cl  Cl91  1  0.57904000  0.75736000  0.66406000  1.0
  Cl  Cl92  1  0.56966000  0.67416000  0.08173000  1.0
  Cl  Cl93  1  0.74717000  0.54084000  0.65490000  1.0
  Cl  Cl94  1  0.24930000  0.65624000  0.56365000  1.0
  Cl  Cl95  1  0.74090000  0.46687000  0.33184000  1.0
  Cl  Cl96  1  0.25905000  0.32979000  0.44875000  1.0
  Cl  Cl97  1  0.95394000  0.47318000  0.32022000  1.0
  Cl  Cl98  1  0.04600000  0.31947000  0.44680000  1.0
  Cl  Cl99  1  0.42080000  0.67629000  0.92424000  1.0
  O  O100  1  0.44526000  0.62399000  0.50716000  1.0
  O  O101  1  0.60005000  0.63171000  0.49831000  1.0
  O  O102  1  0.39373000  0.49497000  0.63008000  1.0
  O  O103  1  0.54932000  0.49897000  0.62135000  1.0
  O  O104  1  0.45354000  0.37182000  0.49958000  1.0
  O  O105  1  0.60825000  0.36729000  0.49847000  1.0
  O  O106  1  0.38925000  0.49758000  0.37572000  1.0
  O  O107  1  0.54492000  0.49844000  0.37800000  1.0
