# generated using pymatgen
data_AlH6C13NO7F
_symmetry_space_group_name_H-M   'P 1'
_cell_length_a   6.83754000
_cell_length_b   11.09720759
_cell_length_c   15.23208660
_cell_angle_alpha   83.98871117
_cell_angle_beta   78.47665775
_cell_angle_gamma   72.23468004
_symmetry_Int_Tables_number   1
_chemical_formula_structural   AlH6C13NO7F
_chemical_formula_sum   'Al2 H12 C26 N2 O14 F2'
_cell_volume   1077.28743952
_cell_formula_units_Z   2
loop_
 _symmetry_equiv_pos_site_id
 _symmetry_equiv_pos_as_xyz
  1  'x, y, z'
loop_
 _atom_site_type_symbol
 _atom_site_label
 _atom_site_symmetry_multiplicity
 _atom_site_fract_x
 _atom_site_fract_y
 _atom_site_fract_z
 _atom_site_occupancy
  Al  Al0  1  0.49404000  0.50939000  0.49434000  1.0
  Al  Al1  1  0.99158000  0.51321000  0.49591000  1.0
  H  H2  1  0.24553000  0.60352000  0.39343000  1.0
  H  H3  1  0.73187000  0.43622000  0.60186000  1.0
  H  H4  1  0.26808000  0.52044000  0.06354000  1.0
  H  H5  1  0.70867000  0.53793000  0.93080000  1.0
  H  H6  1  0.43884000  0.45241000  0.76953000  1.0
  H  H7  1  0.37006000  0.42851000  0.93552000  1.0
  H  H8  1  0.61899000  0.42812000  0.22261000  1.0
  H  H9  1  0.70441000  0.42508000  0.05622000  1.0
  H  H10  1  0.85141000  0.76456000  0.61490000  1.0
  H  H11  1  0.62073000  0.23575000  0.61925000  1.0
  H  H12  1  0.18030000  0.13533000  0.44469000  1.0
  H  H13  1  0.29858000  0.89812000  0.44160000  1.0
  C  C14  1  0.62282000  0.73758000  0.49927000  1.0
  C  C15  1  0.82925000  0.48548000  0.33624000  1.0
  C  C16  1  0.35053000  0.28411000  0.50713000  1.0
  C  C17  1  0.16538000  0.52000000  0.65620000  1.0
  C  C18  1  0.88993000  0.47473000  0.23667000  1.0
  C  C19  1  0.11942000  0.50561000  0.75631000  1.0
  C  C20  1  0.07648000  0.49343000  0.18917000  1.0
  C  C21  1  0.12452000  0.49943000  0.09630000  1.0
  C  C22  1  0.91698000  0.52280000  0.80468000  1.0
  C  C23  1  0.87100000  0.51792000  0.89755000  1.0
  C  C24  1  0.27996000  0.47225000  0.80638000  1.0
  C  C25  1  0.23932000  0.46080000  0.89943000  1.0
  C  C26  1  0.75855000  0.45000000  0.18600000  1.0
  C  C27  1  0.80677000  0.45012000  0.09302000  1.0
  C  C28  1  0.98709000  0.47922000  0.04601000  1.0
  C  C29  1  0.03365000  0.48667000  0.94713000  1.0
  C  C30  1  0.54550000  0.87640000  0.51400000  1.0
  C  C31  1  0.64388000  0.93705000  0.56325000  1.0
  C  C32  1  0.37593000  0.94720000  0.47556000  1.0
  C  C33  1  0.79786000  0.86730000  0.61436000  1.0
  C  C34  1  0.87932000  0.92882000  0.66463000  1.0
  C  C35  1  0.41325000  0.14292000  0.51713000  1.0
  C  C36  1  0.30995000  0.07988000  0.47718000  1.0
  C  C37  1  0.57655000  0.07323000  0.56476000  1.0
  C  C38  1  0.66699000  0.13321000  0.61713000  1.0
  C  C39  1  0.81395000  0.06222000  0.66599000  1.0
  N  N40  1  0.23910000  0.49894000  0.23748000  1.0
  N  N41  1  0.74305000  0.53430000  0.75810000  1.0
  O  O42  1  0.48606000  0.68313000  0.49412000  1.0
  O  O43  1  0.97200000  0.49126000  0.37640000  1.0
  O  O44  1  0.15701000  0.34032000  0.50885000  1.0
  O  O45  1  0.35256000  0.51032000  0.61936000  1.0
  O  O46  1  0.49601000  0.33659000  0.49698000  1.0
  O  O47  1  0.01076000  0.54075000  0.61610000  1.0
  O  O48  1  0.81951000  0.68554000  0.48945000  1.0
  O  O49  1  0.64232000  0.49188000  0.37156000  1.0
  O  O50  1  0.23622000  0.56291000  0.45327000  1.0
  O  O51  1  0.74877000  0.46111000  0.53807000  1.0
  O  O52  1  0.34947000  0.39471000  0.26137000  1.0
  O  O53  1  0.26064000  0.60344000  0.24679000  1.0
  O  O54  1  0.74177000  0.43221000  0.73137000  1.0
  O  O55  1  0.60922000  0.63692000  0.75337000  1.0
  F  F56  1  0.02308000  0.86216000  0.71520000  1.0
  F  F57  1  0.89764000  0.11888000  0.71758000  1.0
