# generated using pymatgen
data_ZnH13C18Br2N7O4
_symmetry_space_group_name_H-M   'P 1'
_cell_length_a   11.09740000
_cell_length_b   16.12250000
_cell_length_c   17.27750000
_cell_angle_alpha   96.03680000
_cell_angle_beta   90.07570000
_cell_angle_gamma   92.21600000
_symmetry_Int_Tables_number   1
_chemical_formula_structural   ZnH13C18Br2N7O4
_chemical_formula_sum   'Zn2 H26 C36 Br4 N14 O8'
_cell_volume   3071.76635683
_cell_formula_units_Z   2
loop_
 _symmetry_equiv_pos_site_id
 _symmetry_equiv_pos_as_xyz
  1  'x, y, z'
loop_
 _atom_site_type_symbol
 _atom_site_label
 _atom_site_symmetry_multiplicity
 _atom_site_fract_x
 _atom_site_fract_y
 _atom_site_fract_z
 _atom_site_occupancy
  Zn  Zn0  1  0.49846000  0.40847000  0.49810000  1.0
  Zn  Zn1  1  0.50521000  0.59321000  0.50494000  1.0
  H  H2  1  0.39472000  0.71462000  0.42109000  1.0
  H  H3  1  0.38227000  0.87060000  0.42482000  1.0
  H  H4  1  0.31420000  0.11087000  0.41564000  1.0
  H  H5  1  0.62910000  0.11849000  0.56263000  1.0
  H  H6  1  0.51213000  0.61779000  0.26588000  1.0
  H  H7  1  0.51447000  0.61612000  0.12026000  1.0
  H  H8  1  0.52564000  0.66007000  0.90443000  1.0
  H  H9  1  0.48444000  0.39306000  0.88956000  1.0
  H  H10  1  0.77161000  0.57330000  0.39197000  1.0
  H  H11  1  0.21963000  0.57627000  0.37793000  1.0
  H  H12  1  0.69225000  0.66795000  0.58841000  1.0
  H  H13  1  0.69655000  0.75477000  0.65540000  1.0
  H  H14  1  0.68376000  0.96431000  0.60650000  1.0
  H  H15  1  0.76069000  0.87642000  0.62073000  1.0
  H  H16  1  0.29899000  0.33773000  0.43401000  1.0
  H  H17  1  0.24256000  0.24251000  0.38990000  1.0
  H  H18  1  0.67714000  0.34134000  0.56322000  1.0
  H  H19  1  0.71902000  0.25202000  0.59931000  1.0
  H  H20  1  0.50892000  0.33356000  0.30550000  1.0
  H  H21  1  0.54190000  0.28402000  0.21463000  1.0
  H  H22  1  0.48516000  0.33602000  0.03253000  1.0
  H  H23  1  0.44168000  0.28517000  0.11024000  1.0
  H  H24  1  0.49601000  0.66977000  0.69786000  1.0
  H  H25  1  0.50356000  0.72420000  0.79047000  1.0
  H  H26  1  0.48826000  0.36229000  0.68051000  1.0
  H  H27  1  0.48076000  0.31731000  0.76797000  1.0
  C  C28  1  0.50914000  0.48973000  0.35043000  1.0
  C  C29  1  0.26597000  0.50901000  0.49938000  1.0
  C  C30  1  0.49564000  0.51514000  0.65416000  1.0
  C  C31  1  0.74085000  0.49885000  0.51197000  1.0
  C  C32  1  0.45124000  0.75739000  0.45987000  1.0
  C  C33  1  0.44426000  0.84239000  0.46217000  1.0
  C  C34  1  0.52174000  0.89379000  0.51352000  1.0
  C  C35  1  0.60260000  0.85657000  0.56105000  1.0
  C  C36  1  0.60265000  0.76723000  0.55566000  1.0
  C  C37  1  0.38619000  0.14613000  0.44879000  1.0
  C  C38  1  0.47061000  0.10459000  0.48843000  1.0
  C  C39  1  0.56187000  0.14997000  0.53193000  1.0
  C  C40  1  0.56604000  0.23707000  0.53438000  1.0
  C  C41  1  0.39404000  0.23404000  0.45413000  1.0
  C  C42  1  0.50601000  0.48415000  0.26428000  1.0
  C  C43  1  0.50926000  0.55930000  0.22807000  1.0
  C  C44  1  0.51088000  0.55878000  0.14842000  1.0
  C  C45  1  0.50578000  0.48163000  0.10089000  1.0
  C  C46  1  0.50082000  0.40583000  0.13511000  1.0
  C  C47  1  0.50306000  0.40647000  0.21775000  1.0
  C  C48  1  0.51458000  0.60061000  0.86822000  1.0
  C  C49  1  0.50563000  0.52719000  0.90447000  1.0
  C  C50  1  0.49201000  0.44968000  0.86030000  1.0
  C  C51  1  0.48753000  0.44450000  0.77886000  1.0
  C  C52  1  0.49777000  0.51927000  0.73976000  1.0
  C  C53  1  0.51037000  0.59801000  0.78679000  1.0
  C  C54  1  0.87645000  0.50380000  0.51175000  1.0
  C  C55  1  0.93509000  0.53868000  0.44848000  1.0
  C  C56  1  0.94363000  0.47519000  0.57026000  1.0
  C  C57  1  0.86956000  0.57271000  0.38953000  1.0
  C  C58  1  0.92824000  0.60771000  0.32977000  1.0
  C  C59  1  0.13057000  0.50723000  0.50448000  1.0
  C  C60  1  0.07160000  0.47633000  0.56673000  1.0
  C  C61  1  0.06391000  0.54017000  0.44480000  1.0
  C  C62  1  0.12177000  0.57474000  0.38171000  1.0
  C  C63  1  0.05608000  0.60835000  0.32564000  1.0
  Br  Br64  1  0.16266000  0.43856000  0.64831000  1.0
  Br  Br65  1  0.86213000  0.43885000  0.65822000  1.0
  Br  Br66  1  0.83427000  0.65375000  0.25460000  1.0
  Br  Br67  1  0.14113000  0.65515000  0.24453000  1.0
  N  N68  1  0.52773000  0.72029000  0.50653000  1.0
  N  N69  1  0.53174000  0.98079000  0.51978000  1.0
  N  N70  1  0.45502000  0.01635000  0.48120000  1.0
  N  N71  1  0.48367000  0.27908000  0.49571000  1.0
  N  N72  1  0.50103000  0.47219000  0.01962000  1.0
  N  N73  1  0.51204000  0.53904000  0.98676000  1.0
  N  N74  1  0.68570000  0.73127000  0.59881000  1.0
  N  N75  1  0.68008000  0.90215000  0.61248000  1.0
  N  N76  1  0.31263000  0.27611000  0.41635000  1.0
  N  N77  1  0.65129000  0.28368000  0.57840000  1.0
  N  N78  1  0.49759000  0.32975000  0.24655000  1.0
  N  N79  1  0.49779000  0.32937000  0.08998000  1.0
  N  N80  1  0.52282000  0.67267000  0.75462000  1.0
  N  N81  1  0.46878000  0.36722000  0.73832000  1.0
  O  O82  1  0.50771000  0.42144000  0.38287000  1.0
  O  O83  1  0.51382000  0.56229000  0.38850000  1.0
  O  O84  1  0.31867000  0.58020000  0.50282000  1.0
  O  O85  1  0.31556000  0.43878000  0.49051000  1.0
  O  O86  1  0.49042000  0.58314000  0.62173000  1.0
  O  O87  1  0.50003000  0.44341000  0.61379000  1.0
  O  O88  1  0.68991000  0.42699000  0.49924000  1.0
  O  O89  1  0.68846000  0.56773000  0.52092000  1.0
