# generated using pymatgen
data_TbH6C9NO10
_symmetry_space_group_name_H-M   'P 1'
_cell_length_a   8.24499000
_cell_length_b   8.74563000
_cell_length_c   8.77434000
_cell_angle_alpha   75.76770000
_cell_angle_beta   75.87590000
_cell_angle_gamma   70.83060000
_symmetry_Int_Tables_number   1
_chemical_formula_structural   TbH6C9NO10
_chemical_formula_sum   'Tb2 H12 C18 N2 O20'
_cell_volume   569.98454924
_cell_formula_units_Z   2
loop_
 _symmetry_equiv_pos_site_id
 _symmetry_equiv_pos_as_xyz
  1  'x, y, z'
loop_
 _atom_site_type_symbol
 _atom_site_label
 _atom_site_symmetry_multiplicity
 _atom_site_fract_x
 _atom_site_fract_y
 _atom_site_fract_z
 _atom_site_occupancy
  Tb  Tb0  1  0.66293000  0.87941000  0.31310000  1.0
  Tb  Tb1  1  0.33707000  0.12059000  0.68690000  1.0
  H  H2  1  0.63373000  0.40542000  0.88647000  1.0
  H  H3  1  0.36627000  0.59458000  0.11353000  1.0
  H  H4  1  0.31017000  0.09885000  0.30500000  1.0
  H  H5  1  0.68984000  0.90115000  0.69500000  1.0
  H  H6  1  0.35823000  0.03571000  0.13538000  1.0
  H  H7  1  0.64178000  0.96429000  0.86462000  1.0
  H  H8  1  0.73712000  0.10306000  0.00131000  1.0
  H  H9  1  0.26289000  0.89694000  0.99868000  1.0
  H  H10  1  0.85859000  0.92005000  0.00202000  1.0
  H  H11  1  0.14141000  0.07995000  0.99799000  1.0
  H  H12  1  0.83377000  0.12370000  0.62429000  1.0
  H  H13  1  0.16623000  0.87630000  0.37570000  1.0
  C  C14  1  0.83534000  0.65807000  0.62633000  1.0
  C  C15  1  0.16466000  0.34193000  0.37367000  1.0
  C  C16  1  0.80198000  0.52983000  0.56091000  1.0
  C  C17  1  0.19801000  0.47018000  0.43909000  1.0
  C  C18  1  0.83522000  0.36608000  0.63891000  1.0
  C  C19  1  0.16478000  0.63392000  0.36109000  1.0
  C  C20  1  0.80579000  0.25340000  0.56881000  1.0
  C  C21  1  0.19421000  0.74660000  0.43119000  1.0
  C  C22  1  0.73368000  0.30786000  0.42929000  1.0
  C  C23  1  0.26633000  0.69214000  0.57072000  1.0
  C  C24  1  0.69502000  0.47602000  0.36313000  1.0
  C  C25  1  0.30498000  0.52398000  0.63688000  1.0
  C  C26  1  0.59287000  0.56407000  0.22944000  1.0
  C  C27  1  0.40712000  0.43592000  0.77056000  1.0
  C  C28  1  0.88559000  0.31071000  0.80067000  1.0
  C  C29  1  0.11441000  0.68929000  0.19933000  1.0
  C  C30  1  0.69435000  0.17808000  0.37189000  1.0
  C  C31  1  0.30568000  0.82191000  0.62809000  1.0
  N  N32  1  0.73446000  0.58059000  0.42762000  1.0
  N  N33  1  0.26554000  0.41941000  0.57238000  1.0
  O  O34  1  0.79905000  0.80582000  0.54129000  1.0
  O  O35  1  0.20095000  0.19418000  0.45872000  1.0
  O  O36  1  0.89188000  0.61578000  0.75353000  1.0
  O  O37  1  0.10812000  0.38423000  0.24648000  1.0
  O  O38  1  0.03740000  0.23091000  0.82010000  1.0
  O  O39  1  0.96260000  0.76910000  0.17990000  1.0
  O  O40  1  0.75602000  0.32648000  0.92205000  1.0
  O  O41  1  0.24398000  0.67351000  0.07795000  1.0
  O  O42  1  0.55883000  0.13334000  0.44918000  1.0
  O  O43  1  0.44117000  0.86666000  0.55082000  1.0
  O  O44  1  0.79993000  0.10378000  0.26524000  1.0
  O  O45  1  0.20005000  0.89623000  0.73478000  1.0
  O  O46  1  0.51427000  0.48661000  0.18246000  1.0
  O  O47  1  0.48572000  0.51339000  0.81754000  1.0
  O  O48  1  0.58248000  0.71617000  0.18312000  1.0
  O  O49  1  0.41752000  0.28383000  0.81688000  1.0
  O  O50  1  0.40543000  0.03966000  0.22739000  1.0
  O  O51  1  0.59457000  0.96035000  0.77261000  1.0
  O  O52  1  0.73616000  0.98807000  0.01387000  1.0
  O  O53  1  0.26384000  0.01192000  0.98613000  1.0
