# generated using pymatgen
data_AlH16C23(ClO4)2
_symmetry_space_group_name_H-M   'P 1'
_cell_length_a   6.61442000
_cell_length_b   22.31870000
_cell_length_c   26.98790000
_cell_angle_alpha   77.72700000
_cell_angle_beta   89.99970000
_cell_angle_gamma   89.99960000
_symmetry_Int_Tables_number   1
_chemical_formula_structural   AlH16C23(ClO4)2
_chemical_formula_sum   'Al4 H64 C92 Cl8 O32'
_cell_volume   3893.04253418
_cell_formula_units_Z   4
loop_
 _symmetry_equiv_pos_site_id
 _symmetry_equiv_pos_as_xyz
  1  'x, y, z'
loop_
 _atom_site_type_symbol
 _atom_site_label
 _atom_site_symmetry_multiplicity
 _atom_site_fract_x
 _atom_site_fract_y
 _atom_site_fract_z
 _atom_site_occupancy
  Al  Al0  1  0.80104000  0.74829000  0.75091000  1.0
  Al  Al1  1  0.18596000  0.25222000  0.24921000  1.0
  Al  Al2  1  0.30104000  0.75171000  0.74909000  1.0
  Al  Al3  1  0.68597000  0.24779000  0.25079000  1.0
  H  H4  1  0.90240000  0.61872000  0.89800000  1.0
  H  H5  1  0.08398000  0.38155000  0.10130000  1.0
  H  H6  1  0.40239000  0.88129000  0.60200000  1.0
  H  H7  1  0.58399000  0.11845000  0.39870000  1.0
  H  H8  1  0.74574000  0.88314000  0.83335000  1.0
  H  H9  1  0.26028000  0.12726000  0.16128000  1.0
  H  H10  1  0.24577000  0.61684000  0.66666667  1.0
  H  H11  1  0.76026000  0.37274000  0.33872000  1.0
  H  H12  1  0.74661000  0.95125000  0.89576000  1.0
  H  H13  1  0.27584000  0.06115000  0.09832000  1.0
  H  H14  1  0.24664000  0.54875000  0.60424000  1.0
  H  H15  1  0.77583000  0.43885000  0.40168000  1.0
  H  H16  1  0.34181000  0.82094000  0.88137000  1.0
  H  H17  1  0.63390000  0.16539000  0.12428000  1.0
  H  H18  1  0.84183000  0.67905000  0.61864000  1.0
  H  H19  1  0.13388000  0.33462000  0.37572000  1.0
  H  H20  1  0.33170000  0.99477000  0.95681000  1.0
  H  H21  1  0.67731000  0.00113000  0.04583000  1.0
  H  H22  1  0.83173000  0.50522000  0.54319000  1.0
  H  H23  1  0.17732000  0.49887000  0.45417000  1.0
  H  H24  1  0.29435000  0.06086000  0.01837000  1.0
  H  H25  1  0.71356000  0.93567000  0.98387000  1.0
  H  H26  1  0.79436000  0.43914000  0.48162000  1.0
  H  H27  1  0.21358000  0.56433000  0.51613000  1.0
  H  H28  1  0.66837000  0.67469000  0.01423000  1.0
  H  H29  1  0.68734000  0.65184000  0.08248000  1.0
  H  H30  1  0.44687000  0.67278000  0.05311000  1.0
  H  H31  1  0.31447000  0.34886000  0.91935000  1.0
  H  H32  1  0.33272000  0.32756000  0.98770000  1.0
  H  H33  1  0.55554000  0.33028000  0.94923000  1.0
  H  H34  1  0.16845000  0.82531000  0.48578000  1.0
  H  H35  1  0.18743000  0.84815000  0.41753000  1.0
  H  H36  1  0.94698000  0.82721000  0.44689000  1.0
  H  H37  1  0.81439000  0.15113000  0.58065000  1.0
  H  H38  1  0.83264000  0.17244000  0.51230000  1.0
  H  H39  1  0.05546000  0.16974000  0.55078000  1.0
  H  H40  1  0.38792000  0.49353000  0.18026000  1.0
  H  H41  1  0.33100000  0.53913000  0.11835000  1.0
  H  H42  1  0.34470000  0.57419000  0.17254000  1.0
  H  H43  1  0.66067000  0.46297000  0.88241000  1.0
  H  H44  1  0.60222000  0.50793000  0.82035000  1.0
  H  H45  1  0.64911000  0.42741000  0.82848000  1.0
  H  H46  1  0.88794000  0.00648000  0.31974000  1.0
  H  H47  1  0.83101000  0.96088000  0.38165000  1.0
  H  H48  1  0.84471000  0.92582000  0.32746000  1.0
  H  H49  1  0.16063000  0.03702000  0.61759000  1.0
  H  H50  1  0.10221000  0.99206000  0.67965000  1.0
  H  H51  1  0.14912000  0.07257000  0.67152000  1.0
  H  H52  1  0.59564000  0.83373000  0.93221000  1.0
  H  H53  1  0.40849000  0.78690000  0.97063000  1.0
  H  H54  1  0.58225000  0.83209000  0.99869000  1.0
  H  H55  1  0.74884000  0.13610000  0.98167000  1.0
  H  H56  1  0.63611000  0.19424000  0.01000000  1.0
  H  H57  1  0.47876000  0.14194000  0.98522000  1.0
  H  H58  1  0.09565000  0.66626000  0.56780000  1.0
  H  H59  1  0.90850000  0.71309000  0.52938000  1.0
  H  H60  1  0.08228000  0.66791000  0.50132000  1.0
  H  H61  1  0.24887000  0.36390000  0.51833000  1.0
  H  H62  1  0.13612000  0.30577000  0.48999000  1.0
  H  H63  1  0.97878000  0.35806000  0.51478000  1.0
  H  H64  1  0.54396000  0.70625000  0.81132000  1.0
  H  H65  1  0.44301000  0.28999000  0.18705000  1.0
  H  H66  1  0.04396000  0.79375000  0.68868000  1.0
  H  H67  1  0.94301000  0.21001000  0.31295000  1.0
  C  C68  1  0.55052000  0.69027000  0.68461000  1.0
  C  C69  1  0.43718000  0.31076000  0.31460000  1.0
  C  C70  1  0.05052000  0.80973000  0.81539000  1.0
  C  C71  1  0.93719000  0.18924000  0.18539000  1.0
  C  C72  1  0.55456000  0.85063000  0.69386000  1.0
  C  C73  1  0.43205000  0.14984000  0.30678000  1.0
  C  C74  1  0.05456000  0.64937000  0.80613000  1.0
  C  C75  1  0.93205000  0.35016000  0.19322000  1.0
  C  C76  1  0.91130000  0.41103000  0.15749000  1.0
  C  C77  1  0.07513000  0.58867000  0.84211000  1.0
  C  C78  1  0.41129000  0.08897000  0.34251000  1.0
  C  C79  1  0.57511000  0.91133000  0.65789000  1.0
  C  C80  1  0.73458000  0.50839000  0.13275000  1.0
  C  C81  1  0.25573000  0.49210000  0.86777000  1.0
  C  C82  1  0.23459000  0.99161000  0.36725000  1.0
  C  C83  1  0.75570000  0.00790000  0.63223000  1.0
  C  C84  1  0.79233000  0.45811000  0.17009000  1.0
  C  C85  1  0.19577000  0.54161000  0.83002000  1.0
  C  C86  1  0.29234000  0.04190000  0.32991000  1.0
  C  C87  1  0.69575000  0.95839000  0.66998000  1.0
  C  C88  1  0.99325000  0.41872000  0.10949000  1.0
  C  C89  1  0.99378000  0.58150000  0.89015000  1.0
  C  C90  1  0.49325000  0.08129000  0.39050000  1.0
  C  C91  1  0.49378000  0.91850000  0.60986000  1.0
  C  C92  1  0.95167000  0.47088000  0.07102000  1.0
  C  C93  1  0.03702000  0.52991000  0.92910000  1.0
  C  C94  1  0.45168000  0.02912000  0.42898000  1.0
  C  C95  1  0.53699000  0.97009000  0.57090000  1.0
  C  C96  1  0.80396000  0.51345000  0.08169000  1.0
  C  C97  1  0.18647000  0.48759000  0.91877000  1.0
  C  C98  1  0.30399000  0.98655000  0.41831000  1.0
  C  C99  1  0.68645000  0.01241000  0.58123000  1.0
  C  C100  1  0.03993000  0.47970000  0.02082000  1.0
  C  C101  1  0.94919000  0.52147000  0.97936000  1.0
  C  C102  1  0.53994000  0.02030000  0.47919000  1.0
  C  C103  1  0.44918000  0.97853000  0.52065000  1.0
  C  C104  1  0.77192000  0.55368000  0.99046000  1.0
  C  C105  1  0.21867000  0.44800000  0.01002000  1.0
  C  C106  1  0.27192000  0.94632000  0.50954000  1.0
  C  C107  1  0.71867000  0.05200000  0.48998000  1.0
  C  C108  1  0.71324000  0.55460000  0.03957000  1.0
  C  C109  1  0.27887000  0.44716000  0.96101000  1.0
  C  C110  1  0.21325000  0.94540000  0.46042000  1.0
  C  C111  1  0.77886000  0.05285000  0.53899000  1.0
  C  C112  1  0.87534000  0.88456000  0.85796000  1.0
  C  C113  1  0.12718000  0.12091000  0.13917000  1.0
  C  C114  1  0.37536000  0.61543000  0.64204000  1.0
  C  C115  1  0.62716000  0.37909000  0.36082000  1.0
  C  C116  1  0.87609000  0.92170000  0.89334000  1.0
  C  C117  1  0.13481000  0.08423000  0.10362000  1.0
  C  C118  1  0.37614000  0.57829000  0.60667000  1.0
  C  C119  1  0.63481000  0.41577000  0.39638000  1.0
  C  C120  1  0.03850000  0.92233000  0.92678000  1.0
  C  C121  1  0.96549000  0.07617000  0.07401000  1.0
  C  C122  1  0.53853000  0.57767000  0.57322000  1.0
  C  C123  1  0.46550000  0.42383000  0.42599000  1.0
  C  C124  1  0.20660000  0.88391000  0.92314000  1.0
  C  C125  1  0.78570000  0.10726000  0.08195000  1.0
  C  C126  1  0.70665000  0.61608000  0.57687000  1.0
  C  C127  1  0.28571000  0.39275000  0.41805000  1.0
  C  C128  1  0.21166000  0.84916000  0.88578000  1.0
  C  C129  1  0.77501000  0.14241000  0.11874000  1.0
  C  C130  1  0.71168000  0.65084000  0.61423000  1.0
  C  C131  1  0.27499000  0.35760000  0.38126000  1.0
  C  C132  1  0.04575000  0.84894000  0.85364000  1.0
  C  C133  1  0.94575000  0.14968000  0.14747000  1.0
  C  C134  1  0.54578000  0.65105000  0.64637000  1.0
  C  C135  1  0.44572000  0.35032000  0.35253000  1.0
  C  C136  1  0.18772000  0.99593000  0.97621000  1.0
  C  C137  1  0.82021000  0.00072000  0.02594000  1.0
  C  C138  1  0.68774000  0.50406000  0.52379000  1.0
  C  C139  1  0.32022000  0.49930000  0.47406000  1.0
  C  C140  1  0.16604000  0.03346000  0.01093000  1.0
  C  C141  1  0.84142000  0.96361000  0.99089000  1.0
  C  C142  1  0.66604000  0.46655000  0.48906000  1.0
  C  C143  1  0.34144000  0.53639000  0.50912000  1.0
  C  C144  1  0.98210000  0.03698000  0.03645000  1.0
  C  C145  1  0.02479000  0.96054000  0.96508000  1.0
  C  C146  1  0.48209000  0.46302000  0.46355000  1.0
  C  C147  1  0.52482000  0.53945000  0.53492000  1.0
  C  C148  1  0.59240000  0.65077000  0.04920000  1.0
  C  C149  1  0.40789000  0.35134000  0.95259000  1.0
  C  C150  1  0.09249000  0.84922000  0.45080000  1.0
  C  C151  1  0.90782000  0.14867000  0.54741000  1.0
  C  C152  1  0.40693000  0.53851000  0.15466000  1.0
  C  C153  1  0.58493000  0.46300000  0.84616000  1.0
  C  C154  1  0.90694000  0.96149000  0.34534000  1.0
  C  C155  1  0.08491000  0.03699000  0.65384000  1.0
  C  C156  1  0.49320000  0.83034000  0.96479000  1.0
  C  C157  1  0.62148000  0.14680000  0.00466000  1.0
  C  C158  1  0.99322000  0.66966000  0.53521000  1.0
  C  C159  1  0.12149000  0.35320000  0.49534000  1.0
  Cl  Cl160  1  0.26582000  0.54473000  0.76800000  1.0
  Cl  Cl161  1  0.72213000  0.45400000  0.23222000  1.0
  Cl  Cl162  1  0.76581000  0.95526000  0.73201000  1.0
  Cl  Cl163  1  0.22217000  0.04600000  0.26778000  1.0
  Cl  Cl164  1  0.60269000  0.58854000  0.94382000  1.0
  Cl  Cl165  1  0.38752000  0.41400000  0.05697000  1.0
  Cl  Cl166  1  0.10270000  0.91146000  0.55617000  1.0
  Cl  Cl167  1  0.88754000  0.08600000  0.44304000  1.0
  O  O168  1  0.37948000  0.82859000  0.70529000  1.0
  O  O169  1  0.60763000  0.17119000  0.29503000  1.0
  O  O170  1  0.87947000  0.67140000  0.79471000  1.0
  O  O171  1  0.10761000  0.32881000  0.20496000  1.0
  O  O172  1  0.72338000  0.70443000  0.69962000  1.0
  O  O173  1  0.26336000  0.29754000  0.29949000  1.0
  O  O174  1  0.22338000  0.79558000  0.80037000  1.0
  O  O175  1  0.76338000  0.20247000  0.20051000  1.0
  O  O176  1  0.72138000  0.82465000  0.70828000  1.0
  O  O177  1  0.26561000  0.17639000  0.29291000  1.0
  O  O178  1  0.22136000  0.67536000  0.79173000  1.0
  O  O179  1  0.76562000  0.32361000  0.20711000  1.0
  O  O180  1  0.88013000  0.79260000  0.80135000  1.0
  O  O181  1  0.10620000  0.20784000  0.19903000  1.0
  O  O182  1  0.38012000  0.70738000  0.69866000  1.0
  O  O183  1  0.60618000  0.29215000  0.30097000  1.0
  O  O184  1  0.54974000  0.73848000  0.78097000  1.0
  O  O185  1  0.43712000  0.26065000  0.21911000  1.0
  O  O186  1  0.04975000  0.76152000  0.71903000  1.0
  O  O187  1  0.93712000  0.23935000  0.28089000  1.0
  O  O188  1  0.54683000  0.58842000  0.04679000  1.0
  O  O189  1  0.44786000  0.41434000  0.95400000  1.0
  O  O190  1  0.04687000  0.91157000  0.45321000  1.0
  O  O191  1  0.94783000  0.08567000  0.54600000  1.0
  O  O192  1  0.61852000  0.55348000  0.14568000  1.0
  O  O193  1  0.37398000  0.44720000  0.85522000  1.0
  O  O194  1  0.11853000  0.94653000  0.35432000  1.0
  O  O195  1  0.87397000  0.05279000  0.64478000  1.0
  O  O196  1  0.35717000  0.88140000  0.95845000  1.0
  O  O197  1  0.61359000  0.10456000  0.05285000  1.0
  O  O198  1  0.85720000  0.61860000  0.54155000  1.0
  O  O199  1  0.11359000  0.39544000  0.44715000  1.0
