# generated using pymatgen
data_Zn4H39C72(N5O2)5
_symmetry_space_group_name_H-M   'P 1'
_cell_length_a   20.04310000
_cell_length_b   20.26890000
_cell_length_c   20.66230000
_cell_angle_alpha   104.48300000
_cell_angle_beta   106.85400000
_cell_angle_gamma   112.69800000
_symmetry_Int_Tables_number   1
_chemical_formula_structural   Zn4H39C72(N5O2)5
_chemical_formula_sum   'Zn4 H39 C72 N25 O10'
_cell_volume   6759.89549817
_cell_formula_units_Z   1
loop_
 _symmetry_equiv_pos_site_id
 _symmetry_equiv_pos_as_xyz
  1  'x, y, z'
loop_
 _atom_site_type_symbol
 _atom_site_label
 _atom_site_symmetry_multiplicity
 _atom_site_fract_x
 _atom_site_fract_y
 _atom_site_fract_z
 _atom_site_occupancy
  Zn  Zn0  1  0.39530000  0.37913000  0.50496000  1.0
  Zn  Zn1  1  0.61570000  0.60404000  0.50817000  1.0
  Zn  Zn2  1  0.41259000  0.48009000  0.38868000  1.0
  Zn  Zn3  1  0.59382000  0.49659000  0.61658000  1.0
  H  H4  1  0.72854000  0.55977000  0.45582000  1.0
  H  H5  1  0.43024000  0.45957000  0.22519000  1.0
  H  H6  1  0.42143000  0.24517000  0.42056000  1.0
  H  H7  1  0.71499000  0.43320000  0.59631000  1.0
  H  H8  1  0.25164000  0.35428000  0.24495000  1.0
  H  H9  1  0.34897000  0.42478000  0.66334000  1.0
  H  H10  1  0.36913000  0.60097000  0.47670000  1.0
  H  H11  1  0.72343000  0.65262000  0.78225000  1.0
  H  H12  1  0.69572000  0.77478000  0.64089000  1.0
  H  H13  1  0.57445000  0.62610000  0.72060000  1.0
  H  H14  1  0.39439000  0.61674000  0.32796000  1.0
  H  H15  1  0.47542000  0.00374000  0.31667000  1.0
  H  H16  1  0.60761000  0.97751000  0.35397000  1.0
  H  H17  1  0.39935000  0.89329000  0.36921000  1.0
  H  H18  1  0.47335000  0.01644000  0.51259000  1.0
  H  H19  1  0.60612000  0.98978000  0.54960000  1.0
  H  H20  1  0.68186000  0.10017000  0.49670000  1.0
  H  H21  1  0.95616000  0.39925000  0.51092000  1.0
  H  H22  1  0.02084000  0.46097000  0.42008000  1.0
  H  H23  1  0.10893000  0.50095000  0.63488000  1.0
  H  H24  1  0.06327000  0.61674000  0.66684000  1.0
  H  H25  1  0.12754000  0.67842000  0.57642000  1.0
  H  H26  1  0.97547000  0.57757000  0.45257000  1.0
  H  H27  1  0.48780000  0.49124000  0.13801000  1.0
  H  H28  1  0.60021000  0.72837000  0.30176000  1.0
  H  H29  1  0.59625000  0.67819000  0.97130000  1.0
  H  H30  1  0.59296000  0.77613000  0.20209000  1.0
  H  H31  1  0.58667000  0.62755000  0.84457000  1.0
  H  H32  1  0.72884000  0.75744000  0.87420000  1.0
  H  H33  1  0.80243000  0.87867000  0.99047000  1.0
  H  H34  1  0.98578000  0.01281000  0.17992000  1.0
  H  H35  1  0.12254000  0.11305000  0.27783000  1.0
  H  H36  1  0.80098000  0.89633000  0.75390000  1.0
  H  H37  1  0.87277000  0.01749000  0.87078000  1.0
  H  H38  1  0.25374000  0.21095000  0.36871000  1.0
  H  H39  1  0.61072000  0.76233000  0.53368000  1.0
  H  H40  1  0.24681000  0.40686000  0.52787000  1.0
  H  H41  1  0.62199000  0.33932000  0.63334000  1.0
  H  H42  1  0.11487000  0.27515000  0.17755000  1.0
  C  C43  1  0.26620000  0.25579000  0.34704000  1.0
  C  C44  1  0.71361000  0.52999000  0.49070000  1.0
  C  C45  1  0.48533000  0.50273000  0.27466000  1.0
  C  C46  1  0.57025000  0.32702000  0.58617000  1.0
  C  C47  1  0.59934000  0.60452000  0.35987000  1.0
  C  C48  1  0.46802000  0.27841000  0.47707000  1.0
  C  C49  1  0.70678000  0.46533000  0.56269000  1.0
  C  C50  1  0.26460000  0.32884000  0.28418000  1.0
  C  C51  1  0.21528000  0.25781000  0.28497000  1.0
  C  C52  1  0.75276000  0.49578000  0.52651000  1.0
  C  C53  1  0.54574000  0.57424000  0.28401000  1.0
  C  C54  1  0.52758000  0.26397000  0.51537000  1.0
  C  C55  1  0.40556000  0.46595000  0.66712000  1.0
  C  C56  1  0.55643000  0.71494000  0.48597000  1.0
  C  C57  1  0.34716000  0.54784000  0.48591000  1.0
  C  C58  1  0.70950000  0.67067000  0.73711000  1.0
  C  C59  1  0.69564000  0.73298000  0.66505000  1.0
  C  C60  1  0.28419000  0.44780000  0.51134000  1.0
  C  C61  1  0.52110000  0.56919000  0.69702000  1.0
  C  C62  1  0.44625000  0.64078000  0.38022000  1.0
  C  C63  1  0.45798000  0.54537000  0.71788000  1.0
  C  C64  1  0.50664000  0.71950000  0.42511000  1.0
  C  C65  1  0.28793000  0.51850000  0.51057000  1.0
  C  C66  1  0.72501000  0.74561000  0.74019000  1.0
  C  C67  1  0.57781000  0.98650000  0.38942000  1.0
  C  C68  1  0.50419000  0.00030000  0.36855000  1.0
  C  C69  1  0.53888000  0.19959000  0.48965000  1.0
  C  C70  1  0.51599000  0.78781000  0.41447000  1.0
  C  C71  1  0.61896000  0.05390000  0.46860000  1.0
  C  C72  1  0.54510000  0.06911000  0.44834000  1.0
  C  C73  1  0.57704000  0.99408000  0.49835000  1.0
  C  C74  1  0.53546000  0.92478000  0.41897000  1.0
  C  C75  1  0.50298000  0.00664000  0.47726000  1.0
  C  C76  1  0.46196000  0.94021000  0.39798000  1.0
  C  C77  1  0.54559000  0.14167000  0.46762000  1.0
  C  C78  1  0.52764000  0.85033000  0.41099000  1.0
  C  C79  1  0.02892000  0.49513000  0.47471000  1.0
  C  C80  1  0.99496000  0.46122000  0.52527000  1.0
  C  C81  1  0.82583000  0.49995000  0.53105000  1.0
  C  C82  1  0.23691000  0.54526000  0.52642000  1.0
  C  C83  1  0.00586000  0.56047000  0.49283000  1.0
  C  C84  1  0.96905000  0.52582000  0.54279000  1.0
  C  C85  1  0.08911000  0.61623000  0.56162000  1.0
  C  C86  1  0.11427000  0.55119000  0.54338000  1.0
  C  C87  1  0.05428000  0.58220000  0.61193000  1.0
  C  C88  1  0.07805000  0.51718000  0.59408000  1.0
  C  C89  1  0.89267000  0.51182000  0.53839000  1.0
  C  C90  1  0.18463000  0.55530000  0.53837000  1.0
  C  C91  1  0.46097000  0.58839000  0.78792000  1.0
  C  C92  1  0.53482000  0.62719000  0.85182000  1.0
  C  C93  1  0.54116000  0.65668000  0.92257000  1.0
  C  C94  1  0.47296000  0.64921000  0.93350000  1.0
  C  C95  1  0.40139000  0.62127000  0.87062000  1.0
  C  C96  1  0.39597000  0.59156000  0.79949000  1.0
  C  C97  1  0.50506000  0.58107000  0.09795000  1.0
  C  C98  1  0.50957000  0.55371000  0.15332000  1.0
  C  C99  1  0.53482000  0.66177000  0.11426000  1.0
  C  C100  1  0.54471000  0.60610000  0.22787000  1.0
  C  C101  1  0.57431000  0.68673000  0.24463000  1.0
  C  C102  1  0.57033000  0.71386000  0.18898000  1.0
  C  C103  1  0.13206000  0.20080000  0.23334000  1.0
  C  C104  1  0.08874000  0.21774000  0.17906000  1.0
  C  C105  1  0.01178000  0.16188000  0.12599000  1.0
  C  C106  1  0.97469000  0.08535000  0.12304000  1.0
  C  C107  1  0.01503000  0.07141000  0.18145000  1.0
  C  C108  1  0.09200000  0.12750000  0.23529000  1.0
  C  C109  1  0.80099000  0.88154000  0.93817000  1.0
  C  C110  1  0.76102000  0.81441000  0.87336000  1.0
  C  C111  1  0.84342000  0.95514000  0.93750000  1.0
  C  C112  1  0.76176000  0.81775000  0.80597000  1.0
  C  C113  1  0.79987000  0.89204000  0.80518000  1.0
  C  C114  1  0.84002000  0.95981000  0.86998000  1.0
  N  N115  1  0.33906000  0.32063000  0.38132000  1.0
  N  N116  1  0.65109000  0.52233000  0.50653000  1.0
  N  N117  1  0.50153000  0.49275000  0.33933000  1.0
  N  N118  1  0.53851000  0.37460000  0.59016000  1.0
  N  N119  1  0.57189000  0.55466000  0.39028000  1.0
  N  N120  1  0.47494000  0.34405000  0.52219000  1.0
  N  N121  1  0.64669000  0.48224000  0.55037000  1.0
  N  N122  1  0.33772000  0.36563000  0.34157000  1.0
  N  N123  1  0.43638000  0.44440000  0.62176000  1.0
  N  N124  1  0.52865000  0.63989000  0.47783000  1.0
  N  N125  1  0.37552000  0.49763000  0.47223000  1.0
  N  N126  1  0.67330000  0.61810000  0.66638000  1.0
  N  N127  1  0.66426000  0.65691000  0.62148000  1.0
  N  N128  1  0.33591000  0.43618000  0.48770000  1.0
  N  N129  1  0.50756000  0.50869000  0.63951000  1.0
  N  N130  1  0.46051000  0.59467000  0.41230000  1.0
  N  N131  1  0.47017000  0.64662000  0.99945000  1.0
  N  N132  1  0.53366000  0.69037000  0.05913000  1.0
  N  N133  1  0.90875000  0.01834000  0.06245000  1.0
  N  N134  1  0.89807000  0.02493000  0.00109000  1.0
  N  N135  1  0.47635000  0.52241000  0.02306000  1.0
  N  N136  1  0.33256000  0.62035000  0.88279000  1.0
  N  N137  1  0.32260000  0.56823000  0.73450000  1.0
  N  N138  1  0.96930000  0.18732000  0.07545000  1.0
  N  N139  1  0.67280000  0.67521000  0.40859000  1.0
  O  O140  1  0.52165000  0.53560000  0.99202000  1.0
  O  O141  1  0.41164000  0.46165000  0.99873000  1.0
  O  O142  1  0.34823000  0.67140000  0.94142000  1.0
  O  O143  1  0.26443000  0.56823000  0.83515000  1.0
  O  O144  1  0.28192000  0.49836000  0.69098000  1.0
  O  O145  1  0.30984000  0.62168000  0.72810000  1.0
  O  O146  1  0.90124000  0.17302000  0.06891000  1.0
  O  O147  1  0.00665000  0.22551000  0.04709000  1.0
  O  O148  1  0.70704000  0.72086000  0.38422000  1.0
  O  O149  1  0.70059000  0.68887000  0.47728000  1.0
