# generated using pymatgen
data_SrZnH10C14(NO5)2
_symmetry_space_group_name_H-M   'P 1'
_cell_length_a   5.16956000
_cell_length_b   7.89351000
_cell_length_c   10.45650000
_cell_angle_alpha   81.89810000
_cell_angle_beta   83.06970000
_cell_angle_gamma   78.36920000
_symmetry_Int_Tables_number   1
_chemical_formula_structural   SrZnH10C14(NO5)2
_chemical_formula_sum   'Sr1 Zn1 H10 C14 N2 O10'
_cell_volume   411.87863319
_cell_formula_units_Z   1
loop_
 _symmetry_equiv_pos_site_id
 _symmetry_equiv_pos_as_xyz
  1  'x, y, z'
loop_
 _atom_site_type_symbol
 _atom_site_label
 _atom_site_symmetry_multiplicity
 _atom_site_fract_x
 _atom_site_fract_y
 _atom_site_fract_z
 _atom_site_occupancy
  Sr  Sr0  1  0.50000000  0.00000000  0.50000000  1.0
  Zn  Zn1  1  0.00000000  0.00000000  0.00000000  1.0
  H  H2  1  0.28333000  0.84043000  0.80097000  1.0
  H  H3  1  0.71667000  0.15957000  0.19903000  1.0
  H  H4  1  0.48659000  0.91808000  0.86888000  1.0
  H  H5  1  0.51341000  0.08192000  0.13113000  1.0
  H  H6  1  0.77312000  0.46209000  0.62175000  1.0
  H  H7  1  0.22688000  0.53791000  0.37824000  1.0
  H  H8  1  0.34522000  0.58373000  0.84645000  1.0
  H  H9  1  0.65478000  0.41627000  0.15355000  1.0
  H  H10  1  0.32654000  0.30344000  0.98726000  1.0
  H  H11  1  0.67345000  0.69655000  0.01274000  1.0
  C  C12  1  0.04833000  0.72100000  0.63916000  1.0
  C  C13  1  0.95166000  0.27900000  0.36084000  1.0
  C  C14  1  0.05625000  0.54725000  0.72355000  1.0
  C  C15  1  0.94376000  0.45275000  0.27645000  1.0
  C  C16  1  0.89914000  0.43111000  0.70117000  1.0
  C  C17  1  0.10086000  0.56889000  0.29883000  1.0
  C  C18  1  0.90454000  0.27505000  0.78293000  1.0
  C  C19  1  0.09546000  0.72495000  0.21707000  1.0
  C  C20  1  0.21636000  0.49957000  0.82616000  1.0
  C  C21  1  0.78365000  0.50044000  0.17384000  1.0
  C  C22  1  0.20611000  0.34355000  0.90554000  1.0
  C  C23  1  0.79389000  0.65645000  0.09446000  1.0
  C  C24  1  0.74203000  0.14229000  0.76422000  1.0
  C  C25  1  0.25797000  0.85771000  0.23577000  1.0
  N  N26  1  0.05220000  0.23442000  0.88481000  1.0
  N  N27  1  0.94780000  0.76559000  0.11519000  1.0
  O  O28  1  0.21863000  0.81240000  0.65379000  1.0
  O  O29  1  0.78137000  0.18760000  0.34621000  1.0
  O  O30  1  0.33159000  0.85669000  0.88772000  1.0
  O  O31  1  0.66841000  0.14331000  0.11228000  1.0
  O  O32  1  0.87329000  0.76360000  0.56063000  1.0
  O  O33  1  0.12671000  0.23640000  0.43937000  1.0
  O  O34  1  0.74752000  0.00990000  0.85201000  1.0
  O  O35  1  0.25247000  0.99011000  0.14799000  1.0
  O  O36  1  0.61172000  0.16798000  0.66734000  1.0
  O  O37  1  0.38828000  0.83202000  0.33266000  1.0
