# generated using pymatgen
data_AlH8C9N3O5
_symmetry_space_group_name_H-M   'P 1'
_cell_length_a   6.68676000
_cell_length_b   8.83084000
_cell_length_c   16.83270000
_cell_angle_alpha   100.66300000
_cell_angle_beta   95.74600000
_cell_angle_gamma   104.26940000
_symmetry_Int_Tables_number   1
_chemical_formula_structural   AlH8C9N3O5
_chemical_formula_sum   'Al2 H16 C18 N6 O10'
_cell_volume   935.51904625
_cell_formula_units_Z   2
loop_
 _symmetry_equiv_pos_site_id
 _symmetry_equiv_pos_as_xyz
  1  'x, y, z'
loop_
 _atom_site_type_symbol
 _atom_site_label
 _atom_site_symmetry_multiplicity
 _atom_site_fract_x
 _atom_site_fract_y
 _atom_site_fract_z
 _atom_site_occupancy
  Al  Al0  1  0.00050000  0.49492000  0.50056000  1.0
  Al  Al1  1  0.50088000  0.49337000  0.50121000  1.0
  H  H2  1  0.17955000  0.34488000  0.40807000  1.0
  H  H3  1  0.82935000  0.68455000  0.56845000  1.0
  H  H4  1  0.58279000  0.41204000  0.72407000  1.0
  H  H5  1  0.65210000  0.40627000  0.87311000  1.0
  H  H6  1  0.09532000  0.55423000  0.90987000  1.0
  H  H7  1  0.93947000  0.56455000  0.10410000  1.0
  H  H8  1  0.27901000  0.41571000  0.10966000  1.0
  H  H9  1  0.35464000  0.41627000  0.25886000  1.0
  H  H10  1  0.94317000  0.55055000  0.69519000  1.0
  H  H11  1  0.88337000  0.58838000  0.79465000  1.0
  H  H12  1  0.09245000  0.57413000  0.31942000  1.0
  H  H13  1  0.17780000  0.60659000  0.22690000  1.0
  H  H14  1  0.72990000  0.84915000  0.46873000  1.0
  H  H15  1  0.88238000  0.03322000  0.45999000  1.0
  H  H16  1  0.27027000  0.13986000  0.52295000  1.0
  H  H17  1  0.11874000  0.95837000  0.53710000  1.0
  C  C18  1  0.65245000  0.20830000  0.49371000  1.0
  C  C19  1  0.71404000  0.48768000  0.35410000  1.0
  C  C20  1  0.35154000  0.78160000  0.50735000  1.0
  C  C21  1  0.28373000  0.49720000  0.64606000  1.0
  C  C22  1  0.30576000  0.48990000  0.73305000  1.0
  C  C23  1  0.47997000  0.44610000  0.76625000  1.0
  C  C24  1  0.51994000  0.44332000  0.84796000  1.0
  C  C25  1  0.37955000  0.48687000  0.89953000  1.0
  C  C26  1  0.20174000  0.52452000  0.86814000  1.0
  C  C27  1  0.15895000  0.52691000  0.78438000  1.0
  C  C28  1  0.81264000  0.53396000  0.13944000  1.0
  C  C29  1  0.60795000  0.49409000  0.09985000  1.0
  C  C30  1  0.43788000  0.45128000  0.14244000  1.0
  C  C31  1  0.48119000  0.45111000  0.22426000  1.0
  C  C32  1  0.68688000  0.49286000  0.26685000  1.0
  C  C33  1  0.85858000  0.53639000  0.22372000  1.0
  C  C34  1  0.60121000  0.03634000  0.49410000  1.0
  C  C35  1  0.40282000  0.95319000  0.50524000  1.0
  N  N36  1  0.40389000  0.49226000  0.98453000  1.0
  N  N37  1  0.58603000  0.49567000  0.01550000  1.0
  N  N38  1  0.98629000  0.56823000  0.75655000  1.0
  N  N39  1  0.06092000  0.58080000  0.26011000  1.0
  N  N40  1  0.76744000  0.97030000  0.48566000  1.0
  N  N41  1  0.23687000  0.01860000  0.51203000  1.0
  O  O42  1  0.83905000  0.27616000  0.48455000  1.0
  O  O43  1  0.55164000  0.46690000  0.38942000  1.0
  O  O44  1  0.49562000  0.70900000  0.50116000  1.0
  O  O45  1  0.10256000  0.49147000  0.60992000  1.0
  O  O46  1  0.16383000  0.71531000  0.51597000  1.0
  O  O47  1  0.44652000  0.51055000  0.61130000  1.0
  O  O48  1  0.50914000  0.28083000  0.50185000  1.0
  O  O49  1  0.89943000  0.50345000  0.39049000  1.0
  O  O50  1  0.21579000  0.41924000  0.46067000  1.0
  O  O51  1  0.78642000  0.57249000  0.54092000  1.0
