# generated using pymatgen
data_CuH12C10N7
_symmetry_space_group_name_H-M   'P 1'
_cell_length_a   6.13837000
_cell_length_b   8.11897000
_cell_length_c   11.77810000
_cell_angle_alpha   110.14900000
_cell_angle_beta   89.99970000
_cell_angle_gamma   89.99950000
_symmetry_Int_Tables_number   1
_chemical_formula_structural   CuH12C10N7
_chemical_formula_sum   'Cu2 H24 C20 N14'
_cell_volume   551.06435593
_cell_formula_units_Z   2
loop_
 _symmetry_equiv_pos_site_id
 _symmetry_equiv_pos_as_xyz
  1  'x, y, z'
loop_
 _atom_site_type_symbol
 _atom_site_label
 _atom_site_symmetry_multiplicity
 _atom_site_fract_x
 _atom_site_fract_y
 _atom_site_fract_z
 _atom_site_occupancy
  Cu  Cu0  1  0.25000000  0.08489000  0.16905000  1.0
  Cu  Cu1  1  0.74999000  0.91511000  0.83094000  1.0
  H  H2  1  0.89594000  0.28538000  0.57007000  1.0
  H  H3  1  0.39595000  0.71462000  0.42993000  1.0
  H  H4  1  0.10406000  0.71462000  0.42993000  1.0
  H  H5  1  0.60405000  0.28537000  0.57007000  1.0
  H  H6  1  0.75000000  0.18417000  0.14771000  1.0
  H  H7  1  0.24999000  0.81585000  0.85229000  1.0
  H  H8  1  0.24999000  0.03598000  0.85224000  1.0
  H  H9  1  0.75000000  0.96404000  0.14776000  1.0
  H  H10  1  0.94446000  0.41021000  0.30274000  1.0
  H  H11  1  0.44446000  0.58979000  0.69727000  1.0
  H  H12  1  0.05567000  0.10685000  0.69711000  1.0
  H  H13  1  0.55567000  0.89315000  0.30288000  1.0
  H  H14  1  0.05553000  0.58979000  0.69727000  1.0
  H  H15  1  0.55553000  0.41021000  0.30274000  1.0
  H  H16  1  0.94433000  0.89315000  0.30289000  1.0
  H  H17  1  0.44433000  0.10685000  0.69711000  1.0
  H  H18  1  0.08874000  0.35831000  0.41831000  1.0
  H  H19  1  0.58875000  0.64169000  0.58170000  1.0
  H  H20  1  0.91124000  0.93947000  0.58163000  1.0
  H  H21  1  0.41124000  0.06053000  0.41837000  1.0
  H  H22  1  0.91125000  0.64169000  0.58170000  1.0
  H  H23  1  0.41124000  0.35830000  0.41831000  1.0
  H  H24  1  0.08876000  0.06053000  0.41837000  1.0
  H  H25  1  0.58876000  0.93947000  0.58163000  1.0
  C  C26  1  0.25001000  0.50299000  0.00523000  1.0
  C  C27  1  0.75001000  0.49700000  0.99476000  1.0
  C  C28  1  0.25000000  0.38038000  0.06410000  1.0
  C  C29  1  0.75000000  0.61960000  0.93588000  1.0
  C  C30  1  0.75000000  0.31552000  0.93598000  1.0
  C  C31  1  0.25000000  0.68448000  0.06401000  1.0
  C  C32  1  0.25003000  0.43937000  0.87818000  1.0
  C  C33  1  0.75002000  0.56063000  0.12181000  1.0
  C  C34  1  0.94399000  0.32850000  0.36006000  1.0
  C  C35  1  0.44399000  0.67150000  0.63996000  1.0
  C  C36  1  0.05601000  0.96784000  0.63986000  1.0
  C  C37  1  0.55602000  0.03216000  0.36014000  1.0
  C  C38  1  0.05601000  0.67150000  0.63995000  1.0
  C  C39  1  0.55600000  0.32850000  0.36006000  1.0
  C  C40  1  0.94397000  0.03215000  0.36014000  1.0
  C  C41  1  0.44398000  0.96784000  0.63986000  1.0
  C  C42  1  0.74999000  0.25647000  0.51227000  1.0
  C  C43  1  0.25000000  0.74352000  0.48774000  1.0
  C  C44  1  0.75000000  0.10292000  0.20533000  1.0
  C  C45  1  0.25000000  0.89708000  0.79467000  1.0
  N  N46  1  0.25000000  0.26508000  0.10312000  1.0
  N  N47  1  0.75000000  0.73491000  0.89686000  1.0
  N  N48  1  0.75000000  0.16123000  0.89704000  1.0
  N  N49  1  0.24999000  0.83876000  0.10297000  1.0
  N  N50  1  0.25002000  0.38603000  0.77181000  1.0
  N  N51  1  0.75003000  0.61398000  0.22818000  1.0
  N  N52  1  0.95112000  0.14065000  0.28079000  1.0
  N  N53  1  0.45112000  0.85936000  0.71922000  1.0
  N  N54  1  0.04887000  0.85936000  0.71922000  1.0
  N  N55  1  0.54887000  0.14065000  0.28079000  1.0
  N  N56  1  0.74999000  0.36899000  0.43716000  1.0
  N  N57  1  0.25000000  0.63101000  0.56285000  1.0
  N  N58  1  0.25000000  0.93114000  0.56273000  1.0
  N  N59  1  0.75000000  0.06886000  0.43727000  1.0
