# generated using pymatgen
data_Zn2H19C24N21O
_symmetry_space_group_name_H-M   'P 1'
_cell_length_a   8.43707000
_cell_length_b   9.54081000
_cell_length_c   18.52040000
_cell_angle_alpha   80.97660000
_cell_angle_beta   79.84300000
_cell_angle_gamma   73.53120000
_symmetry_Int_Tables_number   1
_chemical_formula_structural   Zn2H19C24N21O
_chemical_formula_sum   'Zn4 H38 C48 N42 O2'
_cell_volume   1398.21546726
_cell_formula_units_Z   2
loop_
 _symmetry_equiv_pos_site_id
 _symmetry_equiv_pos_as_xyz
  1  'x, y, z'
loop_
 _atom_site_type_symbol
 _atom_site_label
 _atom_site_symmetry_multiplicity
 _atom_site_fract_x
 _atom_site_fract_y
 _atom_site_fract_z
 _atom_site_occupancy
  Zn  Zn0  1  0.78345000  0.95409000  0.18203000  1.0
  Zn  Zn1  1  0.21655000  0.04591000  0.81797000  1.0
  Zn  Zn2  1  0.20698000  0.75856000  0.13896000  1.0
  Zn  Zn3  1  0.79302000  0.24144000  0.86104000  1.0
  H  H4  1  0.99782000  0.94850000  0.06850000  1.0
  H  H5  1  0.00218000  0.05150000  0.93150000  1.0
  H  H6  1  0.45700000  0.49449000  0.32568000  1.0
  H  H7  1  0.54300000  0.50551000  0.67432000  1.0
  H  H8  1  0.39243000  0.46934000  0.24394000  1.0
  H  H9  1  0.60757000  0.53066000  0.75606000  1.0
  H  H10  1  0.61816000  0.78355000  0.36065000  1.0
  H  H11  1  0.38184000  0.21645000  0.63935000  1.0
  H  H12  1  0.71356000  0.74555000  0.44267000  1.0
  H  H13  1  0.28644000  0.25445000  0.55733000  1.0
  H  H14  1  0.66306000  0.59598000  0.06006000  1.0
  H  H15  1  0.33694000  0.40402000  0.93994000  1.0
  H  H16  1  0.85964000  0.72649000  0.08697000  1.0
  H  H17  1  0.14036000  0.27351000  0.91303000  1.0
  H  H18  1  0.23591000  0.13478000  0.32135000  1.0
  H  H19  1  0.76409000  0.86521000  0.67865000  1.0
  H  H20  1  0.09159000  0.00483000  0.25742000  1.0
  H  H21  1  0.90841000  0.99516000  0.74259000  1.0
  H  H22  1  0.74139000  0.32584000  0.06382000  1.0
  H  H23  1  0.25861000  0.67416000  0.93618000  1.0
  H  H24  1  0.81362000  0.51894000  0.32560000  1.0
  H  H25  1  0.18638000  0.48106000  0.67440000  1.0
  H  H26  1  0.02170000  0.17218000  0.09097000  1.0
  H  H27  1  0.97830000  0.82782000  0.90903000  1.0
  H  H28  1  0.09841000  0.38488000  0.35591000  1.0
  H  H29  1  0.90159000  0.61512000  0.64409000  1.0
  H  H30  1  0.86502000  0.89480000  0.51171000  1.0
  H  H31  1  0.13499000  0.10520000  0.48828000  1.0
  H  H32  1  0.69896000  0.34716000  0.55769000  1.0
  H  H33  1  0.30104000  0.65284000  0.44231000  1.0
  H  H34  1  0.49695000  0.41113000  0.46428000  1.0
  H  H35  1  0.50305000  0.58887000  0.53572000  1.0
  H  H36  1  0.87063000  0.09603000  0.58164000  1.0
  H  H37  1  0.12937000  0.90398000  0.41836000  1.0
  H  H38  1  0.29390000  0.09981000  0.12334000  1.0
  H  H39  1  0.70610000  0.90019000  0.87666000  1.0
  H  H40  1  0.40387000  0.15207000  0.18338000  1.0
  H  H41  1  0.59613000  0.84793000  0.81662000  1.0
  C  C42  1  0.09542000  0.36713000  0.10564000  1.0
  C  C43  1  0.90458000  0.63287000  0.89436000  1.0
  C  C44  1  0.04968000  0.52141000  0.10590000  1.0
  C  C45  1  0.95032000  0.47859000  0.89410000  1.0
  C  C46  1  0.49292000  0.49311000  0.26582000  1.0
  C  C47  1  0.50709000  0.50689000  0.73418000  1.0
  C  C48  1  0.86822000  0.18836000  0.25875000  1.0
  C  C49  1  0.13177000  0.81164000  0.74125000  1.0
  C  C50  1  0.70653000  0.81239000  0.38884000  1.0
  C  C51  1  0.29347000  0.18761000  0.61116000  1.0
  C  C52  1  0.78486000  0.53290000  0.07481000  1.0
  C  C53  1  0.21514000  0.46710000  0.92519000  1.0
  C  C54  1  0.79186000  0.33275000  0.27729000  1.0
  C  C55  1  0.20814000  0.66724000  0.72271000  1.0
  C  C56  1  0.89259000  0.60721000  0.08954000  1.0
  C  C57  1  0.10741000  0.39279000  0.91046000  1.0
  C  C58  1  0.10997000  0.18797000  0.30849000  1.0
  C  C59  1  0.89003000  0.81202000  0.69151000  1.0
  C  C60  1  0.03072000  0.11434000  0.27345000  1.0
  C  C61  1  0.96928000  0.88566000  0.72655000  1.0
  C  C62  1  0.83136000  0.37790000  0.07587000  1.0
  C  C63  1  0.16864000  0.62210000  0.92413000  1.0
  C  C64  1  0.87206000  0.40696000  0.31282000  1.0
  C  C65  1  0.12794000  0.59304000  0.68718000  1.0
  C  C66  1  0.98689000  0.29135000  0.09083000  1.0
  C  C67  1  0.01312000  0.70865000  0.90917000  1.0
  C  C68  1  0.03127000  0.33158000  0.32827000  1.0
  C  C69  1  0.96873000  0.66842000  0.67173000  1.0
  C  C70  1  0.87628000  0.77828000  0.34462000  1.0
  C  C71  1  0.12371000  0.22172000  0.65538000  1.0
  C  C72  1  0.67637000  0.04346000  0.44844000  1.0
  C  C73  1  0.32364000  0.95654000  0.55156000  1.0
  C  C74  1  0.57072000  0.18688000  0.43585000  1.0
  C  C75  1  0.42928000  0.81312000  0.56415000  1.0
  C  C76  1  0.78628000  0.00593000  0.50109000  1.0
  C  C77  1  0.21372000  0.99408000  0.49890000  1.0
  C  C78  1  0.68708000  0.26395000  0.52625000  1.0
  C  C79  1  0.31292000  0.73605000  0.47375000  1.0
  C  C80  1  0.57678000  0.30015000  0.47463000  1.0
  C  C81  1  0.42322000  0.69985000  0.52537000  1.0
  C  C82  1  0.78831000  0.11885000  0.53969000  1.0
  C  C83  1  0.21169000  0.88115000  0.46031000  1.0
  C  C84  1  0.51811000  0.63888000  0.23082000  1.0
  C  C85  1  0.48190000  0.36112000  0.76918000  1.0
  C  C86  1  0.36657000  0.17596000  0.12805000  1.0
  C  C87  1  0.63343000  0.82404000  0.87195000  1.0
  C  C88  1  0.51797000  0.15604000  0.07108000  1.0
  C  C89  1  0.48203000  0.84396000  0.92892000  1.0
  N  N90  1  0.18554000  0.55846000  0.12118000  1.0
  N  N91  1  0.81446000  0.44154000  0.87882000  1.0
  N  N92  1  0.75572000  0.14802000  0.22589000  1.0
  N  N93  1  0.24428000  0.85198000  0.77411000  1.0
  N  N94  1  0.63895000  0.36851000  0.25280000  1.0
  N  N95  1  0.36105000  0.63149000  0.74720000  1.0
  N  N96  1  0.62004000  0.25611000  0.22270000  1.0
  N  N97  1  0.37997000  0.74389000  0.77730000  1.0
  N  N98  1  0.91186000  0.81575000  0.27171000  1.0
  N  N99  1  0.08814000  0.18425000  0.72829000  1.0
  N  N100  1  0.30907000  0.43960000  0.12979000  1.0
  N  N101  1  0.69093000  0.56040000  0.87021000  1.0
  N  N102  1  0.25680000  0.32417000  0.12056000  1.0
  N  N103  1  0.74320000  0.67583000  0.87944000  1.0
  N  N104  1  0.13734000  0.68162000  0.31576000  1.0
  N  N105  1  0.86266000  0.31838000  0.68424000  1.0
  N  N106  1  0.07617000  0.75352000  0.25538000  1.0
  N  N107  1  0.92383000  0.24648000  0.74462000  1.0
  N  N108  1  0.01397000  0.69532000  0.37291000  1.0
  N  N109  1  0.98603000  0.30468000  0.62709000  1.0
  N  N110  1  0.63691000  0.96601000  0.40110000  1.0
  N  N111  1  0.36309000  0.03400000  0.59890000  1.0
  N  N112  1  0.51455000  0.05460000  0.36274000  1.0
  N  N113  1  0.48545000  0.94540000  0.63725000  1.0
  N  N114  1  0.47368000  0.18654000  0.38314000  1.0
  N  N115  1  0.52632000  0.81346000  0.61686000  1.0
  N  N116  1  0.42594000  0.73294000  0.18159000  1.0
  N  N117  1  0.57406000  0.26706000  0.81841000  1.0
  N  N118  1  0.48840000  0.84974000  0.16481000  1.0
  N  N119  1  0.51160000  0.15026000  0.83519000  1.0
  N  N120  1  0.61358000  0.82619000  0.20267000  1.0
  N  N121  1  0.38642000  0.17381000  0.79733000  1.0
  N  N122  1  0.63507000  0.69599000  0.24491000  1.0
  N  N123  1  0.36493000  0.30401000  0.75509000  1.0
  N  N124  1  0.66987000  0.06963000  0.08345000  1.0
  N  N125  1  0.33013000  0.93037000  0.91655000  1.0
  N  N126  1  0.52126000  0.21790000  0.00103000  1.0
  N  N127  1  0.47874000  0.78209000  0.99897000  1.0
  N  N128  1  0.76988000  0.07743000  0.01894000  1.0
  N  N129  1  0.23012000  0.92257000  0.98106000  1.0
  N  N130  1  0.67974000  0.16679000  0.97030000  1.0
  N  N131  1  0.32026000  0.83321000  0.02970000  1.0
  O  O132  1  0.00385000  0.91530000  0.12080000  1.0
  O  O133  1  0.99615000  0.08470000  0.87920000  1.0
