# generated using pymatgen
data_ZnH12C16(NO3)2
_symmetry_space_group_name_H-M   'P 1'
_cell_length_a   6.63206000
_cell_length_b   9.66460000
_cell_length_c   12.16830000
_cell_angle_alpha   98.95790000
_cell_angle_beta   98.90840000
_cell_angle_gamma   98.78380000
_symmetry_Int_Tables_number   1
_chemical_formula_structural   ZnH12C16(NO3)2
_chemical_formula_sum   'Zn2 H24 C32 N4 O12'
_cell_volume   748.53749147
_cell_formula_units_Z   2
loop_
 _symmetry_equiv_pos_site_id
 _symmetry_equiv_pos_as_xyz
  1  'x, y, z'
loop_
 _atom_site_type_symbol
 _atom_site_label
 _atom_site_symmetry_multiplicity
 _atom_site_fract_x
 _atom_site_fract_y
 _atom_site_fract_z
 _atom_site_occupancy
  Zn  Zn0  1  0.64212000  0.76005000  0.81682000  1.0
  Zn  Zn1  1  0.35788000  0.23995000  0.18318000  1.0
  H  H2  1  0.57415000  0.80333000  0.43443000  1.0
  H  H3  1  0.42585000  0.19667000  0.56558000  1.0
  H  H4  1  0.00667000  0.71127000  0.54683000  1.0
  H  H5  1  0.99333000  0.28873000  0.45317000  1.0
  H  H6  1  0.06720000  0.45196000  0.65634000  1.0
  H  H7  1  0.93280000  0.54804000  0.34365000  1.0
  H  H8  1  0.31373000  0.51026000  0.50535000  1.0
  H  H9  1  0.68627000  0.48974000  0.49465000  1.0
  H  H10  1  0.66906000  0.05050000  0.73593000  1.0
  H  H11  1  0.33094000  0.94950000  0.26407000  1.0
  H  H12  1  0.76601000  0.30711000  0.83139000  1.0
  H  H13  1  0.23400000  0.69290000  0.16861000  1.0
  H  H14  1  0.85181000  0.36191000  0.04554000  1.0
  H  H15  1  0.14819000  0.63809000  0.95447000  1.0
  H  H16  1  0.84003000  0.16294000  0.15158000  1.0
  H  H17  1  0.15997000  0.83705000  0.84842000  1.0
  H  H18  1  0.81487000  0.98785000  0.23100000  1.0
  H  H19  1  0.18511000  0.01215000  0.76900000  1.0
  H  H20  1  0.81458000  0.76521000  0.30886000  1.0
  H  H21  1  0.18540000  0.23479000  0.69114000  1.0
  H  H22  1  0.72742000  0.52934000  0.17686000  1.0
  H  H23  1  0.27257000  0.47066000  0.82314000  1.0
  H  H24  1  0.67464000  0.53037000  0.96556000  1.0
  H  H25  1  0.32536000  0.46963000  0.03444000  1.0
  C  C26  1  0.10254000  0.63627000  0.57589000  1.0
  C  C27  1  0.89746000  0.36372000  0.42411000  1.0
  C  C28  1  0.96927000  0.52142000  0.62004000  1.0
  C  C29  1  0.03074000  0.47858000  0.37996000  1.0
  C  C30  1  0.19936000  0.57349000  0.47509000  1.0
  C  C31  1  0.80065000  0.42651000  0.52490000  1.0
  C  C32  1  0.28130000  0.72301000  0.66754000  1.0
  C  C33  1  0.71870000  0.27698000  0.33246000  1.0
  C  C34  1  0.86235000  0.58673000  0.71352000  1.0
  C  C35  1  0.13766000  0.41327000  0.28648000  1.0
  C  C36  1  0.30766000  0.69941000  0.43236000  1.0
  C  C37  1  0.69234000  0.30061000  0.56764000  1.0
  C  C38  1  0.70789000  0.08036000  0.82777000  1.0
  C  C39  1  0.29211000  0.91964000  0.17223000  1.0
  C  C40  1  0.75959000  0.22288000  0.88161000  1.0
  C  C41  1  0.24041000  0.77712000  0.11839000  1.0
  C  C42  1  0.80636000  0.25264000  0.99942000  1.0
  C  C43  1  0.19364000  0.74735000  0.00059000  1.0
  C  C44  1  0.80088000  0.14115000  0.05984000  1.0
  C  C45  1  0.19912000  0.85884000  0.94016000  1.0
  C  C46  1  0.74983000  0.00131000  0.00045000  1.0
  C  C47  1  0.25016000  0.99868000  0.99955000  1.0
  C  C48  1  0.74596000  0.87577000  0.05646000  1.0
  C  C49  1  0.25403000  0.12423000  0.94354000  1.0
  C  C50  1  0.78490000  0.88519000  0.17402000  1.0
  C  C51  1  0.21509000  0.11481000  0.82598000  1.0
  C  C52  1  0.77943000  0.76002000  0.21772000  1.0
  C  C53  1  0.22055000  0.23998000  0.78228000  1.0
  C  C54  1  0.73588000  0.62874000  0.14445000  1.0
  C  C55  1  0.26411000  0.37126000  0.85555000  1.0
  C  C56  1  0.70241000  0.62785000  0.02854000  1.0
  C  C57  1  0.29759000  0.37215000  0.97146000  1.0
  N  N58  1  0.70368000  0.97322000  0.88581000  1.0
  N  N59  1  0.29632000  0.02678000  0.11419000  1.0
  N  N60  1  0.70538000  0.74787000  0.98604000  1.0
  N  N61  1  0.29462000  0.25212000  0.01396000  1.0
  O  O62  1  0.36721000  0.65196000  0.73897000  1.0
  O  O63  1  0.63279000  0.34804000  0.26103000  1.0
  O  O64  1  0.34367000  0.85151000  0.66750000  1.0
  O  O65  1  0.65634000  0.14849000  0.33250000  1.0
  O  O66  1  0.83879000  0.71789000  0.71483000  1.0
  O  O67  1  0.16122000  0.28212000  0.28517000  1.0
  O  O68  1  0.79712000  0.51273000  0.78090000  1.0
  O  O69  1  0.20288000  0.48727000  0.21910000  1.0
  O  O70  1  0.21961000  0.78467000  0.38848000  1.0
  O  O71  1  0.78041000  0.21532000  0.61153000  1.0
  O  O72  1  0.51746000  0.71200000  0.45345000  1.0
  O  O73  1  0.48255000  0.28800000  0.54655000  1.0
