# generated using pymatgen
data_AgH10C15S2N2ClO4
_symmetry_space_group_name_H-M   'P 1'
_cell_length_a   7.21403000
_cell_length_b   10.48150000
_cell_length_c   13.04980000
_cell_angle_alpha   108.56500000
_cell_angle_beta   100.35500000
_cell_angle_gamma   97.08880000
_symmetry_Int_Tables_number   1
_chemical_formula_structural   AgH10C15S2N2ClO4
_chemical_formula_sum   'Ag2 H20 C30 S4 N4 Cl2 O8'
_cell_volume   902.73537601
_cell_formula_units_Z   2
loop_
 _symmetry_equiv_pos_site_id
 _symmetry_equiv_pos_as_xyz
  1  'x, y, z'
loop_
 _atom_site_type_symbol
 _atom_site_label
 _atom_site_symmetry_multiplicity
 _atom_site_fract_x
 _atom_site_fract_y
 _atom_site_fract_z
 _atom_site_occupancy
  Ag  Ag0  1  0.49968000  0.66384000  0.95261000  1.0
  Ag  Ag1  1  0.50030000  0.33617000  0.04741000  1.0
  H  H2  1  0.38211000  0.90059000  0.15944000  1.0
  H  H3  1  0.61789000  0.09944000  0.84056000  1.0
  H  H4  1  0.32669000  0.98667000  0.31890000  1.0
  H  H5  1  0.67335000  0.01335000  0.68110000  1.0
  H  H6  1  0.23180000  0.87146000  0.67940000  1.0
  H  H7  1  0.76820000  0.12851000  0.32059000  1.0
  H  H8  1  0.17160000  0.62681000  0.52561000  1.0
  H  H9  1  0.82837000  0.37315000  0.47440000  1.0
  H  H10  1  0.13715000  0.43016000  0.61275000  1.0
  H  H11  1  0.86283000  0.56984000  0.38728000  1.0
  H  H12  1  0.35353000  0.42210000  0.48791000  1.0
  H  H13  1  0.64646000  0.57790000  0.51210000  1.0
  H  H14  1  0.36196000  0.18196000  0.51143000  1.0
  H  H15  1  0.63807000  0.81804000  0.48858000  1.0
  H  H16  1  0.09516000  0.03316000  0.75724000  1.0
  H  H17  1  0.90488000  0.96685000  0.24275000  1.0
  H  H18  1  0.06338000  0.28480000  0.87622000  1.0
  H  H19  1  0.93662000  0.71521000  0.12376000  1.0
  H  H20  1  0.15055000  0.31840000  0.09116000  1.0
  H  H21  1  0.84942000  0.68160000  0.90881000  1.0
  C  C22  1  0.28926000  0.06597000  0.12401000  1.0
  C  C23  1  0.71074000  0.93405000  0.87599000  1.0
  C  C24  1  0.32670000  0.09367000  0.32860000  1.0
  C  C25  1  0.67329000  0.90633000  0.67139000  1.0
  C  C26  1  0.20698000  0.77613000  0.69569000  1.0
  C  C27  1  0.79302000  0.22385000  0.30430000  1.0
  C  C28  1  0.17665000  0.64407000  0.61294000  1.0
  C  C29  1  0.82336000  0.35592000  0.38708000  1.0
  C  C30  1  0.15801000  0.53995000  0.65547000  1.0
  C  C31  1  0.84200000  0.46003000  0.34455000  1.0
  C  C32  1  0.21186000  0.77117000  0.80069000  1.0
  C  C33  1  0.78813000  0.22883000  0.19931000  1.0
  C  C34  1  0.24286000  0.88065000  0.90777000  1.0
  C  C35  1  0.75714000  0.11936000  0.09223000  1.0
  C  C36  1  0.20231000  0.01273000  0.92158000  1.0
  C  C37  1  0.79769000  0.98727000  0.07842000  1.0
  C  C38  1  0.23095000  0.10976000  0.03439000  1.0
  C  C39  1  0.76908000  0.89026000  0.96561000  1.0
  C  C40  1  0.34206000  0.32482000  0.42223000  1.0
  C  C41  1  0.65797000  0.67518000  0.57777000  1.0
  C  C42  1  0.30924000  0.14272000  0.24058000  1.0
  C  C43  1  0.69075000  0.85729000  0.75942000  1.0
  C  C44  1  0.34547000  0.19772000  0.43208000  1.0
  C  C45  1  0.65452000  0.80228000  0.56792000  1.0
  C  C46  1  0.13242000  0.07744000  0.84716000  1.0
  C  C47  1  0.86757000  0.92255000  0.15284000  1.0
  C  C48  1  0.11872000  0.21088000  0.90987000  1.0
  C  C49  1  0.88126000  0.78911000  0.09011000  1.0
  C  C50  1  0.18056000  0.23453000  0.02575000  1.0
  C  C51  1  0.81945000  0.76548000  0.97424000  1.0
  S  S52  1  0.17439000  0.60149000  0.79564000  1.0
  S  S53  1  0.82562000  0.39852000  0.20438000  1.0
  S  S54  1  0.31651000  0.31774000  0.28811000  1.0
  S  S55  1  0.68349000  0.68227000  0.71189000  1.0
  N  N56  1  0.32979000  0.93794000  0.09801000  1.0
  N  N57  1  0.67020000  0.06208000  0.90199000  1.0
  N  N58  1  0.31080000  0.84658000  0.99617000  1.0
  N  N59  1  0.68921000  0.15343000  0.00383000  1.0
  Cl  Cl60  1  0.42607000  0.66390000  0.21804000  1.0
  Cl  Cl61  1  0.57393000  0.33609000  0.78196000  1.0
  O  O62  1  0.48730000  0.81296000  0.24667000  1.0
  O  O63  1  0.51273000  0.18702000  0.75331000  1.0
  O  O64  1  0.51156000  0.62509000  0.31009000  1.0
  O  O65  1  0.48844000  0.37491000  0.68991000  1.0
  O  O66  1  0.21828000  0.62702000  0.19129000  1.0
  O  O67  1  0.78171000  0.37298000  0.80873000  1.0
  O  O68  1  0.49883000  0.59318000  0.11916000  1.0
  O  O69  1  0.50114000  0.40678000  0.88083000  1.0
