# generated using pymatgen
data_ZnP3H21C19N2O9
_symmetry_space_group_name_H-M   'P 1'
_cell_length_a   9.76095000
_cell_length_b   10.78710000
_cell_length_c   12.63410000
_cell_angle_alpha   105.01000000
_cell_angle_beta   102.02500000
_cell_angle_gamma   114.95700000
_symmetry_Int_Tables_number   1
_chemical_formula_structural   ZnP3H21C19N2O9
_chemical_formula_sum   'Zn2 P6 H42 C38 N4 O18'
_cell_volume   1085.58489584
_cell_formula_units_Z   2
loop_
 _symmetry_equiv_pos_site_id
 _symmetry_equiv_pos_as_xyz
  1  'x, y, z'
loop_
 _atom_site_type_symbol
 _atom_site_label
 _atom_site_symmetry_multiplicity
 _atom_site_fract_x
 _atom_site_fract_y
 _atom_site_fract_z
 _atom_site_occupancy
  Zn  Zn0  1  0.33329000  0.54379000  0.87657000  1.0
  Zn  Zn1  1  0.66666667  0.45620000  0.12343000  1.0
  P  P2  1  0.67116000  0.78160000  0.51933000  1.0
  P  P3  1  0.32884000  0.21840000  0.48067000  1.0
  P  P4  1  0.28377000  0.33146000  0.03867000  1.0
  P  P5  1  0.71623000  0.66855000  0.96133000  1.0
  P  P6  1  0.95777000  0.79370000  0.30715000  1.0
  P  P7  1  0.04223000  0.20630000  0.69285000  1.0
  H  H8  1  0.35030000  0.43031000  0.33881000  1.0
  H  H9  1  0.64969000  0.56969000  0.66119000  1.0
  H  H10  1  0.02032000  0.48154000  0.09449000  1.0
  H  H11  1  0.97968000  0.51846000  0.90551000  1.0
  H  H12  1  0.30687000  0.82083000  0.44329000  1.0
  H  H13  1  0.69313000  0.17917000  0.55671000  1.0
  H  H14  1  0.45714000  0.60483000  0.55663000  1.0
  H  H15  1  0.54286000  0.39517000  0.44337000  1.0
  H  H16  1  0.46095000  0.77679000  0.58733000  1.0
  H  H17  1  0.53905000  0.22321000  0.41267000  1.0
  H  H18  1  0.01924000  0.24182000  0.04749000  1.0
  H  H19  1  0.98076000  0.75818000  0.95251000  1.0
  H  H20  1  0.14782000  0.21909000  0.15414000  1.0
  H  H21  1  0.85218000  0.78091000  0.84586000  1.0
  H  H22  1  0.01445000  0.70343000  0.14058000  1.0
  H  H23  1  0.98555000  0.29657000  0.85942000  1.0
  H  H24  1  0.18589000  0.86332000  0.25431000  1.0
  H  H25  1  0.81411000  0.13668000  0.74569000  1.0
  H  H26  1  0.48190000  0.68883000  0.15286000  1.0
  H  H27  1  0.51810000  0.31117000  0.84714000  1.0
  H  H28  1  0.53821000  0.91718000  0.31129000  1.0
  H  H29  1  0.46179000  0.08282000  0.68871000  1.0
  H  H30  1  0.44423000  0.08459000  0.25077000  1.0
  H  H31  1  0.55577000  0.91541000  0.74923000  1.0
  H  H32  1  0.30864000  0.01898000  0.04031000  1.0
  H  H33  1  0.69136000  0.98102000  0.95969000  1.0
  H  H34  1  0.19451000  0.94767000  0.86402000  1.0
  H  H35  1  0.80549000  0.05233000  0.13598000  1.0
  H  H36  1  0.08426000  0.86448000  0.64639000  1.0
  H  H37  1  0.91574000  0.13552000  0.35361000  1.0
  H  H38  1  0.08458000  0.64321000  0.52020000  1.0
  H  H39  1  0.91542000  0.35679000  0.47980000  1.0
  H  H40  1  0.18580000  0.50728000  0.61867000  1.0
  H  H41  1  0.81420000  0.49272000  0.38133000  1.0
  H  H42  1  0.72864000  0.65940000  0.37781000  1.0
  H  H43  1  0.27136000  0.34060000  0.62219000  1.0
  H  H44  1  0.89610000  0.94041000  0.68202000  1.0
  H  H45  1  0.10390000  0.05958000  0.31798000  1.0
  H  H46  1  0.16538000  0.14323000  0.86391000  1.0
  H  H47  1  0.83462000  0.85677000  0.13609000  1.0
  H  H48  1  0.15006000  0.95966000  0.48179000  1.0
  H  H49  1  0.84994000  0.04033000  0.51821000  1.0
  C  C50  1  0.29398000  0.49398000  0.31948000  1.0
  C  C51  1  0.70603000  0.50602000  0.68052000  1.0
  C  C52  1  0.17892000  0.43895000  0.20750000  1.0
  C  C53  1  0.82108000  0.56105000  0.79250000  1.0
  C  C54  1  0.10857000  0.52232000  0.18222000  1.0
  C  C55  1  0.89143000  0.47768000  0.81778000  1.0
  C  C56  1  0.15243000  0.65914000  0.26664000  1.0
  C  C57  1  0.84757000  0.34086000  0.73336000  1.0
  C  C58  1  0.26906000  0.71263000  0.37782000  1.0
  C  C59  1  0.73094000  0.28737000  0.62218000  1.0
  C  C60  1  0.33992000  0.63050000  0.40497000  1.0
  C  C61  1  0.66008000  0.36950000  0.59503000  1.0
  C  C62  1  0.46930000  0.69209000  0.52329000  1.0
  C  C63  1  0.53070000  0.30791000  0.47671000  1.0
  C  C64  1  0.14084000  0.29703000  0.11486000  1.0
  C  C65  1  0.85916000  0.70297000  0.88514000  1.0
  C  C66  1  0.08554000  0.75240000  0.23513000  1.0
  C  C67  1  0.91446000  0.24760000  0.76487000  1.0
  C  C68  1  0.44634000  0.76544000  0.13198000  1.0
  C  C69  1  0.55366000  0.23456000  0.86802000  1.0
  C  C70  1  0.47591000  0.89268000  0.21983000  1.0
  C  C71  1  0.52409000  0.10732000  0.78017000  1.0
  C  C72  1  0.42428000  0.98373000  0.18591000  1.0
  C  C73  1  0.57573000  0.01627000  0.81409000  1.0
  C  C74  1  0.34697000  0.94707000  0.06735000  1.0
  C  C75  1  0.65303000  0.05293000  0.93265000  1.0
  C  C76  1  0.32392000  0.81844000  0.98430000  1.0
  C  C77  1  0.67608000  0.18156000  0.01570000  1.0
  C  C78  1  0.24935000  0.77198000  0.85584000  1.0
  C  C79  1  0.75065000  0.22802000  0.14416000  1.0
  C  C80  1  0.18990000  0.84999000  0.80737000  1.0
  C  C81  1  0.81010000  0.15001000  0.19263000  1.0
  C  C82  1  0.12841000  0.80361000  0.68576000  1.0
  C  C83  1  0.87159000  0.19639000  0.31424000  1.0
  C  C84  1  0.12752000  0.67999000  0.61542000  1.0
  C  C85  1  0.87248000  0.32001000  0.38458000  1.0
  C  C86  1  0.18541000  0.60544000  0.66950000  1.0
  C  C87  1  0.81459000  0.39456000  0.33050000  1.0
  N  N88  1  0.37315000  0.73042000  0.01779000  1.0
  N  N89  1  0.62685000  0.26958000  0.98221000  1.0
  N  N90  1  0.24444000  0.65005000  0.78675000  1.0
  N  N91  1  0.75556000  0.34995000  0.21325000  1.0
  O  O92  1  0.69676000  0.89875000  0.46895000  1.0
  O  O93  1  0.30324000  0.10125000  0.53104000  1.0
  O  O94  1  0.68856000  0.65027000  0.44617000  1.0
  O  O95  1  0.31144000  0.34973000  0.55383000  1.0
  O  O96  1  0.78398000  0.84467000  0.65211000  1.0
  O  O97  1  0.21602000  0.15533000  0.34789000  1.0
  O  O98  1  0.26028000  0.42381000  0.97189000  1.0
  O  O99  1  0.73972000  0.57619000  0.02811000  1.0
  O  O100  1  0.23426000  0.17159000  0.94876000  1.0
  O  O101  1  0.76574000  0.82841000  0.05124000  1.0
  O  O102  1  0.45076000  0.39821000  0.13057000  1.0
  O  O103  1  0.54924000  0.60179000  0.86943000  1.0
  O  O104  1  0.79573000  0.65399000  0.27711000  1.0
  O  O105  1  0.20427000  0.34601000  0.72289000  1.0
  O  O106  1  0.04480000  0.85535000  0.44421000  1.0
  O  O107  1  0.95520000  0.14465000  0.55579000  1.0
  O  O108  1  0.94230000  0.91313000  0.26885000  1.0
  O  O109  1  0.05770000  0.08687000  0.73116000  1.0
