# generated using pymatgen
data_CdH7C13NO5
_symmetry_space_group_name_H-M   'P 1'
_cell_length_a   7.79088000
_cell_length_b   12.90860000
_cell_length_c   12.99740000
_cell_angle_alpha   67.08200000
_cell_angle_beta   86.71690000
_cell_angle_gamma   86.72270000
_symmetry_Int_Tables_number   1
_chemical_formula_structural   CdH7C13NO5
_chemical_formula_sum   'Cd4 H28 C52 N4 O20'
_cell_volume   1201.11817883
_cell_formula_units_Z   4
loop_
 _symmetry_equiv_pos_site_id
 _symmetry_equiv_pos_as_xyz
  1  'x, y, z'
loop_
 _atom_site_type_symbol
 _atom_site_label
 _atom_site_symmetry_multiplicity
 _atom_site_fract_x
 _atom_site_fract_y
 _atom_site_fract_z
 _atom_site_occupancy
  Cd  Cd0  1  0.28612000  0.84010000  0.97718000  1.0
  Cd  Cd1  1  0.21439000  0.02467000  0.16066000  1.0
  Cd  Cd2  1  0.71388000  0.15990000  0.02282000  1.0
  Cd  Cd3  1  0.78561000  0.97533000  0.83934000  1.0
  H  H4  1  0.61425000  0.76120000  0.85378000  1.0
  H  H5  1  0.88725000  0.14784000  0.23935000  1.0
  H  H6  1  0.38574000  0.23881000  0.14622000  1.0
  H  H7  1  0.11275000  0.85216000  0.76065000  1.0
  H  H8  1  0.71493000  0.60202000  0.79716000  1.0
  H  H9  1  0.78491000  0.20317000  0.39835000  1.0
  H  H10  1  0.28507000  0.39798000  0.20284000  1.0
  H  H11  1  0.21509000  0.79684000  0.60165000  1.0
  H  H12  1  0.51124000  0.44602000  0.82674000  1.0
  H  H13  1  0.98765000  0.17262000  0.55398000  1.0
  H  H14  1  0.48876000  0.55398000  0.17326000  1.0
  H  H15  1  0.01235000  0.82737000  0.44602000  1.0
  H  H16  1  0.13688000  0.62353000  0.96274000  1.0
  H  H17  1  0.36415000  0.03798000  0.37689000  1.0
  H  H18  1  0.86312000  0.37647000  0.03726000  1.0
  H  H19  1  0.63585000  0.96202000  0.62311000  1.0
  H  H20  1  0.15155000  0.59012000  0.71243000  1.0
  H  H21  1  0.34964000  0.28796000  0.41118000  1.0
  H  H22  1  0.84845000  0.40988000  0.28757000  1.0
  H  H23  1  0.65037000  0.71204000  0.58882000  1.0
  H  H24  1  0.02259000  0.54738000  0.56341000  1.0
  H  H25  1  0.48033000  0.43732000  0.45354000  1.0
  H  H26  1  0.97741000  0.45262000  0.43659000  1.0
  H  H27  1  0.51966000  0.56268000  0.54646000  1.0
  H  H28  1  0.93138000  0.35084000  0.60507000  1.0
  H  H29  1  0.57039000  0.39580000  0.64883000  1.0
  H  H30  1  0.06861000  0.64916000  0.39494000  1.0
  H  H31  1  0.42961000  0.60420000  0.35117000  1.0
  C  C32  1  0.53089000  0.69287000  0.86411000  1.0
  C  C33  1  0.97017000  0.13713000  0.30756000  1.0
  C  C34  1  0.46911000  0.30714000  0.13589000  1.0
  C  C35  1  0.02983000  0.86287000  0.69244000  1.0
  C  C36  1  0.58466000  0.60463000  0.83185000  1.0
  C  C37  1  0.91547000  0.16868000  0.39567000  1.0
  C  C38  1  0.41534000  0.39537000  0.16815000  1.0
  C  C39  1  0.08453000  0.83132000  0.60433000  1.0
  C  C40  1  0.47297000  0.51878000  0.84735000  1.0
  C  C41  1  0.02656000  0.15254000  0.48141000  1.0
  C  C42  1  0.52703000  0.48122000  0.15265000  1.0
  C  C43  1  0.97344000  0.84746000  0.51859000  1.0
  C  C44  1  0.31054000  0.52564000  0.89600000  1.0
  C  C45  1  0.18929000  0.10386000  0.47471000  1.0
  C  C46  1  0.68946000  0.47436000  0.10400000  1.0
  C  C47  1  0.81071000  0.89614000  0.52529000  1.0
  C  C48  1  0.26406000  0.61611000  0.92601000  1.0
  C  C49  1  0.23675000  0.07465000  0.38432000  1.0
  C  C50  1  0.73594000  0.38389000  0.07399000  1.0
  C  C51  1  0.76325000  0.92535000  0.61568000  1.0
  C  C52  1  0.13405000  0.41956000  0.83400000  1.0
  C  C53  1  0.36561000  0.16571000  0.58073000  1.0
  C  C54  1  0.86596000  0.58044000  0.16600000  1.0
  C  C55  1  0.63439000  0.83430000  0.41927000  1.0
  C  C56  1  0.11354000  0.50510000  0.72858000  1.0
  C  C57  1  0.38728000  0.27163000  0.49571000  1.0
  C  C58  1  0.88646000  0.49490000  0.27142000  1.0
  C  C59  1  0.61272000  0.72837000  0.50428000  1.0
  C  C60  1  0.04172000  0.48056000  0.64519000  1.0
  C  C61  1  0.46015000  0.35528000  0.52006000  1.0
  C  C62  1  0.95829000  0.51944000  0.35481000  1.0
  C  C63  1  0.53985000  0.64473000  0.47994000  1.0
  C  C64  1  0.99144000  0.37204000  0.66752000  1.0
  C  C65  1  0.50976000  0.33300000  0.62792000  1.0
  C  C66  1  0.00856000  0.62795000  0.33248000  1.0
  C  C67  1  0.49024000  0.66700000  0.37208000  1.0
  C  C68  1  0.01130000  0.28652000  0.77351000  1.0
  C  C69  1  0.48869000  0.22656000  0.71303000  1.0
  C  C70  1  0.98869000  0.71348000  0.22649000  1.0
  C  C71  1  0.51132000  0.77344000  0.28697000  1.0
  C  C72  1  0.08400000  0.30970000  0.85839000  1.0
  C  C73  1  0.41539000  0.14133000  0.68988000  1.0
  C  C74  1  0.91600000  0.69030000  0.14161000  1.0
  C  C75  1  0.58461000  0.85867000  0.31011000  1.0
  C  C76  1  0.94389000  0.17350000  0.79546000  1.0
  C  C77  1  0.55586000  0.20433000  0.82550000  1.0
  C  C78  1  0.05611000  0.82650000  0.20454000  1.0
  C  C79  1  0.44414000  0.79567000  0.17450000  1.0
  C  C80  1  0.10990000  0.22179000  0.97429000  1.0
  C  C81  1  0.38991000  0.02495000  0.77764000  1.0
  C  C82  1  0.89009000  0.77820000  0.02571000  1.0
  C  C83  1  0.61009000  0.97505000  0.22235000  1.0
  N  N84  1  0.37333000  0.69840000  0.90999000  1.0
  N  N85  1  0.12811000  0.09142000  0.30208000  1.0
  N  N86  1  0.62667000  0.30160000  0.09001000  1.0
  N  N87  1  0.87190000  0.90858000  0.69792000  1.0
  O  O88  1  0.19535000  0.44052000  0.92200000  1.0
  O  O89  1  0.30359000  0.07723000  0.55987000  1.0
  O  O90  1  0.80466000  0.55948000  0.07800000  1.0
  O  O91  1  0.69642000  0.92277000  0.44013000  1.0
  O  O92  1  0.89493000  0.15279000  0.71391000  1.0
  O  O93  1  0.60566000  0.28636000  0.84589000  1.0
  O  O94  1  0.10507000  0.84721000  0.28609000  1.0
  O  O95  1  0.39433000  0.71364000  0.15411000  1.0
  O  O96  1  0.92775000  0.10238000  0.89661000  1.0
  O  O97  1  0.57111000  0.10255000  0.89639000  1.0
  O  O98  1  0.07225000  0.89762000  0.10339000  1.0
  O  O99  1  0.42889000  0.89745000  0.10361000  1.0
  O  O100  1  0.25496000  0.17024000  0.99346000  1.0
  O  O101  1  0.24568000  0.00603000  0.82997000  1.0
  O  O102  1  0.74504000  0.82976000  0.00654000  1.0
  O  O103  1  0.75432000  0.99397000  0.17003000  1.0
  O  O104  1  0.98902000  0.20648000  0.04866000  1.0
  O  O105  1  0.51087000  0.95029000  0.79233000  1.0
  O  O106  1  0.01098000  0.79352000  0.95134000  1.0
  O  O107  1  0.48913000  0.04971000  0.20767000  1.0
