# generated using pymatgen
data_Zn4H29C43NO13
_symmetry_space_group_name_H-M   'P 1'
_cell_length_a   15.06380000
_cell_length_b   15.24610000
_cell_length_c   19.51480000
_cell_angle_alpha   91.19700000
_cell_angle_beta   91.08410000
_cell_angle_gamma   90.98110000
_symmetry_Int_Tables_number   1
_chemical_formula_structural   Zn4H29C43NO13
_chemical_formula_sum   'Zn4 H29 C43 N1 O13'
_cell_volume   4479.38283755
_cell_formula_units_Z   1
loop_
 _symmetry_equiv_pos_site_id
 _symmetry_equiv_pos_as_xyz
  1  'x, y, z'
loop_
 _atom_site_type_symbol
 _atom_site_label
 _atom_site_symmetry_multiplicity
 _atom_site_fract_x
 _atom_site_fract_y
 _atom_site_fract_z
 _atom_site_occupancy
  Zn  Zn0  1  0.56784000  0.57257000  0.56316000  1.0
  Zn  Zn1  1  0.57787000  0.42806000  0.44017000  1.0
  Zn  Zn2  1  0.42613000  0.57770000  0.44270000  1.0
  Zn  Zn3  1  0.42648000  0.41701000  0.54937000  1.0
  H  H4  1  0.59289000  0.58055000  0.77234000  1.0
  H  H5  1  0.00015000  0.32741000  0.45863000  1.0
  H  H6  1  0.43979000  0.63669000  0.23623000  1.0
  H  H7  1  0.99869000  0.68185000  0.53557000  1.0
  H  H8  1  0.16517000  0.34192000  0.46345000  1.0
  H  H9  1  0.14717000  0.61782000  0.51102000  1.0
  H  H10  1  0.58262000  0.39531000  0.22717000  1.0
  H  H11  1  0.52310000  0.59178000  0.99752000  1.0
  H  H12  1  0.41949000  0.34720000  0.88671000  1.0
  H  H13  1  0.41433000  0.35804000  0.75934000  1.0
  H  H14  1  0.48620000  0.39327000  0.99847000  1.0
  H  H15  1  0.58364000  0.40287000  0.09940000  1.0
  H  H16  1  0.59678000  0.57234000  0.89947000  1.0
  H  H17  1  0.65362000  0.25037000  0.71002000  1.0
  H  H18  1  0.63169000  0.14596000  0.74502000  1.0
  H  H19  1  0.74040000  0.17359000  0.71814000  1.0
  H  H20  1  0.66502000  0.07382000  0.63020000  1.0
  H  H21  1  0.68533000  0.17755000  0.59536000  1.0
  H  H22  1  0.52964000  0.22147000  0.61764000  1.0
  H  H23  1  0.50732000  0.12088000  0.65610000  1.0
  H  H24  1  0.44143000  0.67087000  0.05197000  1.0
  H  H25  1  0.42156000  0.71614000  0.13077000  1.0
  H  H26  1  0.49635000  0.16274000  0.37778000  1.0
  H  H27  1  0.53433000  0.99047000  0.64794000  1.0
  H  H28  1  0.47708000  0.00058000  0.36499000  1.0
  H  H29  1  0.51952000  0.82988000  0.63369000  1.0
  H  H30  1  0.46908000  0.85484000  0.41782000  1.0
  H  H31  1  0.85195000  0.39513000  0.47133000  1.0
  H  H32  1  0.83415000  0.66401000  0.53930000  1.0
  C  C33  1  0.51339000  0.25952000  0.49033000  1.0
  C  C34  1  0.50315000  0.45703000  0.97701000  1.0
  C  C35  1  0.51421000  0.52710000  0.02027000  1.0
  C  C36  1  0.48840000  0.73577000  0.51667000  1.0
  C  C37  1  0.51053000  0.51581000  0.23871000  1.0
  C  C38  1  0.51361000  0.16117000  0.48801000  1.0
  C  C39  1  0.49342000  0.83311000  0.52439000  1.0
  C  C40  1  0.52104000  0.96187000  0.59710000  1.0
  C  C41  1  0.51234000  0.87223000  0.58973000  1.0
  C  C42  1  0.48382000  0.88553000  0.46782000  1.0
  C  C43  1  0.49491000  0.97778000  0.47370000  1.0
  C  C44  1  0.50596000  0.46083000  0.90249000  1.0
  C  C45  1  0.51338000  0.01791000  0.53987000  1.0
  C  C46  1  0.52233000  0.11141000  0.54691000  1.0
  C  C47  1  0.49981000  0.12084000  0.42230000  1.0
  C  C48  1  0.73541000  0.51888000  0.50432000  1.0
  C  C49  1  0.48946000  0.03143000  0.41529000  1.0
  C  C50  1  0.83411000  0.52833000  0.50428000  1.0
  C  C51  1  0.16489000  0.48152000  0.48666000  1.0
  C  C52  1  0.03246000  0.39052000  0.47106000  1.0
  C  C53  1  0.12352000  0.39841000  0.47301000  1.0
  C  C54  1  0.11436000  0.55448000  0.50051000  1.0
  C  C55  1  0.45703000  0.39894000  0.86169000  1.0
  C  C56  1  0.02063000  0.54709000  0.50301000  1.0
  C  C57  1  0.97866000  0.46385000  0.48623000  1.0
  C  C58  1  0.88495000  0.45718000  0.48574000  1.0
  C  C59  1  0.87572000  0.60963000  0.52374000  1.0
  C  C60  1  0.26383000  0.48843000  0.48874000  1.0
  C  C61  1  0.96666000  0.61897000  0.52193000  1.0
  C  C62  1  0.50694000  0.51086000  0.31489000  1.0
  C  C63  1  0.49956000  0.47830000  0.68239000  1.0
  C  C64  1  0.50220000  0.47083000  0.75829000  1.0
  C  C65  1  0.55395000  0.53078000  0.79821000  1.0
  C  C66  1  0.45393000  0.40458000  0.79069000  1.0
  C  C67  1  0.55539000  0.52615000  0.86911000  1.0
  C  C68  1  0.54686000  0.15194000  0.61605000  1.0
  C  C69  1  0.64631000  0.14322000  0.63408000  1.0
  C  C70  1  0.66945000  0.18032000  0.70564000  1.0
  C  C71  1  0.47350000  0.59239000  0.13386000  1.0
  C  C72  1  0.47220000  0.58641000  0.20552000  1.0
  C  C73  1  0.55131000  0.44902000  0.20058000  1.0
  C  C74  1  0.55110000  0.45349000  0.12968000  1.0
  C  C75  1  0.51294000  0.52392000  0.09476000  1.0
  N  N76  1  0.43117000  0.66099000  0.10232000  1.0
  O  O77  1  0.49920000  0.49861000  0.49737000  1.0
  O  O78  1  0.55929000  0.45699000  0.34361000  1.0
  O  O79  1  0.43934000  0.43399000  0.64911000  1.0
  O  O80  1  0.45144000  0.56033000  0.34509000  1.0
  O  O81  1  0.55786000  0.52897000  0.65643000  1.0
  O  O82  1  0.69312000  0.57774000  0.53735000  1.0
  O  O83  1  0.30383000  0.42310000  0.51432000  1.0
  O  O84  1  0.56033000  0.29958000  0.44662000  1.0
  O  O85  1  0.45321000  0.70308000  0.46156000  1.0
  O  O86  1  0.46307000  0.29516000  0.53430000  1.0
  O  O87  1  0.52120000  0.69213000  0.56611000  1.0
  O  O88  1  0.70110000  0.45278000  0.47165000  1.0
  O  O89  1  0.29994000  0.55782000  0.46552000  1.0
