# generated using pymatgen
data_Zn4H15C34Br5N2O13
_symmetry_space_group_name_H-M   'P 1'
_cell_length_a   16.07080000
_cell_length_b   16.09890000
_cell_length_c   19.57270000
_cell_angle_alpha   83.83270000
_cell_angle_beta   89.73060000
_cell_angle_gamma   83.84710000
_symmetry_Int_Tables_number   1
_chemical_formula_structural   Zn4H15C34Br5N2O13
_chemical_formula_sum   'Zn4 H15 C34 Br5 N2 O13'
_cell_volume   5005.46339124
_cell_formula_units_Z   1
loop_
 _symmetry_equiv_pos_site_id
 _symmetry_equiv_pos_as_xyz
  1  'x, y, z'
loop_
 _atom_site_type_symbol
 _atom_site_label
 _atom_site_symmetry_multiplicity
 _atom_site_fract_x
 _atom_site_fract_y
 _atom_site_fract_z
 _atom_site_occupancy
  Zn  Zn0  1  0.43139000  0.57307000  0.55862000  1.0
  Zn  Zn1  1  0.56178000  0.57123000  0.43471000  1.0
  Zn  Zn2  1  0.42858000  0.43668000  0.44932000  1.0
  Zn  Zn3  1  0.57731000  0.41993000  0.55973000  1.0
  H  H4  1  0.99049000  0.56533000  0.55651000  1.0
  H  H5  1  0.56557000  0.03307000  0.66908000  1.0
  H  H6  1  0.64359000  0.06438000  0.60961000  1.0
  H  H7  1  0.58674000  0.42652000  0.06717000  1.0
  H  H8  1  0.51789000  0.30574000  0.02776000  1.0
  H  H9  1  0.62982000  0.29165000  0.03075000  1.0
  H  H10  1  0.57692000  0.32315000  0.95112000  1.0
  H  H11  1  0.00972000  0.43677000  0.44932000  1.0
  H  H12  1  0.44527000  0.02176000  0.43767000  1.0
  H  H13  1  0.55822000  0.61784000  0.22976000  1.0
  H  H14  1  0.65211000  0.49114000  0.89470000  1.0
  H  H15  1  0.40356000  0.43561000  0.10024000  1.0
  H  H16  1  0.38763000  0.46717000  0.90242000  1.0
  H  H17  1  0.56888000  0.91065000  0.58274000  1.0
  H  H18  1  0.65780000  0.96365000  0.65768000  1.0
  C  C19  1  0.72384000  0.48949000  0.49289000  1.0
  C  C20  1  0.52349000  0.48010000  0.98216000  1.0
  C  C21  1  0.48085000  0.54067000  0.01601000  1.0
  C  C22  1  0.27633000  0.51097000  0.51477000  1.0
  C  C23  1  0.48025000  0.51740000  0.23802000  1.0
  C  C24  1  0.81386000  0.48487000  0.48919000  1.0
  C  C25  1  0.97747000  0.47842000  0.48394000  1.0
  C  C26  1  0.02299000  0.52360000  0.52213000  1.0
  C  C27  1  0.11050000  0.51911000  0.51965000  1.0
  C  C28  1  0.88999000  0.48216000  0.48663000  1.0
  C  C29  1  0.18671000  0.51604000  0.51861000  1.0
  C  C30  1  0.52005000  0.47954000  0.90645000  1.0
  C  C31  1  0.48588000  0.81754000  0.48375000  1.0
  C  C32  1  0.48021000  0.98125000  0.47821000  1.0
  C  C33  1  0.52417000  0.01833000  0.52533000  1.0
  C  C34  1  0.48882000  0.72758000  0.48758000  1.0
  C  C35  1  0.52089000  0.10702000  0.51881000  1.0
  C  C36  1  0.48202000  0.89429000  0.48014000  1.0
  C  C37  1  0.51746000  0.18343000  0.51296000  1.0
  C  C38  1  0.51365000  0.27339000  0.50790000  1.0
  C  C39  1  0.48546000  0.51256000  0.31482000  1.0
  C  C40  1  0.51272000  0.48609000  0.68513000  1.0
  C  C41  1  0.59361000  0.48585000  0.86848000  1.0
  C  C42  1  0.51584000  0.48159000  0.76224000  1.0
  C  C43  1  0.44341000  0.47363000  0.80177000  1.0
  C  C44  1  0.44474000  0.47278000  0.87296000  1.0
  C  C45  1  0.61132000  0.01080000  0.63111000  1.0
  C  C46  1  0.57534000  0.33002000  0.00625000  1.0
  C  C47  1  0.59068000  0.48731000  0.79729000  1.0
  C  C48  1  0.43750000  0.47590000  0.12880000  1.0
  C  C49  1  0.43690000  0.46530000  0.20048000  1.0
  C  C50  1  0.52353000  0.57876000  0.20076000  1.0
  C  C51  1  0.52420000  0.58851000  0.12946000  1.0
  C  C52  1  0.48082000  0.53706000  0.09150000  1.0
  Br  Br53  1  0.34028000  0.46108000  0.75864000  1.0
  Br  Br54  1  0.58925000  0.66934000  0.08405000  1.0
  Br  Br55  1  0.37726000  0.37651000  0.24024000  1.0
  Br  Br56  1  0.42114000  0.63874000  0.96818000  1.0
  Br  Br57  1  0.69118000  0.50134000  0.74736000  1.0
  N  N58  1  0.57306000  0.97347000  0.57652000  1.0
  N  N59  1  0.57995000  0.41800000  0.01679000  1.0
  O  O60  1  0.50056000  0.50006000  0.50079000  1.0
  O  O61  1  0.53962000  0.55451000  0.33893000  1.0
  O  O62  1  0.55222000  0.42542000  0.65792000  1.0
  O  O63  1  0.43627000  0.46833000  0.34996000  1.0
  O  O64  1  0.47093000  0.55083000  0.65477000  1.0
  O  O65  1  0.44520000  0.69237000  0.53474000  1.0
  O  O66  1  0.56673000  0.30286000  0.54461000  1.0
  O  O67  1  0.68365000  0.54222000  0.44848000  1.0
  O  O68  1  0.31060000  0.46140000  0.47352000  1.0
  O  O69  1  0.69441000  0.44048000  0.54033000  1.0
  O  O70  1  0.31259000  0.55639000  0.55268000  1.0
  O  O71  1  0.53493000  0.69144000  0.44362000  1.0
  O  O72  1  0.45787000  0.31459000  0.46759000  1.0
