# generated using pymatgen
data_ZnH17C21NO5
_symmetry_space_group_name_H-M   'P 1'
_cell_length_a   10.86540000
_cell_length_b   12.42970000
_cell_length_c   13.53360000
_cell_angle_alpha   78.91750000
_cell_angle_beta   89.60370000
_cell_angle_gamma   73.48910000
_symmetry_Int_Tables_number   1
_chemical_formula_structural   ZnH17C21NO5
_chemical_formula_sum   'Zn2 H34 C42 N2 O10'
_cell_volume   1717.50347068
_cell_formula_units_Z   2
loop_
 _symmetry_equiv_pos_site_id
 _symmetry_equiv_pos_as_xyz
  1  'x, y, z'
loop_
 _atom_site_type_symbol
 _atom_site_label
 _atom_site_symmetry_multiplicity
 _atom_site_fract_x
 _atom_site_fract_y
 _atom_site_fract_z
 _atom_site_occupancy
  Zn  Zn0  1  0.45335000  0.61874000  0.50556000  1.0
  Zn  Zn1  1  0.53006000  0.38570000  0.49071000  1.0
  H  H2  1  0.82800000  0.68220000  0.44253000  1.0
  H  H3  1  0.27021000  0.81425000  0.00986000  1.0
  H  H4  1  0.84209000  0.60754000  0.34234000  1.0
  H  H5  1  0.67136000  0.41955000  0.24624000  1.0
  H  H6  1  0.27543000  0.74527000  0.63773000  1.0
  H  H7  1  0.27991000  0.12063000  0.68023000  1.0
  H  H8  1  0.22939000  0.93501000  0.69214000  1.0
  H  H9  1  0.55705000  0.81345000  0.45149000  1.0
  H  H10  1  0.72073000  0.25197000  0.38071000  1.0
  H  H11  1  0.67525000  0.91611000  0.40210000  1.0
  H  H12  1  0.40231000  0.25331000  0.60463000  1.0
  H  H13  1  0.15529000  0.32494000  0.53795000  1.0
  H  H14  1  0.06266000  0.58687000  0.33436000  1.0
  H  H15  1  0.04128000  0.68586000  0.41525000  1.0
  H  H16  1  0.84756000  0.57704000  0.62372000  1.0
  H  H17  1  0.04830000  0.61325000  0.60373000  1.0
  H  H18  1  0.94724000  0.31483000  0.50923000  1.0
  H  H19  1  0.93826000  0.38986000  0.38393000  1.0
  H  H20  1  0.15805000  0.37182000  0.40720000  1.0
  H  H21  1  0.77670000  0.28063000  0.69334000  1.0
  H  H22  1  0.93155000  0.91708000  0.42546000  1.0
  H  H23  1  0.95192000  0.05442000  0.42767000  1.0
  H  H24  1  0.92034000  0.42740000  0.65111000  1.0
  H  H25  1  0.01682000  0.92626000  0.25256000  1.0
  H  H26  1  0.03589000  0.06256000  0.25442000  1.0
  H  H27  1  0.17779000  0.83714000  0.40080000  1.0
  H  H28  1  0.19417000  0.97444000  0.40607000  1.0
  H  H29  1  0.24676000  0.91079000  0.30093000  1.0
  H  H30  1  0.11780000  0.46652000  0.65575000  1.0
  H  H31  1  0.79520000  0.29454000  0.13689000  1.0
  H  H32  1  0.82729000  0.24134000  0.96914000  1.0
  H  H33  1  0.44986000  0.56304000  0.82165000  1.0
  H  H34  1  0.31890000  0.76068000  0.19666000  1.0
  H  H35  1  0.38289000  0.68480000  0.90031000  1.0
  C  C36  1  0.47594000  0.57197000  0.30251000  1.0
  C  C37  1  0.50349000  0.55965000  0.02132000  1.0
  C  C38  1  0.53622000  0.53255000  0.12707000  1.0
  C  C39  1  0.73429000  0.49642000  0.49360000  1.0
  C  C40  1  0.57029000  0.48122000  0.95854000  1.0
  C  C41  1  0.67617000  0.38533000  0.00108000  1.0
  C  C42  1  0.71253000  0.36678000  0.10578000  1.0
  C  C43  1  0.64406000  0.43587000  0.16638000  1.0
  C  C44  1  0.53258000  0.49376000  0.85674000  1.0
  C  C45  1  0.70547000  0.32636000  0.83761000  1.0
  C  C46  1  0.46363000  0.60516000  0.18961000  1.0
  C  C47  1  0.11090000  0.50859000  0.49170000  1.0
  C  C48  1  0.30307000  0.91116000  0.63877000  1.0
  C  C49  1  0.67269000  0.18755000  0.41103000  1.0
  C  C50  1  0.71162000  0.07842000  0.38599000  1.0
  C  C51  1  0.53904000  0.43759000  0.69157000  1.0
  C  C52  1  0.64612000  0.99973000  0.42326000  1.0
  C  C53  1  0.54480000  0.02910000  0.48769000  1.0
  C  C54  1  0.51532000  0.13912000  0.51370000  1.0
  C  C55  1  0.46998000  0.95316000  0.52974000  1.0
  C  C56  1  0.37408000  0.98736000  0.59901000  1.0
  C  C57  1  0.35252000  0.09639000  0.62618000  1.0
  C  C58  1  0.05318000  0.52623000  0.59427000  1.0
  C  C59  1  0.42018000  0.16967000  0.58491000  1.0
  C  C60  1  0.48633000  0.84567000  0.50432000  1.0
  C  C61  1  0.32703000  0.80741000  0.60934000  1.0
  C  C62  1  0.24895000  0.51478000  0.49525000  1.0
  C  C63  1  0.88500000  0.60552000  0.41633000  1.0
  C  C64  1  0.02787000  0.60331000  0.40817000  1.0
  C  C65  1  0.91844000  0.50697000  0.59787000  1.0
  C  C66  1  0.96371000  0.39142000  0.46210000  1.0
  C  C67  1  0.87387000  0.49875000  0.49200000  1.0
  C  C68  1  0.79074000  0.25122000  0.77620000  1.0
  C  C69  1  0.10498000  0.39145000  0.47403000  1.0
  C  C70  1  0.93497000  0.99888000  0.37768000  1.0
  C  C71  1  0.03870000  0.97952000  0.30234000  1.0
  C  C72  1  0.17138000  0.92226000  0.35563000  1.0
  C  C73  1  0.74261000  0.31182000  0.93864000  1.0
  C  C74  1  0.59494000  0.41810000  0.79682000  1.0
  C  C75  1  0.37103000  0.70593000  0.14695000  1.0
  C  C76  1  0.34325000  0.73497000  0.04242000  1.0
  C  C77  1  0.40680000  0.66191000  0.98110000  1.0
  N  N78  1  0.41721000  0.77607000  0.54224000  1.0
  N  N79  1  0.57801000  0.21677000  0.47229000  1.0
  O  O80  1  0.46488000  0.65190000  0.35156000  1.0
  O  O81  1  0.81110000  0.05408000  0.32334000  1.0
  O  O82  1  0.49080000  0.46681000  0.34027000  1.0
  O  O83  1  0.65217000  0.58233000  0.51685000  1.0
  O  O84  1  0.70922000  0.40885000  0.47277000  1.0
  O  O85  1  0.46445000  0.53677000  0.65566000  1.0
  O  O86  1  0.56907000  0.35412000  0.64525000  1.0
  O  O87  1  0.26733000  0.61241000  0.48975000  1.0
  O  O88  1  0.33737000  0.42020000  0.50591000  1.0
  O  O89  1  0.87524000  0.16327000  0.81328000  1.0
