# generated using pymatgen
data_AlP3H20(C6O5)2
_symmetry_space_group_name_H-M   'P 1'
_cell_length_a   12.30450000
_cell_length_b   20.76460000
_cell_length_c   20.76430000
_cell_angle_alpha   116.19400000
_cell_angle_beta   101.38300000
_cell_angle_gamma   101.39500000
_symmetry_Int_Tables_number   1
_chemical_formula_structural   AlP3H20(C6O5)2
_chemical_formula_sum   'Al6 P18 H120 C72 O60'
_cell_volume   4415.61052720
_cell_formula_units_Z   6
loop_
 _symmetry_equiv_pos_site_id
 _symmetry_equiv_pos_as_xyz
  1  'x, y, z'
loop_
 _atom_site_type_symbol
 _atom_site_label
 _atom_site_symmetry_multiplicity
 _atom_site_fract_x
 _atom_site_fract_y
 _atom_site_fract_z
 _atom_site_occupancy
  Al  Al0  1  0.72478000  0.26819000  0.66248000  1.0
  Al  Al1  1  0.45656000  0.39429000  0.73184000  1.0
  Al  Al2  1  0.06232000  0.33756000  0.60578000  1.0
  Al  Al3  1  0.27523000  0.73181000  0.33752000  1.0
  Al  Al4  1  0.54344000  0.60571000  0.26816000  1.0
  Al  Al5  1  0.93768000  0.66244000  0.39422000  1.0
  P  P6  1  0.44308000  0.24399000  0.58169000  1.0
  P  P7  1  0.19910000  0.33766000  0.75610000  1.0
  P  P8  1  0.86140000  0.41837000  0.66234000  1.0
  P  P9  1  0.55692000  0.75601000  0.41831000  1.0
  P  P10  1  0.80090000  0.66234000  0.24390000  1.0
  P  P11  1  0.13860000  0.58163000  0.33766000  1.0
  P  P12  1  0.39567000  0.91049000  0.39165000  1.0
  P  P13  1  0.48516000  0.48111000  0.08950000  1.0
  P  P14  1  0.00399000  0.60834000  0.51882000  1.0
  P  P15  1  0.60433000  0.08951000  0.60835000  1.0
  P  P16  1  0.51484000  0.51889000  0.91050000  1.0
  P  P17  1  0.99601000  0.39166000  0.48118000  1.0
  P  P18  1  0.82975000  0.19219000  0.52420000  1.0
  P  P19  1  0.63746000  0.33199000  0.80782000  1.0
  P  P20  1  0.30547000  0.47583000  0.66804000  1.0
  P  P21  1  0.17026000  0.80781000  0.47580000  1.0
  P  P22  1  0.36254000  0.66801000  0.19218000  1.0
  P  P23  1  0.69453000  0.52417000  0.33196000  1.0
  H  H24  1  0.90373000  0.32116000  0.77197000  1.0
  H  H25  1  0.58259000  0.45084000  0.67891000  1.0
  H  H26  1  0.13184000  0.22810000  0.54924000  1.0
  H  H27  1  0.09628000  0.67884000  0.22803000  1.0
  H  H28  1  0.41741000  0.54916000  0.32109000  1.0
  H  H29  1  0.86816000  0.77190000  0.45076000  1.0
  H  H30  1  0.96127000  0.29933000  0.70543000  1.0
  H  H31  1  0.66190000  0.40610000  0.70071000  1.0
  H  H32  1  0.25587000  0.29465000  0.59399000  1.0
  H  H33  1  0.03874000  0.70067000  0.29457000  1.0
  H  H34  1  0.33810000  0.59390000  0.29929000  1.0
  H  H35  1  0.74413000  0.70535000  0.40601000  1.0
  H  H36  1  0.41189000  0.13250000  0.57515000  1.0
  H  H37  1  0.27948000  0.44263000  0.86758000  1.0
  H  H38  1  0.83686000  0.42493000  0.55739000  1.0
  H  H39  1  0.58811000  0.86750000  0.42485000  1.0
  H  H40  1  0.72052000  0.55737000  0.13242000  1.0
  H  H41  1  0.16314000  0.57507000  0.44261000  1.0
  H  H42  1  0.40299000  0.00461000  0.50703000  1.0
  H  H43  1  0.39841000  0.50245000  0.99542000  1.0
  H  H44  1  0.89594000  0.49292000  0.49753000  1.0
  H  H45  1  0.59701000  0.99539000  0.49297000  1.0
  H  H46  1  0.60159000  0.49755000  0.00458000  1.0
  H  H47  1  0.10405000  0.50708000  0.50246000  1.0
  H  H48  1  0.76378000  0.08961000  0.53096000  1.0
  H  H49  1  0.67412000  0.44135000  0.91034000  1.0
  H  H50  1  0.23278000  0.46904000  0.55870000  1.0
  H  H51  1  0.23622000  0.91039000  0.46904000  1.0
  H  H52  1  0.32589000  0.55865000  0.08967000  1.0
  H  H53  1  0.76722000  0.53096000  0.44130000  1.0
  H  H54  1  0.30478000  0.20988000  0.46538000  1.0
  H  H55  1  0.09478000  0.25543000  0.79019000  1.0
  H  H56  1  0.83923000  0.53465000  0.74452000  1.0
  H  H57  1  0.69522000  0.79012000  0.53462000  1.0
  H  H58  1  0.90522000  0.74457000  0.20981000  1.0
  H  H59  1  0.16077000  0.46535000  0.25548000  1.0
  H  H60  1  0.43376000  0.27978000  0.48564000  1.0
  H  H61  1  0.15387000  0.20580000  0.72029000  1.0
  H  H62  1  0.94794000  0.51443000  0.79421000  1.0
  H  H63  1  0.56624000  0.72022000  0.51436000  1.0
  H  H64  1  0.84613000  0.79420000  0.27971000  1.0
  H  H65  1  0.05206000  0.48557000  0.20579000  1.0
  H  H66  1  0.22449000  0.10557000  0.42152000  1.0
  H  H67  1  0.11886000  0.31596000  0.89455000  1.0
  H  H68  1  0.80282000  0.57848000  0.68400000  1.0
  H  H69  1  0.77551000  0.89443000  0.57848000  1.0
  H  H70  1  0.88114000  0.68404000  0.10545000  1.0
  H  H71  1  0.19718000  0.42152000  0.31600000  1.0
  H  H72  1  0.24530000  0.02354000  0.41988000  1.0
  H  H73  1  0.22181000  0.39632000  0.97653000  1.0
  H  H74  1  0.82541000  0.58011000  0.60362000  1.0
  H  H75  1  0.75470000  0.97646000  0.58012000  1.0
  H  H76  1  0.77819000  0.60368000  0.02347000  1.0
  H  H77  1  0.17459000  0.41989000  0.39638000  1.0
  H  H78  1  0.20367000  0.02506000  0.33413000  1.0
  H  H79  1  0.17848000  0.30910000  0.97509000  1.0
  H  H80  1  0.86936000  0.66587000  0.69084000  1.0
  H  H81  1  0.79633000  0.97494000  0.66587000  1.0
  H  H82  1  0.82152000  0.69089000  0.02491000  1.0
  H  H83  1  0.13064000  0.33413000  0.30916000  1.0
  H  H84  1  0.40188000  0.91677000  0.28103000  1.0
  H  H85  1  0.48505000  0.36423000  0.08328000  1.0
  H  H86  1  0.12076000  0.71894000  0.63568000  1.0
  H  H87  1  0.59812000  0.08323000  0.71897000  1.0
  H  H88  1  0.51495000  0.63577000  0.91672000  1.0
  H  H89  1  0.87924000  0.28106000  0.36432000  1.0
  H  H90  1  0.28159000  0.93874000  0.30820000  1.0
  H  H91  1  0.34281000  0.36945000  0.06136000  1.0
  H  H92  1  0.97331000  0.69181000  0.63050000  1.0
  H  H93  1  0.71842000  0.06126000  0.69180000  1.0
  H  H94  1  0.65719000  0.63055000  0.93864000  1.0
  H  H95  1  0.02669000  0.30819000  0.36950000  1.0
  H  H96  1  0.57205000  0.94514000  0.31407000  1.0
  H  H97  1  0.62692000  0.36905000  0.05486000  1.0
  H  H98  1  0.25794000  0.68589000  0.63105000  1.0
  H  H99  1  0.42796000  0.05486000  0.68592000  1.0
  H  H100  1  0.37308000  0.63095000  0.94514000  1.0
  H  H101  1  0.74206000  0.31411000  0.36895000  1.0
  H  H102  1  0.70246000  0.01230000  0.38554000  1.0
  H  H103  1  0.69001000  0.37332000  0.98760000  1.0
  H  H104  1  0.31678000  0.61437000  0.62676000  1.0
  H  H105  1  0.29754000  0.98770000  0.61446000  1.0
  H  H106  1  0.30999000  0.62668000  0.01240000  1.0
  H  H107  1  0.68322000  0.38563000  0.37324000  1.0
  H  H108  1  0.65936000  0.01245000  0.29907000  1.0
  H  H109  1  0.64698000  0.28674000  0.98758000  1.0
  H  H110  1  0.36020000  0.70087000  0.71337000  1.0
  H  H111  1  0.34064000  0.98755000  0.70093000  1.0
  H  H112  1  0.35302000  0.71326000  0.01242000  1.0
  H  H113  1  0.63980000  0.29913000  0.28663000  1.0
  H  H114  1  0.78198000  0.21729000  0.42255000  1.0
  H  H115  1  0.56459000  0.20525000  0.78271000  1.0
  H  H116  1  0.35925000  0.57743000  0.79478000  1.0
  H  H117  1  0.21802000  0.78271000  0.57745000  1.0
  H  H118  1  0.43541000  0.79475000  0.21729000  1.0
  H  H119  1  0.64075000  0.42257000  0.20522000  1.0
  H  H120  1  0.78613000  0.12406000  0.38975000  1.0
  H  H121  1  0.66195000  0.26564000  0.87593000  1.0
  H  H122  1  0.39629000  0.61031000  0.73441000  1.0
  H  H123  1  0.21387000  0.87594000  0.61026000  1.0
  H  H124  1  0.33805000  0.73436000  0.12407000  1.0
  H  H125  1  0.60371000  0.38969000  0.26559000  1.0
  H  H126  1  0.70715000  0.28781000  0.46316000  1.0
  H  H127  1  0.41911000  0.17515000  0.71224000  1.0
  H  H128  1  0.24373000  0.53688000  0.82477000  1.0
  H  H129  1  0.29285000  0.71219000  0.53684000  1.0
  H  H130  1  0.58089000  0.82485000  0.28776000  1.0
  H  H131  1  0.75627000  0.46312000  0.17523000  1.0
  H  H132  1  0.63003000  0.30790000  0.52781000  1.0
  H  H133  1  0.32195000  0.21972000  0.69212000  1.0
  H  H134  1  0.10196000  0.47224000  0.78017000  1.0
  H  H135  1  0.36997000  0.69210000  0.47219000  1.0
  H  H136  1  0.67805000  0.78028000  0.30788000  1.0
  H  H137  1  0.89804000  0.52776000  0.21983000  1.0
  H  H138  1  0.56648000  0.29451000  0.43672000  1.0
  H  H139  1  0.27176000  0.14208000  0.70561000  1.0
  H  H140  1  0.12942000  0.56333000  0.85782000  1.0
  H  H141  1  0.43352000  0.70549000  0.56328000  1.0
  H  H142  1  0.72824000  0.85792000  0.29439000  1.0
  H  H143  1  0.87058000  0.43667000  0.14218000  1.0
  C  C144  1  0.44747000  0.16574000  0.43678000  1.0
  C  C145  1  0.28160000  0.27093000  0.83433000  1.0
  C  C146  1  0.01057000  0.56329000  0.72902000  1.0
  C  C147  1  0.55253000  0.83426000  0.56322000  1.0
  C  C148  1  0.71840000  0.72907000  0.16567000  1.0
  C  C149  1  0.98943000  0.43671000  0.27098000  1.0
  C  C150  1  0.38573000  0.08765000  0.40091000  1.0
  C  C151  1  0.29797000  0.31316000  0.91242000  1.0
  C  C152  1  0.98472000  0.59914000  0.68676000  1.0
  C  C153  1  0.61427000  0.91235000  0.59909000  1.0
  C  C154  1  0.70203000  0.68684000  0.08758000  1.0
  C  C155  1  0.01528000  0.40086000  0.31323000  1.0
  C  C156  1  0.44313000  0.03460000  0.36817000  1.0
  C  C157  1  0.40842000  0.33350000  0.96544000  1.0
  C  C158  1  0.07487000  0.63184000  0.66644000  1.0
  C  C159  1  0.55687000  0.96540000  0.63183000  1.0
  C  C160  1  0.59158000  0.66650000  0.03456000  1.0
  C  C161  1  0.92513000  0.36816000  0.33356000  1.0
  C  C162  1  0.56182000  0.05937000  0.37399000  1.0
  C  C163  1  0.50235000  0.31459000  0.94065000  1.0
  C  C164  1  0.18772000  0.62602000  0.68540000  1.0
  C  C165  1  0.43818000  0.94063000  0.62601000  1.0
  C  C166  1  0.49765000  0.68541000  0.05935000  1.0
  C  C167  1  0.81228000  0.37398000  0.31460000  1.0
  C  C168  1  0.62182000  0.13794000  0.40956000  1.0
  C  C169  1  0.48374000  0.27155000  0.86208000  1.0
  C  C170  1  0.21211000  0.59047000  0.72844000  1.0
  C  C171  1  0.37818000  0.86206000  0.59044000  1.0
  C  C172  1  0.51626000  0.72845000  0.13792000  1.0
  C  C173  1  0.78789000  0.40953000  0.27156000  1.0
  C  C174  1  0.56298000  0.19073000  0.43706000  1.0
  C  C175  1  0.37209000  0.24620000  0.80931000  1.0
  C  C176  1  0.12576000  0.56300000  0.75375000  1.0
  C  C177  1  0.43702000  0.80927000  0.56294000  1.0
  C  C178  1  0.62791000  0.75380000  0.19069000  1.0
  C  C179  1  0.87424000  0.43700000  0.24625000  1.0
  C  C180  1  0.40070000  0.22602000  0.48428000  1.0
  C  C181  1  0.17458000  0.25820000  0.77405000  1.0
  C  C182  1  0.91628000  0.51578000  0.74179000  1.0
  C  C183  1  0.59930000  0.77398000  0.51572000  1.0
  C  C184  1  0.82542000  0.74180000  0.22595000  1.0
  C  C185  1  0.08372000  0.48422000  0.25821000  1.0
  C  C186  1  0.25879000  0.05940000  0.39420000  1.0
  C  C187  1  0.19933000  0.33478000  0.94070000  1.0
  C  C188  1  0.86448000  0.60581000  0.66516000  1.0
  C  C189  1  0.74121000  0.94060000  0.60580000  1.0
  C  C190  1  0.80067000  0.66522000  0.05930000  1.0
  C  C191  1  0.13552000  0.39419000  0.33484000  1.0
  C  C192  1  0.37640000  0.95076000  0.32988000  1.0
  C  C193  1  0.42557000  0.37908000  0.04929000  1.0
  C  C194  1  0.04643000  0.67010000  0.62085000  1.0
  C  C195  1  0.62360000  0.04924000  0.67012000  1.0
  C  C196  1  0.57443000  0.62092000  0.95071000  1.0
  C  C197  1  0.95357000  0.32989000  0.37915000  1.0
  C  C198  1  0.62644000  0.00436000  0.34149000  1.0
  C  C199  1  0.62204000  0.33722000  0.99564000  1.0
  C  C200  1  0.28486000  0.65847000  0.66286000  1.0
  C  C201  1  0.37356000  0.99564000  0.65851000  1.0
  C  C202  1  0.37796000  0.66279000  0.00436000  1.0
  C  C203  1  0.71514000  0.34153000  0.33714000  1.0
  C  C204  1  0.75293000  0.16636000  0.42692000  1.0
  C  C205  1  0.58644000  0.26054000  0.83365000  1.0
  C  C206  1  0.32587000  0.57310000  0.73949000  1.0
  C  C207  1  0.24707000  0.83364000  0.57308000  1.0
  C  C208  1  0.41356000  0.73947000  0.16635000  1.0
  C  C209  1  0.67413000  0.42690000  0.26051000  1.0
  C  C210  1  0.61979000  0.27397000  0.46775000  1.0
  C  C211  1  0.34563000  0.19361000  0.72609000  1.0
  C  C212  1  0.15179000  0.53230000  0.80630000  1.0
  C  C213  1  0.38021000  0.72603000  0.53225000  1.0
  C  C214  1  0.65437000  0.80639000  0.27391000  1.0
  C  C215  1  0.84821000  0.46770000  0.19370000  1.0
  O  O216  1  0.88980000  0.28510000  0.71898000  1.0
  O  O217  1  0.60473000  0.43392000  0.71499000  1.0
  O  O218  1  0.17088000  0.28109000  0.56618000  1.0
  O  O219  1  0.11020000  0.71490000  0.28102000  1.0
  O  O220  1  0.39527000  0.56608000  0.28501000  1.0
  O  O221  1  0.82912000  0.71891000  0.43382000  1.0
  O  O222  1  0.36749000  0.16915000  0.57504000  1.0
  O  O223  1  0.19844000  0.40584000  0.83097000  1.0
  O  O224  1  0.79258000  0.42509000  0.59418000  1.0
  O  O225  1  0.63251000  0.83085000  0.42495000  1.0
  O  O226  1  0.80156000  0.59416000  0.16903000  1.0
  O  O227  1  0.20742000  0.57491000  0.40582000  1.0
  O  O228  1  0.57279000  0.25868000  0.61317000  1.0
  O  O229  1  0.31409000  0.35440000  0.74136000  1.0
  O  O230  1  0.95966000  0.38691000  0.64560000  1.0
  O  O231  1  0.42722000  0.74132000  0.38683000  1.0
  O  O232  1  0.68591000  0.64560000  0.25864000  1.0
  O  O233  1  0.04034000  0.61309000  0.35440000  1.0
  O  O234  1  0.39998000  0.30897000  0.62834000  1.0
  O  O235  1  0.09103000  0.31941000  0.69115000  1.0
  O  O236  1  0.77158000  0.37168000  0.68061000  1.0
  O  O237  1  0.60002000  0.69103000  0.37166000  1.0
  O  O238  1  0.90897000  0.68059000  0.30885000  1.0
  O  O239  1  0.22842000  0.62832000  0.31939000  1.0
  O  O240  1  0.52669000  0.92607000  0.42664000  1.0
  O  O241  1  0.60059000  0.50048000  0.07386000  1.0
  O  O242  1  0.10010000  0.57337000  0.49945000  1.0
  O  O243  1  0.47331000  0.07393000  0.57336000  1.0
  O  O244  1  0.39941000  0.49952000  0.92614000  1.0
  O  O245  1  0.89990000  0.42663000  0.50055000  1.0
  O  O246  1  0.34565000  0.95357000  0.45788000  1.0
  O  O247  1  0.39209000  0.50428000  0.04645000  1.0
  O  O248  1  0.88778000  0.54208000  0.49563000  1.0
  O  O249  1  0.65435000  0.04643000  0.54212000  1.0
  O  O250  1  0.60791000  0.49572000  0.95355000  1.0
  O  O251  1  0.11222000  0.45792000  0.50437000  1.0
  O  O252  1  0.32100000  0.82813000  0.34646000  1.0
  O  O253  1  0.49296000  0.51832000  0.17188000  1.0
  O  O254  1  0.97455000  0.65351000  0.48162000  1.0
  O  O255  1  0.67901000  0.17187000  0.65355000  1.0
  O  O256  1  0.50704000  0.48168000  0.82812000  1.0
  O  O257  1  0.02545000  0.34649000  0.51838000  1.0
  O  O258  1  0.83383000  0.11600000  0.52308000  1.0
  O  O259  1  0.71776000  0.40706000  0.88397000  1.0
  O  O260  1  0.31069000  0.47693000  0.59297000  1.0
  O  O261  1  0.16617000  0.88400000  0.47692000  1.0
  O  O262  1  0.28225000  0.59294000  0.11604000  1.0
  O  O263  1  0.68931000  0.52308000  0.40703000  1.0
  O  O264  1  0.95665000  0.23875000  0.54739000  1.0
  O  O265  1  0.71783000  0.30858000  0.76126000  1.0
  O  O266  1  0.40926000  0.45269000  0.69143000  1.0
  O  O267  1  0.04334000  0.76125000  0.45261000  1.0
  O  O268  1  0.28218000  0.69142000  0.23874000  1.0
  O  O269  1  0.59074000  0.54731000  0.30857000  1.0
  O  O270  1  0.76180000  0.23136000  0.57407000  1.0
  O  O271  1  0.53037000  0.34269000  0.76866000  1.0
  O  O272  1  0.18771000  0.42597000  0.65737000  1.0
  O  O273  1  0.23819000  0.76864000  0.42593000  1.0
  O  O274  1  0.46963000  0.65731000  0.23134000  1.0
  O  O275  1  0.81229000  0.57403000  0.34263000  1.0
