# generated using pymatgen
data_TbH19C21NO8
_symmetry_space_group_name_H-M   'P 1'
_cell_length_a   12.15020000
_cell_length_b   12.15170000
_cell_length_c   18.33102213
_cell_angle_alpha   102.32327368
_cell_angle_beta   107.50142296
_cell_angle_gamma   102.96100000
_symmetry_Int_Tables_number   1
_chemical_formula_structural   TbH19C21NO8
_chemical_formula_sum   'Tb4 H76 C84 N4 O32'
_cell_volume   2397.82928717
_cell_formula_units_Z   4
loop_
 _symmetry_equiv_pos_site_id
 _symmetry_equiv_pos_as_xyz
  1  'x, y, z'
loop_
 _atom_site_type_symbol
 _atom_site_label
 _atom_site_symmetry_multiplicity
 _atom_site_fract_x
 _atom_site_fract_y
 _atom_site_fract_z
 _atom_site_occupancy
  Tb  Tb0  1  0.58620000  0.16039000  0.98816000  1.0
  Tb  Tb1  1  0.67224000  0.59791000  0.51175000  1.0
  Tb  Tb2  1  0.41380000  0.83961000  0.01184000  1.0
  Tb  Tb3  1  0.32776000  0.40209000  0.48825000  1.0
  H  H4  1  0.68134000  0.01028000  0.89115000  1.0
  H  H5  1  0.61921000  0.79011000  0.60877000  1.0
  H  H6  1  0.31866000  0.98972000  0.10885000  1.0
  H  H7  1  0.38079000  0.20989000  0.39123000  1.0
  H  H8  1  0.56751000  0.91273000  0.89362000  1.0
  H  H9  1  0.51914000  0.67391000  0.60635000  1.0
  H  H10  1  0.43249000  0.08727000  0.10638000  1.0
  H  H11  1  0.48086000  0.32609000  0.39365000  1.0
  H  H12  1  0.76615000  0.86023000  0.04531000  1.0
  H  H13  1  0.31485000  0.72090000  0.45460000  1.0
  H  H14  1  0.23385000  0.13977000  0.95469000  1.0
  H  H15  1  0.68515000  0.27910000  0.54540000  1.0
  H  H16  1  0.89978000  0.76214000  0.12013000  1.0
  H  H17  1  0.14209000  0.77982000  0.37976000  1.0
  H  H18  1  0.10022000  0.23786000  0.87987000  1.0
  H  H19  1  0.85791000  0.22018000  0.62024000  1.0
  H  H20  1  0.98849000  0.83684000  0.27078000  1.0
  H  H21  1  0.06613000  0.71776000  0.22909000  1.0
  H  H22  1  0.01151000  0.16316000  0.72922000  1.0
  H  H23  1  0.93387000  0.28224000  0.77091000  1.0
  H  H24  1  0.93863000  0.00235000  0.34263000  1.0
  H  H25  1  0.15971000  0.59585000  0.15731000  1.0
  H  H26  1  0.06136000  0.99765000  0.65737000  1.0
  H  H27  1  0.84029000  0.40415000  0.84269000  1.0
  H  H28  1  0.60649000  0.06554000  0.20899000  1.0
  H  H29  1  0.35658000  0.39733000  0.29096000  1.0
  H  H30  1  0.39351000  0.93446000  0.79101000  1.0
  H  H31  1  0.64342000  0.60267000  0.70904000  1.0
  H  H32  1  0.55997000  0.22602000  0.29062000  1.0
  H  H33  1  0.43558000  0.26926000  0.20936000  1.0
  H  H34  1  0.44003000  0.77398000  0.70938000  1.0
  H  H35  1  0.56442000  0.73073000  0.79064000  1.0
  H  H36  1  0.93142000  0.36132000  0.45444000  1.0
  H  H37  1  0.40696000  0.47694000  0.04557000  1.0
  H  H38  1  0.06858000  0.63868000  0.54556000  1.0
  H  H39  1  0.59304000  0.52306000  0.95443000  1.0
  H  H40  1  0.98085000  0.20490000  0.37027000  1.0
  H  H41  1  0.33472000  0.61049000  0.12975000  1.0
  H  H42  1  0.01915000  0.79510000  0.62973000  1.0
  H  H43  1  0.66528000  0.38951000  0.87025000  1.0
  H  H44  1  0.84797000  0.56012000  0.05146000  1.0
  H  H45  1  0.00869000  0.79662000  0.44840000  1.0
  H  H46  1  0.15203000  0.43988000  0.94854000  1.0
  H  H47  1  0.99131000  0.20338000  0.55160000  1.0
  H  H48  1  0.97267000  0.28500000  0.94822000  1.0
  H  H49  1  0.83678000  0.02431000  0.55185000  1.0
  H  H50  1  0.02733000  0.71500000  0.05178000  1.0
  H  H51  1  0.16322000  0.97569000  0.44815000  1.0
  H  H52  1  0.30945000  0.37766000  0.79615000  1.0
  H  H53  1  0.08147000  0.51326000  0.70389000  1.0
  H  H54  1  0.69055000  0.62233000  0.20385000  1.0
  H  H55  1  0.91853000  0.48674000  0.29611000  1.0
  H  H56  1  0.22137000  0.27511000  0.69824000  1.0
  H  H57  1  0.07669000  0.52307000  0.80177000  1.0
  H  H58  1  0.77863000  0.72489000  0.30176000  1.0
  H  H59  1  0.92331000  0.47693000  0.19823000  1.0
  H  H60  1  0.36131000  0.38055000  0.71441000  1.0
  H  H61  1  0.16607000  0.64682000  0.78564000  1.0
  H  H62  1  0.63868000  0.61945000  0.28559000  1.0
  H  H63  1  0.83393000  0.35318000  0.21436000  1.0
  H  H64  1  0.41488000  0.31090000  0.88223000  1.0
  H  H65  1  0.92865000  0.53261000  0.61774000  1.0
  H  H66  1  0.58512000  0.68910000  0.11777000  1.0
  H  H67  1  0.07135000  0.46739000  0.38226000  1.0
  H  H68  1  0.44341000  0.10352000  0.72172000  1.0
  H  H69  1  0.88168000  0.72169000  0.77818000  1.0
  H  H70  1  0.55659000  0.89648000  0.27828000  1.0
  H  H71  1  0.11832000  0.27831000  0.22182000  1.0
  H  H72  1  0.43255000  0.20636000  0.66369000  1.0
  H  H73  1  0.04254000  0.76884000  0.83620000  1.0
  H  H74  1  0.56745000  0.79364000  0.33631000  1.0
  H  H75  1  0.95746000  0.23115000  0.16380000  1.0
  H  H76  1  0.29867000  0.09881000  0.65529000  1.0
  H  H77  1  0.94338000  0.64345000  0.84468000  1.0
  H  H78  1  0.70133000  0.90119000  0.34471000  1.0
  H  H79  1  0.05661000  0.35655000  0.15532000  1.0
  C  C80  1  0.82812000  0.02987000  0.23606000  1.0
  C  C81  1  0.29381000  0.59196000  0.26391000  1.0
  C  C82  1  0.17188000  0.97013000  0.76394000  1.0
  C  C83  1  0.70619000  0.40804000  0.73609000  1.0
  C  C84  1  0.78038000  0.98899000  0.15146000  1.0
  C  C85  1  0.33750000  0.62887000  0.34852000  1.0
  C  C86  1  0.21962000  0.01101000  0.84854000  1.0
  C  C87  1  0.66251000  0.37113000  0.65148000  1.0
  C  C88  1  0.80553000  0.89202000  0.11065000  1.0
  C  C89  1  0.28131000  0.69484000  0.38928000  1.0
  C  C90  1  0.19448000  0.10798000  0.88935000  1.0
  C  C91  1  0.71868000  0.30515000  0.61071000  1.0
  C  C92  1  0.88061000  0.83708000  0.15275000  1.0
  C  C93  1  0.18432000  0.72786000  0.34715000  1.0
  C  C94  1  0.11939000  0.16292000  0.84725000  1.0
  C  C95  1  0.81569000  0.27214000  0.65285000  1.0
  C  C96  1  0.93006000  0.87856000  0.23647000  1.0
  C  C97  1  0.14209000  0.69355000  0.26343000  1.0
  C  C98  1  0.06994000  0.12144000  0.76353000  1.0
  C  C99  1  0.85791000  0.30645000  0.73657000  1.0
  C  C100  1  0.90317000  0.97304000  0.27727000  1.0
  C  C101  1  0.19578000  0.62579000  0.22267000  1.0
  C  C102  1  0.09683000  0.02696000  0.72273000  1.0
  C  C103  1  0.80422000  0.37421000  0.77733000  1.0
  C  C104  1  0.70784000  0.04908000  0.10141000  1.0
  C  C105  1  0.44766000  0.60639000  0.39857000  1.0
  C  C106  1  0.29216000  0.95092000  0.89859000  1.0
  C  C107  1  0.55234000  0.39361000  0.60143000  1.0
  C  C108  1  0.79794000  0.12533000  0.28321000  1.0
  C  C109  1  0.34223000  0.51465000  0.21680000  1.0
  C  C110  1  0.20206000  0.87467000  0.71679000  1.0
  C  C111  1  0.65777000  0.48535000  0.78320000  1.0
  C  C112  1  0.67887000  0.13167000  0.26139000  1.0
  C  C113  1  0.37039000  0.41739000  0.23860000  1.0
  C  C114  1  0.32113000  0.86833000  0.73861000  1.0
  C  C115  1  0.62961000  0.58261000  0.76140000  1.0
  C  C116  1  0.65189000  0.22038000  0.30788000  1.0
  C  C117  1  0.41263000  0.34394000  0.19212000  1.0
  C  C118  1  0.34811000  0.77962000  0.69212000  1.0
  C  C119  1  0.58737000  0.65606000  0.80788000  1.0
  C  C120  1  0.74215000  0.30358000  0.37746000  1.0
  C  C121  1  0.42624000  0.36461000  0.12252000  1.0
  C  C122  1  0.25785000  0.69642000  0.62254000  1.0
  C  C123  1  0.57376000  0.63539000  0.87748000  1.0
  C  C124  1  0.86081000  0.29641000  0.40049000  1.0
  C  C125  1  0.39605000  0.46024000  0.09953000  1.0
  C  C126  1  0.13919000  0.70359000  0.59951000  1.0
  C  C127  1  0.60395000  0.53976000  0.90047000  1.0
  C  C128  1  0.88801000  0.20839000  0.35355000  1.0
  C  C129  1  0.35499000  0.53440000  0.14648000  1.0
  C  C130  1  0.11199000  0.79161000  0.64645000  1.0
  C  C131  1  0.64501000  0.46560000  0.85352000  1.0
  C  C132  1  0.71374000  0.39991000  0.42600000  1.0
  C  C133  1  0.47394000  0.28758000  0.07395000  1.0
  C  C134  1  0.28626000  0.60009000  0.57400000  1.0
  C  C135  1  0.52606000  0.71241000  0.92605000  1.0
  C  C136  1  0.90177000  0.41473000  0.00050000  1.0
  C  C137  1  0.91427000  0.90123000  0.49950000  1.0
  C  C138  1  0.09823000  0.58527000  0.99950000  1.0
  C  C139  1  0.08573000  0.09877000  0.50050000  1.0
  C  C140  1  0.91582000  0.53555000  0.02952000  1.0
  C  C141  1  0.00604000  0.88635000  0.47042000  1.0
  C  C142  1  0.08418000  0.46445000  0.97048000  1.0
  C  C143  1  0.99396000  0.11365000  0.52958000  1.0
  C  C144  1  0.98644000  0.37955000  0.97102000  1.0
  C  C145  1  0.90854000  0.01534000  0.52904000  1.0
  C  C146  1  0.01356000  0.62045000  0.02898000  1.0
  C  C147  1  0.09146000  0.98466000  0.47096000  1.0
  C  C148  1  0.79371000  0.32393000  0.99800000  1.0
  C  C149  1  0.82593000  0.79563000  0.50196000  1.0
  C  C150  1  0.20629000  0.67608000  0.00200000  1.0
  C  C151  1  0.17407000  0.20437000  0.49804000  1.0
  C  C152  1  0.31382000  0.32336000  0.74164000  1.0
  C  C153  1  0.08161000  0.57212000  0.75837000  1.0
  C  C154  1  0.68618000  0.67664000  0.25836000  1.0
  C  C155  1  0.91839000  0.42788000  0.24163000  1.0
  C  C156  1  0.43093000  0.24533000  0.83835000  1.0
  C  C157  1  0.90697000  0.59256000  0.66161000  1.0
  C  C158  1  0.56907000  0.75467000  0.16165000  1.0
  C  C159  1  0.09303000  0.40744000  0.33839000  1.0
  C  C160  1  0.38951000  0.15682000  0.69666000  1.0
  C  C161  1  0.96005000  0.69286000  0.80328000  1.0
  C  C162  1  0.61049000  0.84318000  0.30334000  1.0
  C  C163  1  0.03994000  0.30714000  0.19672000  1.0
  N  N164  1  0.37813000  0.23985000  0.76215000  1.0
  N  N165  1  0.97760000  0.61591000  0.73782000  1.0
  N  N166  1  0.62187000  0.76015000  0.23785000  1.0
  N  N167  1  0.02240000  0.38409000  0.26218000  1.0
  O  O168  1  0.75396000  0.15453000  0.10408000  1.0
  O  O169  1  0.55044000  0.64978000  0.39586000  1.0
  O  O170  1  0.24604000  0.84547000  0.89592000  1.0
  O  O171  1  0.44956000  0.35022000  0.60414000  1.0
  O  O172  1  0.59981000  0.98894000  0.05145000  1.0
  O  O173  1  0.43752000  0.54839000  0.44856000  1.0
  O  O174  1  0.40019000  0.01106000  0.94855000  1.0
  O  O175  1  0.56248000  0.45161000  0.55144000  1.0
  O  O176  1  0.60902000  0.41613000  0.39946000  1.0
  O  O177  1  0.51669000  0.20940000  0.10046000  1.0
  O  O178  1  0.39098000  0.58387000  0.60054000  1.0
  O  O179  1  0.48331000  0.79060000  0.89954000  1.0
  O  O180  1  0.79249000  0.46759000  0.49309000  1.0
  O  O181  1  0.47449000  0.29922000  0.00685000  1.0
  O  O182  1  0.20751000  0.53241000  0.50691000  1.0
  O  O183  1  0.52551000  0.70078000  0.99315000  1.0
  O  O184  1  0.72626000  0.35684000  0.03430000  1.0
  O  O185  1  0.82272000  0.69191000  0.46575000  1.0
  O  O186  1  0.27374000  0.64316000  0.96570000  1.0
  O  O187  1  0.17728000  0.30809000  0.53425000  1.0
  O  O188  1  0.76868000  0.21567000  0.95789000  1.0
  O  O189  1  0.75754000  0.81063000  0.54190000  1.0
  O  O190  1  0.23132000  0.78433000  0.04211000  1.0
  O  O191  1  0.24246000  0.18937000  0.45810000  1.0
  O  O192  1  0.49525000  0.18169000  0.86084000  1.0
  O  O193  1  0.82087000  0.63444000  0.63909000  1.0
  O  O194  1  0.50475000  0.81831000  0.13916000  1.0
  O  O195  1  0.17913000  0.36556000  0.36091000  1.0
  O  O196  1  0.60101000  0.99617000  0.89394000  1.0
  O  O197  1  0.60224000  0.70700000  0.60597000  1.0
  O  O198  1  0.39899000  0.00383000  0.10606000  1.0
  O  O199  1  0.39776000  0.29300000  0.39403000  1.0
