# generated using pymatgen
data_Al3H26C45Cl5O14
_symmetry_space_group_name_H-M   'P 1'
_cell_length_a   12.79673372
_cell_length_b   12.89430000
_cell_length_c   30.34600000
_cell_angle_alpha   81.13300000
_cell_angle_beta   80.77569409
_cell_angle_gamma   63.07489753
_symmetry_Int_Tables_number   1
_chemical_formula_structural   Al3H26C45Cl5O14
_chemical_formula_sum   'Al6 H52 C90 Cl10 O28'
_cell_volume   4387.75661011
_cell_formula_units_Z   2
loop_
 _symmetry_equiv_pos_site_id
 _symmetry_equiv_pos_as_xyz
  1  'x, y, z'
loop_
 _atom_site_type_symbol
 _atom_site_label
 _atom_site_symmetry_multiplicity
 _atom_site_fract_x
 _atom_site_fract_y
 _atom_site_fract_z
 _atom_site_occupancy
  Al  Al0  1  0.40790000  0.40690000  0.51502000  1.0
  Al  Al1  1  0.43106000  0.64699000  0.49644000  1.0
  Al  Al2  1  0.65410000  0.42342000  0.49521000  1.0
  Al  Al3  1  0.92767000  0.91270000  0.97847000  1.0
  Al  Al4  1  0.67728000  0.90555000  0.99582000  1.0
  Al  Al5  1  0.89627000  0.67764000  0.99538000  1.0
  H  H6  1  0.78966000  0.25378000  0.71102000  1.0
  H  H7  1  0.71055000  0.01434000  0.70548000  1.0
  H  H8  1  0.82943000  0.05198000  0.69488000  1.0
  H  H9  1  0.47524000  0.31440000  0.72653000  1.0
  H  H10  1  0.49248000  0.18064000  0.71079000  1.0
  H  H11  1  0.84311000  0.54088000  0.81019000  1.0
  H  H12  1  0.21548000  0.47550000  0.78982000  1.0
  H  H13  1  0.28690000  0.47090000  0.71332000  1.0
  H  H14  1  0.06861000  0.57698000  0.71513000  1.0
  H  H15  1  0.97083000  0.77433000  0.77379000  1.0
  H  H16  1  0.26615000  0.77748000  0.70038000  1.0
  H  H17  1  0.32382000  0.51942000  0.79610000  1.0
  H  H18  1  0.12850000  0.84090000  0.78279000  1.0
  H  H19  1  0.65654000  0.48964000  0.28725000  1.0
  H  H20  1  0.82015000  0.67161000  0.28097000  1.0
  H  H21  1  0.85211000  0.55681000  0.20164000  1.0
  H  H22  1  0.51485000  0.60837000  0.28662000  1.0
  H  H23  1  0.61354000  0.86324000  0.20367000  1.0
  H  H24  1  0.87079000  0.08497000  0.08368000  1.0
  H  H25  1  0.78838000  0.27710000  0.37959000  1.0
  H  H26  1  0.49614000  0.17995000  0.32775000  1.0
  H  H27  1  0.23453000  0.47005000  0.40760000  1.0
  H  H28  1  0.26032000  0.79480000  0.38417000  1.0
  H  H29  1  0.07622000  0.85304000  0.08731000  1.0
  H  H30  1  0.52831000  0.86731000  0.89230000  1.0
  H  H31  1  0.75370000  0.26014000  0.78951000  1.0
  H  H32  1  0.86052000  0.56019000  0.88915000  1.0
  H  H33  1  0.59923000  0.33623000  0.78767000  1.0
  H  H34  1  0.54221000  0.08268000  0.78206000  1.0
  H  H35  1  0.99705000  0.62759000  0.78910000  1.0
  H  H36  1  0.11047000  0.84655000  0.70638000  1.0
  H  H37  1  0.27633000  0.73316000  0.77839000  1.0
  H  H38  1  0.36530000  0.55043000  0.71844000  1.0
  H  H39  1  0.68227000  0.50258000  0.20888000  1.0
  H  H40  1  0.83606000  0.52875000  0.27993000  1.0
  H  H41  1  0.82244000  0.70393000  0.20302000  1.0
  H  H42  1  0.48800000  0.81427000  0.28689000  1.0
  H  H43  1  0.61193000  0.84334000  0.28164000  1.0
  H  H44  1  0.49468000  0.82644000  0.20880000  1.0
  H  H45  1  0.53565000  0.61232000  0.20857000  1.0
  H  H46  1  0.85242000  0.13698000  0.16169000  1.0
  H  H47  1  0.81229000  0.23007000  0.30050000  1.0
  H  H48  1  0.47374000  0.22741000  0.40672000  1.0
  H  H49  1  0.46702000  0.76385000  0.59825000  1.0
  H  H50  1  0.51668000  0.12462000  0.18904000  1.0
  H  H51  1  0.53739000  0.07148000  0.11114000  1.0
  H  H52  1  0.17753000  0.49691000  0.32980000  1.0
  H  H53  1  0.12346000  0.84361000  0.16511000  1.0
  H  H54  1  0.50892000  0.84798000  0.81373000  1.0
  H  H55  1  0.20330000  0.82343000  0.30637000  1.0
  H  H56  1  0.33509000  0.27558000  0.50566000  1.0
  H  H57  1  0.98831000  0.05675000  0.98237000  1.0
  C  C58  1  0.29170000  0.61152000  0.57084000  1.0
  C  C59  1  0.66377000  0.67065000  0.67655000  1.0
  C  C60  1  0.76164000  0.58868000  0.65139000  1.0
  C  C61  1  0.75454000  0.57001000  0.60770000  1.0
  C  C62  1  0.77400000  0.61124000  0.82857000  1.0
  C  C63  1  0.78336000  0.62144000  0.87244000  1.0
  C  C64  1  0.59536000  0.79497000  0.87430000  1.0
  C  C65  1  0.58499000  0.78455000  0.83056000  1.0
  C  C66  1  0.67533000  0.69366000  0.80672000  1.0
  C  C67  1  0.66985000  0.68722000  0.76118000  1.0
  C  C68  1  0.66880000  0.68147000  0.72148000  1.0
  C  C69  1  0.61951000  0.60534000  0.54702000  1.0
  C  C70  1  0.69485000  0.71412000  0.89542000  1.0
  C  C71  1  0.69708000  0.27793000  0.72348000  1.0
  C  C72  1  0.74442000  0.07145000  0.71477000  1.0
  C  C73  1  0.76080000  0.04669000  0.76520000  1.0
  C  C74  1  0.69063000  0.09424000  0.87812000  1.0
  C  C75  1  0.65511000  0.20039000  0.70406000  1.0
  C  C76  1  0.67950000  0.26286000  0.77494000  1.0
  C  C77  1  0.66369000  0.15032000  0.79125000  1.0
  C  C78  1  0.54433000  0.16764000  0.77725000  1.0
  C  C79  1  0.53225000  0.22007000  0.72825000  1.0
  C  C80  1  0.61440000  0.29120000  0.57070000  1.0
  C  C81  1  0.67288000  0.12225000  0.83900000  1.0
  C  C82  1  0.65078000  0.22496000  0.65596000  1.0
  C  C83  1  0.64270000  0.24536000  0.61591000  1.0
  C  C84  1  0.27972000  0.54803000  0.72712000  1.0
  C  C85  1  0.06520000  0.66067000  0.72057000  1.0
  C  C86  1  0.03589000  0.68377000  0.77033000  1.0
  C  C87  1  0.09595000  0.67826000  0.87871000  1.0
  C  C88  1  0.18595000  0.65993000  0.70332000  1.0
  C  C89  1  0.24682000  0.54256000  0.77835000  1.0
  C  C90  1  0.14871000  0.66254000  0.79066000  1.0
  C  C91  1  0.29622000  0.60589000  0.44463000  1.0
  C  C92  1  0.18809000  0.75779000  0.76894000  1.0
  C  C93  1  0.18804000  0.76889000  0.71763000  1.0
  C  C94  1  0.12221000  0.66804000  0.83876000  1.0
  C  C95  1  0.21217000  0.65255000  0.65532000  1.0
  C  C96  1  0.24118000  0.63972000  0.61567000  1.0
  C  C97  1  0.60751000  0.57992000  0.27298000  1.0
  C  C98  1  0.78399000  0.62074000  0.26817000  1.0
  C  C99  1  0.79045000  0.63813000  0.21639000  1.0
  C  C100  1  0.68316000  0.69641000  0.11179000  1.0
  C  C101  1  0.65445000  0.65885000  0.28860000  1.0
  C  C102  1  0.61426000  0.60911000  0.42508000  1.0
  C  C103  1  0.62049000  0.58737000  0.22114000  1.0
  C  C104  1  0.66679000  0.67871000  0.20107000  1.0
  C  C105  1  0.58264000  0.79796000  0.21929000  1.0
  C  C106  1  0.57871000  0.78709000  0.27097000  1.0
  C  C107  1  0.67471000  0.68845000  0.15255000  1.0
  C  C108  1  0.64651000  0.64623000  0.33716000  1.0
  C  C109  1  0.63824000  0.63432000  0.37795000  1.0
  C  C110  1  0.63018000  0.25401000  0.39776000  1.0
  C  C111  1  0.54786000  0.22650000  0.38314000  1.0
  C  C112  1  0.56012000  0.20082000  0.33933000  1.0
  C  C113  1  0.60979000  0.29240000  0.44343000  1.0
  C  C114  1  0.65537000  0.20253000  0.30883000  1.0
  C  C115  1  0.73860000  0.22909000  0.32394000  1.0
  C  C116  1  0.72586000  0.25448000  0.36787000  1.0
  C  C117  1  0.78337000  0.12328000  0.15037000  1.0
  C  C118  1  0.79355000  0.09493000  0.10711000  1.0
  C  C119  1  0.60499000  0.08724000  0.12254000  1.0
  C  C120  1  0.59400000  0.11592000  0.16584000  1.0
  C  C121  1  0.68363000  0.13348000  0.18059000  1.0
  C  C122  1  0.67424000  0.15892000  0.22514000  1.0
  C  C123  1  0.66619000  0.17905000  0.26390000  1.0
  C  C124  1  0.64569000  0.63199000  0.58899000  1.0
  C  C125  1  0.70499000  0.07599000  0.09291000  1.0
  C  C126  1  0.25085000  0.63059000  0.40012000  1.0
  C  C127  1  0.24116000  0.73083000  0.37189000  1.0
  C  C128  1  0.21012000  0.74630000  0.32868000  1.0
  C  C129  1  0.18811000  0.66128000  0.31291000  1.0
  C  C130  1  0.19539000  0.56190000  0.34197000  1.0
  C  C131  1  0.22660000  0.54698000  0.38498000  1.0
  C  C132  1  0.09933000  0.58873000  0.17223000  1.0
  C  C133  1  0.07221000  0.59445667  0.12842000  1.0
  C  C134  1  0.08331000  0.77949000  0.11175000  1.0
  C  C135  1  0.54999000  0.71666000  0.61309000  1.0
  C  C136  1  0.10914000  0.77430000  0.15473000  1.0
  C  C137  1  0.11664000  0.67916000  0.18619000  1.0
  C  C138  1  0.14067000  0.67479000  0.23035000  1.0
  C  C139  1  0.16135000  0.67228000  0.26851000  1.0
  C  C140  1  0.06305000  0.69182000  0.09761000  1.0
  C  C141  1  0.72371000  0.03974000  0.92209000  1.0
  C  C142  1  0.71330000  0.73305000  0.93993000  1.0
  C  C143  1  0.04487000  0.70555000  0.92364000  1.0
  C  C144  1  0.72301000  0.03433000  0.04803000  1.0
  C  C145  1  0.70935000  0.71842000  0.06457000  1.0
  C  C146  1  0.55913000  0.73721000  0.65543000  1.0
  C  C147  1  0.02485000  0.71579000  0.05134000  1.0
  Cl  Cl148  1  0.90386000  0.02890000  0.77391000  1.0
  Cl  Cl149  1  0.74888000  0.91493000  0.78740000  1.0
  Cl  Cl150  1  0.42297000  0.25667000  0.81400000  1.0
  Cl  Cl151  1  0.61935000  0.42921000  0.70370000  1.0
  Cl  Cl152  1  0.95021000  0.76769000  0.68791000  1.0
  Cl  Cl153  1  0.88926000  0.50800000  0.67629000  1.0
  Cl  Cl154  1  0.87914000  0.47377000  0.57928000  1.0
  Cl  Cl155  1  0.05025000  0.48152000  0.11520000  1.0
  Cl  Cl156  1  0.11199000  0.47105000  0.21035000  1.0
  Cl  Cl157  1  0.44019000  0.84322000  0.68356000  1.0
  O  O158  1  0.51207000  0.31502000  0.56251000  1.0
  O  O159  1  0.51777000  0.68194000  0.44449000  1.0
  O  O160  1  0.68749000  0.51306000  0.44380000  1.0
  O  O161  1  0.68988000  0.31472000  0.45505000  1.0
  O  O162  1  0.49902000  0.49309000  0.50180000  1.0
  O  O163  1  0.03028000  0.80130000  0.93546000  1.0
  O  O164  1  0.82976000  0.00497000  0.92859000  1.0
  O  O165  1  0.64254000  0.02702000  0.95039000  1.0
  O  O166  1  0.64127000  0.82929000  0.95632000  1.0
  O  O167  1  0.80384000  0.65541000  0.95821000  1.0
  O  O168  1  0.01291000  0.63101000  0.94796000  1.0
  O  O169  1  0.30982000  0.51353000  0.56015000  1.0
  O  O170  1  0.00848000  0.81434000  0.03109000  1.0
  O  O171  1  0.81616000  0.02189000  0.02293000  1.0
  O  O172  1  0.64340000  0.00821000  0.03854000  1.0
  O  O173  1  0.63829000  0.81412000  0.04490000  1.0
  O  O174  1  0.80595000  0.64354000  0.04602000  1.0
  O  O175  1  0.00722000  0.63866000  0.03559000  1.0
  O  O176  1  0.83242000  0.83155000  0.99024000  1.0
  O  O177  1  0.31893000  0.68798000  0.54547000  1.0
  O  O178  1  0.52292000  0.67840000  0.53128000  1.0
  O  O179  1  0.68911000  0.50866000  0.53101000  1.0
  O  O180  1  0.69421000  0.30848000  0.54315000  1.0
  O  O181  1  0.51464000  0.30582000  0.46717000  1.0
  O  O182  1  0.31597000  0.50758000  0.46576000  1.0
  O  O183  1  0.31723000  0.68474000  0.45776000  1.0
  O  O184  1  0.32476000  0.32731000  0.52757000  1.0
  O  O185  1  0.01707000  0.98583000  0.96785000  1.0
