# generated using pymatgen
data_CaH6C2N10O3
_symmetry_space_group_name_H-M   'P 1'
_cell_length_a   6.37471000
_cell_length_b   8.27021000
_cell_length_c   9.20795000
_cell_angle_alpha   94.68150000
_cell_angle_beta   103.27600000
_cell_angle_gamma   91.86920000
_symmetry_Int_Tables_number   1
_chemical_formula_structural   CaH6C2N10O3
_chemical_formula_sum   'Ca2 H12 C4 N20 O6'
_cell_volume   470.23464738
_cell_formula_units_Z   2
loop_
 _symmetry_equiv_pos_site_id
 _symmetry_equiv_pos_as_xyz
  1  'x, y, z'
loop_
 _atom_site_type_symbol
 _atom_site_label
 _atom_site_symmetry_multiplicity
 _atom_site_fract_x
 _atom_site_fract_y
 _atom_site_fract_z
 _atom_site_occupancy
  Ca  Ca0  1  0.20510000  0.96238000  0.87909000  1.0
  Ca  Ca1  1  0.79490000  0.03762000  0.12090000  1.0
  H  H2  1  0.21876000  0.56256000  0.83247000  1.0
  H  H3  1  0.78125000  0.43745000  0.16753000  1.0
  H  H4  1  0.46206000  0.63547000  0.92974000  1.0
  H  H5  1  0.53794000  0.36455000  0.07027000  1.0
  H  H6  1  0.80028000  0.07522000  0.46105000  1.0
  H  H7  1  0.19972000  0.92478000  0.53895000  1.0
  H  H8  1  0.80160000  0.27232000  0.44118000  1.0
  H  H9  1  0.19840000  0.72768000  0.55883000  1.0
  H  H10  1  0.17669000  0.27201000  0.74618000  1.0
  H  H11  1  0.82330000  0.72799000  0.25383000  1.0
  H  H12  1  0.38133000  0.21008000  0.69265000  1.0
  H  H13  1  0.61866000  0.78992000  0.30735000  1.0
  C  C14  1  0.09969000  0.71271000  0.10657000  1.0
  C  C15  1  0.90030000  0.28731000  0.89342000  1.0
  C  C16  1  0.36388000  0.10585000  0.24569000  1.0
  C  C17  1  0.63612000  0.89415000  0.75431000  1.0
  N  N18  1  0.23589000  0.61745000  0.04664000  1.0
  N  N19  1  0.76412000  0.38256000  0.95336000  1.0
  N  N20  1  0.28754000  0.48874000  0.12947000  1.0
  N  N21  1  0.71246000  0.51127000  0.87054000  1.0
  N  N22  1  0.18776000  0.50558000  0.23735000  1.0
  N  N23  1  0.81224000  0.49443000  0.76266000  1.0
  N  N24  1  0.06905000  0.64071000  0.22784000  1.0
  N  N25  1  0.93096000  0.35931000  0.77216000  1.0
  N  N26  1  0.29840000  0.64730000  0.91643000  1.0
  N  N27  1  0.70160000  0.35271000  0.08357000  1.0
  N  N28  1  0.51250000  0.15679000  0.37729000  1.0
  N  N29  1  0.48750000  0.84320000  0.62271000  1.0
  N  N30  1  0.41002000  0.18323000  0.49071000  1.0
  N  N31  1  0.58999000  0.81676000  0.50927000  1.0
  N  N32  1  0.20571000  0.15314000  0.43022000  1.0
  N  N33  1  0.79429000  0.84685000  0.56976000  1.0
  N  N34  1  0.16904000  0.10643000  0.28189000  1.0
  N  N35  1  0.83096000  0.89355000  0.71809000  1.0
  N  N36  1  0.73419000  0.16138000  0.39225000  1.0
  N  N37  1  0.26580000  0.83862000  0.60776000  1.0
  O  O38  1  0.02382000  0.84023000  0.05173000  1.0
  O  O39  1  0.97618000  0.15978000  0.94826000  1.0
  O  O40  1  0.41446000  0.06619000  0.12270000  1.0
  O  O41  1  0.58554000  0.93380000  0.87731000  1.0
  O  O42  1  0.30582000  0.20630000  0.77431000  1.0
  O  O43  1  0.69418000  0.79370000  0.22569000  1.0
