# generated using pymatgen
data_ZnH15C16N3O5
_symmetry_space_group_name_H-M   'P 1'
_cell_length_a   7.55223000
_cell_length_b   13.94280000
_cell_length_c   16.61770000
_cell_angle_alpha   90.00010000
_cell_angle_beta   89.99970000
_cell_angle_gamma   89.99980000
_symmetry_Int_Tables_number   1
_chemical_formula_structural   ZnH15C16N3O5
_chemical_formula_sum   'Zn4 H60 C64 N12 O20'
_cell_volume   1749.83105495
_cell_formula_units_Z   4
loop_
 _symmetry_equiv_pos_site_id
 _symmetry_equiv_pos_as_xyz
  1  'x, y, z'
loop_
 _atom_site_type_symbol
 _atom_site_label
 _atom_site_symmetry_multiplicity
 _atom_site_fract_x
 _atom_site_fract_y
 _atom_site_fract_z
 _atom_site_occupancy
  Zn  Zn0  1  0.27633000  0.42838000  0.33082000  1.0
  Zn  Zn1  1  0.77633000  0.07162000  0.66918000  1.0
  Zn  Zn2  1  0.72367000  0.92838000  0.16918000  1.0
  Zn  Zn3  1  0.22367000  0.57162000  0.83082000  1.0
  H  H4  1  0.16834000  0.52532000  0.45579000  1.0
  H  H5  1  0.66835000  0.97467000  0.54421000  1.0
  H  H6  1  0.83166000  0.02532000  0.04421000  1.0
  H  H7  1  0.33165000  0.47468000  0.95579000  1.0
  H  H8  1  0.38554000  0.53202000  0.45131000  1.0
  H  H9  1  0.88554000  0.96797000  0.54870000  1.0
  H  H10  1  0.61446000  0.03203000  0.04870000  1.0
  H  H11  1  0.11446000  0.46798000  0.95131000  1.0
  H  H12  1  0.40265000  0.36135000  0.19448000  1.0
  H  H13  1  0.90265000  0.13865000  0.80551000  1.0
  H  H14  1  0.59735000  0.86135000  0.30551000  1.0
  H  H15  1  0.09735000  0.63865000  0.69449000  1.0
  H  H16  1  0.03273000  0.41483000  0.16461000  1.0
  H  H17  1  0.53272000  0.08518000  0.83539000  1.0
  H  H18  1  0.96727000  0.91482000  0.33539000  1.0
  H  H19  1  0.46727000  0.58518000  0.66461000  1.0
  H  H20  1  0.20494000  0.41775000  0.09233000  1.0
  H  H21  1  0.70493000  0.08225000  0.90767000  1.0
  H  H22  1  0.79506000  0.91775000  0.40767000  1.0
  H  H23  1  0.29506000  0.58225000  0.59233000  1.0
  H  H24  1  0.15920000  0.58807000  0.06127000  1.0
  H  H25  1  0.65920000  0.91193000  0.93873000  1.0
  H  H26  1  0.84079000  0.08807000  0.43873000  1.0
  H  H27  1  0.34080000  0.41193000  0.56127000  1.0
  H  H28  1  0.29800000  0.79198000  0.24676000  1.0
  H  H29  1  0.79798000  0.70802000  0.75324000  1.0
  H  H30  1  0.70201000  0.29198000  0.25324000  1.0
  H  H31  1  0.20200000  0.20802000  0.74676000  1.0
  H  H32  1  0.20804000  0.75999000  0.10611000  1.0
  H  H33  1  0.70803000  0.74001000  0.89389000  1.0
  H  H34  1  0.79197000  0.25999000  0.39389000  1.0
  H  H35  1  0.29197000  0.24001000  0.60611000  1.0
  H  H36  1  0.32795000  0.65063000  0.34241000  1.0
  H  H37  1  0.82793000  0.84937000  0.65758000  1.0
  H  H38  1  0.67207000  0.15063000  0.15758000  1.0
  H  H39  1  0.17205000  0.34937000  0.84241000  1.0
  H  H40  1  0.24033000  0.21840000  0.16611000  1.0
  H  H41  1  0.74033000  0.28160000  0.83389000  1.0
  H  H42  1  0.75967000  0.71840000  0.33389000  1.0
  H  H43  1  0.25967000  0.78160000  0.66611000  1.0
  H  H44  1  0.05553000  0.27036000  0.21537000  1.0
  H  H45  1  0.55553000  0.22964000  0.78463000  1.0
  H  H46  1  0.94446000  0.77036000  0.28463000  1.0
  H  H47  1  0.44447000  0.72964000  0.71537000  1.0
  H  H48  1  0.23900000  0.07380000  0.25461000  1.0
  H  H49  1  0.73900000  0.42620000  0.74538000  1.0
  H  H50  1  0.76100000  0.57380000  0.24538000  1.0
  H  H51  1  0.26100000  0.92620000  0.75462000  1.0
  H  H52  1  0.32742000  0.00614000  0.38920000  1.0
  H  H53  1  0.82741000  0.49386000  0.61080000  1.0
  H  H54  1  0.67259000  0.50613000  0.11080000  1.0
  H  H55  1  0.17258000  0.99386000  0.88920000  1.0
  H  H56  1  0.39625000  0.12054000  0.50142000  1.0
  H  H57  1  0.89624000  0.37946000  0.49857000  1.0
  H  H58  1  0.60376000  0.62054000  0.99858000  1.0
  H  H59  1  0.10375000  0.87946000  0.00143000  1.0
  H  H60  1  0.36449000  0.29743000  0.47544000  1.0
  H  H61  1  0.86449000  0.20257000  0.52456000  1.0
  H  H62  1  0.63551000  0.79743000  0.02456000  1.0
  H  H63  1  0.13551000  0.70257000  0.97544000  1.0
  C  C64  1  0.17520000  0.42874000  0.15650000  1.0
  C  C65  1  0.67520000  0.07126000  0.84350000  1.0
  C  C66  1  0.82480000  0.92874000  0.34350000  1.0
  C  C67  1  0.32480000  0.57126000  0.65650000  1.0
  C  C68  1  0.21092000  0.53238000  0.17934000  1.0
  C  C69  1  0.71092000  0.96762000  0.82066000  1.0
  C  C70  1  0.78908000  0.03238000  0.32066000  1.0
  C  C71  1  0.28908000  0.46763000  0.67934000  1.0
  C  C72  1  0.19183000  0.60635000  0.12336000  1.0
  C  C73  1  0.69182000  0.89366000  0.87664000  1.0
  C  C74  1  0.80818000  0.10634000  0.37664000  1.0
  C  C75  1  0.30818000  0.39366000  0.62336000  1.0
  C  C76  1  0.27138000  0.71869000  0.22747000  1.0
  C  C77  1  0.77136000  0.78131000  0.77253000  1.0
  C  C78  1  0.72863000  0.21869000  0.27253000  1.0
  C  C79  1  0.22862000  0.28132000  0.72747000  1.0
  C  C80  1  0.22167000  0.70039000  0.14801000  1.0
  C  C81  1  0.72166000  0.79961000  0.85199000  1.0
  C  C82  1  0.77834000  0.20039000  0.35199000  1.0
  C  C83  1  0.27833000  0.29961000  0.64801000  1.0
  C  C84  1  0.28832000  0.64133000  0.27967000  1.0
  C  C85  1  0.78830000  0.85867000  0.72033000  1.0
  C  C86  1  0.71170000  0.14133000  0.22033000  1.0
  C  C87  1  0.21168000  0.35867000  0.77967000  1.0
  C  C88  1  0.20106000  0.26538000  0.21641000  1.0
  C  C89  1  0.70106000  0.23462000  0.78359000  1.0
  C  C90  1  0.79894000  0.76538000  0.28359000  1.0
  C  C91  1  0.29894000  0.73462000  0.71641000  1.0
  C  C92  1  0.25482000  0.22009000  0.29581000  1.0
  C  C93  1  0.75482000  0.27991000  0.70419000  1.0
  C  C94  1  0.74518000  0.72009000  0.20419000  1.0
  C  C95  1  0.24518000  0.77991000  0.79581000  1.0
  C  C96  1  0.26654000  0.12069000  0.30551000  1.0
  C  C97  1  0.76654000  0.37931000  0.69449000  1.0
  C  C98  1  0.73346000  0.62069000  0.19449000  1.0
  C  C99  1  0.23346000  0.87931000  0.80551000  1.0
  C  C100  1  0.31566000  0.08335000  0.37997000  1.0
  C  C101  1  0.81567000  0.41665000  0.62003000  1.0
  C  C102  1  0.68434000  0.58335000  0.12003000  1.0
  C  C103  1  0.18433000  0.91664000  0.87997000  1.0
  C  C104  1  0.35302000  0.14656000  0.44294000  1.0
  C  C105  1  0.85302000  0.35344000  0.55705000  1.0
  C  C106  1  0.64698000  0.64656000  0.05706000  1.0
  C  C107  1  0.14697000  0.85344000  0.94295000  1.0
  C  C108  1  0.33676000  0.24432000  0.42899000  1.0
  C  C109  1  0.83675000  0.25568000  0.57100000  1.0
  C  C110  1  0.66325000  0.74432000  0.07100000  1.0
  C  C111  1  0.16325000  0.75568000  0.92899000  1.0
  C  C112  1  0.87262000  0.46682000  0.36303000  1.0
  C  C113  1  0.37263000  0.03318000  0.63697000  1.0
  C  C114  1  0.12738000  0.96682000  0.13697000  1.0
  C  C115  1  0.62737000  0.53318000  0.86303000  1.0
  C  C116  1  0.67812000  0.47113000  0.36001000  1.0
  C  C117  1  0.17812000  0.02887000  0.63999000  1.0
  C  C118  1  0.32188000  0.97113000  0.13999000  1.0
  C  C119  1  0.82188000  0.52887000  0.86001000  1.0
  C  C120  1  0.67761000  0.54450000  0.42475000  1.0
  C  C121  1  0.17761000  0.95550000  0.57525000  1.0
  C  C122  1  0.32239000  0.04450000  0.07525000  1.0
  C  C123  1  0.82239000  0.45550000  0.92475000  1.0
  C  C124  1  0.87374000  0.53974000  0.42838000  1.0
  C  C125  1  0.37375000  0.96026000  0.57162000  1.0
  C  C126  1  0.12626000  0.03974000  0.07162000  1.0
  C  C127  1  0.62626000  0.46026000  0.92838000  1.0
  N  N128  1  0.28796000  0.27995000  0.35732000  1.0
  N  N129  1  0.78796000  0.22005000  0.64267000  1.0
  N  N130  1  0.71204000  0.77995000  0.14268000  1.0
  N  N131  1  0.21204000  0.72005000  0.85733000  1.0
  N  N132  1  0.27139000  0.36287000  0.20945000  1.0
  N  N133  1  0.77139000  0.13712000  0.79055000  1.0
  N  N134  1  0.72861000  0.86287000  0.29055000  1.0
  N  N135  1  0.22860000  0.63713000  0.70945000  1.0
  N  N136  1  0.25764000  0.55062000  0.25594000  1.0
  N  N137  1  0.75763000  0.94938000  0.74406000  1.0
  N  N138  1  0.74237000  0.05062000  0.24406000  1.0
  N  N139  1  0.24236000  0.44938000  0.75594000  1.0
  O  O140  1  0.98602000  0.41699000  0.32586000  1.0
  O  O141  1  0.48603000  0.08302000  0.67414000  1.0
  O  O142  1  0.01398000  0.91698000  0.17414000  1.0
  O  O143  1  0.51398000  0.58301000  0.82586000  1.0
  O  O144  1  0.56352000  0.42711000  0.31848000  1.0
  O  O145  1  0.06352000  0.07289000  0.68152000  1.0
  O  O146  1  0.43649000  0.92711000  0.18152000  1.0
  O  O147  1  0.93648000  0.57289000  0.81848000  1.0
  O  O148  1  0.56050000  0.58963000  0.46306000  1.0
  O  O149  1  0.06051000  0.91037000  0.53695000  1.0
  O  O150  1  0.43950000  0.08963000  0.03695000  1.0
  O  O151  1  0.93950000  0.41037000  0.96306000  1.0
  O  O152  1  0.99020000  0.57744000  0.47231000  1.0
  O  O153  1  0.49020000  0.92256000  0.52769000  1.0
  O  O154  1  0.00981000  0.07743000  0.02769000  1.0
  O  O155  1  0.50980000  0.42257000  0.97231000  1.0
  O  O156  1  0.28056000  0.48669000  0.44347000  1.0
  O  O157  1  0.78057000  0.01331000  0.55653000  1.0
  O  O158  1  0.71944000  0.98669000  0.05653000  1.0
  O  O159  1  0.21944000  0.51331000  0.94347000  1.0
