# generated using pymatgen
data_AgH21C28SN3(O3F)3
_symmetry_space_group_name_H-M   'P 1'
_cell_length_a   9.12643000
_cell_length_b   13.00310000
_cell_length_c   16.35850000
_cell_angle_alpha   108.24600000
_cell_angle_beta   100.20100000
_cell_angle_gamma   103.50000000
_symmetry_Int_Tables_number   1
_chemical_formula_structural   AgH21C28SN3(O3F)3
_chemical_formula_sum   'Ag2 H42 C56 S2 N6 O18 F6'
_cell_volume   1725.69892950
_cell_formula_units_Z   2
loop_
 _symmetry_equiv_pos_site_id
 _symmetry_equiv_pos_as_xyz
  1  'x, y, z'
loop_
 _atom_site_type_symbol
 _atom_site_label
 _atom_site_symmetry_multiplicity
 _atom_site_fract_x
 _atom_site_fract_y
 _atom_site_fract_z
 _atom_site_occupancy
  Ag  Ag0  1  0.06959000  0.88827000  0.31856000  1.0
  Ag  Ag1  1  0.93042000  0.11173000  0.68144000  1.0
  H  H2  1  0.09931000  0.12272000  0.45692000  1.0
  H  H3  1  0.90069000  0.87729000  0.54308000  1.0
  H  H4  1  0.98165000  0.27821000  0.48178000  1.0
  H  H5  1  0.01835000  0.72180000  0.51822000  1.0
  H  H6  1  0.73506000  0.13014000  0.20100000  1.0
  H  H7  1  0.26493000  0.86985000  0.79899000  1.0
  H  H8  1  0.85968000  0.97397000  0.18774000  1.0
  H  H9  1  0.14032000  0.02603000  0.81226000  1.0
  H  H10  1  0.61162000  0.43352000  0.42663000  1.0
  H  H11  1  0.38838000  0.56648000  0.57337000  1.0
  H  H12  1  0.78386000  0.52702000  0.42329000  1.0
  H  H13  1  0.21614000  0.47298000  0.57671000  1.0
  H  H14  1  0.64674000  0.64335000  0.54034000  1.0
  H  H15  1  0.35326000  0.35666000  0.45966000  1.0
  H  H16  1  0.24309000  0.05336000  0.52302000  1.0
  H  H17  1  0.75693000  0.94665000  0.47698000  1.0
  H  H18  1  0.43065000  0.05681000  0.65382000  1.0
  H  H19  1  0.56936000  0.94320000  0.34618000  1.0
  H  H20  1  0.44830000  0.72967000  0.48832000  1.0
  H  H21  1  0.55170000  0.27033000  0.51168000  1.0
  H  H22  1  0.25466000  0.73664000  0.36434000  1.0
  H  H23  1  0.74534000  0.26336000  0.63566000  1.0
  H  H24  1  0.61793000  0.76074000  0.75976000  1.0
  H  H25  1  0.38208000  0.23927000  0.24024000  1.0
  H  H26  1  0.78672000  0.85900000  0.75550000  1.0
  H  H27  1  0.21329000  0.14101000  0.24450000  1.0
  H  H28  1  0.88381000  0.70418000  0.81111000  1.0
  H  H29  1  0.11619000  0.29581000  0.18889000  1.0
  H  H30  1  0.25712000  0.84438000  0.17539000  1.0
  H  H31  1  0.74288000  0.15562000  0.82461000  1.0
  H  H32  1  0.21439000  0.72945000  0.01331000  1.0
  H  H33  1  0.78561000  0.27054000  0.98669000  1.0
  H  H34  1  0.74923000  0.55150000  0.00872000  1.0
  H  H35  1  0.25076000  0.44850000  0.99128000  1.0
  H  H36  1  0.80939000  0.67562000  0.17135000  1.0
  H  H37  1  0.19061000  0.32438000  0.82865000  1.0
  H  H38  1  0.98404000  0.44419000  0.75847000  1.0
  H  H39  1  0.01595000  0.55581000  0.24153000  1.0
  H  H40  1  0.14306000  0.55478000  0.75989000  1.0
  H  H41  1  0.85693000  0.44522000  0.24011000  1.0
  H  H42  1  0.92520000  0.43405000  0.59262000  1.0
  H  H43  1  0.07480000  0.56595000  0.40738000  1.0
  C  C44  1  0.01580000  0.12463000  0.40155000  1.0
  C  C45  1  0.98420000  0.87538000  0.59845000  1.0
  C  C46  1  0.95078000  0.21322000  0.41528000  1.0
  C  C47  1  0.04922000  0.78678000  0.58472000  1.0
  C  C48  1  0.84783000  0.21600000  0.34259000  1.0
  C  C49  1  0.15216000  0.78400000  0.65741000  1.0
  C  C50  1  0.81446000  0.12945000  0.25884000  1.0
  C  C51  1  0.18554000  0.87054000  0.74115000  1.0
  C  C52  1  0.88375000  0.04360000  0.25150000  1.0
  C  C53  1  0.11625000  0.95640000  0.74850000  1.0
  C  C54  1  0.77231000  0.30769000  0.35148000  1.0
  C  C55  1  0.22769000  0.69231000  0.64851000  1.0
  C  C56  1  0.73911000  0.46923000  0.45639000  1.0
  C  C57  1  0.26089000  0.53078000  0.54361000  1.0
  C  C58  1  0.77952000  0.53032000  0.55604000  1.0
  C  C59  1  0.22048000  0.46968000  0.44396000  1.0
  C  C60  1  0.71839000  0.61997000  0.58789000  1.0
  C  C61  1  0.28161000  0.38004000  0.41211000  1.0
  C  C62  1  0.28887000  0.98207000  0.51735000  1.0
  C  C63  1  0.71113000  0.01793000  0.48265000  1.0
  C  C64  1  0.39566000  0.98477000  0.59062000  1.0
  C  C65  1  0.60434000  0.01523000  0.40938000  1.0
  C  C66  1  0.45372000  0.89263000  0.58178000  1.0
  C  C67  1  0.54628000  0.10737000  0.41822000  1.0
  C  C68  1  0.40366000  0.80186000  0.49916000  1.0
  C  C69  1  0.59634000  0.19814000  0.50084000  1.0
  C  C70  1  0.29624000  0.80594000  0.42948000  1.0
  C  C71  1  0.70377000  0.19406000  0.57053000  1.0
  C  C72  1  0.56228000  0.89245000  0.66147000  1.0
  C  C73  1  0.43772000  0.10755000  0.33853000  1.0
  C  C74  1  0.69207000  0.77875000  0.71645000  1.0
  C  C75  1  0.30794000  0.22125000  0.28355000  1.0
  C  C76  1  0.75475000  0.68187000  0.67933000  1.0
  C  C77  1  0.24525000  0.31813000  0.32066000  1.0
  C  C78  1  0.85403000  0.65487000  0.73960000  1.0
  C  C79  1  0.14597000  0.34513000  0.26040000  1.0
  C  C80  1  0.14612000  0.77903000  0.13598000  1.0
  C  C81  1  0.85388000  0.22096000  0.86402000  1.0
  C  C82  1  0.12174000  0.71549000  0.04599000  1.0
  C  C83  1  0.87825000  0.28450000  0.95401000  1.0
  C  C84  1  0.97699000  0.63291000  0.99868000  1.0
  C  C85  1  0.02301000  0.36709000  0.00132000  1.0
  C  C86  1  0.86243000  0.61626000  0.04395000  1.0
  C  C87  1  0.13756000  0.38374000  0.95605000  1.0
  C  C88  1  0.89554000  0.68438000  0.13365000  1.0
  C  C89  1  0.10446000  0.31562000  0.86635000  1.0
  C  C90  1  0.94081000  0.56048000  0.90227000  1.0
  C  C91  1  0.05918000  0.43951000  0.09773000  1.0
  C  C92  1  0.02588000  0.53524000  0.77033000  1.0
  C  C93  1  0.97412000  0.46476000  0.22967000  1.0
  C  C94  1  0.91517000  0.56595000  0.70878000  1.0
  C  C95  1  0.08483000  0.43405000  0.29122000  1.0
  C  C96  1  0.87677000  0.50331000  0.61655000  1.0
  C  C97  1  0.12323000  0.49669000  0.38345000  1.0
  C  C98  1  0.54516000  0.62118000  0.26782000  1.0
  C  C99  1  0.45484000  0.37882000  0.73219000  1.0
  S  S100  1  0.73680000  0.71279000  0.35054000  1.0
  S  S101  1  0.26320000  0.28721000  0.64946000  1.0
  N  N102  1  0.98375000  0.04095000  0.32161000  1.0
  N  N103  1  0.01625000  0.95906000  0.67839000  1.0
  N  N104  1  0.23851000  0.89407000  0.43792000  1.0
  N  N105  1  0.76149000  0.10593000  0.56208000  1.0
  N  N106  1  0.03458000  0.76505000  0.17912000  1.0
  N  N107  1  0.96542000  0.23495000  0.82088000  1.0
  O  O108  1  0.68722000  0.31642000  0.28875000  1.0
  O  O109  1  0.31277000  0.68358000  0.71125000  1.0
  O  O110  1  0.80741000  0.37758000  0.43758000  1.0
  O  O111  1  0.19258000  0.62242000  0.56242000  1.0
  O  O112  1  0.61168000  0.97109000  0.73434000  1.0
  O  O113  1  0.38832000  0.02891000  0.26567000  1.0
  O  O114  1  0.59601000  0.79353000  0.64338000  1.0
  O  O115  1  0.40399000  0.20648000  0.35662000  1.0
  O  O116  1  0.82703000  0.47572000  0.86327000  1.0
  O  O117  1  0.17297000  0.52428000  0.13673000  1.0
  O  O118  1  0.04975000  0.60062000  0.86400000  1.0
  O  O119  1  0.95025000  0.39938000  0.13600000  1.0
  O  O120  1  0.83884000  0.64092000  0.34258000  1.0
  O  O121  1  0.16116000  0.35907000  0.65743000  1.0
  O  O122  1  0.69360000  0.74341000  0.43474000  1.0
  O  O123  1  0.30641000  0.25659000  0.56527000  1.0
  O  O124  1  0.78055000  0.80707000  0.31952000  1.0
  O  O125  1  0.21946000  0.19292000  0.68048000  1.0
  F  F126  1  0.48042000  0.53144000  0.28902000  1.0
  F  F127  1  0.51957000  0.46856000  0.71098000  1.0
  F  F128  1  0.44553000  0.68403000  0.26752000  1.0
  F  F129  1  0.55448000  0.31597000  0.73248000  1.0
  F  F130  1  0.56085000  0.57967000  0.18333000  1.0
  F  F131  1  0.43916000  0.42033000  0.81668000  1.0
