# generated using pymatgen
data_Cd2H10C17O12
_symmetry_space_group_name_H-M   'P 1'
_cell_length_a   10.25880000
_cell_length_b   10.25890000
_cell_length_c   20.56330000
_cell_angle_alpha   101.46800000
_cell_angle_beta   101.46800000
_cell_angle_gamma   90.43030000
_symmetry_Int_Tables_number   1
_chemical_formula_structural   Cd2H10C17O12
_chemical_formula_sum   'Cd8 H40 C68 O48'
_cell_volume   2076.12099900
_cell_formula_units_Z   4
loop_
 _symmetry_equiv_pos_site_id
 _symmetry_equiv_pos_as_xyz
  1  'x, y, z'
loop_
 _atom_site_type_symbol
 _atom_site_label
 _atom_site_symmetry_multiplicity
 _atom_site_fract_x
 _atom_site_fract_y
 _atom_site_fract_z
 _atom_site_occupancy
  Cd  Cd0  1  0.50560000  0.65552000  0.67717000  1.0
  Cd  Cd1  1  0.34445000  0.49445000  0.82282000  1.0
  Cd  Cd2  1  0.49441000  0.34447000  0.32283000  1.0
  Cd  Cd3  1  0.65554000  0.50554000  0.17717000  1.0
  Cd  Cd4  1  0.67675000  0.76137000  0.42639000  1.0
  Cd  Cd5  1  0.23869000  0.32329000  0.07364000  1.0
  Cd  Cd6  1  0.32325000  0.23863000  0.57361000  1.0
  Cd  Cd7  1  0.76128000  0.67672000  0.92636000  1.0
  H  H8  1  0.40897000  0.53577000  0.54006000  1.0
  H  H9  1  0.46422000  0.59103000  0.95994000  1.0
  H  H10  1  0.59104000  0.46424000  0.45994000  1.0
  H  H11  1  0.53576000  0.40896000  0.04006000  1.0
  H  H12  1  0.54012000  0.62149000  0.54219000  1.0
  H  H13  1  0.37847000  0.45990000  0.95779000  1.0
  H  H14  1  0.45989000  0.37851000  0.45781000  1.0
  H  H15  1  0.62151000  0.54010000  0.04221000  1.0
  H  H16  1  0.69995000  0.85933000  0.30888000  1.0
  H  H17  1  0.14060000  0.30002000  0.19109000  1.0
  H  H18  1  0.30006000  0.14066000  0.69111000  1.0
  H  H19  1  0.85941000  0.69997000  0.80891000  1.0
  H  H20  1  0.74315000  0.70916000  0.30998000  1.0
  H  H21  1  0.29078000  0.25683000  0.19003000  1.0
  H  H22  1  0.25686000  0.29083000  0.69002000  1.0
  H  H23  1  0.70923000  0.74318000  0.80997000  1.0
  H  H24  1  0.70462000  0.42906000  0.55987000  1.0
  H  H25  1  0.57094000  0.29542000  0.94013000  1.0
  H  H26  1  0.29539000  0.57095000  0.44014000  1.0
  H  H27  1  0.42905000  0.70458000  0.05987000  1.0
  H  H28  1  0.06324000  0.67373000  0.58919000  1.0
  H  H29  1  0.32628000  0.93678000  0.91079000  1.0
  H  H30  1  0.93677000  0.32626000  0.41080000  1.0
  H  H31  1  0.67371000  0.06322000  0.08920000  1.0
  H  H32  1  0.52499000  0.14774000  0.68163000  1.0
  H  H33  1  0.85221000  0.47503000  0.81834000  1.0
  H  H34  1  0.47501000  0.85227000  0.31837000  1.0
  H  H35  1  0.14779000  0.52496000  0.18166000  1.0
  H  H36  1  0.06100000  0.34711000  0.69168000  1.0
  H  H37  1  0.65292000  0.93904000  0.80832000  1.0
  H  H38  1  0.93900000  0.65290000  0.30832000  1.0
  H  H39  1  0.34708000  0.06096000  0.19168000  1.0
  H  H40  1  0.97156000  0.13114000  0.62364000  1.0
  H  H41  1  0.86889000  0.02854000  0.87641000  1.0
  H  H42  1  0.02844000  0.86887000  0.37636000  1.0
  H  H43  1  0.13111000  0.97146000  0.12360000  1.0
  H  H44  1  0.86497000  0.92773000  0.64371000  1.0
  H  H45  1  0.07229000  0.13514000  0.85633000  1.0
  H  H46  1  0.13503000  0.07228000  0.35629000  1.0
  H  H47  1  0.92771000  0.86486000  0.14367000  1.0
  C  C48  1  0.60653000  0.38486000  0.66381000  1.0
  C  C49  1  0.61508000  0.39345000  0.83614000  1.0
  C  C50  1  0.39347000  0.61515000  0.33619000  1.0
  C  C51  1  0.38491000  0.60655000  0.16386000  1.0
  C  C52  1  0.80855000  0.45287000  0.58451000  1.0
  C  C53  1  0.54712000  0.19149000  0.91549000  1.0
  C  C54  1  0.19146000  0.54713000  0.41549000  1.0
  C  C55  1  0.45287000  0.80852000  0.08451000  1.0
  C  C56  1  0.80857000  0.25601000  0.64101000  1.0
  C  C57  1  0.74398000  0.19147000  0.85899000  1.0
  C  C58  1  0.19143000  0.74400000  0.35899000  1.0
  C  C59  1  0.25601000  0.80853000  0.14102000  1.0
  C  C60  1  0.01027000  0.59087000  0.60009000  1.0
  C  C61  1  0.40914000  0.98975000  0.89990000  1.0
  C  C62  1  0.98974000  0.40912000  0.39991000  1.0
  C  C63  1  0.59086000  0.01025000  0.10010000  1.0
  C  C64  1  0.87521000  0.56150000  0.57130000  1.0
  C  C65  1  0.43850000  0.12482000  0.92870000  1.0
  C  C66  1  0.12480000  0.43850000  0.42870000  1.0
  C  C67  1  0.56150000  0.87518000  0.07130000  1.0
  C  C68  1  0.87479000  0.37357000  0.62740000  1.0
  C  C69  1  0.62643000  0.12525000  0.87260000  1.0
  C  C70  1  0.12522000  0.62644000  0.37260000  1.0
  C  C71  1  0.37356000  0.87475000  0.12740000  1.0
  C  C72  1  0.68091000  0.25945000  0.65707000  1.0
  C  C73  1  0.74052000  0.31911000  0.84292000  1.0
  C  C74  1  0.31909000  0.74055000  0.34293000  1.0
  C  C75  1  0.25948000  0.68089000  0.15708000  1.0
  C  C76  1  0.62136000  0.14390000  0.66687000  1.0
  C  C77  1  0.85606000  0.37868000  0.83311000  1.0
  C  C78  1  0.37864000  0.85610000  0.33313000  1.0
  C  C79  1  0.14394000  0.62132000  0.16689000  1.0
  C  C80  1  0.00900000  0.40547000  0.65676000  1.0
  C  C81  1  0.59455000  0.99104000  0.84324000  1.0
  C  C82  1  0.99101000  0.59454000  0.34325000  1.0
  C  C83  1  0.40545000  0.00896000  0.15676000  1.0
  C  C84  1  0.07708000  0.51217000  0.64296000  1.0
  C  C85  1  0.48784000  0.92296000  0.85703000  1.0
  C  C86  1  0.92293000  0.48783000  0.35704000  1.0
  C  C87  1  0.51216000  0.07704000  0.14298000  1.0
  C  C88  1  0.22219000  0.53851000  0.67321000  1.0
  C  C89  1  0.46151000  0.77785000  0.82678000  1.0
  C  C90  1  0.77783000  0.46150000  0.32679000  1.0
  C  C91  1  0.53849000  0.22215000  0.17322000  1.0
  C  C92  1  0.68625000  0.02405000  0.66204000  1.0
  C  C93  1  0.97593000  0.31382000  0.83797000  1.0
  C  C94  1  0.31375000  0.97594000  0.33796000  1.0
  C  C95  1  0.02407000  0.68618000  0.16203000  1.0
  C  C96  1  0.80233000  0.64195000  0.52480000  1.0
  C  C97  1  0.35807000  0.19768000  0.97521000  1.0
  C  C98  1  0.19768000  0.35806000  0.47520000  1.0
  C  C99  1  0.64192000  0.80231000  0.02480000  1.0
  C  C100  1  0.87351000  0.13520000  0.63676000  1.0
  C  C101  1  0.86482000  0.12657000  0.86327000  1.0
  C  C102  1  0.12649000  0.86480000  0.36325000  1.0
  C  C103  1  0.13518000  0.87343000  0.13673000  1.0
  C  C104  1  0.81409000  0.02095000  0.64747000  1.0
  C  C105  1  0.97906000  0.18600000  0.85255000  1.0
  C  C106  1  0.18592000  0.97905000  0.35253000  1.0
  C  C107  1  0.02094000  0.81400000  0.14745000  1.0
  C  C108  1  0.60127000  0.08334000  0.47121000  1.0
  C  C109  1  0.91665000  0.39867000  0.02873000  1.0
  C  C110  1  0.39874000  0.91665000  0.52880000  1.0
  C  C111  1  0.08333000  0.60135000  0.97127000  1.0
  C  C112  1  0.61675000  0.90063000  0.67028000  1.0
  C  C113  1  0.09934000  0.38335000  0.82973000  1.0
  C  C114  1  0.38326000  0.09937000  0.32972000  1.0
  C  C115  1  0.90066000  0.61664000  0.17027000  1.0
  O  O116  1  0.45681000  0.62309000  0.55957000  1.0
  O  O117  1  0.37689000  0.54321000  0.94043000  1.0
  O  O118  1  0.54320000  0.37691000  0.44043000  1.0
  O  O119  1  0.62310000  0.45679000  0.05957000  1.0
  O  O120  1  0.69109000  0.02290000  0.45531000  1.0
  O  O121  1  0.97711000  0.30885000  0.04462000  1.0
  O  O122  1  0.30891000  0.97709000  0.54470000  1.0
  O  O123  1  0.02288000  0.69117000  0.95538000  1.0
  O  O124  1  0.51277000  0.14014000  0.49015000  1.0
  O  O125  1  0.85982000  0.48718000  0.00982000  1.0
  O  O126  1  0.48724000  0.85986000  0.50985000  1.0
  O  O127  1  0.14016000  0.51284000  0.99020000  1.0
  O  O128  1  0.66181000  0.49252000  0.70006000  1.0
  O  O129  1  0.50742000  0.33814000  0.79989000  1.0
  O  O130  1  0.33819000  0.50748000  0.29994000  1.0
  O  O131  1  0.49257000  0.66185000  0.20010000  1.0
  O  O132  1  0.48619000  0.38055000  0.63001000  1.0
  O  O133  1  0.61934000  0.51380000  0.86994000  1.0
  O  O134  1  0.51381000  0.61946000  0.36998000  1.0
  O  O135  1  0.38065000  0.48620000  0.13006000  1.0
  O  O136  1  0.68635000  0.79980000  0.67858000  1.0
  O  O137  1  0.20019000  0.31377000  0.82145000  1.0
  O  O138  1  0.31367000  0.20020000  0.32142000  1.0
  O  O139  1  0.79981000  0.68623000  0.17855000  1.0
  O  O140  1  0.75148000  0.80398000  0.33707000  1.0
  O  O141  1  0.19598000  0.24850000  0.16291000  1.0
  O  O142  1  0.24852000  0.19602000  0.66292000  1.0
  O  O143  1  0.80402000  0.75150000  0.83708000  1.0
  O  O144  1  0.86187000  0.73216000  0.50534000  1.0
  O  O145  1  0.26787000  0.13814000  0.99467000  1.0
  O  O146  1  0.13815000  0.26784000  0.49465000  1.0
  O  O147  1  0.73211000  0.86185000  0.00532000  1.0
  O  O148  1  0.28094000  0.45342000  0.70619000  1.0
  O  O149  1  0.54661000  0.71909000  0.79380000  1.0
  O  O150  1  0.71906000  0.54659000  0.29381000  1.0
  O  O151  1  0.45339000  0.28091000  0.20620000  1.0
  O  O152  1  0.28040000  0.63977000  0.66360000  1.0
  O  O153  1  0.36022000  0.71964000  0.83637000  1.0
  O  O154  1  0.71961000  0.36023000  0.33640000  1.0
  O  O155  1  0.63978000  0.28036000  0.16363000  1.0
  O  O156  1  0.67565000  0.61725000  0.50185000  1.0
  O  O157  1  0.38274000  0.32437000  0.99815000  1.0
  O  O158  1  0.32435000  0.38275000  0.49815000  1.0
  O  O159  1  0.61724000  0.67563000  0.00185000  1.0
  O  O160  1  0.49162000  0.90052000  0.66714000  1.0
  O  O161  1  0.09939000  0.50847000  0.83286000  1.0
  O  O162  1  0.50838000  0.09947000  0.33286000  1.0
  O  O163  1  0.90060000  0.49153000  0.16714000  1.0
