# generated using pymatgen
data_CuH9C5SNO5
_symmetry_space_group_name_H-M   'P 1'
_cell_length_a   5.46684000
_cell_length_b   8.58415000
_cell_length_c   9.15433000
_cell_angle_alpha   69.48400000
_cell_angle_beta   89.99950000
_cell_angle_gamma   89.99970000
_symmetry_Int_Tables_number   1
_chemical_formula_structural   CuH9C5SNO5
_chemical_formula_sum   'Cu2 H18 C10 S2 N2 O10'
_cell_volume   402.34859387
_cell_formula_units_Z   2
loop_
 _symmetry_equiv_pos_site_id
 _symmetry_equiv_pos_as_xyz
  1  'x, y, z'
loop_
 _atom_site_type_symbol
 _atom_site_label
 _atom_site_symmetry_multiplicity
 _atom_site_fract_x
 _atom_site_fract_y
 _atom_site_fract_z
 _atom_site_occupancy
  Cu  Cu0  1  0.75035000  0.17109000  0.10775000  1.0
  Cu  Cu1  1  0.25034000  0.82891000  0.89225000  1.0
  H  H2  1  0.01061000  0.05214000  0.34573000  1.0
  H  H3  1  0.51060000  0.94786000  0.65427000  1.0
  H  H4  1  0.72182000  0.99459000  0.39926000  1.0
  H  H5  1  0.22180000  0.00542000  0.60074000  1.0
  H  H6  1  0.05609000  0.47420000  0.93857000  1.0
  H  H7  1  0.55610000  0.52580000  0.06143000  1.0
  H  H8  1  0.21488000  0.31305000  0.99094000  1.0
  H  H9  1  0.71488000  0.68697000  0.00907000  1.0
  H  H10  1  0.04471000  0.77835000  0.37707000  1.0
  H  H11  1  0.54470000  0.22165000  0.62293000  1.0
  H  H12  1  0.72080000  0.61450000  0.32159000  1.0
  H  H13  1  0.22080000  0.38550000  0.67841000  1.0
  H  H14  1  0.52494000  0.79058000  0.24532000  1.0
  H  H15  1  0.02493000  0.20942000  0.75468000  1.0
  H  H16  1  0.69182000  0.51416000  0.75635000  1.0
  H  H17  1  0.19182000  0.48583000  0.24364000  1.0
  H  H18  1  0.90207000  0.55419000  0.60171000  1.0
  H  H19  1  0.40208000  0.44582000  0.39829000  1.0
  C  C20  1  0.97614000  0.87478000  0.13121000  1.0
  C  C21  1  0.47612000  0.12517000  0.86881000  1.0
  C  C22  1  0.89568000  0.84502000  0.29890000  1.0
  C  C23  1  0.39568000  0.15498000  0.70109000  1.0
  C  C24  1  0.66785000  0.73345000  0.33217000  1.0
  C  C25  1  0.16785000  0.26655000  0.66783000  1.0
  C  C26  1  0.76743000  0.61341000  0.65464000  1.0
  C  C27  1  0.26744000  0.38660000  0.34535000  1.0
  C  C28  1  0.89479000  0.74048000  0.71123000  1.0
  C  C29  1  0.39480000  0.25955000  0.28875000  1.0
  S  S30  1  0.52041000  0.69537000  0.51871000  1.0
  S  S31  1  0.02041000  0.30462000  0.48129000  1.0
  N  N32  1  0.85068000  0.00709000  0.31452000  1.0
  N  N33  1  0.35067000  0.99291000  0.68548000  1.0
  O  O34  1  0.94738000  0.01987000  0.03092000  1.0
  O  O35  1  0.44738000  0.98012000  0.96906000  1.0
  O  O36  1  0.06399000  0.35914000  0.01584000  1.0
  O  O37  1  0.56398000  0.64085000  0.98416000  1.0
  O  O38  1  0.06277000  0.75291000  0.09885000  1.0
  O  O39  1  0.56277000  0.24708000  0.90115000  1.0
  O  O40  1  0.83525000  0.89011000  0.66510000  1.0
  O  O41  1  0.33525000  0.10988000  0.33490000  1.0
  O  O42  1  0.06985000  0.67704000  0.81069000  1.0
  O  O43  1  0.56987000  0.32297000  0.18931000  1.0
