# generated using pymatgen
data_TbP2H17C16O11
_symmetry_space_group_name_H-M   'P 1'
_cell_length_a   5.58412000
_cell_length_b   9.26875000
_cell_length_c   18.40140000
_cell_angle_alpha   104.31800000
_cell_angle_beta   92.05880000
_cell_angle_gamma   96.57150000
_symmetry_Int_Tables_number   1
_chemical_formula_structural   TbP2H17C16O11
_chemical_formula_sum   'Tb2 P4 H34 C32 O22'
_cell_volume   914.72607175
_cell_formula_units_Z   2
loop_
 _symmetry_equiv_pos_site_id
 _symmetry_equiv_pos_as_xyz
  1  'x, y, z'
loop_
 _atom_site_type_symbol
 _atom_site_label
 _atom_site_symmetry_multiplicity
 _atom_site_fract_x
 _atom_site_fract_y
 _atom_site_fract_z
 _atom_site_occupancy
  Tb  Tb0  1  0.11731000  0.80518000  0.00252000  1.0
  Tb  Tb1  1  0.88270000  0.19483000  0.99749000  1.0
  P  P2  1  0.38683000  0.09715000  0.10495000  1.0
  P  P3  1  0.61317000  0.90285000  0.89505000  1.0
  P  P4  1  0.25845000  0.53177000  0.10417000  1.0
  P  P5  1  0.74156000  0.46824000  0.89583000  1.0
  H  H6  1  0.60398000  0.14436000  0.31553000  1.0
  H  H7  1  0.39601000  0.85564000  0.68448000  1.0
  H  H8  1  0.48313000  0.00484000  0.40878000  1.0
  H  H9  1  0.51686000  0.99515000  0.59122000  1.0
  H  H10  1  0.77230000  0.87960000  0.29773000  1.0
  H  H11  1  0.22768000  0.12040000  0.70226000  1.0
  H  H12  1  0.89003000  0.02281000  0.20407000  1.0
  H  H13  1  0.10996000  0.97720000  0.79593000  1.0
  H  H14  1  0.50579000  0.26077000  0.22435000  1.0
  H  H15  1  0.49420000  0.73924000  0.77565000  1.0
  H  H16  1  0.20273000  0.26693000  0.19593000  1.0
  H  H17  1  0.79726000  0.73307000  0.80407000  1.0
  H  H18  1  0.53497000  0.65296000  0.30932000  1.0
  H  H19  1  0.46503000  0.34705000  0.69068000  1.0
  H  H20  1  0.47809000  0.52019000  0.41015000  1.0
  H  H21  1  0.52192000  0.47981000  0.58985000  1.0
  H  H22  1  0.74760000  0.35707000  0.32384000  1.0
  H  H23  1  0.25241000  0.64293000  0.67616000  1.0
  H  H24  1  0.80391000  0.48433000  0.21989000  1.0
  H  H25  1  0.19609000  0.51567000  0.78012000  1.0
  H  H26  1  0.35201000  0.74581000  0.20783000  1.0
  H  H27  1  0.64800000  0.25419000  0.79217000  1.0
  H  H28  1  0.03922000  0.70044000  0.18351000  1.0
  H  H29  1  0.96079000  0.29956000  0.81649000  1.0
  H  H30  1  0.17179000  0.81273000  0.51104000  1.0
  H  H31  1  0.82820000  0.18725000  0.48896000  1.0
  H  H32  1  0.55050000  0.38850000  0.10006000  1.0
  H  H33  1  0.44950000  0.61150000  0.89995000  1.0
  H  H34  1  0.20144000  0.30373000  0.52190000  1.0
  H  H35  1  0.79855000  0.69627000  0.47810000  1.0
  H  H36  1  0.72588000  0.66903000  0.08218000  1.0
  H  H37  1  0.27413000  0.33097000  0.91783000  1.0
  H  H38  1  0.66906000  0.83631000  0.08790000  1.0
  H  H39  1  0.33094000  0.16369000  0.91210000  1.0
  C  C40  1  0.25643000  0.09418000  0.25286000  1.0
  C  C41  1  0.74357000  0.90583000  0.74714000  1.0
  C  C42  1  0.42143000  0.08586000  0.31039000  1.0
  C  C43  1  0.57856000  0.91414000  0.68961000  1.0
  C  C44  1  0.35501000  0.00782000  0.36337000  1.0
  C  C45  1  0.64498000  0.99217000  0.63663000  1.0
  C  C46  1  0.12003000  0.93334000  0.35914000  1.0
  C  C47  1  0.87996000  0.06666000  0.64085000  1.0
  C  C48  1  0.95493000  0.93748000  0.30069000  1.0
  C  C49  1  0.04506000  0.06252000  0.69931000  1.0
  C  C50  1  0.02175000  0.01816000  0.24839000  1.0
  C  C51  1  0.97824000  0.98184000  0.75161000  1.0
  C  C52  1  0.33555000  0.19037000  0.20111000  1.0
  C  C53  1  0.66444000  0.80964000  0.79889000  1.0
  C  C54  1  0.05130000  0.85354000  0.41730000  1.0
  C  C55  1  0.94869000  0.14645000  0.58269000  1.0
  C  C56  1  0.17453000  0.57492000  0.25640000  1.0
  C  C57  1  0.82547000  0.42508000  0.74360000  1.0
  C  C58  1  0.36305000  0.58515000  0.31054000  1.0
  C  C59  1  0.63695000  0.41485000  0.68946000  1.0
  C  C60  1  0.33253000  0.51181000  0.36785000  1.0
  C  C61  1  0.66748000  0.48818000  0.63215000  1.0
  C  C62  1  0.11104000  0.42741000  0.37180000  1.0
  C  C63  1  0.88897000  0.57259000  0.62820000  1.0
  C  C64  1  0.92103000  0.41866000  0.31834000  1.0
  C  C65  1  0.07896000  0.58135000  0.68166000  1.0
  C  C66  1  0.95248000  0.49073000  0.26110000  1.0
  C  C67  1  0.04754000  0.50927000  0.73890000  1.0
  C  C68  1  0.20403000  0.65245000  0.19418000  1.0
  C  C69  1  0.79598000  0.34756000  0.80582000  1.0
  C  C70  1  0.06839000  0.34627000  0.43078000  1.0
  C  C71  1  0.93160000  0.65372000  0.56922000  1.0
  O  O72  1  0.45238000  0.93721000  0.09592000  1.0
  O  O73  1  0.54761000  0.06280000  0.90409000  1.0
  O  O74  1  0.14320000  0.07122000  0.05646000  1.0
  O  O75  1  0.85680000  0.92878000  0.94354000  1.0
  O  O76  1  0.58200000  0.20345000  0.07965000  1.0
  O  O77  1  0.41801000  0.79655000  0.92036000  1.0
  O  O78  1  0.21993000  0.87423000  0.47211000  1.0
  O  O79  1  0.78006000  0.12576000  0.52789000  1.0
  O  O80  1  0.85168000  0.77481000  0.41429000  1.0
  O  O81  1  0.14830000  0.22518000  0.58571000  1.0
  O  O82  1  0.24960000  0.62201000  0.04581000  1.0
  O  O83  1  0.75041000  0.37800000  0.95419000  1.0
  O  O84  1  0.53244000  0.49869000  0.11417000  1.0
  O  O85  1  0.46758000  0.50131000  0.88583000  1.0
  O  O86  1  0.08907000  0.38562000  0.08747000  1.0
  O  O87  1  0.91094000  0.61438000  0.91253000  1.0
  O  O88  1  0.24661000  0.36384000  0.48247000  1.0
  O  O89  1  0.75339000  0.63616000  0.51753000  1.0
  O  O90  1  0.87150000  0.26628000  0.42999000  1.0
  O  O91  1  0.12851000  0.73372000  0.57001000  1.0
  O  O92  1  0.80108000  0.76913000  0.08032000  1.0
  O  O93  1  0.19892000  0.23087000  0.91969000  1.0
