# generated using pymatgen
data_CuH24C26(NO3)2
_symmetry_space_group_name_H-M   'P 1'
_cell_length_a   9.56950000
_cell_length_b   10.65290000
_cell_length_c   12.21220000
_cell_angle_alpha   69.75900000
_cell_angle_beta   89.99910000
_cell_angle_gamma   89.99960000
_symmetry_Int_Tables_number   1
_chemical_formula_structural   CuH24C26(NO3)2
_chemical_formula_sum   'Cu2 H48 C52 N4 O12'
_cell_volume   1168.06654217
_cell_formula_units_Z   2
loop_
 _symmetry_equiv_pos_site_id
 _symmetry_equiv_pos_as_xyz
  1  'x, y, z'
loop_
 _atom_site_type_symbol
 _atom_site_label
 _atom_site_symmetry_multiplicity
 _atom_site_fract_x
 _atom_site_fract_y
 _atom_site_fract_z
 _atom_site_occupancy
  Cu  Cu0  1  0.00000000  0.50000000  1.00000000  1.0
  Cu  Cu1  1  0.50000000  0.00000000  1.00000000  1.0
  H  H2  1  0.89999000  0.34518000  0.89274000  1.0
  H  H3  1  0.39999000  0.15482000  0.10726000  1.0
  H  H4  1  0.10001000  0.65482000  0.10726000  1.0
  H  H5  1  0.60002000  0.84518000  0.89274000  1.0
  H  H6  1  0.71253000  0.70279000  0.68176000  1.0
  H  H7  1  0.21252000  0.79722000  0.31824000  1.0
  H  H8  1  0.28748000  0.29721000  0.31824000  1.0
  H  H9  1  0.78748000  0.20278000  0.68176000  1.0
  H  H10  1  0.88330000  0.76788000  0.64978000  1.0
  H  H11  1  0.38329000  0.73213000  0.35022000  1.0
  H  H12  1  0.11671000  0.23212000  0.35022000  1.0
  H  H13  1  0.61671000  0.26788000  0.64978000  1.0
  H  H14  1  0.02577000  0.72291000  0.50189000  1.0
  H  H15  1  0.52576000  0.77709000  0.49811000  1.0
  H  H16  1  0.97423000  0.27709000  0.49811000  1.0
  H  H17  1  0.47423000  0.22291000  0.50189000  1.0
  H  H18  1  0.03434000  0.65446000  0.32630000  1.0
  H  H19  1  0.53433000  0.84554000  0.67370000  1.0
  H  H20  1  0.96566000  0.34554000  0.67370000  1.0
  H  H21  1  0.46566000  0.15446000  0.32631000  1.0
  H  H22  1  0.83149000  0.54035000  0.27599000  1.0
  H  H23  1  0.33148000  0.95965000  0.72402000  1.0
  H  H24  1  0.16851000  0.45966000  0.72401000  1.0
  H  H25  1  0.66851000  0.04034000  0.27599000  1.0
  H  H26  1  0.62511000  0.48121000  0.40773000  1.0
  H  H27  1  0.12510000  0.01879000  0.59228000  1.0
  H  H28  1  0.37489000  0.51879000  0.59227000  1.0
  H  H29  1  0.87489000  0.98121000  0.40772000  1.0
  H  H30  1  0.61971000  0.54307000  0.58673000  1.0
  H  H31  1  0.11971000  0.95694000  0.41328000  1.0
  H  H32  1  0.38029000  0.45693000  0.41328000  1.0
  H  H33  1  0.88029000  0.04307000  0.58671000  1.0
  H  H34  1  0.70344000  0.21202000  0.92057000  1.0
  H  H35  1  0.20344000  0.28798000  0.07943000  1.0
  H  H36  1  0.29656000  0.78798000  0.07944000  1.0
  H  H37  1  0.79656000  0.71202000  0.92057000  1.0
  H  H38  1  0.07318000  0.08456000  0.13320000  1.0
  H  H39  1  0.57319000  0.41544000  0.86680000  1.0
  H  H40  1  0.92682000  0.91544000  0.86680000  1.0
  H  H41  1  0.42682000  0.58456000  0.13319000  1.0
  H  H42  1  0.94933000  0.86715000  0.23487000  1.0
  H  H43  1  0.44933000  0.63285000  0.76513000  1.0
  H  H44  1  0.05068000  0.13285000  0.76513000  1.0
  H  H45  1  0.55067000  0.36715000  0.23487000  1.0
  H  H46  1  0.70824000  0.83248000  0.17326000  1.0
  H  H47  1  0.20824000  0.66752000  0.82674000  1.0
  H  H48  1  0.29176000  0.16752000  0.82675000  1.0
  H  H49  1  0.79176000  0.33248000  0.17326000  1.0
  C  C50  1  0.87042000  0.56768000  0.77180000  1.0
  C  C51  1  0.37042000  0.93232000  0.22820000  1.0
  C  C52  1  0.12958000  0.43232000  0.22820000  1.0
  C  C53  1  0.62958000  0.06768000  0.77180000  1.0
  C  C54  1  0.81944000  0.67868000  0.66197000  1.0
  C  C55  1  0.31944000  0.82132000  0.33803000  1.0
  C  C56  1  0.18056000  0.32132000  0.33803000  1.0
  C  C57  1  0.68056000  0.17868000  0.66197000  1.0
  C  C58  1  0.82053000  0.64060000  0.55428000  1.0
  C  C59  1  0.32052000  0.85941000  0.44572000  1.0
  C  C60  1  0.17948000  0.35940000  0.44572000  1.0
  C  C61  1  0.67947000  0.14060000  0.55428000  1.0
  C  C62  1  0.93688000  0.67175000  0.48011000  1.0
  C  C63  1  0.43687000  0.82826000  0.51989000  1.0
  C  C64  1  0.06312000  0.32825000  0.51989000  1.0
  C  C65  1  0.56312000  0.17175000  0.48011000  1.0
  C  C66  1  0.94120000  0.63501000  0.38107000  1.0
  C  C67  1  0.44119000  0.86499000  0.61893000  1.0
  C  C68  1  0.05880000  0.36499000  0.61893000  1.0
  C  C69  1  0.55880000  0.13501000  0.38107000  1.0
  C  C70  1  0.82827000  0.56834000  0.35371000  1.0
  C  C71  1  0.32827000  0.93166000  0.64629000  1.0
  C  C72  1  0.17173000  0.43166000  0.64629000  1.0
  C  C73  1  0.67173000  0.06833000  0.35371000  1.0
  C  C74  1  0.71238000  0.53551000  0.42772000  1.0
  C  C75  1  0.21238000  0.96449000  0.57229000  1.0
  C  C76  1  0.28762000  0.46449000  0.57228000  1.0
  C  C77  1  0.78762000  0.03551000  0.42771000  1.0
  C  C78  1  0.70917000  0.57065000  0.52778000  1.0
  C  C79  1  0.20916000  0.92935000  0.47223000  1.0
  C  C80  1  0.29084000  0.42935000  0.47222000  1.0
  C  C81  1  0.79083000  0.07065000  0.52777000  1.0
  C  C82  1  0.76199000  0.13810000  0.98937000  1.0
  C  C83  1  0.26199000  0.36189000  0.01063000  1.0
  C  C84  1  0.23801000  0.86189000  0.01064000  1.0
  C  C85  1  0.73801000  0.63811000  0.98937000  1.0
  C  C86  1  0.89804000  0.16539000  0.01743000  1.0
  C  C87  1  0.39805000  0.33461000  0.98257000  1.0
  C  C88  1  0.10196000  0.83461000  0.98257000  1.0
  C  C89  1  0.60196000  0.66539000  0.01743000  1.0
  C  C90  1  0.96732000  0.06709000  0.10865000  1.0
  C  C91  1  0.46732000  0.43291000  0.89135000  1.0
  C  C92  1  0.03269000  0.93291000  0.89135000  1.0
  C  C93  1  0.53268000  0.56709000  0.10864000  1.0
  C  C94  1  0.89917000  0.94672000  0.16448000  1.0
  C  C95  1  0.39918000  0.55328000  0.83552000  1.0
  C  C96  1  0.10083000  0.05328000  0.83552000  1.0
  C  C97  1  0.60083000  0.44672000  0.16448000  1.0
  C  C98  1  0.76472000  0.92528000  0.13078000  1.0
  C  C99  1  0.26473000  0.57472000  0.86922000  1.0
  C  C100  1  0.23528000  0.07472000  0.86922000  1.0
  C  C101  1  0.73527000  0.42528000  0.13078000  1.0
  N  N102  1  0.69802000  0.02097000  0.04455000  1.0
  N  N103  1  0.19802000  0.47903000  0.95544000  1.0
  N  N104  1  0.30198000  0.97902000  0.95545000  1.0
  N  N105  1  0.80198000  0.52097000  0.04456000  1.0
  O  O106  1  0.82344000  0.45021000  0.79565000  1.0
  O  O107  1  0.32344000  0.04980000  0.20434000  1.0
  O  O108  1  0.17656000  0.54979000  0.20435000  1.0
  O  O109  1  0.67656000  0.95021000  0.79566000  1.0
  O  O110  1  0.95704000  0.60570000  0.83426000  1.0
  O  O111  1  0.45704000  0.89430000  0.16573000  1.0
  O  O112  1  0.04296000  0.39430000  0.16573000  1.0
  O  O113  1  0.54296000  0.10570000  0.83427000  1.0
  O  O114  1  0.96230000  0.28120000  0.95825000  1.0
  O  O115  1  0.46230000  0.21880000  0.04175000  1.0
  O  O116  1  0.03771000  0.71880000  0.04176000  1.0
  O  O117  1  0.53770000  0.78120000  0.95825000  1.0
