# generated using pymatgen
data_MnH10C14(N3O2)2
_symmetry_space_group_name_H-M   'P 1'
_cell_length_a   9.40395000
_cell_length_b   9.52070000
_cell_length_c   9.52397000
_cell_angle_alpha   81.77580000
_cell_angle_beta   75.40580000
_cell_angle_gamma   75.81110000
_symmetry_Int_Tables_number   1
_chemical_formula_structural   MnH10C14(N3O2)2
_chemical_formula_sum   'Mn2 H20 C28 N12 O8'
_cell_volume   797.00690037
_cell_formula_units_Z   2
loop_
 _symmetry_equiv_pos_site_id
 _symmetry_equiv_pos_as_xyz
  1  'x, y, z'
loop_
 _atom_site_type_symbol
 _atom_site_label
 _atom_site_symmetry_multiplicity
 _atom_site_fract_x
 _atom_site_fract_y
 _atom_site_fract_z
 _atom_site_occupancy
  Mn  Mn0  1  0.73933000  0.95556000  0.70874000  1.0
  Mn  Mn1  1  0.23681000  0.69924000  0.95962000  1.0
  H  H2  1  0.38785000  0.01551000  0.61062000  1.0
  H  H3  1  0.88453000  0.61538000  0.02767000  1.0
  H  H4  1  0.59494000  0.49184000  0.78409000  1.0
  H  H5  1  0.10347000  0.77759000  0.47980000  1.0
  H  H6  1  0.87801000  0.87655000  0.17233000  1.0
  H  H7  1  0.37288000  0.18113000  0.88265000  1.0
  H  H8  1  0.07468000  0.30978000  0.24926000  1.0
  H  H9  1  0.57692000  0.24517000  0.29683000  1.0
  H  H10  1  0.58734000  0.92597000  0.07849000  1.0
  H  H11  1  0.08582000  0.08789000  0.92562000  1.0
  H  H12  1  0.96670000  0.11156000  0.40997000  1.0
  H  H13  1  0.47343000  0.40625000  0.09794000  1.0
  H  H14  1  0.79028000  0.63592000  0.53275000  1.0
  H  H15  1  0.29464000  0.53129000  0.62198000  1.0
  H  H16  1  0.21374000  0.03147000  0.44821000  1.0
  H  H17  1  0.71163000  0.45450000  0.03316000  1.0
  H  H18  1  0.31008000  0.98581000  0.18825000  1.0
  H  H19  1  0.80843000  0.19565000  0.98336000  1.0
  H  H20  1  0.98502000  0.56562000  0.30695000  1.0
  H  H21  1  0.48713000  0.30406000  0.55281000  1.0
  C  C22  1  0.43050000  0.99372000  0.49683000  1.0
  C  C23  1  0.92818000  0.50269000  0.00316000  1.0
  C  C24  1  0.43845000  0.89188000  0.86955000  1.0
  C  C25  1  0.94378000  0.86813000  0.90647000  1.0
  C  C26  1  0.54663000  0.74576000  0.83505000  1.0
  C  C27  1  0.04754000  0.82042000  0.76138000  1.0
  C  C28  1  0.98816000  0.33546000  0.34784000  1.0
  C  C29  1  0.49201000  0.34435000  0.32242000  1.0
  C  C30  1  0.54320000  0.94221000  0.19335000  1.0
  C  C31  1  0.04117000  0.20200000  0.94455000  1.0
  C  C32  1  0.81946000  0.26464000  0.56181000  1.0
  C  C33  1  0.32759000  0.55954000  0.24994000  1.0
  C  C34  1  0.93042000  0.22435000  0.43631000  1.0
  C  C35  1  0.43680000  0.43325000  0.21059000  1.0
  C  C36  1  0.82809000  0.52370000  0.50532000  1.0
  C  C37  1  0.33327000  0.50309000  0.50978000  1.0
  C  C38  1  0.76987000  0.41122000  0.59536000  1.0
  C  C39  1  0.27730000  0.59312000  0.39683000  1.0
  C  C40  1  0.64027000  0.93227000  0.28645000  1.0
  C  C41  1  0.13791000  0.29474000  0.93911000  1.0
  C  C42  1  0.33493000  0.00299000  0.40481000  1.0
  C  C43  1  0.83270000  0.41118000  0.00689000  1.0
  C  C44  1  0.39026000  0.97782000  0.25568000  1.0
  C  C45  1  0.88799000  0.26332000  0.97881000  1.0
  C  C46  1  0.93724000  0.48237000  0.38147000  1.0
  C  C47  1  0.44085000  0.37847000  0.46919000  1.0
  C  C48  1  0.58574000  0.95735000  0.43539000  1.0
  C  C49  1  0.08331000  0.44240000  0.96871000  1.0
  N  N50  1  0.83319000  0.90797000  0.39078000  1.0
  N  N51  1  0.33249000  0.39710000  0.92131000  1.0
  N  N52  1  0.64536000  0.27106000  0.76563000  1.0
  N  N53  1  0.15473000  0.76511000  0.25733000  1.0
  N  N54  1  0.70985000  0.94079000  0.49331000  1.0
  N  N55  1  0.20864000  0.49919000  0.95669000  1.0
  N  N56  1  0.66270000  0.40658000  0.72206000  1.0
  N  N57  1  0.17141000  0.71977000  0.39315000  1.0
  N  N58  1  0.73880000  0.18410000  0.67045000  1.0
  N  N59  1  0.24783000  0.66931000  0.16952000  1.0
  N  N60  1  0.79355000  0.90253000  0.26697000  1.0
  N  N61  1  0.29105000  0.27473000  0.91042000  1.0
  O  O62  1  0.48758000  0.63480000  0.86870000  1.0
  O  O63  1  0.99450000  0.85458000  0.64767000  1.0
  O  O64  1  0.49040000  0.00675000  0.83274000  1.0
  O  O65  1  0.99920000  0.82789000  0.01875000  1.0
  O  O66  1  0.30233000  0.88825000  0.93203000  1.0
  O  O67  1  0.81236000  0.94179000  0.90740000  1.0
  O  O68  1  0.68307000  0.74433000  0.77603000  1.0
  O  O69  1  0.18034000  0.74854000  0.76627000  1.0
