# generated using pymatgen
data_CoH16C20S3(N2O)4
_symmetry_space_group_name_H-M   'P 1'
_cell_length_a   11.06420000
_cell_length_b   11.06440000
_cell_length_c   12.47440000
_cell_angle_alpha   89.87750000
_cell_angle_beta   89.88540000
_cell_angle_gamma   72.13750000
_symmetry_Int_Tables_number   1
_chemical_formula_structural   CoH16C20S3(N2O)4
_chemical_formula_sum   'Co2 H32 C40 S6 N16 O8'
_cell_volume   1453.48217802
_cell_formula_units_Z   2
loop_
 _symmetry_equiv_pos_site_id
 _symmetry_equiv_pos_as_xyz
  1  'x, y, z'
loop_
 _atom_site_type_symbol
 _atom_site_label
 _atom_site_symmetry_multiplicity
 _atom_site_fract_x
 _atom_site_fract_y
 _atom_site_fract_z
 _atom_site_occupancy
  Co  Co0  1  0.00000000  0.00000000  0.00000000  1.0
  Co  Co1  1  0.00000000  0.00000000  0.50000000  1.0
  H  H2  1  0.03128000  0.83791000  0.22724000  1.0
  H  H3  1  0.16214000  0.96865000  0.27270000  1.0
  H  H4  1  0.96872000  0.16209000  0.77276000  1.0
  H  H5  1  0.83785000  0.03135000  0.72729000  1.0
  H  H6  1  0.16087000  0.70433000  0.91775000  1.0
  H  H7  1  0.29570000  0.83910000  0.58224000  1.0
  H  H8  1  0.83914000  0.29566000  0.08226000  1.0
  H  H9  1  0.70428000  0.16092000  0.41776000  1.0
  H  H10  1  0.22484000  0.49960000  0.06006000  1.0
  H  H11  1  0.50044000  0.77513000  0.43996000  1.0
  H  H12  1  0.77517000  0.50039000  0.93995000  1.0
  H  H13  1  0.49955000  0.22488000  0.56005000  1.0
  H  H14  1  0.20317000  0.70204000  0.38043000  1.0
  H  H15  1  0.29798000  0.79685000  0.11953000  1.0
  H  H16  1  0.79684000  0.29796000  0.61957000  1.0
  H  H17  1  0.70201000  0.20315000  0.88047000  1.0
  H  H18  1  0.19536000  0.54174000  0.53383000  1.0
  H  H19  1  0.45827000  0.80464000  0.96615000  1.0
  H  H20  1  0.80464000  0.45826000  0.46617000  1.0
  H  H21  1  0.54173000  0.19536000  0.03385000  1.0
  H  H22  1  0.24724000  0.32494000  0.60783000  1.0
  H  H23  1  0.67509000  0.75278000  0.89216000  1.0
  H  H24  1  0.75276000  0.67506000  0.39217000  1.0
  H  H25  1  0.32491000  0.24721000  0.10784000  1.0
  H  H26  1  0.99520000  0.26172000  0.37172000  1.0
  H  H27  1  0.73831000  0.00480000  0.12830000  1.0
  H  H28  1  0.00481000  0.73829000  0.62828000  1.0
  H  H29  1  0.26168000  0.99520000  0.87170000  1.0
  H  H30  1  0.17369000  0.11299000  0.66320000  1.0
  H  H31  1  0.88704000  0.82634000  0.83685000  1.0
  H  H32  1  0.82631000  0.88701000  0.33680000  1.0
  H  H33  1  0.11296000  0.17365000  0.16315000  1.0
  C  C34  1  0.07623000  0.77606000  0.16172000  1.0
  C  C35  1  0.22397000  0.92373000  0.33826000  1.0
  C  C36  1  0.92377000  0.22394000  0.83829000  1.0
  C  C37  1  0.77602000  0.07627000  0.66174000  1.0
  C  C38  1  0.14567000  0.70183000  0.00379000  1.0
  C  C39  1  0.29819000  0.85431000  0.49620000  1.0
  C  C40  1  0.85434000  0.29816000  0.99621000  1.0
  C  C41  1  0.70180000  0.14570000  0.50380000  1.0
  C  C42  1  0.17590000  0.59961000  0.07221000  1.0
  C  C43  1  0.40041000  0.82407000  0.42779000  1.0
  C  C44  1  0.82410000  0.40038000  0.92779000  1.0
  C  C45  1  0.59958000  0.17594000  0.57221000  1.0
  C  C46  1  0.14475000  0.57958000  0.26957000  1.0
  C  C47  1  0.42045000  0.85524000  0.23042000  1.0
  C  C48  1  0.85526000  0.42042000  0.73044000  1.0
  C  C49  1  0.57954000  0.14476000  0.76958000  1.0
  C  C50  1  0.17851000  0.61548000  0.36748000  1.0
  C  C51  1  0.38454000  0.82150000  0.13250000  1.0
  C  C52  1  0.82150000  0.38451000  0.63252000  1.0
  C  C53  1  0.61546000  0.17850000  0.86750000  1.0
  C  C54  1  0.17363000  0.52906000  0.45033000  1.0
  C  C55  1  0.47094000  0.82638000  0.04965000  1.0
  C  C56  1  0.82638000  0.47093000  0.54967000  1.0
  C  C57  1  0.52905000  0.17361000  0.95035000  1.0
  C  C58  1  0.13655000  0.42896000  0.41312000  1.0
  C  C59  1  0.57105000  0.86347000  0.08686000  1.0
  C  C60  1  0.86346000  0.57103000  0.58688000  1.0
  C  C61  1  0.42895000  0.13653000  0.91314000  1.0
  C  C62  1  0.18479000  0.28026000  0.56875000  1.0
  C  C63  1  0.71974000  0.81524000  0.93126000  1.0
  C  C64  1  0.81521000  0.71974000  0.43126000  1.0
  C  C65  1  0.28026000  0.18476000  0.06874000  1.0
  C  C66  1  0.05375000  0.24842000  0.44399000  1.0
  C  C67  1  0.75159000  0.94626000  0.05602000  1.0
  C  C68  1  0.94625000  0.75159000  0.55601000  1.0
  C  C69  1  0.24841000  0.05374000  0.94397000  1.0
  C  C70  1  0.14611000  0.17760000  0.59576000  1.0
  C  C71  1  0.82240000  0.85393000  0.90426000  1.0
  C  C72  1  0.85389000  0.82240000  0.40424000  1.0
  C  C73  1  0.17760000  0.14607000  0.09574000  1.0
  S  S74  1  0.10546000  0.43929000  0.27653000  1.0
  S  S75  1  0.56073000  0.89457000  0.22346000  1.0
  S  S76  1  0.89456000  0.56071000  0.72348000  1.0
  S  S77  1  0.43927000  0.10543000  0.77654000  1.0
  S  S78  1  0.12250000  0.87749000  0.75005000  1.0
  S  S79  1  0.87750000  0.12251000  0.24994000  1.0
  N  N80  1  0.08476000  0.81085000  0.06086000  1.0
  N  N81  1  0.18917000  0.91522000  0.43912000  1.0
  N  N82  1  0.91524000  0.18914000  0.93914000  1.0
  N  N83  1  0.81082000  0.08479000  0.56088000  1.0
  N  N84  1  0.13185000  0.64744000  0.17287000  1.0
  N  N85  1  0.35260000  0.86811000  0.32712000  1.0
  N  N86  1  0.86815000  0.35256000  0.82713000  1.0
  N  N87  1  0.64739000  0.13190000  0.67288000  1.0
  N  N88  1  0.12609000  0.32448000  0.47156000  1.0
  N  N89  1  0.67553000  0.87392000  0.02844000  1.0
  N  N90  1  0.87392000  0.67552000  0.52844000  1.0
  N  N91  1  0.32447000  0.12607000  0.97156000  1.0
  N  N92  1  0.06483000  0.15934000  0.51773000  1.0
  N  N93  1  0.84064000  0.93520000  0.98229000  1.0
  N  N94  1  0.93517000  0.84066000  0.48227000  1.0
  N  N95  1  0.15935000  0.06480000  0.01771000  1.0
  O  O96  1  0.05208000  0.94803000  0.84547000  1.0
  O  O97  1  0.05188000  0.94796000  0.65466000  1.0
  O  O98  1  0.94791000  0.05198000  0.15453000  1.0
  O  O99  1  0.94811000  0.05204000  0.34533000  1.0
  O  O100  1  0.11714000  0.74559000  0.74933000  1.0
  O  O101  1  0.25440000  0.88288000  0.75078000  1.0
  O  O102  1  0.88286000  0.25441000  0.25066000  1.0
  O  O103  1  0.74559000  0.11712000  0.24922000  1.0
