# generated using pymatgen
data_Zr3H28C40(N3O8)2
_symmetry_space_group_name_H-M   'P 1'
_cell_length_a   18.33080000
_cell_length_b   22.52240000
_cell_length_c   22.54350000
_cell_angle_alpha   93.68960000
_cell_angle_beta   89.95640000
_cell_angle_gamma   89.93260000
_symmetry_Int_Tables_number   1
_chemical_formula_structural   Zr3H28C40(N3O8)2
_chemical_formula_sum   'Zr6 H56 C80 N12 O32'
_cell_volume   9287.86484601
_cell_formula_units_Z   2
loop_
 _symmetry_equiv_pos_site_id
 _symmetry_equiv_pos_as_xyz
  1  'x, y, z'
loop_
 _atom_site_type_symbol
 _atom_site_label
 _atom_site_symmetry_multiplicity
 _atom_site_fract_x
 _atom_site_fract_y
 _atom_site_fract_z
 _atom_site_occupancy
  Zr  Zr0  1  0.99475000  0.98844000  0.08551000  1.0
  Zr  Zr1  1  0.99520000  0.09510000  0.97147000  1.0
  Zr  Zr2  1  0.99379000  0.86664000  0.97484000  1.0
  Zr  Zr3  1  0.99421000  0.97085000  0.86252000  1.0
  Zr  Zr4  1  0.86067000  0.98109000  0.97356000  1.0
  Zr  Zr5  1  0.12819000  0.97960000  0.97251000  1.0
  H  H6  1  0.10323000  0.07015000  0.06335000  1.0
  H  H7  1  0.88967000  0.06554000  0.88228000  1.0
  H  H8  1  0.10136000  0.88832000  0.88178000  1.0
  H  H9  1  0.88600000  0.89665000  0.05968000  1.0
  H  H10  1  0.94342000  0.18016000  0.90975000  1.0
  H  H11  1  0.04749000  0.02420000  0.76906000  1.0
  H  H12  1  0.95446000  0.88456000  0.78322000  1.0
  H  H13  1  0.99258000  0.83965000  0.85130000  1.0
  H  H14  1  0.03647000  0.79529000  0.05694000  1.0
  H  H15  1  0.99636000  0.86712000  0.10679000  1.0
  H  H16  1  0.95449000  0.07433000  0.16459000  1.0
  H  H17  1  0.99309000  0.12034000  0.09546000  1.0
  H  H18  1  0.03387000  0.78385000  0.88054000  1.0
  H  H19  1  0.95119000  0.90031000  0.16201000  1.0
  H  H20  1  0.03309000  0.17672000  0.06635000  1.0
  H  H21  1  0.96214000  0.02019000  0.75359000  1.0
  H  H22  1  0.41914000  0.81074000  0.95487000  1.0
  H  H23  1  0.29213000  0.65395000  0.97860000  1.0
  H  H24  1  0.17763000  0.71514000  0.98077000  1.0
  H  H25  1  0.30500000  0.87192000  0.95754000  1.0
  H  H26  1  0.69803000  0.65721000  0.97538000  1.0
  H  H27  1  0.56512000  0.81236000  0.95834000  1.0
  H  H28  1  0.67718000  0.87558000  0.95897000  1.0
  H  H29  1  0.81051000  0.72072000  0.97543000  1.0
  H  H30  1  0.28838000  0.30333000  0.96229000  1.0
  H  H31  1  0.42160000  0.15143000  0.99320000  1.0
  H  H32  1  0.31048000  0.08680000  0.99060000  1.0
  H  H33  1  0.17668000  0.23841000  0.96039000  1.0
  H  H34  1  0.69643000  0.30310000  0.97477000  1.0
  H  H35  1  0.56114000  0.14917000  0.98891000  1.0
  H  H36  1  0.67230000  0.08445000  0.98858000  1.0
  H  H37  1  0.80802000  0.23831000  0.97595000  1.0
  H  H38  1  0.61178000  0.53573000  0.97640000  1.0
  H  H39  1  0.37772000  0.53674000  0.96789000  1.0
  H  H40  1  0.37657000  0.42547000  0.96957000  1.0
  H  H41  1  0.61063000  0.42441000  0.97811000  1.0
  H  H42  1  0.42676000  0.96890000  0.80399000  1.0
  H  H43  1  0.29416000  0.98208000  0.64841000  1.0
  H  H44  1  0.18171000  0.98303000  0.71165000  1.0
  H  H45  1  0.31448000  0.97066000  0.86728000  1.0
  H  H46  1  0.81400000  0.97703000  0.70899000  1.0
  H  H47  1  0.68212000  0.95612000  0.86377000  1.0
  H  H48  1  0.56955000  0.95805000  0.80121000  1.0
  H  H49  1  0.70123000  0.97991000  0.64655000  1.0
  H  H50  1  0.42378000  0.98838000  0.14039000  1.0
  H  H51  1  0.29051000  0.97751000  0.29608000  1.0
  H  H52  1  0.17813000  0.97585000  0.23234000  1.0
  H  H53  1  0.31185000  0.98633000  0.07706000  1.0
  H  H54  1  0.69744000  0.98166000  0.29886000  1.0
  H  H55  1  0.56834000  0.99876000  0.14203000  1.0
  H  H56  1  0.68213000  0.00062000  0.08081000  1.0
  H  H57  1  0.81154000  0.98408000  0.23763000  1.0
  H  H58  1  0.61160000  0.98701000  0.41615000  1.0
  H  H59  1  0.37784000  0.97513000  0.41691000  1.0
  H  H60  1  0.37909000  0.97292000  0.52809000  1.0
  H  H61  1  0.61297000  0.98434000  0.52723000  1.0
  C  C62  1  0.49435000  0.98278000  0.34460000  1.0
  C  C63  1  0.43243000  0.98416000  0.25733000  1.0
  C  C64  1  0.55694000  0.98732000  0.25803000  1.0
  C  C65  1  0.49682000  0.97689000  0.59958000  1.0
  C  C66  1  0.55981000  0.97225000  0.68596000  1.0
  C  C67  1  0.43542000  0.97461000  0.68707000  1.0
  C  C68  1  0.49291000  0.35287000  0.97532000  1.0
  C  C69  1  0.55432000  0.26554000  0.97972000  1.0
  C  C70  1  0.42984000  0.26627000  0.97781000  1.0
  C  C71  1  0.49494000  0.60827000  0.97072000  1.0
  C  C72  1  0.43183000  0.69486000  0.96727000  1.0
  C  C73  1  0.55631000  0.69573000  0.96755000  1.0
  C  C74  1  0.81879000  0.99087000  0.11525000  1.0
  C  C75  1  0.17328000  0.11809000  0.97357000  1.0
  C  C76  1  0.81148000  0.11699000  0.97906000  1.0
  C  C77  1  0.17331000  0.98073000  0.11044000  1.0
  C  C78  1  0.16939000  0.83760000  0.97248000  1.0
  C  C79  1  0.81910000  0.96834000  0.83109000  1.0
  C  C80  1  0.17631000  0.97702000  0.83374000  1.0
  C  C81  1  0.81539000  0.84255000  0.96909000  1.0
  C  C82  1  0.36601000  0.79033000  0.96048000  1.0
  C  C83  1  0.36261000  0.72881000  0.96691000  1.0
  C  C84  1  0.29434000  0.70172000  0.97375000  1.0
  C  C85  1  0.23069000  0.73582000  0.97499000  1.0
  C  C86  1  0.23462000  0.79742000  0.96962000  1.0
  C  C87  1  0.30290000  0.82413000  0.96192000  1.0
  C  C88  1  0.69393000  0.70506000  0.97149000  1.0
  C  C89  1  0.62451000  0.73096000  0.96685000  1.0
  C  C90  1  0.61905000  0.79271000  0.96195000  1.0
  C  C91  1  0.68114000  0.82767000  0.96216000  1.0
  C  C92  1  0.75053000  0.80197000  0.96707000  1.0
  C  C93  1  0.75648000  0.74033000  0.97147000  1.0
  C  C94  1  0.29266000  0.25595000  0.96885000  1.0
  C  C95  1  0.36177000  0.23108000  0.97775000  1.0
  C  C96  1  0.36776000  0.16994000  0.98605000  1.0
  C  C97  1  0.30640000  0.13427000  0.98468000  1.0
  C  C98  1  0.23743000  0.15894000  0.97539000  1.0
  C  C99  1  0.23070000  0.22001000  0.96784000  1.0
  C  C100  1  0.69170000  0.25521000  0.97810000  1.0
  C  C101  1  0.62200000  0.22984000  0.98149000  1.0
  C  C102  1  0.61548000  0.16812000  0.98602000  1.0
  C  C103  1  0.67696000  0.13237000  0.98591000  1.0
  C  C104  1  0.74659000  0.15750000  0.98172000  1.0
  C  C105  1  0.75358000  0.21922000  0.97851000  1.0
  C  C106  1  0.56066000  0.51111000  0.97491000  1.0
  C  C107  1  0.49482000  0.54280000  0.97212000  1.0
  C  C108  1  0.42834000  0.51164000  0.97017000  1.0
  C  C109  1  0.42771000  0.45009000  0.97102000  1.0
  C  C110  1  0.49357000  0.41839000  0.97387000  1.0
  C  C111  1  0.56003000  0.44952000  0.97580000  1.0
  C  C112  1  0.37281000  0.97207000  0.78435000  1.0
  C  C113  1  0.36734000  0.97534000  0.72247000  1.0
  C  C114  1  0.29809000  0.97949000  0.69640000  1.0
  C  C115  1  0.23557000  0.98029000  0.73172000  1.0
  C  C116  1  0.24134000  0.97719000  0.79347000  1.0
  C  C117  1  0.31067000  0.97305000  0.81933000  1.0
  C  C118  1  0.76025000  0.97284000  0.72901000  1.0
  C  C119  1  0.75466000  0.96670000  0.79034000  1.0
  C  C120  1  0.68557000  0.96092000  0.81614000  1.0
  C  C121  1  0.62337000  0.96209000  0.78157000  1.0
  C  C122  1  0.62842000  0.96940000  0.72028000  1.0
  C  C123  1  0.69753000  0.97437000  0.69411000  1.0
  C  C124  1  0.36980000  0.98561000  0.16010000  1.0
  C  C125  1  0.36424000  0.98311000  0.22208000  1.0
  C  C126  1  0.29476000  0.97946000  0.24803000  1.0
  C  C127  1  0.23226000  0.97845000  0.21264000  1.0
  C  C128  1  0.23830000  0.98090000  0.15085000  1.0
  C  C129  1  0.30778000  0.98443000  0.12505000  1.0
  C  C130  1  0.69464000  0.98610000  0.25108000  1.0
  C  C131  1  0.62589000  0.98988000  0.22401000  1.0
  C  C132  1  0.62185000  0.99568000  0.16246000  1.0
  C  C133  1  0.68476000  0.99676000  0.12862000  1.0
  C  C134  1  0.75354000  0.99220000  0.15535000  1.0
  C  C135  1  0.75807000  0.98737000  0.21695000  1.0
  C  C136  1  0.56110000  0.98381000  0.44119000  1.0
  C  C137  1  0.49467000  0.98117000  0.41001000  1.0
  C  C138  1  0.42894000  0.97720000  0.44157000  1.0
  C  C139  1  0.42964000  0.97597000  0.50306000  1.0
  C  C140  1  0.49608000  0.97855000  0.53421000  1.0
  C  C141  1  0.56183000  0.98242000  0.50263000  1.0
  N  N142  1  0.42924000  0.98195000  0.31676000  1.0
  N  N143  1  0.49492000  0.98718000  0.22645000  1.0
  N  N144  1  0.55967000  0.98509000  0.31736000  1.0
  N  N145  1  0.56236000  0.97519000  0.62667000  1.0
  N  N146  1  0.49789000  0.97175000  0.71771000  1.0
  N  N147  1  0.43186000  0.97689000  0.62773000  1.0
  N  N148  1  0.55794000  0.32493000  0.97715000  1.0
  N  N149  1  0.49180000  0.23487000  0.98059000  1.0
  N  N150  1  0.42732000  0.32567000  0.97498000  1.0
  N  N151  1  0.42946000  0.63554000  0.96975000  1.0
  N  N152  1  0.49366000  0.72658000  0.96553000  1.0
  N  N153  1  0.55989000  0.63632000  0.97029000  1.0
  O  O154  1  0.88337000  0.99026000  0.13711000  1.0
  O  O155  1  0.80361000  0.98924000  0.06008000  1.0
  O  O156  1  0.10928000  0.13987000  0.97677000  1.0
  O  O157  1  0.18918000  0.06263000  0.96969000  1.0
  O  O158  1  0.87510000  0.13850000  0.98203000  1.0
  O  O159  1  0.79619000  0.06120000  0.97223000  1.0
  O  O160  1  0.10906000  0.98109000  0.13153000  1.0
  O  O161  1  0.18952000  0.98140000  0.05510000  1.0
  O  O162  1  0.99529000  0.07017000  0.13701000  1.0
  O  O163  1  0.99511000  0.90392000  0.13826000  1.0
  O  O164  1  0.99223000  0.14942000  0.06089000  1.0
  O  O165  1  0.98932000  0.15974000  0.91527000  1.0
  O  O166  1  0.93801000  0.03038000  0.01975000  1.0
  O  O167  1  0.07074000  0.04629000  0.03763000  1.0
  O  O168  1  0.10467000  0.81572000  0.97241000  1.0
  O  O169  1  0.18459000  0.89270000  0.97415000  1.0
  O  O170  1  0.88386000  0.96756000  0.80931000  1.0
  O  O171  1  0.80380000  0.97162000  0.88611000  1.0
  O  O172  1  0.11181000  0.97985000  0.81247000  1.0
  O  O173  1  0.19097000  0.97240000  0.88851000  1.0
  O  O174  1  0.87968000  0.82128000  0.96821000  1.0
  O  O175  1  0.79931000  0.89813000  0.97285000  1.0
  O  O176  1  0.99197000  0.81017000  0.88615000  1.0
  O  O177  1  0.99498000  0.82201000  0.05458000  1.0
  O  O178  1  0.99621000  0.88861000  0.80979000  1.0
  O  O179  1  0.99774000  0.03343000  0.78364000  1.0
  O  O180  1  0.06942000  0.91203000  0.90821000  1.0
  O  O181  1  0.93732000  0.92975000  0.92603000  1.0
  O  O182  1  0.05009000  0.93529000  0.01899000  1.0
  O  O183  1  0.92204000  0.04227000  0.90570000  1.0
  O  O184  1  0.91912000  0.92025000  0.03730000  1.0
  O  O185  1  0.05243000  0.02567000  0.92435000  1.0
