# generated using pymatgen
data_ZnH14C13(BrN)2
_symmetry_space_group_name_H-M   'P 1'
_cell_length_a   5.39475000
_cell_length_b   10.13980000
_cell_length_c   13.02560000
_cell_angle_alpha   90.00390000
_cell_angle_beta   90.00270000
_cell_angle_gamma   89.32270000
_symmetry_Int_Tables_number   1
_chemical_formula_structural   ZnH14C13(BrN)2
_chemical_formula_sum   'Zn2 H28 C26 Br4 N4'
_cell_volume   712.47249649
_cell_formula_units_Z   2
loop_
 _symmetry_equiv_pos_site_id
 _symmetry_equiv_pos_as_xyz
  1  'x, y, z'
loop_
 _atom_site_type_symbol
 _atom_site_label
 _atom_site_symmetry_multiplicity
 _atom_site_fract_x
 _atom_site_fract_y
 _atom_site_fract_z
 _atom_site_occupancy
  Zn  Zn0  1  0.56581000  0.70809000  0.24999000  1.0
  Zn  Zn1  1  0.43419000  0.29189000  0.75001000  1.0
  H  H2  1  0.87540000  0.80912000  0.75000000  1.0
  H  H3  1  0.12460000  0.19094000  0.25000000  1.0
  H  H4  1  0.04902000  0.66027000  0.74999000  1.0
  H  H5  1  0.95089000  0.33976000  0.25000000  1.0
  H  H6  1  0.22967000  0.91967000  0.65705000  1.0
  H  H7  1  0.77037000  0.08033000  0.15702000  1.0
  H  H8  1  0.77036000  0.08033000  0.34295000  1.0
  H  H9  1  0.22965000  0.91967000  0.84299000  1.0
  H  H10  1  0.38353000  0.76390000  0.64847000  1.0
  H  H11  1  0.61648000  0.23609000  0.14845000  1.0
  H  H12  1  0.61647000  0.23609000  0.35153000  1.0
  H  H13  1  0.38352000  0.76390000  0.85155000  1.0
  H  H14  1  0.78599000  0.94076000  0.58443000  1.0
  H  H15  1  0.21401000  0.05925000  0.08443000  1.0
  H  H16  1  0.21401000  0.05925000  0.41556000  1.0
  H  H17  1  0.78598000  0.94075000  0.91558000  1.0
  H  H18  1  0.54207000  0.88986000  0.42517000  1.0
  H  H19  1  0.45792000  0.11013000  0.92517000  1.0
  H  H20  1  0.45792000  0.11013000  0.57483000  1.0
  H  H21  1  0.54207000  0.88986000  0.07483000  1.0
  H  H22  1  0.01041000  0.57673000  0.35214000  1.0
  H  H23  1  0.98960000  0.42326000  0.85215000  1.0
  H  H24  1  0.98962000  0.42327000  0.64786000  1.0
  H  H25  1  0.01040000  0.57673000  0.14785000  1.0
  H  H26  1  0.27143000  0.61461000  0.50605000  1.0
  H  H27  1  0.72859000  0.38540000  0.00605000  1.0
  H  H28  1  0.72859000  0.38540000  0.49395000  1.0
  H  H29  1  0.27141000  0.61460000  0.99395000  1.0
  C  C30  1  0.06536000  0.76822000  0.75001000  1.0
  C  C31  1  0.93461000  0.23180000  0.25000000  1.0
  C  C32  1  0.20054000  0.81244000  0.65244000  1.0
  C  C33  1  0.79947000  0.18756000  0.15242000  1.0
  C  C34  1  0.79947000  0.18757000  0.34756000  1.0
  C  C35  1  0.20053000  0.81244000  0.84758000  1.0
  C  C36  1  0.05209000  0.78257000  0.55813000  1.0
  C  C37  1  0.94791000  0.21744000  0.05812000  1.0
  C  C38  1  0.94792000  0.21744000  0.44187000  1.0
  C  C39  1  0.05208000  0.78256000  0.94188000  1.0
  C  C40  1  0.84148000  0.85925000  0.53442000  1.0
  C  C41  1  0.15853000  0.14076000  0.03442000  1.0
  C  C42  1  0.15852000  0.14076000  0.46558000  1.0
  C  C43  1  0.84147000  0.85924000  0.96559000  1.0
  C  C44  1  0.70537000  0.83192000  0.44705000  1.0
  C  C45  1  0.29462000  0.16806000  0.94705000  1.0
  C  C46  1  0.29464000  0.16807000  0.55295000  1.0
  C  C47  1  0.70538000  0.83192000  0.05295000  1.0
  C  C48  1  0.96485000  0.65623000  0.40553000  1.0
  C  C49  1  0.03516000  0.34376000  0.90553000  1.0
  C  C50  1  0.03516000  0.34377000  0.59447000  1.0
  C  C51  1  0.96484000  0.65623000  0.09446000  1.0
  C  C52  1  0.11065000  0.67816000  0.49180000  1.0
  C  C53  1  0.88936000  0.32184000  0.99180000  1.0
  C  C54  1  0.88936000  0.32185000  0.50820000  1.0
  C  C55  1  0.11064000  0.67815000  0.00820000  1.0
  Br  Br56  1  0.44042000  0.48304000  0.24995000  1.0
  Br  Br57  1  0.55957000  0.51694000  0.75004000  1.0
  Br  Br58  1  0.27272000  0.88971000  0.25000000  1.0
  Br  Br59  1  0.72729000  0.11027000  0.75000000  1.0
  N  N60  1  0.76648000  0.73256000  0.38261000  1.0
  N  N61  1  0.23352000  0.26742000  0.88262000  1.0
  N  N62  1  0.23352000  0.26743000  0.61739000  1.0
  N  N63  1  0.76648000  0.73257000  0.11738000  1.0
