# generated using pymatgen
data_ZnH7C10N3O2
_symmetry_space_group_name_H-M   'P 1'
_cell_length_a   9.69994000
_cell_length_b   9.73055000
_cell_length_c   19.98921960
_cell_angle_alpha   80.20748824
_cell_angle_beta   75.94714631
_cell_angle_gamma   90.00160000
_symmetry_Int_Tables_number   1
_chemical_formula_structural   ZnH7C10N3O2
_chemical_formula_sum   'Zn4 H28 C40 N12 O8'
_cell_volume   1801.88029367
_cell_formula_units_Z   4
loop_
 _symmetry_equiv_pos_site_id
 _symmetry_equiv_pos_as_xyz
  1  'x, y, z'
loop_
 _atom_site_type_symbol
 _atom_site_label
 _atom_site_symmetry_multiplicity
 _atom_site_fract_x
 _atom_site_fract_y
 _atom_site_fract_z
 _atom_site_occupancy
  Zn  Zn0  1  0.10462000  0.40012000  0.43181000  1.0
  Zn  Zn1  1  0.53636000  0.09990000  0.56820000  1.0
  Zn  Zn2  1  0.89539000  0.59988000  0.56819000  1.0
  Zn  Zn3  1  0.46364000  0.90010000  0.43180000  1.0
  H  H4  1  0.30389000  0.54193000  0.20206000  1.0
  H  H5  1  0.50558000  0.95789000  0.79812000  1.0
  H  H6  1  0.69611000  0.45807000  0.79794000  1.0
  H  H7  1  0.49441000  0.04211000  0.20188000  1.0
  H  H8  1  0.38282000  0.52604000  0.07543000  1.0
  H  H9  1  0.45811000  0.97418000  0.92464000  1.0
  H  H10  1  0.61718000  0.47396000  0.92458000  1.0
  H  H11  1  0.54189000  0.02582000  0.07536000  1.0
  H  H12  1  0.19600000  0.10747000  0.12073000  1.0
  H  H13  1  0.31684000  0.39276000  0.87919000  1.0
  H  H14  1  0.80400000  0.89253000  0.87927000  1.0
  H  H15  1  0.68317000  0.60725000  0.12081000  1.0
  H  H16  1  0.11425000  0.12722000  0.24624000  1.0
  H  H17  1  0.36024000  0.37258000  0.75372000  1.0
  H  H18  1  0.88574000  0.87278000  0.75376000  1.0
  H  H19  1  0.63978000  0.62742000  0.24627000  1.0
  H  H20  1  0.36393000  0.41031000  0.97942000  1.0
  H  H21  1  0.34383000  0.09002000  0.02058000  1.0
  H  H22  1  0.63607000  0.58969000  0.02058000  1.0
  H  H23  1  0.65617000  0.90998000  0.97942000  1.0
  H  H24  1  0.15772000  0.80865000  0.55912000  1.0
  H  H25  1  0.71654000  0.69101000  0.44109000  1.0
  H  H26  1  0.84229000  0.19135000  0.44088000  1.0
  H  H27  1  0.28347000  0.30899000  0.55891000  1.0
  H  H28  1  0.37663000  0.61068000  0.39498000  1.0
  H  H29  1  0.77177000  0.88955000  0.60495000  1.0
  H  H30  1  0.62337000  0.38932000  0.60502000  1.0
  H  H31  1  0.22822000  0.11045000  0.39506000  1.0
  C  C32  1  0.14981000  0.34353000  0.30735000  1.0
  C  C33  1  0.45683000  0.15624000  0.69269000  1.0
  C  C34  1  0.85019000  0.65646000  0.69265000  1.0
  C  C35  1  0.54317000  0.84377000  0.30730000  1.0
  C  C36  1  0.20386000  0.33535000  0.23183000  1.0
  C  C37  1  0.43537000  0.16448000  0.76821000  1.0
  C  C38  1  0.79614000  0.66465000  0.76817000  1.0
  C  C39  1  0.56463000  0.83552000  0.23178000  1.0
  C  C40  1  0.28089000  0.44737000  0.18357000  1.0
  C  C41  1  0.46410000  0.05254000  0.81652000  1.0
  C  C42  1  0.71911000  0.55263000  0.81643000  1.0
  C  C43  1  0.53589000  0.94746000  0.18348000  1.0
  C  C44  1  0.32545000  0.43748000  0.11298000  1.0
  C  C45  1  0.43819000  0.06263000  0.88708000  1.0
  C  C46  1  0.67456000  0.56252000  0.88702000  1.0
  C  C47  1  0.56181000  0.93738000  0.11292000  1.0
  C  C48  1  0.29779000  0.31473000  0.08878000  1.0
  C  C49  1  0.38647000  0.18547000  0.91122000  1.0
  C  C50  1  0.70221000  0.68528000  0.91122000  1.0
  C  C51  1  0.61354000  0.81454000  0.08878000  1.0
  C  C52  1  0.22227000  0.20219000  0.13820000  1.0
  C  C53  1  0.36044000  0.29795000  0.86176000  1.0
  C  C54  1  0.77772000  0.79781000  0.86180000  1.0
  C  C55  1  0.63957000  0.70206000  0.13823000  1.0
  C  C56  1  0.17550000  0.21274000  0.20833000  1.0
  C  C57  1  0.38363000  0.28719000  0.79166000  1.0
  C  C58  1  0.82450000  0.78725000  0.79167000  1.0
  C  C59  1  0.61637000  0.71282000  0.20834000  1.0
  C  C60  1  0.34168000  0.30893000  0.01425000  1.0
  C  C61  1  0.35602000  0.19137000  0.98574000  1.0
  C  C62  1  0.65832000  0.69107000  0.98575000  1.0
  C  C63  1  0.64398000  0.80864000  0.01426000  1.0
  C  C64  1  0.18703000  0.73861000  0.52161000  1.0
  C  C65  1  0.70844000  0.76118000  0.47853000  1.0
  C  C66  1  0.81297000  0.26139000  0.47839000  1.0
  C  C67  1  0.29156000  0.23881000  0.52147000  1.0
  C  C68  1  0.29630000  0.63648000  0.43870000  1.0
  C  C69  1  0.73506000  0.86361000  0.56128000  1.0
  C  C70  1  0.70370000  0.36352000  0.56130000  1.0
  C  C71  1  0.26494000  0.13639000  0.43872000  1.0
  N  N72  1  0.30993000  0.74498000  0.47136000  1.0
  N  N73  1  0.78123000  0.75500000  0.52869000  1.0
  N  N74  1  0.69008000  0.25501000  0.52864000  1.0
  N  N75  1  0.21877000  0.24499000  0.47131000  1.0
  N  N76  1  0.10196000  0.63231000  0.52012000  1.0
  N  N77  1  0.62192000  0.86750000  0.47999000  1.0
  N  N78  1  0.89804000  0.36769000  0.47988000  1.0
  N  N79  1  0.37810000  0.13250000  0.52000000  1.0
  N  N80  1  0.17204000  0.56709000  0.46674000  1.0
  N  N81  1  0.63877000  0.93292000  0.53328000  1.0
  N  N82  1  0.82795000  0.43291000  0.53327000  1.0
  N  N83  1  0.36123000  0.06708000  0.46672000  1.0
  O  O84  1  0.06998000  0.24637000  0.34874000  1.0
  O  O85  1  0.41844000  0.25340000  0.65130000  1.0
  O  O86  1  0.93002000  0.75362000  0.65126000  1.0
  O  O87  1  0.58156000  0.74660000  0.34870000  1.0
  O  O88  1  0.18919000  0.45203000  0.32939000  1.0
  O  O89  1  0.51829000  0.04778000  0.67065000  1.0
  O  O90  1  0.81081000  0.54795000  0.67061000  1.0
  O  O91  1  0.48170000  0.95222000  0.32935000  1.0
