# generated using pymatgen
data_CdSi2H60C66I2(N2O3)2
_symmetry_space_group_name_H-M   'P 1'
_cell_length_a   7.80406000
_cell_length_b   14.05700000
_cell_length_c   14.41740000
_cell_angle_alpha   69.70760000
_cell_angle_beta   87.60180000
_cell_angle_gamma   87.67050000
_symmetry_Int_Tables_number   1
_chemical_formula_structural   CdSi2H60C66I2(N2O3)2
_chemical_formula_sum   'Cd1 Si2 H60 C66 I2 N4 O6'
_cell_volume   1481.57422666
_cell_formula_units_Z   1
loop_
 _symmetry_equiv_pos_site_id
 _symmetry_equiv_pos_as_xyz
  1  'x, y, z'
loop_
 _atom_site_type_symbol
 _atom_site_label
 _atom_site_symmetry_multiplicity
 _atom_site_fract_x
 _atom_site_fract_y
 _atom_site_fract_z
 _atom_site_occupancy
  Cd  Cd0  1  0.50000000  0.00000000  0.50000000  1.0
  Si  Si1  1  0.18477000  0.37639000  0.88089000  1.0
  Si  Si2  1  0.81523000  0.62361000  0.11911000  1.0
  H  H3  1  0.54881000  0.08273000  0.68147000  1.0
  H  H4  1  0.45120000  0.91726000  0.31853000  1.0
  H  H5  1  0.40287000  0.08431000  0.83847000  1.0
  H  H6  1  0.59713000  0.91569000  0.16152000  1.0
  H  H7  1  0.97058000  0.94595000  0.76145000  1.0
  H  H8  1  0.02942000  0.05405000  0.23855000  1.0
  H  H9  1  0.12977000  0.95480000  0.60700000  1.0
  H  H10  1  0.87023000  0.04519000  0.39300000  1.0
  H  H11  1  0.92510000  0.13860000  0.74873000  1.0
  H  H12  1  0.07491000  0.86141000  0.25127000  1.0
  H  H13  1  0.66143000  0.23927000  0.75129000  1.0
  H  H14  1  0.33857000  0.76074000  0.24870000  1.0
  H  H15  1  0.51381000  0.22874000  0.91055000  1.0
  H  H16  1  0.48619000  0.77126000  0.08945000  1.0
  H  H17  1  0.37073000  0.88452000  0.93160000  1.0
  H  H18  1  0.62927000  0.11548000  0.06840000  1.0
  H  H19  1  0.46197000  0.24361000  0.43317000  1.0
  H  H20  1  0.53803000  0.75638000  0.56683000  1.0
  H  H21  1  0.60269000  0.39994000  0.43315000  1.0
  H  H22  1  0.39730000  0.60006000  0.56685000  1.0
  H  H23  1  0.04227000  0.21100000  0.56275000  1.0
  H  H24  1  0.95773000  0.78900000  0.43725000  1.0
  H  H25  1  0.88064000  0.06234000  0.55958000  1.0
  H  H26  1  0.11936000  0.93766000  0.44042000  1.0
  H  H27  1  0.63433000  0.36610000  0.61958000  1.0
  H  H28  1  0.36567000  0.63390000  0.38042000  1.0
  H  H29  1  0.51726000  0.45937000  0.72504000  1.0
  H  H30  1  0.48275000  0.54063000  0.27497000  1.0
  H  H31  1  0.65286000  0.61987000  0.71999000  1.0
  H  H32  1  0.34715000  0.38013000  0.28001000  1.0
  H  H33  1  0.09254000  0.31913000  0.38402000  1.0
  H  H34  1  0.90746000  0.68087000  0.61598000  1.0
  H  H35  1  0.29879000  0.29460000  0.67366000  1.0
  H  H36  1  0.70121000  0.70540000  0.32634000  1.0
  H  H37  1  0.22040000  0.41993000  0.65965000  1.0
  H  H38  1  0.77960000  0.58007000  0.34035000  1.0
  H  H39  1  0.08237000  0.31477000  0.71088000  1.0
  H  H40  1  0.91763000  0.68523000  0.28912000  1.0
  H  H41  1  0.72299000  0.38424000  0.90607000  1.0
  H  H42  1  0.27701000  0.61576000  0.09393000  1.0
  H  H43  1  0.85386000  0.48086000  0.91774000  1.0
  H  H44  1  0.14614000  0.51914000  0.08226000  1.0
  H  H45  1  0.85971000  0.35625000  0.00885000  1.0
  H  H46  1  0.14030000  0.64375000  0.99115000  1.0
  H  H47  1  0.27010000  0.18464000  0.11754000  1.0
  H  H48  1  0.72990000  0.81536000  0.88246000  1.0
  H  H49  1  0.25107000  0.15725000  0.00569000  1.0
  H  H50  1  0.74893000  0.84275000  0.99431000  1.0
  H  H51  1  0.06904000  0.20421000  0.05786000  1.0
  H  H52  1  0.93096000  0.79580000  0.94214000  1.0
  H  H53  1  0.01875000  0.57356000  0.77239000  1.0
  H  H54  1  0.98125000  0.42644000  0.22761000  1.0
  H  H55  1  0.09703000  0.75206000  0.73278000  1.0
  H  H56  1  0.90297000  0.24794000  0.26722000  1.0
  H  H57  1  0.37425000  0.79237000  0.79020000  1.0
  H  H58  1  0.62575000  0.20763000  0.20980000  1.0
  H  H59  1  0.56638000  0.65226000  0.89111000  1.0
  H  H60  1  0.43362000  0.34774000  0.10889000  1.0
  H  H61  1  0.48806000  0.47361000  0.92966000  1.0
  H  H62  1  0.51194000  0.52639000  0.07034000  1.0
  C  C63  1  0.41934000  0.05470000  0.70154000  1.0
  C  C64  1  0.58066000  0.94530000  0.29846000  1.0
  C  C65  1  0.33832000  0.05436000  0.78932000  1.0
  C  C66  1  0.66167000  0.94564000  0.21068000  1.0
  C  C67  1  0.17414000  0.01418000  0.81408000  1.0
  C  C68  1  0.82585000  0.98582000  0.18592000  1.0
  C  C69  1  0.09776000  0.97823000  0.74690000  1.0
  C  C70  1  0.90223000  0.02177000  0.25310000  1.0
  C  C71  1  0.18674000  0.98288000  0.66000000  1.0
  C  C72  1  0.81326000  0.01712000  0.34000000  1.0
  C  C73  1  0.08554000  0.00759000  0.90886000  1.0
  C  C74  1  0.91446000  0.99241000  0.09114000  1.0
  C  C75  1  0.93142000  0.06412000  0.90854000  1.0
  C  C76  1  0.06858000  0.93588000  0.09146000  1.0
  C  C77  1  0.15547000  0.94324000  0.99869000  1.0
  C  C78  1  0.84452000  0.05676000  0.00131000  1.0
  C  C79  1  0.85992000  0.13138000  0.81901000  1.0
  C  C80  1  0.14008000  0.86863000  0.18099000  1.0
  C  C81  1  0.71271000  0.18771000  0.82032000  1.0
  C  C82  1  0.28729000  0.81229000  0.17968000  1.0
  C  C83  1  0.62853000  0.18171000  0.91121000  1.0
  C  C84  1  0.37147000  0.81829000  0.08879000  1.0
  C  C85  1  0.30680000  0.88165000  0.00105000  1.0
  C  C86  1  0.69320000  0.11835000  0.99895000  1.0
  C  C87  1  0.59032000  0.23995000  0.46191000  1.0
  C  C88  1  0.40968000  0.76005000  0.53809000  1.0
  C  C89  1  0.66943000  0.32654000  0.46219000  1.0
  C  C90  1  0.33057000  0.67346000  0.53782000  1.0
  C  C91  1  0.83488000  0.31894000  0.49900000  1.0
  C  C92  1  0.16512000  0.68106000  0.50100000  1.0
  C  C93  1  0.91334000  0.22211000  0.53382000  1.0
  C  C94  1  0.08666000  0.77789000  0.46617000  1.0
  C  C95  1  0.82511000  0.13915000  0.53113000  1.0
  C  C96  1  0.17489000  0.86085000  0.46887000  1.0
  C  C97  1  0.92040000  0.41057000  0.50024000  1.0
  C  C98  1  0.07960000  0.58944000  0.49976000  1.0
  C  C99  1  0.84568000  0.46681000  0.55679000  1.0
  C  C100  1  0.15432000  0.53319000  0.44321000  1.0
  C  C101  1  0.07363000  0.44217000  0.44377000  1.0
  C  C102  1  0.92637000  0.55783000  0.55622000  1.0
  C  C103  1  0.69581000  0.43456000  0.61854000  1.0
  C  C104  1  0.30419000  0.56544000  0.38146000  1.0
  C  C105  1  0.62936000  0.48708000  0.67686000  1.0
  C  C106  1  0.37065000  0.51292000  0.32315000  1.0
  C  C107  1  0.70712000  0.57717000  0.67494000  1.0
  C  C108  1  0.29288000  0.42283000  0.32506000  1.0
  C  C109  1  0.14946000  0.38866000  0.38377000  1.0
  C  C110  1  0.85054000  0.61134000  0.61623000  1.0
  C  C111  1  0.21517000  0.33948000  0.70715000  1.0
  C  C112  1  0.78483000  0.66052000  0.29285000  1.0
  C  C113  1  0.84787000  0.39935000  0.92944000  1.0
  C  C114  1  0.15213000  0.60065000  0.07057000  1.0
  C  C115  1  0.20903000  0.20878000  0.04541000  1.0
  C  C116  1  0.79097000  0.79122000  0.95459000  1.0
  C  C117  1  0.24781000  0.50986000  0.85349000  1.0
  C  C118  1  0.75219000  0.49014000  0.14651000  1.0
  C  C119  1  0.13948000  0.59018000  0.79828000  1.0
  C  C120  1  0.86052000  0.40982000  0.20172000  1.0
  C  C121  1  0.18375000  0.69127000  0.77577000  1.0
  C  C122  1  0.81625000  0.30873000  0.22423000  1.0
  C  C123  1  0.33781000  0.71377000  0.80850000  1.0
  C  C124  1  0.66219000  0.28623000  0.19150000  1.0
  C  C125  1  0.44704000  0.63510000  0.86407000  1.0
  C  C126  1  0.55297000  0.36490000  0.13594000  1.0
  C  C127  1  0.40215000  0.53429000  0.88606000  1.0
  C  C128  1  0.59786000  0.46571000  0.11394000  1.0
  I  I129  1  0.25428000  0.13333000  0.35566000  1.0
  I  I130  1  0.74572000  0.86666000  0.64434000  1.0
  N  N131  1  0.34507000  0.01967000  0.63769000  1.0
  N  N132  1  0.65493000  0.98032000  0.36231000  1.0
  N  N133  1  0.66621000  0.14716000  0.49604000  1.0
  N  N134  1  0.33379000  0.85284000  0.50396000  1.0
  O  O135  1  0.27520000  0.32369000  0.80390000  1.0
  O  O136  1  0.72480000  0.67631000  0.19610000  1.0
  O  O137  1  0.97721000  0.36839000  0.87159000  1.0
  O  O138  1  0.02279000  0.63161000  0.12841000  1.0
  O  O139  1  0.25699000  0.31117000  0.99136000  1.0
  O  O140  1  0.74301000  0.68883000  0.00864000  1.0
