# generated using pymatgen
data_KCrH6C14(NO4)2
_symmetry_space_group_name_H-M   'P 1'
_cell_length_a   6.86877000
_cell_length_b   6.87254000
_cell_length_c   15.65013317
_cell_angle_alpha   102.62241627
_cell_angle_beta   102.61697114
_cell_angle_gamma   90.08870000
_symmetry_Int_Tables_number   1
_chemical_formula_structural   KCrH6C14(NO4)2
_chemical_formula_sum   'K2 Cr2 H12 C28 N4 O16'
_cell_volume   702.57179508
_cell_formula_units_Z   2
loop_
 _symmetry_equiv_pos_site_id
 _symmetry_equiv_pos_as_xyz
  1  'x, y, z'
loop_
 _atom_site_type_symbol
 _atom_site_label
 _atom_site_symmetry_multiplicity
 _atom_site_fract_x
 _atom_site_fract_y
 _atom_site_fract_z
 _atom_site_occupancy
  K  K0  1  0.87421000  0.12468000  0.75013000  1.0
  K  K1  1  0.12516000  0.87554000  0.24982000  1.0
  Cr  Cr2  1  0.37530000  0.62520000  0.75077000  1.0
  Cr  Cr3  1  0.62508000  0.37519000  0.25003000  1.0
  H  H4  1  0.34848000  0.76690000  0.44727000  1.0
  H  H5  1  0.76505000  0.09770000  0.94713000  1.0
  H  H6  1  0.09906000  0.18129000  0.44730000  1.0
  H  H7  1  0.18116000  0.34943000  0.94742000  1.0
  H  H8  1  0.65084000  0.23381000  0.55304000  1.0
  H  H9  1  0.23435000  0.90114000  0.05245000  1.0
  H  H10  1  0.90097000  0.81868000  0.55296000  1.0
  H  H11  1  0.81893000  0.65134000  0.05233000  1.0
  H  H12  1  0.18123000  0.43079000  0.36085000  1.0
  H  H13  1  0.42978000  0.18022000  0.86127000  1.0
  H  H14  1  0.81822000  0.56936000  0.63904000  1.0
  H  H15  1  0.57002000  0.81984000  0.13874000  1.0
  C  C16  1  0.35475000  0.69489000  0.57447000  1.0
  C  C17  1  0.69441000  0.21888000  0.07463000  1.0
  C  C18  1  0.21879000  0.38041000  0.57449000  1.0
  C  C19  1  0.38000000  0.35647000  0.07479000  1.0
  C  C20  1  0.64446000  0.30496000  0.42554000  1.0
  C  C21  1  0.30516000  0.78054000  0.92520000  1.0
  C  C22  1  0.78127000  0.61992000  0.42552000  1.0
  C  C23  1  0.62053000  0.64375000  0.92510000  1.0
  C  C24  1  0.46622000  0.87441000  0.63957000  1.0
  C  C25  1  0.87496000  0.17249000  0.13978000  1.0
  C  C26  1  0.17322000  0.26533000  0.63962000  1.0
  C  C27  1  0.26488000  0.46811000  0.14006000  1.0
  C  C28  1  0.53277000  0.12447000  0.36031000  1.0
  C  C29  1  0.12547000  0.82662000  0.86035000  1.0
  C  C30  1  0.82806000  0.73537000  0.36031000  1.0
  C  C31  1  0.73546000  0.53297000  0.86016000  1.0
  C  C32  1  0.30894000  0.65462000  0.48100000  1.0
  C  C33  1  0.65358000  0.17142000  0.98112000  1.0
  C  C34  1  0.17192000  0.32733000  0.48101000  1.0
  C  C35  1  0.32679000  0.30992000  0.98130000  1.0
  C  C36  1  0.69028000  0.34558000  0.51905000  1.0
  C  C37  1  0.34622000  0.82784000  0.01858000  1.0
  C  C38  1  0.82791000  0.67288000  0.51902000  1.0
  C  C39  1  0.67310000  0.69048000  0.01846000  1.0
  C  C40  1  0.21742000  0.46755000  0.43426000  1.0
  C  C41  1  0.46674000  0.21719000  0.93465000  1.0
  C  C42  1  0.78204000  0.53261000  0.56564000  1.0
  C  C43  1  0.53322000  0.78281000  0.06536000  1.0
  N  N44  1  0.30840000  0.55936000  0.61798000  1.0
  N  N45  1  0.55882000  0.30927000  0.11773000  1.0
  N  N46  1  0.69150000  0.44098000  0.38254000  1.0
  N  N47  1  0.44085000  0.69012000  0.88131000  1.0
  O  O48  1  0.48766000  0.86286000  0.72407000  1.0
  O  O49  1  0.86713000  0.23615000  0.22453000  1.0
  O  O50  1  0.23933000  0.35955000  0.72413000  1.0
  O  O51  1  0.35756000  0.48896000  0.22476000  1.0
  O  O52  1  0.51130000  0.13282000  0.27567000  1.0
  O  O53  1  0.13511000  0.76208000  0.77557000  1.0
  O  O54  1  0.76464000  0.64299000  0.27565000  1.0
  O  O55  1  0.64097000  0.51277000  0.77549000  1.0
  O  O56  1  0.53924000  0.01301000  0.61573000  1.0
  O  O57  1  0.01164000  0.07470000  0.11468000  1.0
  O  O58  1  0.07491000  0.10382000  0.61583000  1.0
  O  O59  1  0.10316000  0.54100000  0.11510000  1.0
  O  O60  1  0.45998000  0.98760000  0.38549000  1.0
  O  O61  1  0.98761000  0.92448000  0.88420000  1.0
  O  O62  1  0.92635000  0.89711000  0.38555000  1.0
  O  O63  1  0.89745000  0.45945000  0.88407000  1.0
