# generated using pymatgen
data_AgH14C21SN2(OF)3
_symmetry_space_group_name_H-M   'P 1'
_cell_length_a   9.06456000
_cell_length_b   14.04990000
_cell_length_c   16.87280000
_cell_angle_alpha   89.99980000
_cell_angle_beta   96.07430000
_cell_angle_gamma   89.99980000
_symmetry_Int_Tables_number   1
_chemical_formula_structural   AgH14C21SN2(OF)3
_chemical_formula_sum   'Ag4 H56 C84 S4 N8 O12 F12'
_cell_volume   2136.79031477
_cell_formula_units_Z   4
loop_
 _symmetry_equiv_pos_site_id
 _symmetry_equiv_pos_as_xyz
  1  'x, y, z'
loop_
 _atom_site_type_symbol
 _atom_site_label
 _atom_site_symmetry_multiplicity
 _atom_site_fract_x
 _atom_site_fract_y
 _atom_site_fract_z
 _atom_site_occupancy
  Ag  Ag0  1  0.78817000  0.64080000  0.28343000  1.0
  Ag  Ag1  1  0.71183000  0.14080000  0.21657000  1.0
  Ag  Ag2  1  0.21182000  0.35920000  0.71658000  1.0
  Ag  Ag3  1  0.28817000  0.85920000  0.78343000  1.0
  H  H4  1  0.00828000  0.56616000  0.20737000  1.0
  H  H5  1  0.49172000  0.06616000  0.29263000  1.0
  H  H6  1  0.99172000  0.43384000  0.79263000  1.0
  H  H7  1  0.50827000  0.93384000  0.70737000  1.0
  H  H8  1  0.19187000  0.47932000  0.13484000  1.0
  H  H9  1  0.30814000  0.97932000  0.36517000  1.0
  H  H10  1  0.80813000  0.52068000  0.86517000  1.0
  H  H11  1  0.69185000  0.02067000  0.63483000  1.0
  H  H12  1  0.16645000  0.30513000  0.11063000  1.0
  H  H13  1  0.33356000  0.80513000  0.38937000  1.0
  H  H14  1  0.83356000  0.69487000  0.88937000  1.0
  H  H15  1  0.66644000  0.19487000  0.61063000  1.0
  H  H16  1  0.95522000  0.21615000  0.15939000  1.0
  H  H17  1  0.54479000  0.71615000  0.34062000  1.0
  H  H18  1  0.04478000  0.78385000  0.84061000  1.0
  H  H19  1  0.45522000  0.28385000  0.65938000  1.0
  H  H20  1  0.36238000  0.45164000  0.26746000  1.0
  H  H21  1  0.13761000  0.95165000  0.23255000  1.0
  H  H22  1  0.63762000  0.54835000  0.73254000  1.0
  H  H23  1  0.86239000  0.04835000  0.76746000  1.0
  H  H24  1  0.20132000  0.54933000  0.34662000  1.0
  H  H25  1  0.29868000  0.04933000  0.15338000  1.0
  H  H26  1  0.79868000  0.45066000  0.65338000  1.0
  H  H27  1  0.70132000  0.95067000  0.84662000  1.0
  H  H28  1  0.31097000  0.64090000  0.46264000  1.0
  H  H29  1  0.18903000  0.14090000  0.03737000  1.0
  H  H30  1  0.68903000  0.35909000  0.53736000  1.0
  H  H31  1  0.81097000  0.85910000  0.96263000  1.0
  H  H32  1  0.58506000  0.63634000  0.50191000  1.0
  H  H33  1  0.91495000  0.13634000  0.99809000  1.0
  H  H34  1  0.41494000  0.36366000  0.49809000  1.0
  H  H35  1  0.08505000  0.86366000  0.00191000  1.0
  H  H36  1  0.74669000  0.54221000  0.42249000  1.0
  H  H37  1  0.75331000  0.04220000  0.07750000  1.0
  H  H38  1  0.25331000  0.45779000  0.57751000  1.0
  H  H39  1  0.24669000  0.95780000  0.92250000  1.0
  H  H40  1  0.38531000  0.28214000  0.20451000  1.0
  H  H41  1  0.11470000  0.78215000  0.29549000  1.0
  H  H42  1  0.61470000  0.71785000  0.79549000  1.0
  H  H43  1  0.88529000  0.21786000  0.70452000  1.0
  H  H44  1  0.18781000  0.19351000  0.26447000  1.0
  H  H45  1  0.31219000  0.69351000  0.23552000  1.0
  H  H46  1  0.81220000  0.80649000  0.73553000  1.0
  H  H47  1  0.68780000  0.30649000  0.76448000  1.0
  H  H48  1  0.22630000  0.14334000  0.40716000  1.0
  H  H49  1  0.27370000  0.64335000  0.09284000  1.0
  H  H50  1  0.77370000  0.85665000  0.59284000  1.0
  H  H51  1  0.72630000  0.35666000  0.90717000  1.0
  H  H52  1  0.46752000  0.17414000  0.48661000  1.0
  H  H53  1  0.03248000  0.67415000  0.01339000  1.0
  H  H54  1  0.53249000  0.82584000  0.51339000  1.0
  H  H55  1  0.96752000  0.32585000  0.98661000  1.0
  H  H56  1  0.66592000  0.26260000  0.42730000  1.0
  H  H57  1  0.83408000  0.76261000  0.07270000  1.0
  H  H58  1  0.33409000  0.73739000  0.57270000  1.0
  H  H59  1  0.16592000  0.23739000  0.92729000  1.0
  C  C60  1  0.66611000  0.43843000  0.29169000  1.0
  C  C61  1  0.83389000  0.93843000  0.20831000  1.0
  C  C62  1  0.33389000  0.56157000  0.70832000  1.0
  C  C63  1  0.16611000  0.06157000  0.79169000  1.0
  C  C64  1  0.87787000  0.44027000  0.22418000  1.0
  C  C65  1  0.62213000  0.94028000  0.27581000  1.0
  C  C66  1  0.12212000  0.55973000  0.77582000  1.0
  C  C67  1  0.37787000  0.05973000  0.72418000  1.0
  C  C68  1  0.99786000  0.48975000  0.19640000  1.0
  C  C69  1  0.50215000  0.98975000  0.30360000  1.0
  C  C70  1  0.00214000  0.51025000  0.80360000  1.0
  C  C71  1  0.49785000  0.01025000  0.69640000  1.0
  C  C72  1  0.09945000  0.44104000  0.15642000  1.0
  C  C73  1  0.40056000  0.94104000  0.34358000  1.0
  C  C74  1  0.90055000  0.55896000  0.84358000  1.0
  C  C75  1  0.59945000  0.05896000  0.65642000  1.0
  C  C76  1  0.08479000  0.34191000  0.14262000  1.0
  C  C77  1  0.41522000  0.84191000  0.35738000  1.0
  C  C78  1  0.91521000  0.65810000  0.85738000  1.0
  C  C79  1  0.58479000  0.15809000  0.64262000  1.0
  C  C80  1  0.96876000  0.29238000  0.16972000  1.0
  C  C81  1  0.53125000  0.79238000  0.33029000  1.0
  C  C82  1  0.03125000  0.70762000  0.83028000  1.0
  C  C83  1  0.46875000  0.20762000  0.66971000  1.0
  C  C84  1  0.86376000  0.34024000  0.21095000  1.0
  C  C85  1  0.63624000  0.84025000  0.28905000  1.0
  C  C86  1  0.13624000  0.65976000  0.78905000  1.0
  C  C87  1  0.36376000  0.15976000  0.71095000  1.0
  C  C88  1  0.65319000  0.33770000  0.27905000  1.0
  C  C89  1  0.84681000  0.83771000  0.22095000  1.0
  C  C90  1  0.34682000  0.66229000  0.72095000  1.0
  C  C91  1  0.15318000  0.16230000  0.77905000  1.0
  C  C92  1  0.56532000  0.49166000  0.33889000  1.0
  C  C93  1  0.93468000  0.99166000  0.16111000  1.0
  C  C94  1  0.43468000  0.50834000  0.66111000  1.0
  C  C95  1  0.06532000  0.00835000  0.83889000  1.0
  C  C96  1  0.41110000  0.49245000  0.31854000  1.0
  C  C97  1  0.08890000  0.99245000  0.18146000  1.0
  C  C98  1  0.58890000  0.50755000  0.68146000  1.0
  C  C99  1  0.91110000  0.00755000  0.81854000  1.0
  C  C100  1  0.32083000  0.54699000  0.36275000  1.0
  C  C101  1  0.17917000  0.04699000  0.13725000  1.0
  C  C102  1  0.67917000  0.45301000  0.63725000  1.0
  C  C103  1  0.82083000  0.95301000  0.86275000  1.0
  C  C104  1  0.38308000  0.59893000  0.42863000  1.0
  C  C105  1  0.11692000  0.09893000  0.07137000  1.0
  C  C106  1  0.61691000  0.40106000  0.57137000  1.0
  C  C107  1  0.88308000  0.90107000  0.92863000  1.0
  C  C108  1  0.53601000  0.59716000  0.45001000  1.0
  C  C109  1  0.96399000  0.09716000  0.04999000  1.0
  C  C110  1  0.46399000  0.40284000  0.54999000  1.0
  C  C111  1  0.03601000  0.90284000  0.95001000  1.0
  C  C112  1  0.62754000  0.54476000  0.40489000  1.0
  C  C113  1  0.87246000  0.04476000  0.09510000  1.0
  C  C114  1  0.37245000  0.45523000  0.59511000  1.0
  C  C115  1  0.12754000  0.95524000  0.90490000  1.0
  C  C116  1  0.53626000  0.28077000  0.31280000  1.0
  C  C117  1  0.96375000  0.78077000  0.18720000  1.0
  C  C118  1  0.46375000  0.71922000  0.68720000  1.0
  C  C119  1  0.03625000  0.21923000  0.81280000  1.0
  C  C120  1  0.40258000  0.25932000  0.26658000  1.0
  C  C121  1  0.09742000  0.75932000  0.23342000  1.0
  C  C122  1  0.59743000  0.74068000  0.73342000  1.0
  C  C123  1  0.90257000  0.24068000  0.76658000  1.0
  C  C124  1  0.29193000  0.20912000  0.30040000  1.0
  C  C125  1  0.20808000  0.70913000  0.19960000  1.0
  C  C126  1  0.70808000  0.79087000  0.69960000  1.0
  C  C127  1  0.79192000  0.29088000  0.80040000  1.0
  C  C128  1  0.31418000  0.17979000  0.37983000  1.0
  C  C129  1  0.18582000  0.67980000  0.12016000  1.0
  C  C130  1  0.68582000  0.82020000  0.62017000  1.0
  C  C131  1  0.81418000  0.32021000  0.87984000  1.0
  C  C132  1  0.44934000  0.19816000  0.42496000  1.0
  C  C133  1  0.05066000  0.69817000  0.07504000  1.0
  C  C134  1  0.55066000  0.80183000  0.57505000  1.0
  C  C135  1  0.94934000  0.30184000  0.92496000  1.0
  C  C136  1  0.56047000  0.24862000  0.39186000  1.0
  C  C137  1  0.93953000  0.74863000  0.10814000  1.0
  C  C138  1  0.43954000  0.75137000  0.60814000  1.0
  C  C139  1  0.06047000  0.25138000  0.89186000  1.0
  C  C140  1  0.99395000  0.66710000  0.55237000  1.0
  C  C141  1  0.50606000  0.16709000  0.94762000  1.0
  C  C142  1  0.00606000  0.33290000  0.44763000  1.0
  C  C143  1  0.49394000  0.83291000  0.05237000  1.0
  S  S144  1  0.99139000  0.72564000  0.45286000  1.0
  S  S145  1  0.50860000  0.22564000  0.04714000  1.0
  S  S146  1  0.00860000  0.27436000  0.54714000  1.0
  S  S147  1  0.49140000  0.77436000  0.95286000  1.0
  N  N148  1  0.77572000  0.48738000  0.26363000  1.0
  N  N149  1  0.72429000  0.98739000  0.23636000  1.0
  N  N150  1  0.22428000  0.51261000  0.73637000  1.0
  N  N151  1  0.27571000  0.01262000  0.76363000  1.0
  N  N152  1  0.74979000  0.29130000  0.23926000  1.0
  N  N153  1  0.75021000  0.79130000  0.26074000  1.0
  N  N154  1  0.25021000  0.70870000  0.76074000  1.0
  N  N155  1  0.24978000  0.20870000  0.73926000  1.0
  O  O156  1  0.98369000  0.64272000  0.39905000  1.0
  O  O157  1  0.51631000  0.14272000  0.10095000  1.0
  O  O158  1  0.01631000  0.35728000  0.60095000  1.0
  O  O159  1  0.48369000  0.85728000  0.89905000  1.0
  O  O160  1  0.13291000  0.77596000  0.45840000  1.0
  O  O161  1  0.36709000  0.27596000  0.04159000  1.0
  O  O162  1  0.86708000  0.22405000  0.54160000  1.0
  O  O163  1  0.63290000  0.72404000  0.95841000  1.0
  O  O164  1  0.85876000  0.78436000  0.44709000  1.0
  O  O165  1  0.64124000  0.28436000  0.05291000  1.0
  O  O166  1  0.14123000  0.21564000  0.55291000  1.0
  O  O167  1  0.35875000  0.71565000  0.94709000  1.0
  F  F168  1  0.01013000  0.73217000  0.61250000  1.0
  F  F169  1  0.48989000  0.23217000  0.88750000  1.0
  F  F170  1  0.98988000  0.26783000  0.38750000  1.0
  F  F171  1  0.51011000  0.76784000  0.11250000  1.0
  F  F172  1  0.11020000  0.60509000  0.56457000  1.0
  F  F173  1  0.38980000  0.10509000  0.93543000  1.0
  F  F174  1  0.88980000  0.39491000  0.43543000  1.0
  F  F175  1  0.61020000  0.89491000  0.06457000  1.0
  F  F176  1  0.86783000  0.61724000  0.55918000  1.0
  F  F177  1  0.63217000  0.11723000  0.94082000  1.0
  F  F178  1  0.13217000  0.38276000  0.44082000  1.0
  F  F179  1  0.36783000  0.88277000  0.05917000  1.0
