# generated using pymatgen
data_ZnH22C24(NO)4
_symmetry_space_group_name_H-M   'P 1'
_cell_length_a   10.72930000
_cell_length_b   21.49620000
_cell_length_c   21.49663804
_cell_angle_alpha   117.28543421
_cell_angle_beta   99.57283091
_cell_angle_gamma   99.55700000
_symmetry_Int_Tables_number   1
_chemical_formula_structural   ZnH22C24(NO)4
_chemical_formula_sum   'Zn6 H132 C144 N24 O24'
_cell_volume   4175.63052867
_cell_formula_units_Z   6
loop_
 _symmetry_equiv_pos_site_id
 _symmetry_equiv_pos_as_xyz
  1  'x, y, z'
loop_
 _atom_site_type_symbol
 _atom_site_label
 _atom_site_symmetry_multiplicity
 _atom_site_fract_x
 _atom_site_fract_y
 _atom_site_fract_z
 _atom_site_occupancy
  Zn  Zn0  1  0.55085000  0.84813000  0.62836000  1.0
  Zn  Zn1  1  0.92251000  0.37186000  0.21974000  1.0
  Zn  Zn2  1  0.70291000  0.78038000  0.15210000  1.0
  Zn  Zn3  1  0.44915000  0.15187000  0.37164000  1.0
  Zn  Zn4  1  0.07748000  0.62813000  0.78025000  1.0
  Zn  Zn5  1  0.29708000  0.21962000  0.84790000  1.0
  H  H6  1  0.77612000  0.61825000  0.25736000  1.0
  H  H7  1  0.51893000  0.74269000  0.36089000  1.0
  H  H8  1  0.15803000  0.63924000  0.38198000  1.0
  H  H9  1  0.22386000  0.38175000  0.74263000  1.0
  H  H10  1  0.48106000  0.25730000  0.63911000  1.0
  H  H11  1  0.84197000  0.36077000  0.61802000  1.0
  H  H12  1  0.90540000  0.54435000  0.40508000  1.0
  H  H13  1  0.50026000  0.59506000  0.13924000  1.0
  H  H14  1  0.36174000  0.86060000  0.45551000  1.0
  H  H15  1  0.09461000  0.45565000  0.59491000  1.0
  H  H16  1  0.49975000  0.40493000  0.86076000  1.0
  H  H17  1  0.63827000  0.13940000  0.54450000  1.0
  H  H18  1  0.76498000  0.73311000  0.36098000  1.0
  H  H19  1  0.40416000  0.63907000  0.37210000  1.0
  H  H20  1  0.03193000  0.62798000  0.26712000  1.0
  H  H21  1  0.23500000  0.26689000  0.63902000  1.0
  H  H22  1  0.59584000  0.36092000  0.62790000  1.0
  H  H23  1  0.96806000  0.37201000  0.73287000  1.0
  H  H24  1  0.89679000  0.65971000  0.50977000  1.0
  H  H25  1  0.38663000  0.49043000  0.14981000  1.0
  H  H26  1  0.23753000  0.84999000  0.34027000  1.0
  H  H27  1  0.10320000  0.34028000  0.49022000  1.0
  H  H28  1  0.61338000  0.50957000  0.85019000  1.0
  H  H29  1  0.76247000  0.15000000  0.65973000  1.0
  H  H30  1  0.66684000  0.64303000  0.50094000  1.0
  H  H31  1  0.16535000  0.49925000  0.14203000  1.0
  H  H32  1  0.02426000  0.85818000  0.35710000  1.0
  H  H33  1  0.33315000  0.35697000  0.49906000  1.0
  H  H34  1  0.83464000  0.50074000  0.85796000  1.0
  H  H35  1  0.97574000  0.14182000  0.64290000  1.0
  H  H36  1  0.68146000  0.69424000  0.59528000  1.0
  H  H37  1  0.08561000  0.40496000  0.09901000  1.0
  H  H38  1  0.98721000  0.90112000  0.30577000  1.0
  H  H39  1  0.31854000  0.30577000  0.40473000  1.0
  H  H40  1  0.91439000  0.59504000  0.90099000  1.0
  H  H41  1  0.01280000  0.09889000  0.69424000  1.0
  H  H42  1  0.54047000  0.68352000  0.53001000  1.0
  H  H43  1  0.01016000  0.47029000  0.15371000  1.0
  H  H44  1  0.85732000  0.84666000  0.31677000  1.0
  H  H45  1  0.45953000  0.31649000  0.47000000  1.0
  H  H46  1  0.98984000  0.52971000  0.84629000  1.0
  H  H47  1  0.14268000  0.15334000  0.68323000  1.0
  H  H48  1  0.33379000  0.59491000  0.68290000  1.0
  H  H49  1  0.65009000  0.31738000  0.91206000  1.0
  H  H50  1  0.73842000  0.08824000  0.40519000  1.0
  H  H51  1  0.66622000  0.40508000  0.31710000  1.0
  H  H52  1  0.34991000  0.68263000  0.08794000  1.0
  H  H53  1  0.26158000  0.91177000  0.59482000  1.0
  H  H54  1  0.21436000  0.61912000  0.63830000  1.0
  H  H55  1  0.57525000  0.36198000  0.98089000  1.0
  H  H56  1  0.59481000  0.01952000  0.38116000  1.0
  H  H57  1  0.78565000  0.38087000  0.36170000  1.0
  H  H58  1  0.42475000  0.63802000  0.01911000  1.0
  H  H59  1  0.40519000  0.98048000  0.61884000  1.0
  H  H60  1  0.32322000  0.57480000  0.59164000  1.0
  H  H61  1  0.73081000  0.40858000  0.98326000  1.0
  H  H62  1  0.74806000  0.01715000  0.42538000  1.0
  H  H63  1  0.67678000  0.42519000  0.40836000  1.0
  H  H64  1  0.26919000  0.59142000  0.01674000  1.0
  H  H65  1  0.25194000  0.98286000  0.57463000  1.0
  H  H66  1  0.37929000  0.74523000  0.84077000  1.0
  H  H67  1  0.53818000  0.15935000  0.90443000  1.0
  H  H68  1  0.63382000  0.09567000  0.25468000  1.0
  H  H69  1  0.62070000  0.25477000  0.15923000  1.0
  H  H70  1  0.46184000  0.84067000  0.09557000  1.0
  H  H71  1  0.36619000  0.90433000  0.74532000  1.0
  H  H72  1  0.70648000  0.85619000  0.84250000  1.0
  H  H73  1  0.86421000  0.15785000  0.01378000  1.0
  H  H74  1  0.85036000  0.98611000  0.14386000  1.0
  H  H75  1  0.29351000  0.14381000  0.15750000  1.0
  H  H76  1  0.13579000  0.84214000  0.98621000  1.0
  H  H77  1  0.14964000  0.01390000  0.85615000  1.0
  H  H78  1  0.76529000  0.86251000  0.77250000  1.0
  H  H79  1  0.99293000  0.22790000  0.09005000  1.0
  H  H80  1  0.90268000  0.90980000  0.13773000  1.0
  H  H81  1  0.23471000  0.13749000  0.22750000  1.0
  H  H82  1  0.00707000  0.77209000  0.90994000  1.0
  H  H83  1  0.09732000  0.09020000  0.86227000  1.0
  H  H84  1  0.64994000  0.90988000  0.80656000  1.0
  H  H85  1  0.84368000  0.19380000  0.10342000  1.0
  H  H86  1  0.74011000  0.89655000  0.09029000  1.0
  H  H87  1  0.35006000  0.09013000  0.19344000  1.0
  H  H88  1  0.15633000  0.80621000  0.89658000  1.0
  H  H89  1  0.25989000  0.10346000  0.90972000  1.0
  H  H90  1  0.97196000  0.84333000  0.46214000  1.0
  H  H91  1  0.50983000  0.53776000  0.38114000  1.0
  H  H92  1  0.12891000  0.61887000  0.15668000  1.0
  H  H93  1  0.02805000  0.15668000  0.53787000  1.0
  H  H94  1  0.49017000  0.46223000  0.61886000  1.0
  H  H95  1  0.87109000  0.38113000  0.84332000  1.0
  H  H96  1  0.86302000  0.89767000  0.46414000  1.0
  H  H97  1  0.39868000  0.53579000  0.43336000  1.0
  H  H98  1  0.96562000  0.56666000  0.10239000  1.0
  H  H99  1  0.13698000  0.10233000  0.53586000  1.0
  H  H100  1  0.60132000  0.46421000  0.56664000  1.0
  H  H101  1  0.03438000  0.43333000  0.89760000  1.0
  H  H102  1  0.99321000  0.92681000  0.54316000  1.0
  H  H103  1  0.44986000  0.45673000  0.38355000  1.0
  H  H104  1  0.06671000  0.61649000  0.07321000  1.0
  H  H105  1  0.00678000  0.07318000  0.45684000  1.0
  H  H106  1  0.55013000  0.54327000  0.61645000  1.0
  H  H107  1  0.93329000  0.38350000  0.92678000  1.0
  H  H108  1  0.45873000  0.74058000  0.95408000  1.0
  H  H109  1  0.50479000  0.04600000  0.78664000  1.0
  H  H110  1  0.71812000  0.21356000  0.25930000  1.0
  H  H111  1  0.54126000  0.25943000  0.04592000  1.0
  H  H112  1  0.49522000  0.95401000  0.21336000  1.0
  H  H113  1  0.28189000  0.78644000  0.74070000  1.0
  H  H114  1  0.79521000  0.67996000  0.88627000  1.0
  H  H115  1  0.90905000  0.11388000  0.79402000  1.0
  H  H116  1  0.11493000  0.20603000  0.31977000  1.0
  H  H117  1  0.20479000  0.32004000  0.11374000  1.0
  H  H118  1  0.09096000  0.88612000  0.20598000  1.0
  H  H119  1  0.88506000  0.79397000  0.68024000  1.0
  H  H120  1  0.72373000  0.69189000  0.77644000  1.0
  H  H121  1  0.94695000  0.22368000  0.91568000  1.0
  H  H122  1  0.03133000  0.08435000  0.30789000  1.0
  H  H123  1  0.27627000  0.30810000  0.22356000  1.0
  H  H124  1  0.05307000  0.77632000  0.08432000  1.0
  H  H125  1  0.96867000  0.91566000  0.69213000  1.0
  H  H126  1  0.77626000  0.92652000  0.60630000  1.0
  H  H127  1  0.17005000  0.39371000  0.32011000  1.0
  H  H128  1  0.85002000  0.67995000  0.07362000  1.0
  H  H129  1  0.22374000  0.07348000  0.39370000  1.0
  H  H130  1  0.82995000  0.60629000  0.67990000  1.0
  H  H131  1  0.14997000  0.32006000  0.92639000  1.0
  H  H132  1  0.36445000  0.70893000  0.58235000  1.0
  H  H133  1  0.78162000  0.41788000  0.12655000  1.0
  H  H134  1  0.65532000  0.87366000  0.29141000  1.0
  H  H135  1  0.63555000  0.29107000  0.41765000  1.0
  H  H136  1  0.21838000  0.58212000  0.87345000  1.0
  H  H137  1  0.34469000  0.12635000  0.70860000  1.0
  C  C138  1  0.79880000  0.76448000  0.50037000  1.0
  C  C139  1  0.29836000  0.49971000  0.26398000  1.0
  C  C140  1  0.03459000  0.73602000  0.23567000  1.0
  C  C141  1  0.20120000  0.23552000  0.49963000  1.0
  C  C142  1  0.70163000  0.50027000  0.73601000  1.0
  C  C143  1  0.96542000  0.26398000  0.76433000  1.0
  C  C144  1  0.71606000  0.75773000  0.54309000  1.0
  C  C145  1  0.17287000  0.45705000  0.21458000  1.0
  C  C146  1  0.95856000  0.78549000  0.24243000  1.0
  C  C147  1  0.28394000  0.24227000  0.45691000  1.0
  C  C148  1  0.82713000  0.54295000  0.78542000  1.0
  C  C149  1  0.04144000  0.21451000  0.75757000  1.0
  C  C150  1  0.83840000  0.57386000  0.32489000  1.0
  C  C151  1  0.51371000  0.67523000  0.24897000  1.0
  C  C152  1  0.26498000  0.75102000  0.42622000  1.0
  C  C153  1  0.16161000  0.42614000  0.67511000  1.0
  C  C154  1  0.48630000  0.32477000  0.75103000  1.0
  C  C155  1  0.73501000  0.24897000  0.57378000  1.0
  C  C156  1  0.83267000  0.83854000  0.52076000  1.0
  C  C157  1  0.31193000  0.47920000  0.31760000  1.0
  C  C158  1  0.99451000  0.68241000  0.16156000  1.0
  C  C159  1  0.16731000  0.16145000  0.47923000  1.0
  C  C160  1  0.68806000  0.52079000  0.68239000  1.0
  C  C161  1  0.00550000  0.31759000  0.83844000  1.0
  C  C162  1  0.50954000  0.73160000  0.73969000  1.0
  C  C163  1  0.76929000  0.26050000  0.99194000  1.0
  C  C164  1  0.77746000  0.00816000  0.26844000  1.0
  C  C165  1  0.49046000  0.26839000  0.26030000  1.0
  C  C166  1  0.23073000  0.73950000  0.00806000  1.0
  C  C167  1  0.22253000  0.99184000  0.73156000  1.0
  C  C168  1  0.68327000  0.71001000  0.99622000  1.0
  C  C169  1  0.68716000  0.00395000  0.71396000  1.0
  C  C170  1  0.97324000  0.28617000  0.28989000  1.0
  C  C171  1  0.31671000  0.28999000  0.00378000  1.0
  C  C172  1  0.31284000  0.99606000  0.28604000  1.0
  C  C173  1  0.02677000  0.71384000  0.71012000  1.0
  C  C174  1  0.41087000  0.68744000  0.67353000  1.0
  C  C175  1  0.73659000  0.32664000  0.01390000  1.0
  C  C176  1  0.72290000  0.98628000  0.31271000  1.0
  C  C177  1  0.58914000  0.31256000  0.32647000  1.0
  C  C178  1  0.26342000  0.67337000  0.98610000  1.0
  C  C179  1  0.27710000  0.01372000  0.68730000  1.0
  C  C180  1  0.80281000  0.62808000  0.31290000  1.0
  C  C181  1  0.49004000  0.68716000  0.31516000  1.0
  C  C182  1  0.17495000  0.68488000  0.37206000  1.0
  C  C183  1  0.19717000  0.37191000  0.68709000  1.0
  C  C184  1  0.50995000  0.31283000  0.68483000  1.0
  C  C185  1  0.82506000  0.31512000  0.62794000  1.0
  C  C186  1  0.63190000  0.70994000  0.92699000  1.0
  C  C187  1  0.70499000  0.07313000  0.78314000  1.0
  C  C188  1  0.92181000  0.21699000  0.28992000  1.0
  C  C189  1  0.36810000  0.29007000  0.07302000  1.0
  C  C190  1  0.29503000  0.92687000  0.21686000  1.0
  C  C191  1  0.07818000  0.78301000  0.71008000  1.0
  C  C192  1  0.87422000  0.58605000  0.39620000  1.0
  C  C193  1  0.47802000  0.60395000  0.18982000  1.0
  C  C194  1  0.28871000  0.81007000  0.41393000  1.0
  C  C195  1  0.12577000  0.41395000  0.60379000  1.0
  C  C196  1  0.52198000  0.39604000  0.81018000  1.0
  C  C197  1  0.71128000  0.18993000  0.58607000  1.0
  C  C198  1  0.56817000  0.79416000  0.73738000  1.0
  C  C199  1  0.83069000  0.26293000  0.05682000  1.0
  C  C200  1  0.77384000  0.94325000  0.20602000  1.0
  C  C201  1  0.43182000  0.20584000  0.26262000  1.0
  C  C202  1  0.16933000  0.73708000  0.94318000  1.0
  C  C203  1  0.22617000  0.05676000  0.79399000  1.0
  C  C204  1  0.54680000  0.71931000  0.80145000  1.0
  C  C205  1  0.74496000  0.19872000  0.91792000  1.0
  C  C206  1  0.82708000  0.08215000  0.28061000  1.0
  C  C207  1  0.45319000  0.28069000  0.19855000  1.0
  C  C208  1  0.25505000  0.80128000  0.08207000  1.0
  C  C209  1  0.17292000  0.91784000  0.71939000  1.0
  C  C210  1  0.82697000  0.70323000  0.44199000  1.0
  C  C211  1  0.38491000  0.55814000  0.26117000  1.0
  C  C212  1  0.12400000  0.73881000  0.29690000  1.0
  C  C213  1  0.17303000  0.29677000  0.55801000  1.0
  C  C214  1  0.61509000  0.44185000  0.73883000  1.0
  C  C215  1  0.87601000  0.26119000  0.70310000  1.0
  C  C216  1  0.84019000  0.50417000  0.26225000  1.0
  C  C217  1  0.57826000  0.73785000  0.24192000  1.0
  C  C218  1  0.33646000  0.75810000  0.49593000  1.0
  C  C219  1  0.15981000  0.49584000  0.73775000  1.0
  C  C220  1  0.42174000  0.26215000  0.75809000  1.0
  C  C221  1  0.66354000  0.24190000  0.50407000  1.0
  C  C222  1  0.79792000  0.69231000  0.37090000  1.0
  C  C223  1  0.42718000  0.62918000  0.32140000  1.0
  C  C224  1  0.10579000  0.67865000  0.30786000  1.0
  C  C225  1  0.20206000  0.30768000  0.62909000  1.0
  C  C226  1  0.57282000  0.37081000  0.67860000  1.0
  C  C227  1  0.89422000  0.32135000  0.69214000  1.0
  C  C228  1  0.86911000  0.65021000  0.45427000  1.0
  C  C229  1  0.41470000  0.54590000  0.19587000  1.0
  C  C230  1  0.21937000  0.80403000  0.34982000  1.0
  C  C231  1  0.13088000  0.34979000  0.54572000  1.0
  C  C232  1  0.58530000  0.45410000  0.80413000  1.0
  C  C233  1  0.78065000  0.19598000  0.65019000  1.0
  C  C234  1  0.64723000  0.69114000  0.54249000  1.0
  C  C235  1  0.10439000  0.45776000  0.14870000  1.0
  C  C236  1  0.95637000  0.85148000  0.30899000  1.0
  C  C237  1  0.35276000  0.30886000  0.45751000  1.0
  C  C238  1  0.89562000  0.54224000  0.85130000  1.0
  C  C239  1  0.04364000  0.14852000  0.69101000  1.0
  C  C240  1  0.31601000  0.61524000  0.64485000  1.0
  C  C241  1  0.67031000  0.35538000  0.97043000  1.0
  C  C242  1  0.70031000  0.02989000  0.38495000  1.0
  C  C243  1  0.68400000  0.38476000  0.35515000  1.0
  C  C244  1  0.32968000  0.64462000  0.02956000  1.0
  C  C245  1  0.29970000  0.97012000  0.61506000  1.0
  C  C246  1  0.47093000  0.73132000  0.85105000  1.0
  C  C247  1  0.61961000  0.14910000  0.88031000  1.0
  C  C248  1  0.73934000  0.11981000  0.26860000  1.0
  C  C249  1  0.52907000  0.26868000  0.14895000  1.0
  C  C250  1  0.38040000  0.85090000  0.11968000  1.0
  C  C251  1  0.26066000  0.88019000  0.73140000  1.0
  C  C252  1  0.67813000  0.85922000  0.79276000  1.0
  C  C253  1  0.88553000  0.20760000  0.06653000  1.0
  C  C254  1  0.81888000  0.93341000  0.14093000  1.0
  C  C255  1  0.32187000  0.14078000  0.20724000  1.0
  C  C256  1  0.11448000  0.79240000  0.93346000  1.0
  C  C257  1  0.18111000  0.06659000  0.85907000  1.0
  C  C258  1  0.91990000  0.87895000  0.49636000  1.0
  C  C259  1  0.42345000  0.50357000  0.38247000  1.0
  C  C260  1  0.04127000  0.61757000  0.12111000  1.0
  C  C261  1  0.08011000  0.12106000  0.50365000  1.0
  C  C262  1  0.57655000  0.49642000  0.61753000  1.0
  C  C263  1  0.95874000  0.38243000  0.87889000  1.0
  C  C264  1  0.51446000  0.72814000  0.91397000  1.0
  C  C265  1  0.60049000  0.08615000  0.81431000  1.0
  C  C266  1  0.78620000  0.18587000  0.27173000  1.0
  C  C267  1  0.48553000  0.27187000  0.08603000  1.0
  C  C268  1  0.39952000  0.91386000  0.18569000  1.0
  C  C269  1  0.21380000  0.81413000  0.72827000  1.0
  C  C270  1  0.70494000  0.69486000  0.87607000  1.0
  C  C271  1  0.82885000  0.12401000  0.81901000  1.0
  C  C272  1  0.00979000  0.18106000  0.30493000  1.0
  C  C273  1  0.29505000  0.30514000  0.12394000  1.0
  C  C274  1  0.17116000  0.87599000  0.18099000  1.0
  C  C275  1  0.99021000  0.81895000  0.69508000  1.0
  C  C276  1  0.66411000  0.70084000  0.81457000  1.0
  C  C277  1  0.84928000  0.18552000  0.88645000  1.0
  C  C278  1  0.96288000  0.11360000  0.29897000  1.0
  C  C279  1  0.33589000  0.29916000  0.18543000  1.0
  C  C280  1  0.15073000  0.81449000  0.11355000  1.0
  C  C281  1  0.03713000  0.88641000  0.70105000  1.0
  N  N282  1  0.70114000  0.82368000  0.58629000  1.0
  N  N283  1  0.11479000  0.41386000  0.23735000  1.0
  N  N284  1  0.87773000  0.76280000  0.17651000  1.0
  N  N285  1  0.29886000  0.17631000  0.41371000  1.0
  N  N286  1  0.88521000  0.58614000  0.76265000  1.0
  N  N287  1  0.12227000  0.23721000  0.82350000  1.0
  N  N288  1  0.41350000  0.72359000  0.63614000  1.0
  N  N289  1  0.77682000  0.36407000  0.08743000  1.0
  N  N290  1  0.68962000  0.91274000  0.27669000  1.0
  N  N291  1  0.58650000  0.27641000  0.36386000  1.0
  N  N292  1  0.22318000  0.63593000  0.91257000  1.0
  N  N293  1  0.31037000  0.08725000  0.72331000  1.0
  N  N294  1  0.50781000  0.78804000  0.67393000  1.0
  N  N295  1  0.83371000  0.32637000  0.11411000  1.0
  N  N296  1  0.71964000  0.88600000  0.21227000  1.0
  N  N297  1  0.49218000  0.21195000  0.32606000  1.0
  N  N298  1  0.16630000  0.67363000  0.88589000  1.0
  N  N299  1  0.28037000  0.11400000  0.78774000  1.0
  N  N300  1  0.77195000  0.87164000  0.57202000  1.0
  N  N301  1  0.19995000  0.42801000  0.29949000  1.0
  N  N302  1  0.90067000  0.70060000  0.12851000  1.0
  N  N303  1  0.22806000  0.12836000  0.42799000  1.0
  N  N304  1  0.80004000  0.57198000  0.70050000  1.0
  N  N305  1  0.09933000  0.29940000  0.87149000  1.0
  O  O306  1  0.63654000  0.74783000  0.04902000  1.0
  O  O307  1  0.58748000  0.95120000  0.69887000  1.0
  O  O308  1  0.88875000  0.30123000  0.25213000  1.0
  O  O309  1  0.36345000  0.25218000  0.95098000  1.0
  O  O310  1  0.41253000  0.04881000  0.30114000  1.0
  O  O311  1  0.11126000  0.69877000  0.74787000  1.0
  O  O312  1  0.85929000  0.45449000  0.27785000  1.0
  O  O313  1  0.58187000  0.72220000  0.17665000  1.0
  O  O314  1  0.40530000  0.82335000  0.54553000  1.0
  O  O315  1  0.14071000  0.54551000  0.72214000  1.0
  O  O316  1  0.41813000  0.27779000  0.82335000  1.0
  O  O317  1  0.59471000  0.17665000  0.45448000  1.0
  O  O318  1  0.82407000  0.49784000  0.19977000  1.0
  O  O319  1  0.62445000  0.80033000  0.29803000  1.0
  O  O320  1  0.32648000  0.70200000  0.50235000  1.0
  O  O321  1  0.17590000  0.50215000  0.80021000  1.0
  O  O322  1  0.37555000  0.19966000  0.70197000  1.0
  O  O323  1  0.67351000  0.29799000  0.49765000  1.0
  O  O324  1  0.76682000  0.67590000  0.99918000  1.0
  O  O325  1  0.76779000  0.00099000  0.67692000  1.0
  O  O326  1  0.09087000  0.32316000  0.32399000  1.0
  O  O327  1  0.23315000  0.32409000  0.00082000  1.0
  O  O328  1  0.23222000  0.99901000  0.32308000  1.0
  O  O329  1  0.90913000  0.67684000  0.67602000  1.0
