# generated using pymatgen
data_CuH12C11NO4
_symmetry_space_group_name_H-M   'P 1'
_cell_length_a   9.09410000
_cell_length_b   12.50310000
_cell_length_c   12.50320000
_cell_angle_alpha   66.67540000
_cell_angle_beta   78.78200000
_cell_angle_gamma   78.78270000
_symmetry_Int_Tables_number   1
_chemical_formula_structural   CuH12C11NO4
_chemical_formula_sum   'Cu4 H48 C44 N4 O16'
_cell_volume   1269.60011128
_cell_formula_units_Z   4
loop_
 _symmetry_equiv_pos_site_id
 _symmetry_equiv_pos_as_xyz
  1  'x, y, z'
loop_
 _atom_site_type_symbol
 _atom_site_label
 _atom_site_symmetry_multiplicity
 _atom_site_fract_x
 _atom_site_fract_y
 _atom_site_fract_z
 _atom_site_occupancy
  Cu  Cu0  1  0.31747000  0.17608000  0.22556000  1.0
  Cu  Cu1  1  0.68250000  0.77444000  0.82398000  1.0
  Cu  Cu2  1  0.17015000  0.37003000  0.23960000  1.0
  Cu  Cu3  1  0.82990000  0.76040000  0.62991000  1.0
  H  H4  1  0.54828000  0.09801000  0.04763000  1.0
  H  H5  1  0.45171000  0.95237000  0.90201000  1.0
  H  H6  1  0.74509000  0.93089000  0.04310000  1.0
  H  H7  1  0.25489000  0.95691000  0.06912000  1.0
  H  H8  1  0.59876000  0.75648000  0.41452000  1.0
  H  H9  1  0.40123000  0.58548000  0.24353000  1.0
  H  H10  1  0.40474000  0.92893000  0.39997000  1.0
  H  H11  1  0.59525000  0.60003000  0.07109000  1.0
  H  H12  1  0.06989000  0.61063000  0.05697000  1.0
  H  H13  1  0.93010000  0.94304000  0.38938000  1.0
  H  H14  1  0.87415000  0.78112000  0.04145000  1.0
  H  H15  1  0.12584000  0.95855000  0.21890000  1.0
  H  H16  1  0.76481000  0.62755000  0.42088000  1.0
  H  H17  1  0.23519000  0.57912000  0.37246000  1.0
  H  H18  1  0.95925000  0.45995000  0.41662000  1.0
  H  H19  1  0.04074000  0.58338000  0.54006000  1.0
  H  H20  1  0.51389000  0.33787000  0.46551000  1.0
  H  H21  1  0.48612000  0.53450000  0.66212000  1.0
  H  H22  1  0.71072000  0.14201000  0.39320000  1.0
  H  H23  1  0.28928000  0.60681000  0.85797000  1.0
  H  H24  1  0.74025000  0.18639000  0.50473000  1.0
  H  H25  1  0.25977000  0.49527000  0.81359000  1.0
  H  H26  1  0.48069000  0.13029000  0.61198000  1.0
  H  H27  1  0.51931000  0.38801000  0.86971000  1.0
  H  H28  1  0.46474000  0.08051000  0.50000000  1.0
  H  H29  1  0.53528000  0.50001000  0.91947000  1.0
  H  H30  1  0.63168000  0.47324000  0.27543000  1.0
  H  H31  1  0.36831000  0.72458000  0.52676000  1.0
  H  H32  1  0.73914000  0.35159000  0.24379000  1.0
  H  H33  1  0.26085000  0.75622000  0.64841000  1.0
  H  H34  1  0.77503000  0.38193000  0.36154000  1.0
  H  H35  1  0.22498000  0.63846000  0.61807000  1.0
  H  H36  1  0.81976000  0.19786000  0.15032000  1.0
  H  H37  1  0.18024000  0.84967000  0.80214000  1.0
  H  H38  1  0.74486000  0.34864000  0.96434000  1.0
  H  H39  1  0.25515000  0.03566000  0.65136000  1.0
  H  H40  1  0.78481000  0.40857000  0.06009000  1.0
  H  H41  1  0.21521000  0.93990000  0.59143000  1.0
  H  H42  1  0.04056000  0.44164000  0.94729000  1.0
  H  H43  1  0.95944000  0.05269000  0.55838000  1.0
  H  H44  1  0.99953000  0.39256000  0.84264000  1.0
  H  H45  1  0.00047000  0.15736000  0.60744000  1.0
  H  H46  1  0.86298000  0.15603000  0.96492000  1.0
  H  H47  1  0.13701000  0.03508000  0.84396000  1.0
  H  H48  1  0.99096000  0.06527000  0.06542000  1.0
  H  H49  1  0.00905000  0.93458000  0.93472000  1.0
  H  H50  1  0.05297000  0.18522000  0.94037000  1.0
  H  H51  1  0.94704000  0.05962000  0.81477000  1.0
  C  C52  1  0.56284000  0.01914000  0.12644000  1.0
  C  C53  1  0.43714000  0.87356000  0.98087000  1.0
  C  C54  1  0.67318000  0.92545000  0.12514000  1.0
  C  C55  1  0.32680000  0.87487000  0.07457000  1.0
  C  C56  1  0.68855000  0.82569000  0.22857000  1.0
  C  C57  1  0.31144000  0.77143000  0.17432000  1.0
  C  C58  1  0.59104000  0.82833000  0.32977000  1.0
  C  C59  1  0.40894000  0.67023000  0.17168000  1.0
  C  C60  1  0.48295000  0.92514000  0.32302000  1.0
  C  C61  1  0.51704000  0.67698000  0.07487000  1.0
  C  C62  1  0.99894000  0.61828000  0.13539000  1.0
  C  C63  1  0.00104000  0.86461000  0.38174000  1.0
  C  C64  1  0.89010000  0.71485000  0.12816000  1.0
  C  C65  1  0.10988000  0.87184000  0.28516000  1.0
  C  C66  1  0.80226000  0.72281000  0.23119000  1.0
  C  C67  1  0.19772000  0.76881000  0.27720000  1.0
  C  C68  1  0.82714000  0.62837000  0.33689000  1.0
  C  C69  1  0.17286000  0.66311000  0.37163000  1.0
  C  C70  1  0.93737000  0.53460000  0.33574000  1.0
  C  C71  1  0.06262000  0.66425000  0.46541000  1.0
  C  C72  1  0.44949000  0.29924000  0.33160000  1.0
  C  C73  1  0.55053000  0.66841000  0.70076000  1.0
  C  C74  1  0.57164000  0.30122000  0.39905000  1.0
  C  C75  1  0.42837000  0.60096000  0.69876000  1.0
  C  C76  1  0.65281000  0.17789000  0.45988000  1.0
  C  C77  1  0.34721000  0.54012000  0.82209000  1.0
  C  C78  1  0.54525000  0.09356000  0.54765000  1.0
  C  C79  1  0.45476000  0.45235000  0.90643000  1.0
  C  C80  1  0.62531000  0.97310000  0.61411000  1.0
  C  C81  1  0.37469000  0.38589000  0.02689000  1.0
  C  C82  1  0.68495000  0.38238000  0.31456000  1.0
  C  C83  1  0.31506000  0.68545000  0.61762000  1.0
  C  C84  1  0.03559000  0.24330000  0.13790000  1.0
  C  C85  1  0.96442000  0.86209000  0.75671000  1.0
  C  C86  1  0.90781000  0.23676000  0.07754000  1.0
  C  C87  1  0.09220000  0.92244000  0.76324000  1.0
  C  C88  1  0.83659000  0.35981000  0.00324000  1.0
  C  C89  1  0.16342000  0.99675000  0.64019000  1.0
  C  C90  1  0.94829000  0.43327000  0.90675000  1.0
  C  C91  1  0.05172000  0.09324000  0.56673000  1.0
  C  C92  1  0.87964000  0.55802000  0.83968000  1.0
  C  C93  1  0.12036000  0.16031000  0.44197000  1.0
  C  C94  1  0.95704000  0.15602000  0.00832000  1.0
  C  C95  1  0.04296000  0.99167000  0.84396000  1.0
  N  N96  1  0.46735000  0.01927000  0.22305000  1.0
  N  N97  1  0.53264000  0.77695000  0.98075000  1.0
  N  N98  1  0.02377000  0.52920000  0.23749000  1.0
  N  N99  1  0.97622000  0.76251000  0.47080000  1.0
  O  O100  1  0.47555000  0.22184000  0.28593000  1.0
  O  O101  1  0.52446000  0.71407000  0.77815000  1.0
  O  O102  1  0.33235000  0.37548000  0.32578000  1.0
  O  O103  1  0.66766000  0.67421000  0.62453000  1.0
  O  O104  1  0.60372000  0.93799000  0.72598000  1.0
  O  O105  1  0.39629000  0.27401000  0.06202000  1.0
  O  O106  1  0.70677000  0.91680000  0.55337000  1.0
  O  O107  1  0.29320000  0.44663000  0.08320000  1.0
  O  O108  1  0.13984000  0.15644000  0.16344000  1.0
  O  O109  1  0.86020000  0.83655000  0.84356000  1.0
  O  O110  1  0.02628000  0.33649000  0.15821000  1.0
  O  O111  1  0.97369000  0.84179000  0.66352000  1.0
  O  O112  1  0.77954000  0.60818000  0.89755000  1.0
  O  O113  1  0.22046000  0.10244000  0.39180000  1.0
  O  O114  1  0.92923000  0.60308000  0.73093000  1.0
  O  O115  1  0.07078000  0.26908000  0.39691000  1.0
