# generated using pymatgen
data_KBaH6C8NO8
_symmetry_space_group_name_H-M   'P 1'
_cell_length_a   6.73924000
_cell_length_b   9.70960000
_cell_length_c   10.36114031
_cell_angle_alpha   117.23313534
_cell_angle_beta   108.00107924
_cell_angle_gamma   91.94620000
_symmetry_Int_Tables_number   1
_chemical_formula_structural   KBaH6C8NO8
_chemical_formula_sum   'K2 Ba2 H12 C16 N2 O16'
_cell_volume   560.85747582
_cell_formula_units_Z   2
loop_
 _symmetry_equiv_pos_site_id
 _symmetry_equiv_pos_as_xyz
  1  'x, y, z'
loop_
 _atom_site_type_symbol
 _atom_site_label
 _atom_site_symmetry_multiplicity
 _atom_site_fract_x
 _atom_site_fract_y
 _atom_site_fract_z
 _atom_site_occupancy
  K  K0  1  0.80286000  0.05265000  0.10542000  1.0
  K  K1  1  0.19713000  0.94735000  0.89458000  1.0
  Ba  Ba2  1  0.51358000  0.76355000  0.52710000  1.0
  Ba  Ba3  1  0.48642000  0.23645000  0.47290000  1.0
  H  H4  1  0.68952000  0.34929000  0.11744000  1.0
  H  H5  1  0.92779000  0.76746000  0.11762000  1.0
  H  H6  1  0.31048000  0.65070000  0.88256000  1.0
  H  H7  1  0.07222000  0.23254000  0.88238000  1.0
  H  H8  1  0.22196000  0.58055000  0.63781000  1.0
  H  H9  1  0.91601000  0.05744000  0.63775000  1.0
  H  H10  1  0.77806000  0.41945000  0.36220000  1.0
  H  H11  1  0.08399000  0.94256000  0.36225000  1.0
  H  H12  1  0.07277000  0.66341000  0.56245000  1.0
  H  H13  1  0.98949000  0.89904000  0.56224000  1.0
  H  H14  1  0.92725000  0.33660000  0.43756000  1.0
  H  H15  1  0.01051000  0.10096000  0.43776000  1.0
  C  C16  1  0.54183000  0.15702000  0.80037000  1.0
  C  C17  1  0.75841000  0.64304000  0.80061000  1.0
  C  C18  1  0.45817000  0.84298000  0.19963000  1.0
  C  C19  1  0.24159000  0.35696000  0.19939000  1.0
  C  C20  1  0.64152000  0.33339000  0.89523000  1.0
  C  C21  1  0.75376000  0.56130000  0.89537000  1.0
  C  C22  1  0.35848000  0.66661000  0.10477000  1.0
  C  C23  1  0.24624000  0.43869000  0.10463000  1.0
  C  C24  1  0.71443000  0.41227000  0.05807000  1.0
  C  C25  1  0.84367000  0.64521000  0.05817000  1.0
  C  C26  1  0.28557000  0.58773000  0.94193000  1.0
  C  C27  1  0.15633000  0.35479000  0.94183000  1.0
  C  C28  1  0.82096000  0.57068000  0.14200000  1.0
  C  C29  1  0.17904000  0.42932000  0.85800000  1.0
  C  C30  1  0.90872000  0.65863000  0.31779000  1.0
  C  C31  1  0.09128000  0.34136000  0.68221000  1.0
  N  N32  1  0.65783000  0.40756000  0.81563000  1.0
  N  N33  1  0.34217000  0.59244000  0.18437000  1.0
  O  O34  1  0.47738000  0.09301000  0.65276000  1.0
  O  O35  1  0.67473000  0.55963000  0.65299000  1.0
  O  O36  1  0.52260000  0.90698000  0.34723000  1.0
  O  O37  1  0.32527000  0.44037000  0.34701000  1.0
  O  O38  1  0.53398000  0.08498000  0.87492000  1.0
  O  O39  1  0.84128000  0.78953000  0.87526000  1.0
  O  O40  1  0.46602000  0.91502000  0.12508000  1.0
  O  O41  1  0.15872000  0.21047000  0.12474000  1.0
  O  O42  1  0.05814000  0.78085000  0.38903000  1.0
  O  O43  1  0.83046000  0.60785000  0.38916000  1.0
  O  O44  1  0.94186000  0.21914000  0.61097000  1.0
  O  O45  1  0.16954000  0.39215000  0.61084000  1.0
  O  O46  1  0.21532000  0.68400000  0.64109000  1.0
  O  O47  1  0.92576000  0.95727000  0.64102000  1.0
  O  O48  1  0.78469000  0.31600000  0.35891000  1.0
  O  O49  1  0.07424000  0.04273000  0.35898000  1.0
