# generated using pymatgen
data_ZnHC11Br4NO6
_symmetry_space_group_name_H-M   'P 1'
_cell_length_a   9.90588000
_cell_length_b   10.95740000
_cell_length_c   13.86990000
_cell_angle_alpha   79.44160000
_cell_angle_beta   86.82540000
_cell_angle_gamma   82.79990000
_symmetry_Int_Tables_number   1
_chemical_formula_structural   ZnHC11Br4NO6
_chemical_formula_sum   'Zn2 H2 C22 Br8 N2 O12'
_cell_volume   1467.50498677
_cell_formula_units_Z   2
loop_
 _symmetry_equiv_pos_site_id
 _symmetry_equiv_pos_as_xyz
  1  'x, y, z'
loop_
 _atom_site_type_symbol
 _atom_site_label
 _atom_site_symmetry_multiplicity
 _atom_site_fract_x
 _atom_site_fract_y
 _atom_site_fract_z
 _atom_site_occupancy
  Zn  Zn0  1  0.64965000  0.48495000  0.47943000  1.0
  Zn  Zn1  1  0.35031000  0.51512000  0.52054000  1.0
  H  H2  1  0.61272000  0.24133000  0.20825000  1.0
  H  H3  1  0.38734000  0.75865000  0.79166000  1.0
  C  C4  1  0.49288000  0.26647000  0.50081000  1.0
  C  C5  1  0.06913000  0.42677000  0.57535000  1.0
  C  C6  1  0.44227000  0.54151000  0.21005000  1.0
  C  C7  1  0.55757000  0.45853000  0.78994000  1.0
  C  C8  1  0.44744000  0.53068000  0.02367000  1.0
  C  C9  1  0.55253000  0.46930000  0.97635000  1.0
  C  C10  1  0.55831000  0.46127000  0.87750000  1.0
  C  C11  1  0.44165000  0.53879000  0.12248000  1.0
  C  C12  1  0.50278000  0.08524000  0.41087000  1.0
  C  C13  1  0.49741000  0.91480000  0.58913000  1.0
  C  C14  1  0.50733000  0.95703000  0.41148000  1.0
  C  C15  1  0.50737000  0.73358000  0.49916000  1.0
  C  C16  1  0.49283000  0.04302000  0.58852000  1.0
  C  C17  1  0.50017000  0.17972000  0.31714000  1.0
  C  C18  1  0.49995000  0.82031000  0.68284000  1.0
  C  C19  1  0.50577000  0.87144000  0.49953000  1.0
  C  C20  1  0.49442000  0.12859000  0.50046000  1.0
  C  C21  1  0.54022000  0.46700000  0.68604000  1.0
  C  C22  1  0.45948000  0.53307000  0.31396000  1.0
  C  C23  1  0.05618000  0.60247000  0.45293000  1.0
  C  C24  1  0.94379000  0.39750000  0.54711000  1.0
  C  C25  1  0.93085000  0.57316000  0.42467000  1.0
  Br  Br26  1  0.12252000  0.75174000  0.39485000  1.0
  Br  Br27  1  0.87743000  0.24823000  0.60522000  1.0
  Br  Br28  1  0.84477000  0.66655000  0.31394000  1.0
  Br  Br29  1  0.15533000  0.33322000  0.68598000  1.0
  Br  Br30  1  0.70634000  0.38839000  0.05114000  1.0
  Br  Br31  1  0.29362000  0.61152000  0.94886000  1.0
  Br  Br32  1  0.50482000  0.89736000  0.29097000  1.0
  Br  Br33  1  0.49529000  0.10268000  0.70904000  1.0
  N  N34  1  0.87447000  0.47388000  0.47457000  1.0
  N  N35  1  0.12548000  0.52608000  0.52547000  1.0
  O  O36  1  0.60769000  0.30719000  0.48304000  1.0
  O  O37  1  0.62128000  0.17573000  0.26746000  1.0
  O  O38  1  0.59992000  0.74723000  0.70883000  1.0
  O  O39  1  0.37880000  0.82428000  0.73246000  1.0
  O  O40  1  0.39252000  0.69286000  0.51674000  1.0
  O  O41  1  0.37942000  0.32666000  0.51813000  1.0
  O  O42  1  0.62088000  0.67339000  0.48202000  1.0
  O  O43  1  0.64664000  0.46067000  0.63105000  1.0
  O  O44  1  0.35300000  0.53909000  0.36895000  1.0
  O  O45  1  0.41651000  0.48129000  0.66146000  1.0
  O  O46  1  0.58316000  0.51911000  0.33858000  1.0
  O  O47  1  0.40020000  0.25276000  0.29122000  1.0
