# generated using pymatgen
data_TbH18C12N6ClO8
_symmetry_space_group_name_H-M   'P 1'
_cell_length_a   8.39871000
_cell_length_b   10.80250000
_cell_length_c   11.75030000
_cell_angle_alpha   63.94290000
_cell_angle_beta   84.68400000
_cell_angle_gamma   88.84380000
_symmetry_Int_Tables_number   1
_chemical_formula_structural   TbH18C12N6ClO8
_chemical_formula_sum   'Tb2 H36 C24 N12 Cl2 O16'
_cell_volume   953.34117970
_cell_formula_units_Z   2
loop_
 _symmetry_equiv_pos_site_id
 _symmetry_equiv_pos_as_xyz
  1  'x, y, z'
loop_
 _atom_site_type_symbol
 _atom_site_label
 _atom_site_symmetry_multiplicity
 _atom_site_fract_x
 _atom_site_fract_y
 _atom_site_fract_z
 _atom_site_occupancy
  Tb  Tb0  1  0.42369000  0.45548000  0.18081000  1.0
  Tb  Tb1  1  0.57630000  0.54452000  0.81919000  1.0
  H  H2  1  0.31562000  0.19021000  0.94601000  1.0
  H  H3  1  0.68438000  0.80979000  0.05399000  1.0
  H  H4  1  0.47351000  0.09493000  0.03496000  1.0
  H  H5  1  0.52649000  0.90507000  0.96504000  1.0
  H  H6  1  0.08216000  0.78470000  0.80394000  1.0
  H  H7  1  0.91784000  0.21531000  0.19606000  1.0
  H  H8  1  0.97110000  0.62470000  0.86706000  1.0
  H  H9  1  0.02890000  0.37531000  0.13294000  1.0
  H  H10  1  0.07691000  0.57848000  0.28674000  1.0
  H  H11  1  0.92309000  0.42152000  0.71326000  1.0
  H  H12  1  0.77615000  0.24939000  0.42852000  1.0
  H  H13  1  0.22385000  0.75061000  0.57148000  1.0
  H  H14  1  0.87196000  0.23229000  0.56484000  1.0
  H  H15  1  0.12804000  0.76771000  0.43516000  1.0
  H  H16  1  0.98596000  0.21541000  0.43552000  1.0
  H  H17  1  0.01404000  0.78459000  0.56448000  1.0
  H  H18  1  0.84538000  0.61494000  0.35795000  1.0
  H  H19  1  0.15462000  0.38506000  0.64205000  1.0
  H  H20  1  0.76066000  0.48081000  0.50675000  1.0
  H  H21  1  0.23934000  0.51919000  0.49326000  1.0
  H  H22  1  0.69547000  0.49915000  0.36025000  1.0
  H  H23  1  0.30453000  0.50085000  0.63976000  1.0
  H  H24  1  0.48990000  0.30629000  0.56224000  1.0
  H  H25  1  0.51010000  0.69371000  0.43776000  1.0
  H  H26  1  0.38609000  0.97898000  0.74861000  1.0
  H  H27  1  0.61391000  0.02102000  0.25139000  1.0
  H  H28  1  0.21011000  0.07758000  0.73463000  1.0
  H  H29  1  0.78989000  0.92242000  0.26537000  1.0
  H  H30  1  0.39910000  0.14823000  0.74020000  1.0
  H  H31  1  0.60090000  0.85177000  0.25980000  1.0
  H  H32  1  0.32746000  0.11666000  0.40490000  1.0
  H  H33  1  0.67253000  0.88334000  0.59509000  1.0
  H  H34  1  0.17098000  0.05245000  0.53193000  1.0
  H  H35  1  0.82902000  0.94755000  0.46807000  1.0
  H  H36  1  0.35163000  0.96001000  0.54658000  1.0
  H  H37  1  0.64837000  0.03999000  0.45342000  1.0
  C  C38  1  0.38400000  0.25375000  0.08439000  1.0
  C  C39  1  0.61600000  0.74625000  0.91561000  1.0
  C  C40  1  0.35866000  0.14370000  0.04112000  1.0
  C  C41  1  0.64134000  0.85630000  0.95888000  1.0
  C  C42  1  0.18643000  0.95148000  0.09762000  1.0
  C  C43  1  0.81357000  0.04852000  0.90238000  1.0
  C  C44  1  0.05559000  0.78661000  0.02901000  1.0
  C  C45  1  0.94441000  0.21339000  0.97099000  1.0
  C  C46  1  0.05670000  0.68576000  0.88759000  1.0
  C  C47  1  0.94330000  0.31424000  0.11241000  1.0
  C  C48  1  0.21097000  0.60700000  0.92533000  1.0
  C  C49  1  0.78903000  0.39301000  0.07467000  1.0
  C  C50  1  0.06414000  0.46539000  0.33012000  1.0
  C  C51  1  0.93586000  0.53461000  0.66988000  1.0
  C  C52  1  0.88718000  0.26890000  0.46097000  1.0
  C  C53  1  0.11282000  0.73109000  0.53903000  1.0
  C  C54  1  0.79946000  0.50834000  0.40644000  1.0
  C  C55  1  0.20054000  0.49165000  0.59357000  1.0
  C  C56  1  0.45006000  0.25924000  0.50279000  1.0
  C  C57  1  0.54994000  0.74076000  0.49721000  1.0
  C  C58  1  0.33903000  0.08359000  0.70606000  1.0
  C  C59  1  0.66097000  0.91641000  0.29394000  1.0
  C  C60  1  0.30132000  0.06371000  0.50827000  1.0
  C  C61  1  0.69868000  0.93629000  0.49173000  1.0
  N  N62  1  0.26040000  0.93557000  0.99889000  1.0
  N  N63  1  0.73960000  0.06443000  0.00111000  1.0
  N  N64  1  0.19338000  0.84942000  0.96408000  1.0
  N  N65  1  0.80662000  0.15058000  0.03592000  1.0
  N  N66  1  0.98617000  0.79598000  0.13350000  1.0
  N  N67  1  0.01383000  0.20402000  0.86649000  1.0
  N  N68  1  0.05382000  0.88033000  0.16930000  1.0
  N  N69  1  0.94617000  0.11967000  0.83070000  1.0
  N  N70  1  0.92419000  0.41617000  0.39779000  1.0
  N  N71  1  0.07581000  0.58383000  0.60222000  1.0
  N  N72  1  0.36693000  0.14161000  0.56809000  1.0
  N  N73  1  0.63307000  0.85839000  0.43191000  1.0
  Cl  Cl74  1  0.40472000  0.65781000  0.25511000  1.0
  Cl  Cl75  1  0.59527000  0.34219000  0.74489000  1.0
  O  O76  1  0.33752000  0.23558000  0.19601000  1.0
  O  O77  1  0.66248000  0.76442000  0.80399000  1.0
  O  O78  1  0.45703000  0.36501000  0.00437000  1.0
  O  O79  1  0.54297000  0.63500000  0.99563000  1.0
  O  O80  1  0.24235000  0.04338000  0.13198000  1.0
  O  O81  1  0.75765000  0.95662000  0.86801000  1.0
  O  O82  1  0.97602000  0.70697000  0.99178000  1.0
  O  O83  1  0.02398000  0.29303000  0.00821000  1.0
  O  O84  1  0.30811000  0.61042000  0.83488000  1.0
  O  O85  1  0.69190000  0.38959000  0.16512000  1.0
  O  O86  1  0.22570000  0.54388000  0.04371000  1.0
  O  O87  1  0.77430000  0.45612000  0.95629000  1.0
  O  O88  1  0.17478000  0.39202000  0.31548000  1.0
  O  O89  1  0.82522000  0.60798000  0.68452000  1.0
  O  O90  1  0.48670000  0.31367000  0.38453000  1.0
  O  O91  1  0.51330000  0.68633000  0.61547000  1.0
