# generated using pymatgen
data_SrH6C4N8O9
_symmetry_space_group_name_H-M   'P 1'
_cell_length_a   6.61041000
_cell_length_b   7.00416702
_cell_length_c   14.80750000
_cell_angle_alpha   88.99878489
_cell_angle_beta   77.13290000
_cell_angle_gamma   61.85056695
_symmetry_Int_Tables_number   1
_chemical_formula_structural   SrH6C4N8O9
_chemical_formula_sum   'Sr2 H12 C8 N16 O18'
_cell_volume   586.25478618
_cell_formula_units_Z   2
loop_
 _symmetry_equiv_pos_site_id
 _symmetry_equiv_pos_as_xyz
  1  'x, y, z'
loop_
 _atom_site_type_symbol
 _atom_site_label
 _atom_site_symmetry_multiplicity
 _atom_site_fract_x
 _atom_site_fract_y
 _atom_site_fract_z
 _atom_site_occupancy
  Sr  Sr0  1  0.68509000  0.75008000  0.75005000  1.0
  Sr  Sr1  1  0.31491000  0.24992000  0.24995000  1.0
  H  H2  1  0.02596000  0.84776000  0.60058000  1.0
  H  H3  1  0.97468000  0.65232000  0.89945000  1.0
  H  H4  1  0.97404000  0.15224000  0.39942000  1.0
  H  H5  1  0.02532000  0.34768000  0.10055000  1.0
  H  H6  1  0.20097000  0.82653000  0.71156000  1.0
  H  H7  1  0.23905000  0.67369000  0.78844000  1.0
  H  H8  1  0.79904000  0.17347000  0.28844000  1.0
  H  H9  1  0.76095000  0.32632000  0.21156000  1.0
  H  H10  1  0.89797000  0.07689000  0.66062000  1.0
  H  H11  1  0.13571000  0.42320000  0.83940000  1.0
  H  H12  1  0.10203000  0.92311000  0.33938000  1.0
  H  H13  1  0.86429000  0.57680000  0.16060000  1.0
  C  C14  1  0.33562000  0.82175000  0.01854000  1.0
  C  C15  1  0.67593000  0.67825000  0.48143000  1.0
  C  C16  1  0.66439000  0.17824000  0.98146000  1.0
  C  C17  1  0.32407000  0.32175000  0.51857000  1.0
  C  C18  1  0.42414000  0.59439000  0.03334000  1.0
  C  C19  1  0.55185000  0.90561000  0.46664000  1.0
  C  C20  1  0.57586000  0.40561000  0.96666000  1.0
  C  C21  1  0.44814000  0.09439000  0.53336000  1.0
  N  N22  1  0.33995000  0.57993000  0.12116000  1.0
  N  N23  1  0.54086000  0.92010000  0.37882000  1.0
  N  N24  1  0.66006000  0.42006000  0.87883000  1.0
  N  N25  1  0.45913000  0.07990000  0.62118000  1.0
  N  N26  1  0.19876000  0.94028000  0.09864000  1.0
  N  N27  1  0.73749000  0.55974000  0.40132000  1.0
  N  N28  1  0.80124000  0.05972000  0.90136000  1.0
  N  N29  1  0.26251000  0.44027000  0.59868000  1.0
  N  N30  1  0.40060000  0.88714000  0.93431000  1.0
  N  N31  1  0.72211000  0.61291000  0.56568000  1.0
  N  N32  1  0.59941000  0.11285000  0.06569000  1.0
  N  N33  1  0.27789000  0.38709000  0.43432000  1.0
  N  N34  1  0.27972000  0.09410000  0.92152000  1.0
  N  N35  1  0.79536000  0.40598000  0.57850000  1.0
  N  N36  1  0.72029000  0.90589000  0.07848000  1.0
  N  N37  1  0.20464000  0.59402000  0.42150000  1.0
  O  O38  1  0.20098000  0.79060000  0.16165000  1.0
  O  O39  1  0.65293000  0.70945000  0.33832000  1.0
  O  O40  1  0.79902000  0.20940000  0.83835000  1.0
  O  O41  1  0.34707000  0.29055000  0.66168000  1.0
  O  O42  1  0.10584000  0.23832000  0.97990000  1.0
  O  O43  1  0.82397000  0.26172000  0.52013000  1.0
  O  O44  1  0.89416000  0.76168000  0.02010000  1.0
  O  O45  1  0.17603000  0.73828000  0.47987000  1.0
  O  O46  1  0.35063000  0.14373000  0.84110000  1.0
  O  O47  1  0.83551000  0.35647000  0.65896000  1.0
  O  O48  1  0.64937000  0.85627000  0.15890000  1.0
  O  O49  1  0.16449000  0.64353000  0.34104000  1.0
  O  O50  1  0.31516000  0.75020000  0.75002000  1.0
  O  O51  1  0.68483000  0.24981000  0.24998000  1.0
  O  O52  1  0.95099000  0.91938000  0.66466000  1.0
  O  O53  1  0.03542000  0.58074000  0.83535000  1.0
  O  O54  1  0.04901000  0.08062000  0.33534000  1.0
  O  O55  1  0.96458000  0.41926000  0.16465000  1.0
