# generated using pymatgen
data_ZnPH6C2NO3
_symmetry_space_group_name_H-M   'P 1'
_cell_length_a   7.54253000
_cell_length_b   8.12828000
_cell_length_c   9.41920000
_cell_angle_alpha   89.99990000
_cell_angle_beta   89.99990000
_cell_angle_gamma   72.29100000
_symmetry_Int_Tables_number   1
_chemical_formula_structural   ZnPH6C2NO3
_chemical_formula_sum   'Zn4 P4 H24 C8 N4 O12'
_cell_volume   550.10621157
_cell_formula_units_Z   4
loop_
 _symmetry_equiv_pos_site_id
 _symmetry_equiv_pos_as_xyz
  1  'x, y, z'
loop_
 _atom_site_type_symbol
 _atom_site_label
 _atom_site_symmetry_multiplicity
 _atom_site_fract_x
 _atom_site_fract_y
 _atom_site_fract_z
 _atom_site_occupancy
  Zn  Zn0  1  0.64043000  0.79335000  0.33277000  1.0
  Zn  Zn1  1  0.35958000  0.70665000  0.83277000  1.0
  Zn  Zn2  1  0.35958000  0.20665000  0.66723000  1.0
  Zn  Zn3  1  0.64043000  0.29335000  0.16724000  1.0
  P  P4  1  0.72353000  0.64317000  0.02658000  1.0
  P  P5  1  0.27647000  0.85684000  0.52660000  1.0
  P  P6  1  0.27647000  0.35683000  0.97340000  1.0
  P  P7  1  0.72353000  0.14317000  0.47342000  1.0
  H  H8  1  0.05436000  0.66086000  0.35663000  1.0
  H  H9  1  0.94563000  0.83914000  0.85663000  1.0
  H  H10  1  0.94563000  0.33915000  0.64337000  1.0
  H  H11  1  0.05437000  0.16085000  0.14337000  1.0
  H  H12  1  0.99923000  0.51008000  0.24152000  1.0
  H  H13  1  0.00077000  0.98994000  0.74151000  1.0
  H  H14  1  0.00077000  0.48994000  0.75849000  1.0
  H  H15  1  0.99922000  0.01006000  0.25849000  1.0
  H  H16  1  0.77450000  0.47808000  0.40428000  1.0
  H  H17  1  0.22551000  0.02193000  0.90428000  1.0
  H  H18  1  0.22551000  0.52193000  0.59573000  1.0
  H  H19  1  0.77449000  0.97807000  0.09572000  1.0
  H  H20  1  0.70416000  0.62019000  0.62459000  1.0
  H  H21  1  0.29583000  0.87980000  0.12459000  1.0
  H  H22  1  0.29584000  0.37982000  0.37542000  1.0
  H  H23  1  0.70416000  0.12019000  0.87541000  1.0
  H  H24  1  0.87229000  0.72809000  0.59220000  1.0
  H  H25  1  0.12770000  0.77191000  0.09220000  1.0
  H  H26  1  0.12772000  0.27192000  0.40780000  1.0
  H  H27  1  0.87229000  0.22808000  0.90780000  1.0
  H  H28  1  0.90486000  0.63756000  0.98470000  1.0
  H  H29  1  0.09513000  0.86244000  0.48470000  1.0
  H  H30  1  0.09513000  0.36244000  0.01529000  1.0
  H  H31  1  0.90486000  0.13756000  0.51530000  1.0
  C  C32  1  0.01282000  0.54242000  0.35303000  1.0
  C  C33  1  0.98718000  0.95759000  0.85304000  1.0
  C  C34  1  0.98718000  0.45759000  0.64697000  1.0
  C  C35  1  0.01282000  0.04241000  0.14697000  1.0
  C  C36  1  0.84031000  0.60603000  0.57624000  1.0
  C  C37  1  0.15968000  0.89397000  0.07623000  1.0
  C  C38  1  0.15969000  0.39398000  0.42377000  1.0
  C  C39  1  0.84031000  0.10602000  0.92376000  1.0
  N  N40  1  0.82668000  0.58073000  0.42082000  1.0
  N  N41  1  0.17332000  0.91927000  0.92082000  1.0
  N  N42  1  0.17332000  0.41927000  0.57918000  1.0
  N  N43  1  0.82667000  0.08073000  0.07918000  1.0
  O  O44  1  0.65337000  0.80382000  0.12363000  1.0
  O  O45  1  0.34663000  0.69618000  0.62363000  1.0
  O  O46  1  0.34662000  0.19617000  0.87637000  1.0
  O  O47  1  0.65337000  0.30382000  0.37637000  1.0
  O  O48  1  0.61659000  0.66150000  0.88652000  1.0
  O  O49  1  0.38342000  0.83850000  0.38651000  1.0
  O  O50  1  0.38342000  0.33849000  0.11348000  1.0
  O  O51  1  0.61658000  0.16150000  0.61348000  1.0
  O  O52  1  0.74671000  0.47488000  0.10757000  1.0
  O  O53  1  0.25329000  0.02512000  0.60757000  1.0
  O  O54  1  0.25331000  0.52510000  0.89242000  1.0
  O  O55  1  0.74671000  0.97487000  0.39243000  1.0
