# generated using pymatgen
data_CdH28C22(N5O)2
_symmetry_space_group_name_H-M   'P 1'
_cell_length_a   7.75650000
_cell_length_b   9.07956000
_cell_length_c   18.23170000
_cell_angle_alpha   90.00000000
_cell_angle_beta   89.99980000
_cell_angle_gamma   113.40700000
_symmetry_Int_Tables_number   1
_chemical_formula_structural   CdH28C22(N5O)2
_chemical_formula_sum   'Cd2 H56 C44 N20 O4'
_cell_volume   1178.31493749
_cell_formula_units_Z   2
loop_
 _symmetry_equiv_pos_site_id
 _symmetry_equiv_pos_as_xyz
  1  'x, y, z'
loop_
 _atom_site_type_symbol
 _atom_site_label
 _atom_site_symmetry_multiplicity
 _atom_site_fract_x
 _atom_site_fract_y
 _atom_site_fract_z
 _atom_site_occupancy
  Cd  Cd0  1  0.00000000  0.50000000  0.50000000  1.0
  Cd  Cd1  1  0.00000000  0.00000000  0.00000000  1.0
  H  H2  1  0.22664000  0.94156000  0.35394000  1.0
  H  H3  1  0.77336000  0.55844000  0.85394000  1.0
  H  H4  1  0.77336000  0.05844000  0.64606000  1.0
  H  H5  1  0.22664000  0.44156000  0.14606000  1.0
  H  H6  1  0.37147000  0.02086000  0.43130000  1.0
  H  H7  1  0.62853000  0.47915000  0.93130000  1.0
  H  H8  1  0.62854000  0.97915000  0.56870000  1.0
  H  H9  1  0.37147000  0.52085000  0.06870000  1.0
  H  H10  1  0.54578000  0.27444000  0.37069000  1.0
  H  H11  1  0.45422000  0.22556000  0.87070000  1.0
  H  H12  1  0.45422000  0.72556000  0.62930000  1.0
  H  H13  1  0.54579000  0.77444000  0.12930000  1.0
  H  H14  1  0.38236000  0.22844000  0.29739000  1.0
  H  H15  1  0.61764000  0.27156000  0.79739000  1.0
  H  H16  1  0.61764000  0.77156000  0.70261000  1.0
  H  H17  1  0.38236000  0.72844000  0.20261000  1.0
  H  H18  1  0.62887000  0.04187000  0.32953000  1.0
  H  H19  1  0.37112000  0.45812000  0.82953000  1.0
  H  H20  1  0.37112000  0.95812000  0.67047000  1.0
  H  H21  1  0.62888000  0.54188000  0.17047000  1.0
  H  H22  1  0.47922000  0.01458000  0.25312000  1.0
  H  H23  1  0.52078000  0.48541000  0.75312000  1.0
  H  H24  1  0.52078000  0.98542000  0.74688000  1.0
  H  H25  1  0.47922000  0.51459000  0.24688000  1.0
  H  H26  1  0.66650000  0.29442000  0.21127000  1.0
  H  H27  1  0.33350000  0.20558000  0.71127000  1.0
  H  H28  1  0.33350000  0.70558000  0.78873000  1.0
  H  H29  1  0.66650000  0.79442000  0.28873000  1.0
  H  H30  1  0.81162000  0.33017000  0.29051000  1.0
  H  H31  1  0.18837000  0.16983000  0.79051000  1.0
  H  H32  1  0.18837000  0.66983000  0.70949000  1.0
  H  H33  1  0.81163000  0.83017000  0.20949000  1.0
  H  H34  1  0.34214000  0.35340000  0.44574000  1.0
  H  H35  1  0.65786000  0.14660000  0.94574000  1.0
  H  H36  1  0.65785000  0.64660000  0.55426000  1.0
  H  H37  1  0.34215000  0.85340000  0.05426000  1.0
  H  H38  1  0.75287000  0.10980000  0.44810000  1.0
  H  H39  1  0.24713000  0.39020000  0.94810000  1.0
  H  H40  1  0.24713000  0.89019000  0.55190000  1.0
  H  H41  1  0.75287000  0.60980000  0.05190000  1.0
  H  H42  1  0.90934000  0.90335000  0.39427000  1.0
  H  H43  1  0.09066000  0.59664000  0.89427000  1.0
  H  H44  1  0.09066000  0.09664000  0.60573000  1.0
  H  H45  1  0.90934000  0.40336000  0.10573000  1.0
  H  H46  1  0.70780000  0.10426000  0.10951000  1.0
  H  H47  1  0.29221000  0.39574000  0.60951000  1.0
  H  H48  1  0.29220000  0.89574000  0.89049000  1.0
  H  H49  1  0.70779000  0.60426000  0.39049000  1.0
  H  H50  1  0.22568000  0.10796000  0.18169000  1.0
  H  H51  1  0.77432000  0.39204000  0.68169000  1.0
  H  H52  1  0.77431000  0.89204000  0.81831000  1.0
  H  H53  1  0.22568000  0.60796000  0.31831000  1.0
  H  H54  1  0.07112000  0.23096000  0.29281000  1.0
  H  H55  1  0.92888000  0.26905000  0.79281000  1.0
  H  H56  1  0.92888000  0.76905000  0.70719000  1.0
  H  H57  1  0.07112000  0.73095000  0.20719000  1.0
  C  C58  1  0.30447000  0.05272000  0.38427000  1.0
  C  C59  1  0.69553000  0.44728000  0.88427000  1.0
  C  C60  1  0.69553000  0.94728000  0.61573000  1.0
  C  C61  1  0.30447000  0.55272000  0.11573000  1.0
  C  C62  1  0.45225000  0.17624000  0.33577000  1.0
  C  C63  1  0.54775000  0.32375000  0.83577000  1.0
  C  C64  1  0.54775000  0.82376000  0.66423000  1.0
  C  C65  1  0.45225000  0.67625000  0.16423000  1.0
  C  C66  1  0.56889000  0.10456000  0.29251000  1.0
  C  C67  1  0.43111000  0.39544000  0.79251000  1.0
  C  C68  1  0.43111000  0.89544000  0.70749000  1.0
  C  C69  1  0.56889000  0.60456000  0.20749000  1.0
  C  C70  1  0.72569000  0.23787000  0.25167000  1.0
  C  C71  1  0.27430000  0.26213000  0.75167000  1.0
  C  C72  1  0.27430000  0.76213000  0.74833000  1.0
  C  C73  1  0.72570000  0.73787000  0.24833000  1.0
  C  C74  1  0.20196000  0.26145000  0.43808000  1.0
  C  C75  1  0.79804000  0.23855000  0.93808000  1.0
  C  C76  1  0.79804000  0.73855000  0.56192000  1.0
  C  C77  1  0.20196000  0.76145000  0.06192000  1.0
  C  C78  1  0.89843000  0.12974000  0.43905000  1.0
  C  C79  1  0.10156000  0.37025000  0.93905000  1.0
  C  C80  1  0.10156000  0.87025000  0.56095000  1.0
  C  C81  1  0.89844000  0.62974000  0.06095000  1.0
  C  C82  1  0.97380000  0.02713000  0.41172000  1.0
  C  C83  1  0.02620000  0.47287000  0.91172000  1.0
  C  C84  1  0.02620000  0.97287000  0.58828000  1.0
  C  C85  1  0.97380000  0.52713000  0.08828000  1.0
  C  C86  1  0.82799000  0.11850000  0.14358000  1.0
  C  C87  1  0.17202000  0.38150000  0.64358000  1.0
  C  C88  1  0.17201000  0.88150000  0.85642000  1.0
  C  C89  1  0.82799000  0.61850000  0.35642000  1.0
  C  C90  1  0.09393000  0.12305000  0.18338000  1.0
  C  C91  1  0.90608000  0.37695000  0.68338000  1.0
  C  C92  1  0.90607000  0.87695000  0.81662000  1.0
  C  C93  1  0.09393000  0.62305000  0.31662000  1.0
  C  C94  1  0.02123000  0.18515000  0.23857000  1.0
  C  C95  1  0.97877000  0.31486000  0.73857000  1.0
  C  C96  1  0.97877000  0.81485000  0.76143000  1.0
  C  C97  1  0.02123000  0.68515000  0.26143000  1.0
  C  C98  1  0.42975000  0.71127000  0.45286000  1.0
  C  C99  1  0.57024000  0.78872000  0.95285000  1.0
  C  C100  1  0.57024000  0.28872000  0.54715000  1.0
  C  C101  1  0.42975000  0.21127000  0.04715000  1.0
  N  N102  1  0.16601000  0.11216000  0.41112000  1.0
  N  N103  1  0.83398000  0.38784000  0.91111000  1.0
  N  N104  1  0.83398000  0.88784000  0.58888000  1.0
  N  N105  1  0.16602000  0.61216000  0.08888000  1.0
  N  N106  1  0.04182000  0.27500000  0.45519000  1.0
  N  N107  1  0.95817000  0.22500000  0.95519000  1.0
  N  N108  1  0.95817000  0.72500000  0.54481000  1.0
  N  N109  1  0.04183000  0.77500000  0.04481000  1.0
  N  N110  1  0.85276000  0.18193000  0.21239000  1.0
  N  N111  1  0.14724000  0.31807000  0.71239000  1.0
  N  N112  1  0.14724000  0.81807000  0.78761000  1.0
  N  N113  1  0.85276000  0.68193000  0.28761000  1.0
  N  N114  1  0.97224000  0.08246000  0.12444000  1.0
  N  N115  1  0.02776000  0.41754000  0.62444000  1.0
  N  N116  1  0.02776000  0.91754000  0.87556000  1.0
  N  N117  1  0.97224000  0.58246000  0.37556000  1.0
  N  N118  1  0.32831000  0.63768000  0.50179000  1.0
  N  N119  1  0.67169000  0.86232000  0.00179000  1.0
  N  N120  1  0.67169000  0.36232000  0.49821000  1.0
  N  N121  1  0.32831000  0.13768000  0.99821000  1.0
  O  O122  1  0.53644000  0.78621000  0.40421000  1.0
  O  O123  1  0.46356000  0.71379000  0.90420000  1.0
  O  O124  1  0.46356000  0.21379000  0.59580000  1.0
  O  O125  1  0.53643000  0.28620000  0.09580000  1.0
