# generated using pymatgen
data_Mn2H10C8O13
_symmetry_space_group_name_H-M   'P 1'
_cell_length_a   7.55202000
_cell_length_b   8.90205000
_cell_length_c   10.86550000
_cell_angle_alpha   90.00010000
_cell_angle_beta   90.00030000
_cell_angle_gamma   98.74840000
_symmetry_Int_Tables_number   1
_chemical_formula_structural   Mn2H10C8O13
_chemical_formula_sum   'Mn4 H20 C16 O26'
_cell_volume   721.97235395
_cell_formula_units_Z   2
loop_
 _symmetry_equiv_pos_site_id
 _symmetry_equiv_pos_as_xyz
  1  'x, y, z'
loop_
 _atom_site_type_symbol
 _atom_site_label
 _atom_site_symmetry_multiplicity
 _atom_site_fract_x
 _atom_site_fract_y
 _atom_site_fract_z
 _atom_site_occupancy
  Mn  Mn0  1  0.73845000  0.74199000  0.00011000  1.0
  Mn  Mn1  1  0.26157000  0.25802000  0.50009000  1.0
  Mn  Mn2  1  0.84546000  0.72699000  0.48839000  1.0
  Mn  Mn3  1  0.15455000  0.27301000  0.98839000  1.0
  H  H4  1  0.86653000  0.12097000  0.16456000  1.0
  H  H5  1  0.13348000  0.87904000  0.66456000  1.0
  H  H6  1  0.71204000  0.10935000  0.35784000  1.0
  H  H7  1  0.28797000  0.89065000  0.85783000  1.0
  H  H8  1  0.61624000  0.34763000  0.16194000  1.0
  H  H9  1  0.38376000  0.65237000  0.66195000  1.0
  H  H10  1  0.81642000  0.33968000  0.32314000  1.0
  H  H11  1  0.18358000  0.66033000  0.82315000  1.0
  H  H12  1  0.01268000  0.94052000  0.13702000  1.0
  H  H13  1  0.98733000  0.05948000  0.63703000  1.0
  H  H14  1  0.57372000  0.90569000  0.42755000  1.0
  H  H15  1  0.42628000  0.09431000  0.92756000  1.0
  H  H16  1  0.50588000  0.53759000  0.10607000  1.0
  H  H17  1  0.49411000  0.46241000  0.60607000  1.0
  H  H18  1  0.00121000  0.51932000  0.38938000  1.0
  H  H19  1  0.99878000  0.48068000  0.88938000  1.0
  H  H20  1  0.67230000  0.89388000  0.64721000  1.0
  H  H21  1  0.32770000  0.10612000  0.14721000  1.0
  H  H22  1  0.83459000  0.84024000  0.72437000  1.0
  H  H23  1  0.16540000  0.15976000  0.22437000  1.0
  C  C24  1  0.61251000  0.00321000  0.12475000  1.0
  C  C25  1  0.38750000  0.99679000  0.62476000  1.0
  C  C26  1  0.79208000  0.00933000  0.19045000  1.0
  C  C27  1  0.20792000  0.99068000  0.69045000  1.0
  C  C28  1  0.77604000  0.01132000  0.33145000  1.0
  C  C29  1  0.22397000  0.98868000  0.83145000  1.0
  C  C30  1  0.96774000  0.03026000  0.38204000  1.0
  C  C31  1  0.03226000  0.96974000  0.88204000  1.0
  C  C32  1  0.86290000  0.45241000  0.08827000  1.0
  C  C33  1  0.13709000  0.54760000  0.58828000  1.0
  C  C34  1  0.70723000  0.45524000  0.17752000  1.0
  C  C35  1  0.29276000  0.54476000  0.67752000  1.0
  C  C36  1  0.76847000  0.44968000  0.31107000  1.0
  C  C37  1  0.23153000  0.55033000  0.81107000  1.0
  C  C38  1  0.61029000  0.44884000  0.39993000  1.0
  C  C39  1  0.38971000  0.55116000  0.89992000  1.0
  O  O40  1  0.56768000  0.90530000  0.04087000  1.0
  O  O41  1  0.43232000  0.09471000  0.54088000  1.0
  O  O42  1  0.52418000  0.10656000  0.15658000  1.0
  O  O43  1  0.47581000  0.89344000  0.65657000  1.0
  O  O44  1  0.88749000  0.89098000  0.14929000  1.0
  O  O45  1  0.11251000  0.10903000  0.64929000  1.0
  O  O46  1  0.67108000  0.87464000  0.37868000  1.0
  O  O47  1  0.32893000  0.12536000  0.87867000  1.0
  O  O48  1  0.02743000  0.91642000  0.42465000  1.0
  O  O49  1  0.97257000  0.08357000  0.92464000  1.0
  O  O50  1  0.05867000  0.16383000  0.37161000  1.0
  O  O51  1  0.94133000  0.83616000  0.87161000  1.0
  O  O52  1  0.88212000  0.54859000  0.00003000  1.0
  O  O53  1  0.11787000  0.45140000  0.50002000  1.0
  O  O54  1  0.95906000  0.34938000  0.10377000  1.0
  O  O55  1  0.04095000  0.65060000  0.60377000  1.0
  O  O56  1  0.61459000  0.58123000  0.15442000  1.0
  O  O57  1  0.38540000  0.41877000  0.65442000  1.0
  O  O58  1  0.91300000  0.56821000  0.33935000  1.0
  O  O59  1  0.08699000  0.43179000  0.83935000  1.0
  O  O60  1  0.63305000  0.53904000  0.49313000  1.0
  O  O61  1  0.36694000  0.46096000  0.99312000  1.0
  O  O62  1  0.47140000  0.35506000  0.37911000  1.0
  O  O63  1  0.52859000  0.64494000  0.87912000  1.0
  O  O64  1  0.80426000  0.87735000  0.64235000  1.0
  O  O65  1  0.19574000  0.12264000  0.14234000  1.0
