# generated using pymatgen
data_CdH10C10N8O7
_symmetry_space_group_name_H-M   'P 1'
_cell_length_a   8.61179000
_cell_length_b   13.57940000
_cell_length_c   15.06610000
_cell_angle_alpha   107.02500000
_cell_angle_beta   89.99980000
_cell_angle_gamma   89.99960000
_symmetry_Int_Tables_number   1
_chemical_formula_structural   CdH10C10N8O7
_chemical_formula_sum   'Cd4 H40 C40 N32 O28'
_cell_volume   1684.66360405
_cell_formula_units_Z   4
loop_
 _symmetry_equiv_pos_site_id
 _symmetry_equiv_pos_as_xyz
  1  'x, y, z'
loop_
 _atom_site_type_symbol
 _atom_site_label
 _atom_site_symmetry_multiplicity
 _atom_site_fract_x
 _atom_site_fract_y
 _atom_site_fract_z
 _atom_site_occupancy
  Cd  Cd0  1  0.69610000  0.00076000  0.75853000  1.0
  Cd  Cd1  1  0.19608000  0.49923000  0.24147000  1.0
  Cd  Cd2  1  0.30390000  0.99923000  0.24148000  1.0
  Cd  Cd3  1  0.80392000  0.50077000  0.75852000  1.0
  H  H4  1  0.38466000  0.28510000  0.01509000  1.0
  H  H5  1  0.88464000  0.21490000  0.98492000  1.0
  H  H6  1  0.61535000  0.71489000  0.98491000  1.0
  H  H7  1  0.11536000  0.78510000  0.01508000  1.0
  H  H8  1  0.21974000  0.24617000  0.94153000  1.0
  H  H9  1  0.71972000  0.25384000  0.05847000  1.0
  H  H10  1  0.78026000  0.75382000  0.05847000  1.0
  H  H11  1  0.28027000  0.74617000  0.94153000  1.0
  H  H12  1  0.29939000  0.19323000  0.79543000  1.0
  H  H13  1  0.79937000  0.30676000  0.20457000  1.0
  H  H14  1  0.70061000  0.80676000  0.20458000  1.0
  H  H15  1  0.20063000  0.69324000  0.79542000  1.0
  H  H16  1  0.42762000  0.20233000  0.65072000  1.0
  H  H17  1  0.92759000  0.29766000  0.34928000  1.0
  H  H18  1  0.57239000  0.79767000  0.34929000  1.0
  H  H19  1  0.07241000  0.70234000  0.65071000  1.0
  H  H20  1  0.87297000  0.90632000  0.55681000  1.0
  H  H21  1  0.37295000  0.59366000  0.44319000  1.0
  H  H22  1  0.12702000  0.09367000  0.44320000  1.0
  H  H23  1  0.62704000  0.40635000  0.55680000  1.0
  H  H24  1  0.54591000  0.17674000  0.49674000  1.0
  H  H25  1  0.04590000  0.32325000  0.50327000  1.0
  H  H26  1  0.45409000  0.82326000  0.50327000  1.0
  H  H27  1  0.95411000  0.67675000  0.49673000  1.0
  H  H28  1  0.88432000  0.93393000  0.40041000  1.0
  H  H29  1  0.38432000  0.56606000  0.59958000  1.0
  H  H30  1  0.11567000  0.06606000  0.59959000  1.0
  H  H31  1  0.61568000  0.43395000  0.40041000  1.0
  H  H32  1  0.71967000  0.07454000  0.36992000  1.0
  H  H33  1  0.21967000  0.42545000  0.63008000  1.0
  H  H34  1  0.28033000  0.92546000  0.63008000  1.0
  H  H35  1  0.78035000  0.57456000  0.36991000  1.0
  H  H36  1  0.45502000  0.15453000  0.12021000  1.0
  H  H37  1  0.95502000  0.34548000  0.87979000  1.0
  H  H38  1  0.54498000  0.84547000  0.87979000  1.0
  H  H39  1  0.04497000  0.65453000  0.12021000  1.0
  H  H40  1  0.00415000  0.03022000  0.09452000  1.0
  H  H41  1  0.50414000  0.46978000  0.90548000  1.0
  H  H42  1  0.99586000  0.96977000  0.90548000  1.0
  H  H43  1  0.49585000  0.53022000  0.09452000  1.0
  C  C44  1  0.32064000  0.21836000  0.97125000  1.0
  C  C45  1  0.82063000  0.28164000  0.02875000  1.0
  C  C46  1  0.67935000  0.78163000  0.02875000  1.0
  C  C47  1  0.17936000  0.71836000  0.97124000  1.0
  C  C48  1  0.50908000  0.14687000  0.66510000  1.0
  C  C49  1  0.00906000  0.35312000  0.33489000  1.0
  C  C50  1  0.49092000  0.85313000  0.33488000  1.0
  C  C51  1  0.99094000  0.64689000  0.66510000  1.0
  C  C52  1  0.43324000  0.15813000  0.89712000  1.0
  C  C53  1  0.93324000  0.34187000  0.10288000  1.0
  C  C54  1  0.56675000  0.84186000  0.10288000  1.0
  C  C55  1  0.06676000  0.65814000  0.89711000  1.0
  C  C56  1  0.80250000  0.96558000  0.54080000  1.0
  C  C57  1  0.30249000  0.53440000  0.45920000  1.0
  C  C58  1  0.19750000  0.03441000  0.45920000  1.0
  C  C59  1  0.69752000  0.46560000  0.54079000  1.0
  C  C60  1  0.61630000  0.09298000  0.59174000  1.0
  C  C61  1  0.11628000  0.40701000  0.40826000  1.0
  C  C62  1  0.38371000  0.90702000  0.40826000  1.0
  C  C63  1  0.88372000  0.59299000  0.59173000  1.0
  C  C64  1  0.61887000  0.11540000  0.50696000  1.0
  C  C65  1  0.11886000  0.38459000  0.49304000  1.0
  C  C66  1  0.38113000  0.88460000  0.49305000  1.0
  C  C67  1  0.88115000  0.61541000  0.50695000  1.0
  C  C68  1  0.80861000  0.98176000  0.45348000  1.0
  C  C69  1  0.30860000  0.51823000  0.54651000  1.0
  C  C70  1  0.19139000  0.01824000  0.54652000  1.0
  C  C71  1  0.69140000  0.48178000  0.45348000  1.0
  C  C72  1  0.71717000  0.05907000  0.43688000  1.0
  C  C73  1  0.21717000  0.44092000  0.56312000  1.0
  C  C74  1  0.28283000  0.94093000  0.56312000  1.0
  C  C75  1  0.78284000  0.55909000  0.43687000  1.0
  C  C76  1  0.33821000  0.13060000  0.09657000  1.0
  C  C77  1  0.83822000  0.36940000  0.90343000  1.0
  C  C78  1  0.66179000  0.86940000  0.90344000  1.0
  C  C79  1  0.16180000  0.63060000  0.09657000  1.0
  C  C80  1  0.10714000  0.07064000  0.08285000  1.0
  C  C81  1  0.60714000  0.42936000  0.91714000  1.0
  C  C82  1  0.89286000  0.92935000  0.91716000  1.0
  C  C83  1  0.39285000  0.57064000  0.08285000  1.0
  N  N84  1  0.70924000  0.01999000  0.60846000  1.0
  N  N85  1  0.20923000  0.48000000  0.39154000  1.0
  N  N86  1  0.29075000  0.98001000  0.39154000  1.0
  N  N87  1  0.79077000  0.52000000  0.60845000  1.0
  N  N88  1  0.51226000  0.12658000  0.74346000  1.0
  N  N89  1  0.01223000  0.37342000  0.25655000  1.0
  N  N90  1  0.48774000  0.87342000  0.25656000  1.0
  N  N91  1  0.98776000  0.62658000  0.74345000  1.0
  N  N92  1  0.26408000  0.15756000  0.02888000  1.0
  N  N93  1  0.76408000  0.34245000  0.97113000  1.0
  N  N94  1  0.73592000  0.84244000  0.97113000  1.0
  N  N95  1  0.23591000  0.65756000  0.02887000  1.0
  N  N96  1  0.41004000  0.17189000  0.81158000  1.0
  N  N97  1  0.91001000  0.32810000  0.18843000  1.0
  N  N98  1  0.58997000  0.82810000  0.18843000  1.0
  N  N99  1  0.08998000  0.67190000  0.81157000  1.0
  N  N100  1  0.24110000  0.07511000  0.13187000  1.0
  N  N101  1  0.74110000  0.42490000  0.86814000  1.0
  N  N102  1  0.75890000  0.92489000  0.86814000  1.0
  N  N103  1  0.25889000  0.57511000  0.13186000  1.0
  N  N104  1  0.59241000  0.79638000  0.65456000  1.0
  N  N105  1  0.09245000  0.70363000  0.34543000  1.0
  N  N106  1  0.40759000  0.20362000  0.34544000  1.0
  N  N107  1  0.90756000  0.29637000  0.65456000  1.0
  N  N108  1  0.00707000  0.12694000  0.78920000  1.0
  N  N109  1  0.50706000  0.37306000  0.21081000  1.0
  N  N110  1  0.99293000  0.87306000  0.21080000  1.0
  N  N111  1  0.49294000  0.62694000  0.78919000  1.0
  N  N112  1  0.11614000  0.11961000  0.01859000  1.0
  N  N113  1  0.61614000  0.38040000  0.98142000  1.0
  N  N114  1  0.88386000  0.88039000  0.98142000  1.0
  N  N115  1  0.38386000  0.61960000  0.01858000  1.0
  O  O116  1  0.54161000  0.10745000  0.91529000  1.0
  O  O117  1  0.04160000  0.39255000  0.08473000  1.0
  O  O118  1  0.45837000  0.89253000  0.08472000  1.0
  O  O119  1  0.95839000  0.60746000  0.91527000  1.0
  O  O120  1  0.50121000  0.86777000  0.70221000  1.0
  O  O121  1  0.00122000  0.63225000  0.29780000  1.0
  O  O122  1  0.49880000  0.13223000  0.29779000  1.0
  O  O123  1  0.99879000  0.36775000  0.70219000  1.0
  O  O124  1  0.05494000  0.03720000  0.75194000  1.0
  O  O125  1  0.55493000  0.46279000  0.24807000  1.0
  O  O126  1  0.94507000  0.96280000  0.24807000  1.0
  O  O127  1  0.44507000  0.53721000  0.75193000  1.0
  O  O128  1  0.73829000  0.81404000  0.65892000  1.0
  O  O129  1  0.23832000  0.68595000  0.34109000  1.0
  O  O130  1  0.26171000  0.18596000  0.34109000  1.0
  O  O131  1  0.76168000  0.31406000  0.65891000  1.0
  O  O132  1  0.86536000  0.14311000  0.81592000  1.0
  O  O133  1  0.36535000  0.35689000  0.18409000  1.0
  O  O134  1  0.13464000  0.85689000  0.18408000  1.0
  O  O135  1  0.63465000  0.64311000  0.81591000  1.0
  O  O136  1  0.09505000  0.20506000  0.80222000  1.0
  O  O137  1  0.59505000  0.29494000  0.19779000  1.0
  O  O138  1  0.90494000  0.79494000  0.19779000  1.0
  O  O139  1  0.40495000  0.70506000  0.80221000  1.0
  O  O140  1  0.53808000  0.71327000  0.60504000  1.0
  O  O141  1  0.03816000  0.78677000  0.39493000  1.0
  O  O142  1  0.46192000  0.28674000  0.39496000  1.0
  O  O143  1  0.96184000  0.21323000  0.60506000  1.0
