# generated using pymatgen
data_NiH19C17(NO)5
_symmetry_space_group_name_H-M   'P 1'
_cell_length_a   8.68336000
_cell_length_b   11.12190000
_cell_length_c   11.76735405
_cell_angle_alpha   67.41749155
_cell_angle_beta   69.87760073
_cell_angle_gamma   77.65900000
_symmetry_Int_Tables_number   1
_chemical_formula_structural   NiH19C17(NO)5
_chemical_formula_sum   'Ni2 H38 C34 N10 O10'
_cell_volume   980.87863541
_cell_formula_units_Z   2
loop_
 _symmetry_equiv_pos_site_id
 _symmetry_equiv_pos_as_xyz
  1  'x, y, z'
loop_
 _atom_site_type_symbol
 _atom_site_label
 _atom_site_symmetry_multiplicity
 _atom_site_fract_x
 _atom_site_fract_y
 _atom_site_fract_z
 _atom_site_occupancy
  Ni  Ni0  1  0.62988000  0.95948000  0.41477000  1.0
  Ni  Ni1  1  0.13688000  0.44347000  0.89461000  1.0
  H  H2  1  0.73709000  0.82248000  0.76534000  1.0
  H  H3  1  0.94115000  0.97218000  0.58087000  1.0
  H  H4  1  0.32296000  0.66034000  0.65621000  1.0
  H  H5  1  0.53187000  0.07993000  0.06414000  1.0
  H  H6  1  0.32235000  0.93908000  0.25276000  1.0
  H  H7  1  0.94463000  0.23913000  0.13973000  1.0
  H  H8  1  0.87069000  0.35589000  0.80055000  1.0
  H  H9  1  0.27780000  0.22067000  0.54040000  1.0
  H  H10  1  0.39096000  0.32174000  0.67733000  1.0
  H  H11  1  0.80509000  0.26983000  0.66491000  1.0
  H  H12  1  0.95414000  0.15381000  0.60424000  1.0
  H  H13  1  0.88132000  0.52068000  0.13442000  1.0
  H  H14  1  0.39633000  0.54143000  0.99386000  1.0
  H  H15  1  0.27651000  0.59855000  0.22060000  1.0
  H  H16  1  0.80497000  0.58928000  0.31806000  1.0
  H  H17  1  0.93674000  0.68969000  0.31908000  1.0
  H  H18  1  0.06466000  0.50314000  0.46347000  1.0
  H  H19  1  0.84865000  0.51656000  0.52787000  1.0
  H  H20  1  0.06136000  0.31772000  0.39880000  1.0
  H  H21  1  0.84546000  0.33964000  0.43389000  1.0
  H  H22  1  0.84938000  0.08053000  0.11137000  1.0
  H  H23  1  0.55988000  0.76235000  0.30080000  1.0
  H  H24  1  0.71120000  0.77613000  0.04433000  1.0
  H  H25  1  0.91870000  0.09268000  0.88054000  1.0
  H  H26  1  0.85680000  0.97177000  0.84654000  1.0
  H  H27  1  0.08807000  0.81260000  0.91532000  1.0
  H  H28  1  0.15321000  0.95543000  0.78448000  1.0
  H  H29  1  0.13294000  0.90235000  0.06592000  1.0
  H  H30  1  0.18509000  0.05079000  0.93897000  1.0
  H  H31  1  0.68719000  0.15166000  0.54235000  1.0
  H  H32  1  0.56063000  0.10601000  0.80676000  1.0
  H  H33  1  0.42355000  0.81908000  0.71404000  1.0
  H  H34  1  0.42919000  0.90253000  0.99387000  1.0
  H  H35  1  0.37859000  0.78088000  0.95426000  1.0
  H  H36  1  0.87156000  0.80412000  0.44698000  1.0
  H  H37  1  0.73569000  0.75677000  0.58295000  1.0
  H  H38  1  0.38663000  0.11471000  0.38548000  1.0
  H  H39  1  0.52446000  0.18058000  0.25476000  1.0
  C  C40  1  0.81006000  0.57441000  0.91866000  1.0
  C  C41  1  0.92447000  0.66666667  0.80402000  1.0
  C  C42  1  0.86792000  0.79172000  0.73588000  1.0
  C  C43  1  0.98034000  0.87372000  0.63609000  1.0
  C  C44  1  0.14736000  0.82877000  0.60679000  1.0
  C  C45  1  0.19434000  0.70067000  0.67680000  1.0
  C  C46  1  0.27477000  0.91840000  0.50953000  1.0
  C  C47  1  0.46220000  0.31560000  0.88653000  1.0
  C  C48  1  0.34573000  0.22732000  0.00348000  1.0
  C  C49  1  0.40026000  0.10950000  0.08506000  1.0
  C  C50  1  0.28512000  0.03308000  0.18869000  1.0
  C  C51  1  0.11785000  0.07783000  0.21050000  1.0
  C  C52  1  0.07307000  0.19852000  0.12640000  1.0
  C  C53  1  0.98768000  0.99425000  0.31396000  1.0
  C  C54  1  0.99840000  0.33489000  0.74982000  1.0
  C  C55  1  0.21265000  0.26385000  0.61434000  1.0
  C  C56  1  0.26644000  0.31327000  0.68330000  1.0
  C  C57  1  0.92948000  0.25559000  0.60192000  1.0
  C  C58  1  0.00545000  0.53563000  0.12412000  1.0
  C  C59  1  0.27070000  0.54633000  0.05538000  1.0
  C  C60  1  0.21374000  0.57430000  0.16816000  1.0
  C  C61  1  0.92752000  0.59079000  0.32456000  1.0
  C  C62  1  0.94958000  0.49100000  0.45100000  1.0
  C  C63  1  0.94832000  0.34919000  0.46364000  1.0
  C  C64  1  0.79164000  0.99473000  0.13080000  1.0
  C  C65  1  0.64358000  0.82966000  0.22300000  1.0
  C  C66  1  0.71753000  0.83571000  0.09709000  1.0
  C  C67  1  0.91673000  0.98684000  0.90758000  1.0
  C  C68  1  0.09158000  0.91863000  0.88852000  1.0
  C  C69  1  0.18926000  0.94462000  0.96148000  1.0
  C  C70  1  0.61314000  0.07616000  0.61793000  1.0
  C  C71  1  0.55082000  0.05431000  0.74810000  1.0
  C  C72  1  0.47714000  0.90463000  0.70105000  1.0
  C  C73  1  0.36900000  0.88675000  0.93335000  1.0
  N  N74  1  0.13214000  0.35646000  0.76775000  1.0
  N  N75  1  0.04275000  0.27826000  0.65760000  1.0
  N  N76  1  0.13890000  0.52305000  0.02893000  1.0
  N  N77  1  0.04552000  0.56721000  0.21021000  1.0
  N  N78  1  0.81113000  0.94119000  0.04011000  1.0
  N  N79  1  0.69132000  0.92884000  0.24292000  1.0
  N  N80  1  0.56653000  0.98234000  0.58991000  1.0
  N  N81  1  0.46465000  0.94525000  0.79931000  1.0
  N  N82  1  0.08549000  0.62249000  0.77335000  1.0
  N  N83  1  0.18416000  0.26920000  0.02446000  1.0
  O  O84  1  0.87703000  0.45833000  0.96455000  1.0
  O  O85  1  0.66451000  0.61849000  0.96055000  1.0
  O  O86  1  0.22925000  0.03987000  0.47045000  1.0
  O  O87  1  0.42099000  0.86424000  0.47824000  1.0
  O  O88  1  0.39516000  0.42657000  0.82855000  1.0
  O  O89  1  0.61133000  0.27311000  0.85505000  1.0
  O  O90  1  0.02890000  0.87220000  0.35611000  1.0
  O  O91  1  0.84427000  0.05253000  0.34654000  1.0
  O  O92  1  0.75485000  0.77396000  0.49178000  1.0
  O  O93  1  0.50181000  0.14683000  0.34785000  1.0
