# generated using pymatgen
data_YH15C11(NO3)3
_symmetry_space_group_name_H-M   'P 1'
_cell_length_a   7.50887000
_cell_length_b   8.99442000
_cell_length_c   13.02560000
_cell_angle_alpha   92.25190000
_cell_angle_beta   94.34490000
_cell_angle_gamma   112.10100000
_symmetry_Int_Tables_number   1
_chemical_formula_structural   YH15C11(NO3)3
_chemical_formula_sum   'Y2 H30 C22 N6 O18'
_cell_volume   810.54804498
_cell_formula_units_Z   2
loop_
 _symmetry_equiv_pos_site_id
 _symmetry_equiv_pos_as_xyz
  1  'x, y, z'
loop_
 _atom_site_type_symbol
 _atom_site_label
 _atom_site_symmetry_multiplicity
 _atom_site_fract_x
 _atom_site_fract_y
 _atom_site_fract_z
 _atom_site_occupancy
  Y  Y0  1  0.74728000  0.49936000  0.64965000  1.0
  Y  Y1  1  0.25272000  0.50064000  0.35035000  1.0
  H  H2  1  0.71765000  0.06016000  0.54369000  1.0
  H  H3  1  0.28234000  0.93984000  0.45630000  1.0
  H  H4  1  0.19681000  0.30904000  0.03161000  1.0
  H  H5  1  0.80319000  0.69094000  0.96839000  1.0
  H  H6  1  0.23656000  0.29936000  0.89802000  1.0
  H  H7  1  0.76345000  0.70062000  0.10198000  1.0
  H  H8  1  0.08578000  0.12320000  0.95565000  1.0
  H  H9  1  0.91422000  0.87679000  0.04435000  1.0
  H  H10  1  0.29821000  0.68117000  0.66448000  1.0
  H  H11  1  0.70178000  0.31883000  0.33552000  1.0
  H  H12  1  0.60278000  0.07494000  0.69602000  1.0
  H  H13  1  0.39722000  0.92506000  0.30399000  1.0
  H  H14  1  0.58884000  0.87209000  0.70719000  1.0
  H  H15  1  0.41115000  0.12790000  0.29281000  1.0
  H  H16  1  0.59465000  0.99402000  0.81938000  1.0
  H  H17  1  0.40534000  0.00597000  0.18062000  1.0
  H  H18  1  0.07027000  0.38104000  0.79077000  1.0
  H  H19  1  0.92974000  0.61896000  0.20923000  1.0
  H  H20  1  0.33918000  0.14088000  0.74886000  1.0
  H  H21  1  0.66082000  0.85912000  0.25114000  1.0
  H  H22  1  0.21741000  0.00496000  0.84112000  1.0
  H  H23  1  0.78260000  0.99505000  0.15888000  1.0
  H  H24  1  0.10381000  0.98830000  0.71378000  1.0
  H  H25  1  0.89619000  0.01170000  0.28623000  1.0
  H  H26  1  0.88128000  0.30949000  0.07511000  1.0
  H  H27  1  0.11871000  0.69051000  0.92489000  1.0
  H  H28  1  0.74292000  0.12626000  0.99992000  1.0
  H  H29  1  0.25708000  0.87374000  0.00008000  1.0
  H  H30  1  0.70866000  0.30768000  0.97173000  1.0
  H  H31  1  0.29135000  0.69232000  0.02827000  1.0
  C  C32  1  0.84095000  0.03205000  0.52475000  1.0
  C  C33  1  0.15903000  0.96795000  0.47525000  1.0
  C  C34  1  0.62344000  0.74229000  0.50419000  1.0
  C  C35  1  0.37656000  0.25772000  0.49581000  1.0
  C  C36  1  0.81927000  0.87323000  0.50081000  1.0
  C  C37  1  0.18073000  0.12676000  0.49920000  1.0
  C  C38  1  0.03357000  0.32696000  0.55410000  1.0
  C  C39  1  0.96643000  0.67304000  0.44590000  1.0
  C  C40  1  0.13094000  0.25460000  0.95430000  1.0
  C  C41  1  0.86906000  0.74539000  0.04570000  1.0
  C  C42  1  0.01965000  0.15935000  0.52486000  1.0
  C  C43  1  0.98034000  0.84065000  0.47514000  1.0
  C  C44  1  0.22231000  0.75592000  0.69299000  1.0
  C  C45  1  0.77768000  0.24408000  0.30701000  1.0
  C  C46  1  0.54196000  0.96548000  0.73705000  1.0
  C  C47  1  0.45804000  0.03452000  0.26296000  1.0
  C  C48  1  0.94753000  0.35928000  0.83727000  1.0
  C  C49  1  0.05248000  0.64072000  0.16273000  1.0
  C  C50  1  0.24291000  0.01724000  0.75928000  1.0
  C  C51  1  0.75709000  0.98277000  0.24071000  1.0
  C  C52  1  0.81514000  0.25762000  0.99724000  1.0
  C  C53  1  0.18487000  0.74238000  0.00275000  1.0
  N  N54  1  0.33202000  0.90760000  0.72513000  1.0
  N  N55  1  0.66797000  0.09240000  0.27487000  1.0
  N  N56  1  0.96377000  0.29439000  0.92611000  1.0
  N  N57  1  0.03624000  0.70561000  0.07388000  1.0
  N  N58  1  0.52845000  0.57469000  0.80693000  1.0
  N  N59  1  0.47155000  0.42531000  0.19307000  1.0
  O  O60  1  0.59446000  0.66031000  0.58276000  1.0
  O  O61  1  0.40554000  0.33969000  0.41724000  1.0
  O  O62  1  0.15710000  0.44486000  0.51600000  1.0
  O  O63  1  0.84290000  0.55514000  0.48400000  1.0
  O  O64  1  0.91764000  0.33862000  0.61743000  1.0
  O  O65  1  0.08236000  0.66138000  0.38257000  1.0
  O  O66  1  0.49613000  0.72715000  0.43029000  1.0
  O  O67  1  0.50387000  0.27285000  0.56971000  1.0
  O  O68  1  0.80541000  0.39413000  0.80768000  1.0
  O  O69  1  0.19461000  0.60588000  0.19232000  1.0
  O  O70  1  0.04129000  0.70139000  0.69311000  1.0
  O  O71  1  0.95871000  0.29862000  0.30689000  1.0
  O  O72  1  0.45477000  0.44492000  0.74728000  1.0
  O  O73  1  0.54523000  0.55508000  0.25272000  1.0
  O  O74  1  0.70341000  0.66579000  0.79621000  1.0
  O  O75  1  0.29659000  0.33421000  0.20379000  1.0
  O  O76  1  0.43457000  0.61077000  0.87128000  1.0
  O  O77  1  0.56543000  0.38923000  0.12872000  1.0
