# generated using pymatgen
data_CuH15C14N3O4
_symmetry_space_group_name_H-M   'P 1'
_cell_length_a   7.01196000
_cell_length_b   10.96660000
_cell_length_c   25.39763016
_cell_angle_alpha   89.99389116
_cell_angle_beta   84.54139073
_cell_angle_gamma   89.99070000
_symmetry_Int_Tables_number   1
_chemical_formula_structural   CuH15C14N3O4
_chemical_formula_sum   'Cu4 H60 C56 N12 O16'
_cell_volume   1944.15413380
_cell_formula_units_Z   4
loop_
 _symmetry_equiv_pos_site_id
 _symmetry_equiv_pos_as_xyz
  1  'x, y, z'
loop_
 _atom_site_type_symbol
 _atom_site_label
 _atom_site_symmetry_multiplicity
 _atom_site_fract_x
 _atom_site_fract_y
 _atom_site_fract_z
 _atom_site_occupancy
  Cu  Cu0  1  0.48229000  0.22903000  0.27360000  1.0
  Cu  Cu1  1  0.01777000  0.72898000  0.22641000  1.0
  Cu  Cu2  1  0.51775000  0.77098000  0.72641000  1.0
  Cu  Cu3  1  0.98213000  0.27106000  0.77357000  1.0
  H  H4  1  0.48081000  0.50264000  0.25350000  1.0
  H  H5  1  0.01915000  0.00256000  0.24649000  1.0
  H  H6  1  0.51919000  0.49736000  0.74651000  1.0
  H  H7  1  0.98079000  0.99744000  0.75349000  1.0
  H  H8  1  0.61761000  0.63776000  0.17946000  1.0
  H  H9  1  0.88237000  0.13770000  0.32053000  1.0
  H  H10  1  0.38240000  0.36223000  0.82055000  1.0
  H  H11  1  0.11762000  0.86232000  0.67945000  1.0
  H  H12  1  0.79318000  0.54090000  0.10015000  1.0
  H  H13  1  0.70683000  0.04084000  0.39986000  1.0
  H  H14  1  0.20684000  0.45909000  0.89986000  1.0
  H  H15  1  0.29320000  0.95918000  0.60014000  1.0
  H  H16  1  0.82959000  0.31188000  0.09758000  1.0
  H  H17  1  0.67038000  0.81184000  0.40243000  1.0
  H  H18  1  0.17040000  0.68810000  0.90243000  1.0
  H  H19  1  0.32965000  0.18818000  0.59757000  1.0
  H  H20  1  0.65243000  0.10969000  0.14012000  1.0
  H  H21  1  0.84758000  0.60962000  0.35989000  1.0
  H  H22  1  0.34755000  0.89031000  0.85989000  1.0
  H  H23  1  0.15248000  0.39040000  0.64010000  1.0
  H  H24  1  0.84470000  0.13061000  0.18010000  1.0
  H  H25  1  0.65530000  0.63057000  0.31991000  1.0
  H  H26  1  0.15529000  0.86938000  0.81990000  1.0
  H  H27  1  0.34471000  0.36942000  0.68010000  1.0
  H  H28  1  0.58352000  0.93025000  0.19269000  1.0
  H  H29  1  0.91645000  0.43018000  0.30731000  1.0
  H  H30  1  0.41642000  0.06974000  0.80732000  1.0
  H  H31  1  0.08361000  0.56986000  0.69269000  1.0
  H  H32  1  0.12531000  0.04534000  0.40285000  1.0
  H  H33  1  0.37463000  0.54526000  0.09715000  1.0
  H  H34  1  0.87463000  0.95468000  0.59716000  1.0
  H  H35  1  0.62547000  0.45477000  0.90285000  1.0
  H  H36  1  0.36175000  0.02589000  0.42088000  1.0
  H  H37  1  0.13818000  0.52587000  0.07913000  1.0
  H  H38  1  0.63820000  0.97413000  0.57913000  1.0
  H  H39  1  0.86192000  0.47417000  0.92087000  1.0
  H  H40  1  0.04592000  0.82839000  0.43075000  1.0
  H  H41  1  0.45400000  0.32829000  0.06926000  1.0
  H  H42  1  0.95403000  0.17163000  0.56926000  1.0
  H  H43  1  0.54605000  0.67172000  0.93074000  1.0
  H  H44  1  0.12455000  0.91285000  0.48458000  1.0
  H  H45  1  0.37535000  0.41280000  0.01543000  1.0
  H  H46  1  0.87539000  0.08717000  0.51543000  1.0
  H  H47  1  0.62472000  0.58723000  0.98457000  1.0
  H  H48  1  0.28275000  0.80824000  0.44891000  1.0
  H  H49  1  0.21716000  0.30821000  0.05111000  1.0
  H  H50  1  0.71720000  0.19178000  0.55110000  1.0
  H  H51  1  0.78288000  0.69183000  0.94890000  1.0
  H  H52  1  0.36827000  0.40940000  0.43224000  1.0
  H  H53  1  0.13199000  0.90965000  0.06781000  1.0
  H  H54  1  0.63202000  0.59039000  0.56779000  1.0
  H  H55  1  0.86777000  0.09021000  0.93214000  1.0
  H  H56  1  0.37941000  0.53591000  0.38862000  1.0
  H  H57  1  0.12070000  0.03604000  0.11149000  1.0
  H  H58  1  0.62085000  0.46400000  0.61148000  1.0
  H  H59  1  0.87908000  0.96390000  0.88842000  1.0
  H  H60  1  0.58683000  0.49268000  0.42144000  1.0
  H  H61  1  0.91337000  0.99291000  0.07863000  1.0
  H  H62  1  0.41346000  0.50712000  0.57863000  1.0
  H  H63  1  0.08643000  0.00698000  0.92128000  1.0
  C  C64  1  0.55995000  0.46504000  0.21827000  1.0
  C  C65  1  0.93998000  0.96497000  0.28173000  1.0
  C  C66  1  0.44005000  0.53496000  0.78174000  1.0
  C  C67  1  0.05996000  0.03504000  0.71826000  1.0
  C  C68  1  0.63385000  0.53914000  0.17687000  1.0
  C  C69  1  0.86611000  0.03908000  0.32312000  1.0
  C  C70  1  0.36616000  0.46085000  0.82314000  1.0
  C  C71  1  0.13386000  0.96094000  0.67687000  1.0
  C  C72  1  0.73178000  0.48413000  0.13272000  1.0
  C  C73  1  0.76820000  0.98407000  0.36728000  1.0
  C  C74  1  0.26823000  0.51586000  0.86729000  1.0
  C  C75  1  0.23181000  0.01594000  0.63271000  1.0
  C  C76  1  0.75191000  0.35769000  0.13118000  1.0
  C  C77  1  0.74806000  0.85763000  0.36882000  1.0
  C  C78  1  0.24808000  0.64230000  0.86883000  1.0
  C  C79  1  0.25195000  0.14238000  0.63118000  1.0
  C  C80  1  0.67398000  0.28859000  0.17410000  1.0
  C  C81  1  0.82597000  0.78853000  0.32591000  1.0
  C  C82  1  0.32601000  0.71140000  0.82591000  1.0
  C  C83  1  0.17401000  0.21148000  0.67409000  1.0
  C  C84  1  0.69215000  0.15215000  0.17688000  1.0
  C  C85  1  0.80784000  0.65209000  0.32313000  1.0
  C  C86  1  0.30784000  0.84785000  0.82312000  1.0
  C  C87  1  0.19217000  0.34793000  0.67687000  1.0
  C  C88  1  0.53311000  0.99020000  0.22585000  1.0
  C  C89  1  0.96686000  0.49013000  0.27416000  1.0
  C  C90  1  0.46685000  0.00981000  0.77415000  1.0
  C  C91  1  0.03317000  0.50991000  0.72584000  1.0
  C  C92  1  0.43173000  0.93292000  0.27011000  1.0
  C  C93  1  0.06819000  0.43284000  0.22990000  1.0
  C  C94  1  0.56819000  0.06711000  0.72990000  1.0
  C  C95  1  0.93184000  0.56720000  0.77010000  1.0
  C  C96  1  0.36994000  0.99508000  0.31812000  1.0
  C  C97  1  0.13002000  0.49503000  0.18189000  1.0
  C  C98  1  0.63003000  0.00495000  0.68189000  1.0
  C  C99  1  0.86999000  0.50501000  0.81811000  1.0
  C  C100  1  0.23733000  0.97728000  0.40783000  1.0
  C  C101  1  0.26260000  0.47723000  0.09218000  1.0
  C  C102  1  0.76262000  0.02274000  0.59218000  1.0
  C  C103  1  0.73749000  0.52281000  0.90782000  1.0
  C  C104  1  0.16886000  0.87558000  0.44515000  1.0
  C  C105  1  0.33107000  0.37552000  0.05486000  1.0
  C  C106  1  0.83109000  0.12444000  0.55486000  1.0
  C  C107  1  0.66900000  0.62451000  0.94514000  1.0
  C  C108  1  0.39925000  0.80662000  0.26816000  1.0
  C  C109  1  0.10069000  0.30654000  0.23184000  1.0
  C  C110  1  0.60068000  0.19340000  0.73185000  1.0
  C  C111  1  0.89935000  0.69350000  0.76816000  1.0
  C  C112  1  0.52512000  0.37324000  0.35741000  1.0
  C  C113  1  0.97505000  0.87333000  0.14263000  1.0
  C  C114  1  0.47512000  0.62673000  0.64260000  1.0
  C  C115  1  0.02468000  0.12666000  0.85733000  1.0
  C  C116  1  0.46240000  0.45956000  0.40262000  1.0
  C  C117  1  0.03779000  0.95973000  0.09745000  1.0
  C  C118  1  0.53788000  0.54030000  0.59744000  1.0
  C  C119  1  0.96199000  0.04019000  0.90248000  1.0
  N  N120  1  0.58113000  0.34308000  0.21668000  1.0
  N  N121  1  0.91881000  0.84302000  0.28333000  1.0
  N  N122  1  0.41887000  0.65692000  0.78333000  1.0
  N  N123  1  0.08114000  0.15700000  0.71666000  1.0
  N  N124  1  0.57534000  0.10600000  0.22298000  1.0
  N  N125  1  0.92466000  0.60595000  0.27703000  1.0
  N  N126  1  0.42463000  0.89401000  0.77702000  1.0
  N  N127  1  0.07535000  0.39409000  0.72296000  1.0
  N  N128  1  0.36888000  0.70142000  0.26743000  1.0
  N  N129  1  0.13105000  0.20133000  0.23257000  1.0
  N  N130  1  0.63109000  0.29860000  0.73258000  1.0
  N  N131  1  0.86897000  0.79871000  0.76744000  1.0
  O  O132  1  0.38390000  0.10737000  0.32725000  1.0
  O  O133  1  0.11612000  0.60732000  0.17276000  1.0
  O  O134  1  0.61614000  0.89266000  0.67276000  1.0
  O  O135  1  0.88385000  0.39271000  0.82723000  1.0
  O  O136  1  0.29255000  0.92077000  0.35712000  1.0
  O  O137  1  0.20741000  0.42071000  0.14289000  1.0
  O  O138  1  0.70739000  0.07926000  0.64289000  1.0
  O  O139  1  0.79267000  0.57933000  0.85711000  1.0
  O  O140  1  0.39829000  0.35694000  0.32399000  1.0
  O  O141  1  0.10188000  0.85690000  0.17604000  1.0
  O  O142  1  0.60187000  0.64307000  0.67604000  1.0
  O  O143  1  0.89786000  0.14315000  0.82392000  1.0
  O  O144  1  0.68608000  0.32266000  0.35431000  1.0
  O  O145  1  0.81408000  0.82281000  0.14572000  1.0
  O  O146  1  0.31420000  0.67734000  0.64566000  1.0
  O  O147  1  0.18568000  0.17717000  0.85424000  1.0
