# generated using pymatgen
data_AlH12C24NO12
_symmetry_space_group_name_H-M   'P 1'
_cell_length_a   4.08611000
_cell_length_b   13.46000000
_cell_length_c   13.46000000
_cell_angle_alpha   60.00000000
_cell_angle_beta   89.99900000
_cell_angle_gamma   89.99960000
_symmetry_Int_Tables_number   1
_chemical_formula_structural   AlH12C24NO12
_chemical_formula_sum   'Al1 H12 C24 N1 O12'
_cell_volume   641.10742288
_cell_formula_units_Z   1
loop_
 _symmetry_equiv_pos_site_id
 _symmetry_equiv_pos_as_xyz
  1  'x, y, z'
loop_
 _atom_site_type_symbol
 _atom_site_label
 _atom_site_symmetry_multiplicity
 _atom_site_fract_x
 _atom_site_fract_y
 _atom_site_fract_z
 _atom_site_occupancy
  Al  Al0  1  0.05711000  0.99999000  0.50001000  1.0
  H  H1  1  0.25354000  0.97077000  0.22730000  1.0
  H  H2  1  0.18481000  0.87696000  0.11372000  1.0
  H  H3  1  0.72469000  0.58471000  0.37039000  1.0
  H  H4  1  0.72471000  0.87040000  0.04490000  1.0
  H  H5  1  0.25357000  0.72729000  0.80196000  1.0
  H  H6  1  0.18484000  0.61371000  0.00935000  1.0
  H  H7  1  0.72475000  0.54490000  0.08472000  1.0
  H  H8  1  0.25352000  0.30194000  0.47076000  1.0
  H  H9  1  0.18478000  0.50933000  0.37696000  1.0
  H  H10  1  0.04734000  0.77074000  0.52624000  1.0
  H  H11  1  0.04733000  0.02623000  0.70303000  1.0
  H  H12  1  0.04732000  0.20303000  0.27074000  1.0
  C  C13  1  0.55706000  0.92615000  0.67692000  1.0
  C  C14  1  0.55706000  0.17691000  0.39693000  1.0
  C  C15  1  0.55706000  0.89692000  0.42617000  1.0
  C  C16  1  0.35999000  0.88596000  0.25855000  1.0
  C  C17  1  0.31836000  0.83204000  0.19430000  1.0
  C  C18  1  0.45398000  0.72280000  0.23191000  1.0
  C  C19  1  0.62270000  0.67019000  0.33595000  1.0
  C  C20  1  0.66020000  0.72156000  0.40322000  1.0
  C  C21  1  0.53160000  0.83217000  0.36307000  1.0
  C  C22  1  0.62272000  0.83594000  0.99388000  1.0
  C  C23  1  0.66022000  0.90322000  0.87523000  1.0
  C  C24  1  0.53162000  0.86306000  0.80478000  1.0
  C  C25  1  0.36002000  0.75855000  0.85551000  1.0
  C  C26  1  0.31839000  0.69429000  0.97368000  1.0
  C  C27  1  0.45400000  0.73191000  0.04530000  1.0
  C  C28  1  0.62273000  0.49387000  0.17019000  1.0
  C  C29  1  0.66021000  0.37523000  0.22156000  1.0
  C  C30  1  0.53161000  0.30476000  0.33217000  1.0
  C  C31  1  0.35999000  0.35550000  0.38595000  1.0
  C  C32  1  0.31835000  0.47367000  0.33204000  1.0
  C  C33  1  0.45400000  0.54530000  0.22280000  1.0
  C  C34  1  0.81757000  0.64538000  0.51840000  1.0
  C  C35  1  0.81758000  0.01840000  0.83622000  1.0
  C  C36  1  0.81761000  0.33623000  0.14538000  1.0
  N  N37  1  0.42458000  0.66667000  0.16667000  1.0
  O  O38  1  0.79816000  0.96427000  0.40417000  1.0
  O  O39  1  0.79814000  0.90414000  0.63157000  1.0
  O  O40  1  0.79814000  0.13157000  0.46428000  1.0
  O  O41  1  0.32481000  0.88505000  0.49570000  1.0
  O  O42  1  0.32481000  0.11925000  0.38508000  1.0
  O  O43  1  0.32481000  0.99567000  0.61926000  1.0
  O  O44  1  0.95099000  0.69401000  0.57604000  1.0
  O  O45  1  0.81354000  0.54161000  0.56070000  1.0
  O  O46  1  0.95099000  0.07605000  0.72994000  1.0
  O  O47  1  0.81357000  0.06071000  0.89769000  1.0
  O  O48  1  0.95105000  0.22996000  0.19400000  1.0
  O  O49  1  0.81359000  0.39770000  0.04160000  1.0
