# generated using pymatgen
data_AgH10C12SNO3
_symmetry_space_group_name_H-M   'P 1'
_cell_length_a   5.24277000
_cell_length_b   10.85850000
_cell_length_c   11.17436706
_cell_angle_alpha   60.98709644
_cell_angle_beta   82.98957660
_cell_angle_gamma   80.85880000
_symmetry_Int_Tables_number   1
_chemical_formula_structural   AgH10C12SNO3
_chemical_formula_sum   'Ag2 H20 C24 S2 N2 O6'
_cell_volume   548.50053258
_cell_formula_units_Z   2
loop_
 _symmetry_equiv_pos_site_id
 _symmetry_equiv_pos_as_xyz
  1  'x, y, z'
loop_
 _atom_site_type_symbol
 _atom_site_label
 _atom_site_symmetry_multiplicity
 _atom_site_fract_x
 _atom_site_fract_y
 _atom_site_fract_z
 _atom_site_occupancy
  Ag  Ag0  1  0.77043000  0.88011000  0.94505000  1.0
  Ag  Ag1  1  0.22958000  0.11989000  0.05495000  1.0
  H  H2  1  0.64074000  0.88240000  0.21249000  1.0
  H  H3  1  0.35926000  0.11759000  0.78751000  1.0
  H  H4  1  0.77989000  0.83433000  0.43465000  1.0
  H  H5  1  0.22011000  0.16567000  0.56535000  1.0
  H  H6  1  0.22391000  0.53276000  0.64377000  1.0
  H  H7  1  0.77609000  0.46724000  0.35623000  1.0
  H  H8  1  0.07751000  0.58670000  0.41781000  1.0
  H  H9  1  0.92249000  0.41330000  0.58219000  1.0
  H  H10  1  0.58591000  0.91906000  0.57766000  1.0
  H  H11  1  0.41409000  0.08095000  0.42233000  1.0
  H  H12  1  0.86902000  0.04392000  0.63226000  1.0
  H  H13  1  0.13099000  0.95609000  0.36773000  1.0
  H  H14  1  0.21463000  0.90332000  0.80326000  1.0
  H  H15  1  0.78538000  0.09667000  0.19674000  1.0
  H  H16  1  0.23844000  0.63999000  0.92850000  1.0
  H  H17  1  0.76156000  0.36001000  0.07150000  1.0
  H  H18  1  0.96608000  0.51586000  0.86430000  1.0
  H  H19  1  0.03392000  0.48413000  0.13571000  1.0
  H  H20  1  0.57763000  0.53625000  0.75719000  1.0
  H  H21  1  0.42236000  0.46375000  0.24282000  1.0
  C  C22  1  0.35112000  0.73623000  0.30132000  1.0
  C  C23  1  0.64888000  0.26377000  0.69868000  1.0
  C  C24  1  0.54513000  0.80813000  0.30654000  1.0
  C  C25  1  0.45487000  0.19188000  0.69345000  1.0
  C  C26  1  0.62264000  0.78156000  0.43204000  1.0
  C  C27  1  0.37736000  0.21845000  0.56795000  1.0
  C  C28  1  0.51284000  0.67975000  0.55570000  1.0
  C  C29  1  0.48716000  0.32025000  0.44430000  1.0
  C  C30  1  0.31087000  0.61157000  0.54904000  1.0
  C  C31  1  0.68913000  0.38842000  0.45096000  1.0
  C  C32  1  0.23176000  0.63976000  0.42321000  1.0
  C  C33  1  0.76823000  0.36024000  0.57679000  1.0
  C  C34  1  0.76003000  0.70944000  0.71439000  1.0
  C  C35  1  0.23996000  0.29055000  0.28562000  1.0
  C  C36  1  0.73313000  0.85830000  0.65176000  1.0
  C  C37  1  0.26687000  0.14170000  0.34824000  1.0
  C  C38  1  0.88792000  0.92842000  0.68609000  1.0
  C  C39  1  0.11209000  0.07158000  0.31391000  1.0
  C  C40  1  0.07089000  0.85055000  0.78781000  1.0
  C  C41  1  0.92911000  0.14945000  0.21219000  1.0
  C  C42  1  0.09376000  0.70059000  0.85245000  1.0
  C  C43  1  0.90623000  0.29941000  0.14756000  1.0
  C  C44  1  0.94118000  0.63132000  0.81670000  1.0
  C  C45  1  0.05881000  0.36869000  0.18330000  1.0
  S  S46  1  0.27843000  0.75247000  0.14363000  1.0
  S  S47  1  0.72157000  0.24754000  0.85636000  1.0
  N  N48  1  0.60786000  0.63723000  0.68196000  1.0
  N  N49  1  0.39213000  0.36277000  0.31804000  1.0
  O  O50  1  0.45696000  0.64681000  0.11857000  1.0
  O  O51  1  0.54302000  0.35318000  0.88143000  1.0
  O  O52  1  0.33027000  0.89827000  0.03530000  1.0
  O  O53  1  0.66974000  0.10173000  0.96470000  1.0
  O  O54  1  0.00505000  0.73015000  0.15631000  1.0
  O  O55  1  0.99494000  0.26986000  0.84369000  1.0
