# generated using pymatgen
data_HgH14C22N6(OF)2
_symmetry_space_group_name_H-M   'P 1'
_cell_length_a   8.25589000
_cell_length_b   10.37310000
_cell_length_c   12.10000000
_cell_angle_alpha   75.24900000
_cell_angle_beta   89.99930000
_cell_angle_gamma   89.99980000
_symmetry_Int_Tables_number   1
_chemical_formula_structural   HgH14C22N6(OF)2
_chemical_formula_sum   'Hg2 H28 C44 N12 O4 F4'
_cell_volume   1002.08126494
_cell_formula_units_Z   2
loop_
 _symmetry_equiv_pos_site_id
 _symmetry_equiv_pos_as_xyz
  1  'x, y, z'
loop_
 _atom_site_type_symbol
 _atom_site_label
 _atom_site_symmetry_multiplicity
 _atom_site_fract_x
 _atom_site_fract_y
 _atom_site_fract_z
 _atom_site_occupancy
  Hg  Hg0  1  0.00000000  0.00000000  0.00000000  1.0
  Hg  Hg1  1  0.50000000  0.50000000  1.00000000  1.0
  H  H2  1  0.96859000  0.94627000  0.33060000  1.0
  H  H3  1  0.46859000  0.55373000  0.66940000  1.0
  H  H4  1  0.03141000  0.05373000  0.66940000  1.0
  H  H5  1  0.53141000  0.44627000  0.33060000  1.0
  H  H6  1  0.88940000  0.09652000  0.45742000  1.0
  H  H7  1  0.38940000  0.40349000  0.54258000  1.0
  H  H8  1  0.11061000  0.90349000  0.54258000  1.0
  H  H9  1  0.61060000  0.59651000  0.45742000  1.0
  H  H10  1  0.78832000  0.40128000  0.16916000  1.0
  H  H11  1  0.28833000  0.09872000  0.83084000  1.0
  H  H12  1  0.21168000  0.59872000  0.83084000  1.0
  H  H13  1  0.71167000  0.90128000  0.16916000  1.0
  H  H14  1  0.00651000  0.47355000  0.59478000  1.0
  H  H15  1  0.50650000  0.02645000  0.40522000  1.0
  H  H16  1  0.99349000  0.52645000  0.40522000  1.0
  H  H17  1  0.49350000  0.97355000  0.59478000  1.0
  H  H18  1  0.82437000  0.34713000  0.48896000  1.0
  H  H19  1  0.32436000  0.15287000  0.51104000  1.0
  H  H20  1  0.17563000  0.65287000  0.51104000  1.0
  H  H21  1  0.67564000  0.84713000  0.48896000  1.0
  H  H22  1  0.66814000  0.15318000  0.60024000  1.0
  H  H23  1  0.16813000  0.34683000  0.39976000  1.0
  H  H24  1  0.33186000  0.84682000  0.39976000  1.0
  H  H25  1  0.83187000  0.65317000  0.60024000  1.0
  H  H26  1  0.69875000  0.07709000  0.81279000  1.0
  H  H27  1  0.19875000  0.42291000  0.18721000  1.0
  H  H28  1  0.30125000  0.92291000  0.18721000  1.0
  H  H29  1  0.80125000  0.57709000  0.81280000  1.0
  C  C30  1  0.92830000  0.04868000  0.29479000  1.0
  C  C31  1  0.42830000  0.45132000  0.70521000  1.0
  C  C32  1  0.07170000  0.95131000  0.70521000  1.0
  C  C33  1  0.57170000  0.54868000  0.29479000  1.0
  C  C34  1  0.88465000  0.13181000  0.36430000  1.0
  C  C35  1  0.38466000  0.36820000  0.63570000  1.0
  C  C36  1  0.11535000  0.86820000  0.63569000  1.0
  C  C37  1  0.61534000  0.63180000  0.36431000  1.0
  C  C38  1  0.82790000  0.29947000  0.20669000  1.0
  C  C39  1  0.32790000  0.20053000  0.79332000  1.0
  C  C40  1  0.17210000  0.70053000  0.79331000  1.0
  C  C41  1  0.67210000  0.79947000  0.20668000  1.0
  C  C42  1  0.86937000  0.21649000  0.13577000  1.0
  C  C43  1  0.36937000  0.28351000  0.86423000  1.0
  C  C44  1  0.13063000  0.78351000  0.86423000  1.0
  C  C45  1  0.63063000  0.71649000  0.13577000  1.0
  C  C46  1  0.84728000  0.26886000  0.00842000  1.0
  C  C47  1  0.34728000  0.23115000  0.99158000  1.0
  C  C48  1  0.15272000  0.73114000  0.99158000  1.0
  C  C49  1  0.65272000  0.76885000  0.00842000  1.0
  C  C50  1  0.86333000  0.23384000  0.82207000  1.0
  C  C51  1  0.36333000  0.26616000  0.17793000  1.0
  C  C52  1  0.13667000  0.76616000  0.17793000  1.0
  C  C53  1  0.63667000  0.73384000  0.82207000  1.0
  C  C54  1  0.94638000  0.34552000  0.75731000  1.0
  C  C55  1  0.44638000  0.15448000  0.24269000  1.0
  C  C56  1  0.05362000  0.65448000  0.24269000  1.0
  C  C57  1  0.55362000  0.84552000  0.75731000  1.0
  C  C58  1  0.93482000  0.38783000  0.63927000  1.0
  C  C59  1  0.43481000  0.11218000  0.36073000  1.0
  C  C60  1  0.06518000  0.61217000  0.36073000  1.0
  C  C61  1  0.56519000  0.88782000  0.63927000  1.0
  C  C62  1  0.83420000  0.31792000  0.58203000  1.0
  C  C63  1  0.33419000  0.18209000  0.41797000  1.0
  C  C64  1  0.16580000  0.68208000  0.41797000  1.0
  C  C65  1  0.66581000  0.81791000  0.58203000  1.0
  C  C66  1  0.74783000  0.20717000  0.64454000  1.0
  C  C67  1  0.24782000  0.29283000  0.35546000  1.0
  C  C68  1  0.25217000  0.79283000  0.35546000  1.0
  C  C69  1  0.75218000  0.70717000  0.64455000  1.0
  C  C70  1  0.76261000  0.16497000  0.76318000  1.0
  C  C71  1  0.26260000  0.33504000  0.23682000  1.0
  C  C72  1  0.23739000  0.83503000  0.23682000  1.0
  C  C73  1  0.73740000  0.66496000  0.76318000  1.0
  N  N74  1  0.92061000  0.09156000  0.18093000  1.0
  N  N75  1  0.42061000  0.40844000  0.81907000  1.0
  N  N76  1  0.07939000  0.90844000  0.81907000  1.0
  N  N77  1  0.57939000  0.59156000  0.18093000  1.0
  N  N78  1  0.83504000  0.25754000  0.32062000  1.0
  N  N79  1  0.33504000  0.24246000  0.67938000  1.0
  N  N80  1  0.16496000  0.74246000  0.67938000  1.0
  N  N81  1  0.66496000  0.75754000  0.32062000  1.0
  N  N82  1  0.88616000  0.18769000  0.94146000  1.0
  N  N83  1  0.38615000  0.31231000  0.05854000  1.0
  N  N84  1  0.11384000  0.81231000  0.05854000  1.0
  N  N85  1  0.61385000  0.68769000  0.94146000  1.0
  O  O86  1  0.78886000  0.38332000  0.97150000  1.0
  O  O87  1  0.28886000  0.11669000  0.02850000  1.0
  O  O88  1  0.21114000  0.61668000  0.02850000  1.0
  O  O89  1  0.71114000  0.88331000  0.97150000  1.0
  F  F90  1  0.04804000  0.41270000  0.81182000  1.0
  F  F91  1  0.54803000  0.08730000  0.18818000  1.0
  F  F92  1  0.95196000  0.58730000  0.18818000  1.0
  F  F93  1  0.45197000  0.91270000  0.81182000  1.0
