# generated using pymatgen
data_AgPH4(CO)3
_symmetry_space_group_name_H-M   'P 1'
_cell_length_a   8.30793000
_cell_length_b   9.21092454
_cell_length_c   10.84670000
_cell_angle_alpha   86.76736526
_cell_angle_beta   89.15650000
_cell_angle_gamma   63.62836750
_symmetry_Int_Tables_number   1
_chemical_formula_structural   AgPH4(CO)3
_chemical_formula_sum   'Ag6 P6 H24 C18 O18'
_cell_volume   742.41731101
_cell_formula_units_Z   6
loop_
 _symmetry_equiv_pos_site_id
 _symmetry_equiv_pos_as_xyz
  1  'x, y, z'
loop_
 _atom_site_type_symbol
 _atom_site_label
 _atom_site_symmetry_multiplicity
 _atom_site_fract_x
 _atom_site_fract_y
 _atom_site_fract_z
 _atom_site_occupancy
  Ag  Ag0  1  0.17763000  0.39283000  0.95318000  1.0
  Ag  Ag1  1  0.82236000  0.60717000  0.04682000  1.0
  Ag  Ag2  1  0.66107000  0.17162000  0.96993000  1.0
  Ag  Ag3  1  0.33893000  0.82838000  0.03007000  1.0
  Ag  Ag4  1  0.00089000  0.84629000  0.12415000  1.0
  Ag  Ag5  1  0.99910000  0.15371000  0.87585000  1.0
  P  P6  1  0.07145000  0.77355000  0.80104000  1.0
  P  P7  1  0.92855000  0.22645000  0.19896000  1.0
  P  P8  1  0.34216000  0.47416000  0.17731000  1.0
  P  P9  1  0.65784000  0.52584000  0.82269000  1.0
  P  P10  1  0.56724000  0.91517000  0.23531000  1.0
  P  P11  1  0.43276000  0.08483000  0.76469000  1.0
  H  H12  1  0.77488000  0.88115000  0.82038000  1.0
  H  H13  1  0.22512000  0.11885000  0.17962000  1.0
  H  H14  1  0.59604000  0.49550000  0.18288000  1.0
  H  H15  1  0.40396000  0.50450000  0.81713000  1.0
  H  H16  1  0.52139000  0.16924000  0.22283000  1.0
  H  H17  1  0.47861000  0.83076000  0.77717000  1.0
  H  H18  1  0.30649000  0.63866000  0.51707000  1.0
  H  H19  1  0.69352000  0.36133000  0.48293000  1.0
  H  H20  1  0.94588000  0.54536000  0.29010000  1.0
  H  H21  1  0.05413000  0.45464000  0.70989000  1.0
  H  H22  1  0.73494000  0.91595000  0.55302000  1.0
  H  H23  1  0.26506000  0.08405000  0.44698000  1.0
  H  H24  1  0.94212000  0.99718000  0.65482000  1.0
  H  H25  1  0.05789000  0.00281000  0.34518000  1.0
  H  H26  1  0.17758000  0.88895000  0.63809000  1.0
  H  H27  1  0.82242000  0.11105000  0.36191000  1.0
  H  H28  1  0.26889000  0.33635000  0.34004000  1.0
  H  H29  1  0.73111000  0.66365000  0.65996000  1.0
  H  H30  1  0.42329000  0.40615000  0.38960000  1.0
  H  H31  1  0.57671000  0.59385000  0.61039000  1.0
  H  H32  1  0.53296000  0.83316000  0.44229000  1.0
  H  H33  1  0.46703000  0.16685000  0.55771000  1.0
  H  H34  1  0.62509000  0.66595000  0.34512000  1.0
  H  H35  1  0.37491000  0.33405000  0.65488000  1.0
  C  C36  1  0.02372000  0.78793000  0.54537000  1.0
  C  C37  1  0.97628000  0.21207000  0.45463000  1.0
  C  C38  1  0.17010000  0.66745000  0.48728000  1.0
  C  C39  1  0.82990000  0.33255000  0.51272000  1.0
  C  C40  1  0.14343000  0.58029000  0.39491000  1.0
  C  C41  1  0.85656000  0.41972000  0.60509000  1.0
  C  C42  1  0.96786000  0.61654000  0.35914000  1.0
  C  C43  1  0.03214000  0.38346000  0.64086000  1.0
  C  C44  1  0.81991000  0.73782000  0.41442000  1.0
  C  C45  1  0.18009000  0.26218000  0.58558000  1.0
  C  C46  1  0.84932000  0.82258000  0.50777000  1.0
  C  C47  1  0.15068000  0.17742000  0.49223000  1.0
  C  C48  1  0.05351000  0.87459000  0.64913000  1.0
  C  C49  1  0.94649000  0.12541000  0.35087000  1.0
  C  C50  1  0.29712000  0.44225000  0.33818000  1.0
  C  C51  1  0.70288000  0.55775000  0.66181000  1.0
  C  C52  1  0.63350000  0.77605000  0.37102000  1.0
  C  C53  1  0.36650000  0.22395000  0.62898000  1.0
  O  O54  1  0.21093000  0.59653000  0.80317000  1.0
  O  O55  1  0.78908000  0.40347000  0.19683000  1.0
  O  O56  1  0.88569000  0.76829000  0.82818000  1.0
  O  O57  1  0.11431000  0.23171000  0.17182000  1.0
  O  O58  1  0.10358000  0.88097000  0.89177000  1.0
  O  O59  1  0.89643000  0.11903000  0.10823000  1.0
  O  O60  1  0.45804000  0.57245000  0.17399000  1.0
  O  O61  1  0.54196000  0.42754000  0.82601000  1.0
  O  O62  1  0.45218000  0.30578000  0.12819000  1.0
  O  O63  1  0.54783000  0.69421000  0.87181000  1.0
  O  O64  1  0.16714000  0.57623000  0.10460000  1.0
  O  O65  1  0.83286000  0.42377000  0.89540000  1.0
  O  O66  1  0.56653000  0.07230000  0.28799000  1.0
  O  O67  1  0.43347000  0.92770000  0.71201000  1.0
  O  O68  1  0.70449000  0.85144000  0.13187000  1.0
  O  O69  1  0.29550000  0.14857000  0.86813000  1.0
  O  O70  1  0.37534000  0.95095000  0.19551000  1.0
  O  O71  1  0.62466000  0.04905000  0.80449000  1.0
