# generated using pymatgen
data_CoH14C22(N3O)4
_symmetry_space_group_name_H-M   'P 1'
_cell_length_a   10.46360000
_cell_length_b   12.79330000
_cell_length_c   15.12830000
_cell_angle_alpha   89.99980000
_cell_angle_beta   89.99930000
_cell_angle_gamma   74.85600000
_symmetry_Int_Tables_number   1
_chemical_formula_structural   CoH14C22(N3O)4
_chemical_formula_sum   'Co2 H28 C44 N24 O8'
_cell_volume   1954.80608357
_cell_formula_units_Z   2
loop_
 _symmetry_equiv_pos_site_id
 _symmetry_equiv_pos_as_xyz
  1  'x, y, z'
loop_
 _atom_site_type_symbol
 _atom_site_label
 _atom_site_symmetry_multiplicity
 _atom_site_fract_x
 _atom_site_fract_y
 _atom_site_fract_z
 _atom_site_occupancy
  Co  Co0  1  0.00000000  0.00000000  0.50000000  1.0
  Co  Co1  1  0.50000000  0.50000000  0.00000000  1.0
  H  H2  1  0.51667000  0.47964000  0.77789000  1.0
  H  H3  1  0.98331000  0.02037000  0.27790000  1.0
  H  H4  1  0.48333000  0.52036000  0.22210000  1.0
  H  H5  1  0.01669000  0.97963000  0.72209000  1.0
  H  H6  1  0.75991000  0.60268000  0.94642000  1.0
  H  H7  1  0.74009000  0.89732000  0.44642000  1.0
  H  H8  1  0.24008000  0.39732000  0.05359000  1.0
  H  H9  1  0.25992000  0.10268000  0.55358000  1.0
  H  H10  1  0.97276000  0.59150000  0.89405000  1.0
  H  H11  1  0.52724000  0.90849000  0.39405000  1.0
  H  H12  1  0.02724000  0.40849000  0.10595000  1.0
  H  H13  1  0.47276000  0.09152000  0.60594000  1.0
  H  H14  1  0.11462000  0.78312000  0.70182000  1.0
  H  H15  1  0.38538000  0.71687000  0.20182000  1.0
  H  H16  1  0.88538000  0.21688000  0.29818000  1.0
  H  H17  1  0.61462000  0.28313000  0.79818000  1.0
  H  H18  1  0.76260000  0.67823000  0.64783000  1.0
  H  H19  1  0.73740000  0.82176000  0.14783000  1.0
  H  H20  1  0.23740000  0.32177000  0.35217000  1.0
  H  H21  1  0.26261000  0.17823000  0.85217000  1.0
  H  H22  1  0.21298000  0.51502000  0.90700000  1.0
  H  H23  1  0.28702000  0.98498000  0.40700000  1.0
  H  H24  1  0.78702000  0.48498000  0.09300000  1.0
  H  H25  1  0.71298000  0.01502000  0.59300000  1.0
  H  H26  1  0.40659000  0.76284000  0.92839000  1.0
  H  H27  1  0.09340000  0.73716000  0.42838000  1.0
  H  H28  1  0.59341000  0.23716000  0.07162000  1.0
  H  H29  1  0.90661000  0.26284000  0.57162000  1.0
  C  C30  1  0.59438000  0.51448000  0.80125000  1.0
  C  C31  1  0.90561000  0.98552000  0.30125000  1.0
  C  C32  1  0.40562000  0.48551000  0.19875000  1.0
  C  C33  1  0.09440000  0.01448000  0.69874000  1.0
  C  C34  1  0.72059000  0.57058000  0.88929000  1.0
  C  C35  1  0.77941000  0.92942000  0.38929000  1.0
  C  C36  1  0.27941000  0.42942000  0.11071000  1.0
  C  C37  1  0.22060000  0.07058000  0.61070000  1.0
  C  C38  1  0.85579000  0.63147000  0.77450000  1.0
  C  C39  1  0.64421000  0.86853000  0.27451000  1.0
  C  C40  1  0.14421000  0.36853000  0.22550000  1.0
  C  C41  1  0.35579000  0.13148000  0.72549000  1.0
  C  C42  1  0.96276000  0.63120000  0.82983000  1.0
  C  C43  1  0.53724000  0.86880000  0.32984000  1.0
  C  C44  1  0.03723000  0.36880000  0.17017000  1.0
  C  C45  1  0.46277000  0.13120000  0.67016000  1.0
  C  C46  1  0.05636000  0.68411000  0.80148000  1.0
  C  C47  1  0.44364000  0.81588000  0.30149000  1.0
  C  C48  1  0.94364000  0.31589000  0.19852000  1.0
  C  C49  1  0.55636000  0.18412000  0.69851000  1.0
  C  C50  1  0.04237000  0.73993000  0.72147000  1.0
  C  C51  1  0.45763000  0.76006000  0.22148000  1.0
  C  C52  1  0.95762000  0.26007000  0.27853000  1.0
  C  C53  1  0.54238000  0.23994000  0.77852000  1.0
  C  C54  1  0.93558000  0.73789000  0.66662000  1.0
  C  C55  1  0.56441000  0.76212000  0.16663000  1.0
  C  C56  1  0.06441000  0.26212000  0.33333333  1.0
  C  C57  1  0.43558000  0.23788000  0.83337000  1.0
  C  C58  1  0.84377000  0.68137000  0.69182000  1.0
  C  C59  1  0.65623000  0.81863000  0.19183000  1.0
  C  C60  1  0.15623000  0.31863000  0.30818000  1.0
  C  C61  1  0.34377000  0.18137000  0.80817000  1.0
  C  C62  1  0.23741000  0.59211000  0.90328000  1.0
  C  C63  1  0.26259000  0.90789000  0.40328000  1.0
  C  C64  1  0.76259000  0.40789000  0.09672000  1.0
  C  C65  1  0.73741000  0.09211000  0.59672000  1.0
  C  C66  1  0.33432000  0.71886000  0.91084000  1.0
  C  C67  1  0.16567000  0.78114000  0.41084000  1.0
  C  C68  1  0.66567000  0.28114000  0.08916000  1.0
  C  C69  1  0.83433000  0.21886000  0.58916000  1.0
  C  C70  1  0.91567000  0.79863000  0.57971000  1.0
  C  C71  1  0.58433000  0.70136000  0.07971000  1.0
  C  C72  1  0.08432000  0.20137000  0.42030000  1.0
  C  C73  1  0.41567000  0.29863000  0.92029000  1.0
  N  N74  1  0.75626000  0.58324000  0.80470000  1.0
  N  N75  1  0.74374000  0.91676000  0.30470000  1.0
  N  N76  1  0.24374000  0.41676000  0.19530000  1.0
  N  N77  1  0.25626000  0.08324000  0.69530000  1.0
  N  N78  1  0.67516000  0.54817000  0.74740000  1.0
  N  N79  1  0.82483000  0.95184000  0.24740000  1.0
  N  N80  1  0.32483000  0.45183000  0.25260000  1.0
  N  N81  1  0.17517000  0.04817000  0.75260000  1.0
  N  N82  1  0.61811000  0.52717000  0.88933000  1.0
  N  N83  1  0.88188000  0.97283000  0.38934000  1.0
  N  N84  1  0.38188000  0.47283000  0.11066000  1.0
  N  N85  1  0.11813000  0.02717000  0.61066000  1.0
  N  N86  1  0.17002000  0.67746000  0.85457000  1.0
  N  N87  1  0.32998000  0.82254000  0.35458000  1.0
  N  N88  1  0.82998000  0.32254000  0.14543000  1.0
  N  N89  1  0.67003000  0.17746000  0.64542000  1.0
  N  N90  1  0.23153000  0.75930000  0.85840000  1.0
  N  N91  1  0.26847000  0.74070000  0.35840000  1.0
  N  N92  1  0.76847000  0.24070000  0.14161000  1.0
  N  N93  1  0.73153000  0.25930000  0.64160000  1.0
  N  N94  1  0.34206000  0.61577000  0.93970000  1.0
  N  N95  1  0.15794000  0.88422000  0.43970000  1.0
  N  N96  1  0.65794000  0.38422000  0.06030000  1.0
  N  N97  1  0.84207000  0.11577000  0.56030000  1.0
  O  O98  1  0.95279000  0.88729000  0.58125000  1.0
  O  O99  1  0.54721000  0.61270000  0.08125000  1.0
  O  O100  1  0.04721000  0.11270000  0.41875000  1.0
  O  O101  1  0.45279000  0.38729000  0.91875000  1.0
  O  O102  1  0.86257000  0.76182000  0.51717000  1.0
  O  O103  1  0.63740000  0.73818000  0.01716000  1.0
  O  O104  1  0.13739000  0.23819000  0.48285000  1.0
  O  O105  1  0.36259000  0.26182000  0.98284000  1.0
