# generated using pymatgen
data_H4Pb(C3O2)3
_symmetry_space_group_name_H-M   'P 1'
_cell_length_a   6.99614000
_cell_length_b   9.24124000
_cell_length_c   19.47984204
_cell_angle_alpha   79.90443770
_cell_angle_beta   89.99513201
_cell_angle_gamma   67.76460000
_symmetry_Int_Tables_number   1
_chemical_formula_structural   H4Pb(C3O2)3
_chemical_formula_sum   'H16 Pb4 C36 O24'
_cell_volume   1144.68872875
_cell_formula_units_Z   4
loop_
 _symmetry_equiv_pos_site_id
 _symmetry_equiv_pos_as_xyz
  1  'x, y, z'
loop_
 _atom_site_type_symbol
 _atom_site_label
 _atom_site_symmetry_multiplicity
 _atom_site_fract_x
 _atom_site_fract_y
 _atom_site_fract_z
 _atom_site_occupancy
  H  H0  1  0.49300000  0.25847000  0.48019000  1.0
  H  H1  1  0.75191000  0.74109000  0.01976000  1.0
  H  H2  1  0.50698000  0.74155000  0.51980000  1.0
  H  H3  1  0.24811000  0.25888000  0.98026000  1.0
  H  H4  1  0.27345000  0.48916000  0.55221000  1.0
  H  H5  1  0.76296000  0.51048000  0.94766000  1.0
  H  H6  1  0.72656000  0.51085000  0.44778000  1.0
  H  H7  1  0.23702000  0.48953000  0.05234000  1.0
  H  H8  1  0.78331000  0.91000000  0.59359000  1.0
  H  H9  1  0.69233000  0.09012000  0.90623000  1.0
  H  H10  1  0.21669000  0.09001000  0.40640000  1.0
  H  H11  1  0.30769000  0.90987000  0.09377000  1.0
  H  H12  1  0.92007000  0.85976000  0.38119000  1.0
  H  H13  1  0.77976000  0.14000000  0.11864000  1.0
  H  H14  1  0.07993000  0.14026000  0.61880000  1.0
  H  H15  1  0.22027000  0.85999000  0.88136000  1.0
  Pb  Pb16  1  0.18337000  0.39256000  0.80118000  1.0
  Pb  Pb17  1  0.57577000  0.60782000  0.69889000  1.0
  Pb  Pb18  1  0.81658000  0.60748000  0.19882000  1.0
  Pb  Pb19  1  0.42421000  0.39215000  0.30111000  1.0
  C  C20  1  0.10701000  0.66274000  0.46114000  1.0
  C  C21  1  0.76951000  0.33705000  0.03871000  1.0
  C  C22  1  0.89299000  0.33727000  0.53885000  1.0
  C  C23  1  0.23049000  0.66294000  0.96129000  1.0
  C  C24  1  0.14961000  0.60416000  0.53303000  1.0
  C  C25  1  0.75367000  0.39564000  0.96683000  1.0
  C  C26  1  0.85040000  0.39585000  0.46696000  1.0
  C  C27  1  0.24632000  0.60436000  0.03317000  1.0
  C  C28  1  0.03128000  0.69210000  0.58056000  1.0
  C  C29  1  0.72300000  0.30782000  0.91932000  1.0
  C  C30  1  0.96873000  0.30791000  0.41943000  1.0
  C  C31  1  0.27700000  0.69217000  0.08069000  1.0
  C  C32  1  0.87463000  0.84159000  0.55643000  1.0
  C  C33  1  0.71561000  0.15838000  0.94342000  1.0
  C  C34  1  0.12537000  0.15841000  0.44357000  1.0
  C  C35  1  0.28440000  0.84161000  0.05658000  1.0
  C  C36  1  0.83776000  0.90290000  0.48451000  1.0
  C  C37  1  0.74034000  0.09695000  0.01534000  1.0
  C  C38  1  0.16223000  0.09712000  0.51548000  1.0
  C  C39  1  0.25969000  0.90304000  0.98466000  1.0
  C  C40  1  0.95179000  0.81241000  0.43706000  1.0
  C  C41  1  0.76393000  0.18740000  0.06278000  1.0
  C  C42  1  0.04822000  0.18761000  0.56293000  1.0
  C  C43  1  0.23610000  0.81259000  0.93722000  1.0
  C  C44  1  0.22589000  0.56644000  0.41003000  1.0
  C  C45  1  0.79212000  0.43327000  0.08990000  1.0
  C  C46  1  0.77409000  0.43357000  0.58996000  1.0
  C  C47  1  0.20787000  0.56673000  0.91011000  1.0
  C  C48  1  0.07235000  0.62252000  0.65691000  1.0
  C  C49  1  0.69453000  0.37750000  0.84301000  1.0
  C  C50  1  0.92767000  0.37747000  0.34308000  1.0
  C  C51  1  0.30547000  0.62249000  0.15700000  1.0
  C  C52  1  0.67948000  0.06355000  0.45569000  1.0
  C  C53  1  0.74293000  0.93622000  0.04421000  1.0
  C  C54  1  0.32051000  0.93646000  0.54431000  1.0
  C  C55  1  0.25708000  0.06377000  0.95580000  1.0
  O  O56  1  0.36907000  0.42980000  0.43219000  1.0
  O  O57  1  0.79927000  0.56978000  0.06779000  1.0
  O  O58  1  0.63093000  0.57022000  0.56780000  1.0
  O  O59  1  0.20072000  0.43023000  0.93222000  1.0
  O  O60  1  0.18081000  0.62254000  0.34473000  1.0
  O  O61  1  0.80251000  0.37723000  0.15519000  1.0
  O  O62  1  0.81914000  0.37744000  0.65526000  1.0
  O  O63  1  0.19745000  0.62277000  0.84482000  1.0
  O  O64  1  0.25923000  0.53196000  0.67961000  1.0
  O  O65  1  0.79064000  0.46827000  0.82038000  1.0
  O  O66  1  0.74080000  0.46805000  0.32037000  1.0
  O  O67  1  0.20937000  0.53171000  0.17963000  1.0
  O  O68  1  0.92389000  0.65011000  0.69686000  1.0
  O  O69  1  0.57391000  0.34989000  0.80297000  1.0
  O  O70  1  0.07614000  0.34984000  0.30313000  1.0
  O  O71  1  0.42607000  0.65013000  0.19703000  1.0
  O  O72  1  0.59032000  0.14832000  0.50391000  1.0
  O  O73  1  0.73906000  0.85126000  0.99602000  1.0
  O  O74  1  0.40966000  0.85170000  0.49608000  1.0
  O  O75  1  0.26097000  0.14871000  0.00400000  1.0
  O  O76  1  0.63795000  0.11196000  0.39188000  1.0
  O  O77  1  0.74962000  0.88789000  0.10802000  1.0
  O  O78  1  0.36204000  0.88806000  0.60812000  1.0
  O  O79  1  0.25038000  0.11211000  0.89199000  1.0
