# generated using pymatgen
data_Zn2H11C12N9O2
_symmetry_space_group_name_H-M   'P 1'
_cell_length_a   17.94330000
_cell_length_b   27.17215000
_cell_length_c   27.17210000
_cell_angle_alpha   60.00018261
_cell_angle_beta   89.99990000
_cell_angle_gamma   89.99990000
_symmetry_Int_Tables_number   1
_chemical_formula_structural   Zn2H11C12N9O2
_chemical_formula_sum   'Zn24 H132 C144 N108 O24'
_cell_volume   11473.10469823
_cell_formula_units_Z   12
loop_
 _symmetry_equiv_pos_site_id
 _symmetry_equiv_pos_as_xyz
  1  'x, y, z'
loop_
 _atom_site_type_symbol
 _atom_site_label
 _atom_site_symmetry_multiplicity
 _atom_site_fract_x
 _atom_site_fract_y
 _atom_site_fract_z
 _atom_site_occupancy
  Zn  Zn0  1  0.42173000  0.66718000  0.44480000  1.0
  Zn  Zn1  1  0.42173000  0.88802000  0.66718000  1.0
  Zn  Zn2  1  0.42173000  0.44480000  0.88802000  1.0
  Zn  Zn3  1  0.92173000  0.33282000  0.55520000  1.0
  Zn  Zn4  1  0.92173000  0.11198000  0.33282000  1.0
  Zn  Zn5  1  0.92173000  0.55520000  0.11198000  1.0
  Zn  Zn6  1  0.57827000  0.11198000  0.55520000  1.0
  Zn  Zn7  1  0.57826000  0.55520000  0.33282000  1.0
  Zn  Zn8  1  0.57827000  0.33282000  0.11198000  1.0
  Zn  Zn9  1  0.07827000  0.88802000  0.44480000  1.0
  Zn  Zn10  1  0.07827000  0.44480000  0.66718000  1.0
  Zn  Zn11  1  0.07827000  0.66718000  0.88802000  1.0
  Zn  Zn12  1  0.57827000  0.33282000  0.55520000  1.0
  Zn  Zn13  1  0.57826000  0.11198000  0.33282000  1.0
  Zn  Zn14  1  0.57827000  0.55520000  0.11198000  1.0
  Zn  Zn15  1  0.07827000  0.66718000  0.44480000  1.0
  Zn  Zn16  1  0.07826000  0.88802000  0.66718000  1.0
  Zn  Zn17  1  0.07827000  0.44480000  0.88802000  1.0
  Zn  Zn18  1  0.42173000  0.88802000  0.44480000  1.0
  Zn  Zn19  1  0.42173000  0.44480000  0.66718000  1.0
  Zn  Zn20  1  0.42173000  0.66718000  0.88802000  1.0
  Zn  Zn21  1  0.92173000  0.11198000  0.55520000  1.0
  Zn  Zn22  1  0.92173000  0.55520000  0.33282000  1.0
  Zn  Zn23  1  0.92173000  0.33282000  0.11198000  1.0
  H  H24  1  0.56160000  0.74981000  0.39803000  1.0
  H  H25  1  0.32806000  0.66592000  0.34506000  1.0
  H  H26  1  0.57268000  0.60833000  0.50621000  1.0
  H  H27  1  0.46690000  0.74594000  0.30756000  1.0
  H  H28  1  0.56161000  0.85215000  0.74981000  1.0
  H  H29  1  0.32806000  0.98902000  0.66592000  1.0
  H  H30  1  0.57268000  0.88546000  0.60833000  1.0
  H  H31  1  0.46690000  0.94650000  0.74593000  1.0
  H  H32  1  0.56161000  0.39804000  0.85215000  1.0
  H  H33  1  0.32806000  0.34505000  0.98903000  1.0
  H  H34  1  0.57269000  0.50621000  0.88546000  1.0
  H  H35  1  0.46690000  0.30757000  0.94649000  1.0
  H  H36  1  0.06160000  0.25019000  0.60197000  1.0
  H  H37  1  0.82806000  0.33408000  0.65495000  1.0
  H  H38  1  0.07268000  0.39167000  0.49379000  1.0
  H  H39  1  0.96690000  0.25406000  0.69244000  1.0
  H  H40  1  0.06161000  0.14785000  0.25019000  1.0
  H  H41  1  0.82806000  0.01098000  0.33408000  1.0
  H  H42  1  0.07268000  0.11454000  0.39167000  1.0
  H  H43  1  0.96690000  0.05350000  0.25407000  1.0
  H  H44  1  0.06161000  0.60196000  0.14785000  1.0
  H  H45  1  0.82806000  0.65494000  0.01098000  1.0
  H  H46  1  0.07268000  0.49379000  0.11454000  1.0
  H  H47  1  0.96690000  0.69243000  0.05351000  1.0
  H  H48  1  0.43840000  0.14784000  0.60197000  1.0
  H  H49  1  0.67194000  0.01098000  0.65494000  1.0
  H  H50  1  0.42732000  0.11454000  0.49379000  1.0
  H  H51  1  0.53310000  0.05350000  0.69243000  1.0
  H  H52  1  0.43839000  0.60196000  0.25019000  1.0
  H  H53  1  0.67194000  0.65494000  0.33408000  1.0
  H  H54  1  0.42732000  0.49379000  0.39167000  1.0
  H  H55  1  0.53310000  0.69243000  0.25407000  1.0
  H  H56  1  0.43839000  0.25019000  0.14785000  1.0
  H  H57  1  0.67194000  0.33408000  0.01098000  1.0
  H  H58  1  0.42731000  0.39167000  0.11454000  1.0
  H  H59  1  0.53310000  0.25406000  0.05351000  1.0
  H  H60  1  0.93840000  0.85216000  0.39803000  1.0
  H  H61  1  0.17194000  0.98902000  0.34506000  1.0
  H  H62  1  0.92732000  0.88546000  0.50621000  1.0
  H  H63  1  0.03310000  0.94650000  0.30756000  1.0
  H  H64  1  0.93839000  0.39804000  0.74981000  1.0
  H  H65  1  0.17194000  0.34506000  0.66592000  1.0
  H  H66  1  0.92732000  0.50621000  0.60833000  1.0
  H  H67  1  0.03310000  0.30757000  0.74593000  1.0
  H  H68  1  0.93839000  0.74981000  0.85215000  1.0
  H  H69  1  0.17194000  0.66592000  0.98902000  1.0
  H  H70  1  0.92731000  0.60833000  0.88546000  1.0
  H  H71  1  0.03310000  0.74594000  0.94649000  1.0
  H  H72  1  0.43840000  0.25019000  0.60197000  1.0
  H  H73  1  0.67194000  0.33408000  0.65495000  1.0
  H  H74  1  0.42732000  0.39167000  0.49379000  1.0
  H  H75  1  0.53310000  0.25406000  0.69244000  1.0
  H  H76  1  0.43839000  0.14785000  0.25019000  1.0
  H  H77  1  0.67194000  0.01098000  0.33408000  1.0
  H  H78  1  0.42732000  0.11454000  0.39167000  1.0
  H  H79  1  0.53310000  0.05350000  0.25407000  1.0
  H  H80  1  0.43839000  0.60196000  0.14785000  1.0
  H  H81  1  0.67194000  0.65494000  0.01098000  1.0
  H  H82  1  0.42731000  0.49379000  0.11454000  1.0
  H  H83  1  0.53310000  0.69243000  0.05351000  1.0
  H  H84  1  0.93840000  0.74981000  0.39803000  1.0
  H  H85  1  0.17194000  0.66592000  0.34505000  1.0
  H  H86  1  0.92732000  0.60833000  0.50621000  1.0
  H  H87  1  0.03310000  0.74594000  0.30756000  1.0
  H  H88  1  0.93839000  0.85215000  0.74981000  1.0
  H  H89  1  0.17194000  0.98902000  0.66592000  1.0
  H  H90  1  0.92732000  0.88546000  0.60833000  1.0
  H  H91  1  0.03310000  0.94650000  0.74593000  1.0
  H  H92  1  0.93839000  0.39804000  0.85215000  1.0
  H  H93  1  0.17194000  0.34505000  0.98903000  1.0
  H  H94  1  0.92731000  0.50621000  0.88546000  1.0
  H  H95  1  0.03310000  0.30757000  0.94649000  1.0
  H  H96  1  0.56160000  0.85216000  0.39803000  1.0
  H  H97  1  0.32806000  0.98902000  0.34506000  1.0
  H  H98  1  0.57268000  0.88546000  0.50621000  1.0
  H  H99  1  0.46690000  0.94650000  0.30756000  1.0
  H  H100  1  0.56161000  0.39804000  0.74981000  1.0
  H  H101  1  0.32806000  0.34506000  0.66592000  1.0
  H  H102  1  0.57268000  0.50621000  0.60833000  1.0
  H  H103  1  0.46690000  0.30757000  0.74593000  1.0
  H  H104  1  0.56161000  0.74981000  0.85215000  1.0
  H  H105  1  0.32806000  0.66592000  0.98902000  1.0
  H  H106  1  0.57269000  0.60833000  0.88546000  1.0
  H  H107  1  0.46690000  0.74594000  0.94649000  1.0
  H  H108  1  0.06160000  0.14784000  0.60197000  1.0
  H  H109  1  0.82806000  0.01098000  0.65494000  1.0
  H  H110  1  0.07268000  0.11454000  0.49379000  1.0
  H  H111  1  0.96690000  0.05350000  0.69244000  1.0
  H  H112  1  0.06161000  0.60196000  0.25019000  1.0
  H  H113  1  0.82806000  0.65494000  0.33408000  1.0
  H  H114  1  0.07268000  0.49379000  0.39167000  1.0
  H  H115  1  0.96690000  0.69243000  0.25407000  1.0
  H  H116  1  0.06161000  0.25019000  0.14785000  1.0
  H  H117  1  0.82806000  0.33408000  0.01097000  1.0
  H  H118  1  0.07268000  0.39167000  0.11454000  1.0
  H  H119  1  0.96690000  0.25406000  0.05351000  1.0
  H  H120  1  0.36191000  0.76440000  0.47120000  1.0
  H  H121  1  0.36192000  0.76440000  0.76441000  1.0
  H  H122  1  0.36192000  0.47119000  0.76441000  1.0
  H  H123  1  0.86192000  0.23560000  0.52880000  1.0
  H  H124  1  0.86192000  0.23560000  0.23559000  1.0
  H  H125  1  0.86192000  0.52881000  0.23560000  1.0
  H  H126  1  0.63808000  0.23560000  0.52880000  1.0
  H  H127  1  0.63808000  0.52881000  0.23559000  1.0
  H  H128  1  0.63808000  0.23560000  0.23559000  1.0
  H  H129  1  0.13809000  0.76440000  0.47120000  1.0
  H  H130  1  0.13808000  0.47119000  0.76441000  1.0
  H  H131  1  0.13808000  0.76440000  0.76441000  1.0
  H  H132  1  0.35123000  0.55525000  0.55526000  1.0
  H  H133  1  0.35123000  0.88949000  0.55526000  1.0
  H  H134  1  0.35123000  0.55525000  0.88949000  1.0
  H  H135  1  0.85123000  0.44475000  0.44474000  1.0
  H  H136  1  0.85123000  0.11051000  0.44474000  1.0
  H  H137  1  0.85123000  0.44475000  0.11050000  1.0
  H  H138  1  0.64877000  0.11051000  0.44474000  1.0
  H  H139  1  0.64877000  0.44475000  0.44474000  1.0
  H  H140  1  0.64877000  0.44475000  0.11050000  1.0
  H  H141  1  0.14877000  0.88949000  0.55526000  1.0
  H  H142  1  0.14877000  0.55525000  0.55526000  1.0
  H  H143  1  0.14877000  0.55526000  0.88949000  1.0
  H  H144  1  0.50000000  0.57286000  0.42714000  1.0
  H  H145  1  0.50000000  0.00000000  0.57286000  1.0
  H  H146  1  0.50000000  0.42714000  0.00000000  1.0
  H  H147  1  0.00000000  0.42714000  0.57286000  1.0
  H  H148  1  1.00000000  0.00000000  0.42714000  1.0
  H  H149  1  0.00000000  0.57286000  0.00000000  1.0
  H  H150  1  0.50000000  0.42714000  0.57286000  1.0
  H  H151  1  0.50000000  0.00000000  0.42714000  1.0
  H  H152  1  0.50000000  0.57286000  0.00000000  1.0
  H  H153  1  0.00000000  0.57286000  0.42714000  1.0
  H  H154  1  0.00000000  0.00000000  0.57286000  1.0
  H  H155  1  1.00000000  0.42714000  0.00000000  1.0
  C  C156  1  0.51984000  0.76823000  0.41287000  1.0
  C  C157  1  0.28888000  0.66605000  0.37542000  1.0
  C  C158  1  0.52654000  0.58188000  0.53124000  1.0
  C  C159  1  0.48355000  0.70195000  0.32458000  1.0
  C  C160  1  0.51985000  0.81891000  0.76823000  1.0
  C  C161  1  0.28887000  0.95853000  0.66605000  1.0
  C  C162  1  0.52653000  0.88688000  0.58188000  1.0
  C  C163  1  0.48355000  0.97347000  0.70195000  1.0
  C  C164  1  0.51985000  0.41286000  0.81891000  1.0
  C  C165  1  0.28888000  0.37541000  0.95854000  1.0
  C  C166  1  0.52654000  0.53124000  0.88688000  1.0
  C  C167  1  0.48355000  0.32458000  0.97347000  1.0
  C  C168  1  0.01985000  0.23177000  0.58714000  1.0
  C  C169  1  0.78887000  0.33395000  0.62458000  1.0
  C  C170  1  0.02653000  0.41812000  0.46876000  1.0
  C  C171  1  0.98355000  0.29805000  0.67542000  1.0
  C  C172  1  0.01985000  0.18109000  0.23177000  1.0
  C  C173  1  0.78887000  0.04147000  0.33395000  1.0
  C  C174  1  0.02654000  0.11312000  0.41812000  1.0
  C  C175  1  0.98355000  0.02653000  0.29805000  1.0
  C  C176  1  0.01985000  0.58714000  0.18109000  1.0
  C  C177  1  0.78887000  0.62458000  0.04147000  1.0
  C  C178  1  0.02654000  0.46876000  0.11312000  1.0
  C  C179  1  0.98355000  0.67542000  0.02653000  1.0
  C  C180  1  0.48015000  0.18109000  0.58714000  1.0
  C  C181  1  0.71113000  0.04147000  0.62458000  1.0
  C  C182  1  0.47347000  0.11312000  0.46876000  1.0
  C  C183  1  0.51645000  0.02652000  0.67542000  1.0
  C  C184  1  0.48015000  0.58714000  0.23177000  1.0
  C  C185  1  0.71112000  0.62458000  0.33395000  1.0
  C  C186  1  0.47346000  0.46876000  0.41812000  1.0
  C  C187  1  0.51645000  0.67542000  0.29805000  1.0
  C  C188  1  0.48015000  0.23177000  0.18109000  1.0
  C  C189  1  0.71113000  0.33395000  0.04146000  1.0
  C  C190  1  0.47346000  0.41812000  0.11312000  1.0
  C  C191  1  0.51645000  0.29805000  0.02653000  1.0
  C  C192  1  0.98016000  0.81890000  0.41286000  1.0
  C  C193  1  0.21113000  0.95853000  0.37542000  1.0
  C  C194  1  0.97347000  0.88688000  0.53124000  1.0
  C  C195  1  0.01645000  0.97348000  0.32457000  1.0
  C  C196  1  0.98015000  0.41286000  0.76824000  1.0
  C  C197  1  0.21113000  0.37542000  0.66605000  1.0
  C  C198  1  0.97347000  0.53124000  0.58188000  1.0
  C  C199  1  0.01645000  0.32458000  0.70194000  1.0
  C  C200  1  0.98015000  0.76823000  0.81891000  1.0
  C  C201  1  0.21113000  0.66605000  0.95853000  1.0
  C  C202  1  0.97346000  0.58188000  0.88688000  1.0
  C  C203  1  0.01645000  0.70195000  0.97347000  1.0
  C  C204  1  0.48015000  0.23177000  0.58714000  1.0
  C  C205  1  0.71113000  0.33395000  0.62458000  1.0
  C  C206  1  0.47346000  0.41812000  0.46876000  1.0
  C  C207  1  0.51645000  0.29805000  0.67543000  1.0
  C  C208  1  0.48015000  0.18110000  0.23176000  1.0
  C  C209  1  0.71112000  0.04147000  0.33395000  1.0
  C  C210  1  0.47347000  0.11312000  0.41812000  1.0
  C  C211  1  0.51645000  0.02653000  0.29805000  1.0
  C  C212  1  0.48015000  0.58714000  0.18109000  1.0
  C  C213  1  0.71113000  0.62458000  0.04147000  1.0
  C  C214  1  0.47346000  0.46876000  0.11312000  1.0
  C  C215  1  0.51645000  0.67542000  0.02653000  1.0
  C  C216  1  0.98016000  0.76823000  0.41286000  1.0
  C  C217  1  0.21113000  0.66605000  0.37542000  1.0
  C  C218  1  0.97347000  0.58188000  0.53124000  1.0
  C  C219  1  0.01645000  0.70195000  0.32458000  1.0
  C  C220  1  0.98015000  0.81890000  0.76824000  1.0
  C  C221  1  0.21113000  0.95853000  0.66605000  1.0
  C  C222  1  0.97346000  0.88688000  0.58188000  1.0
  C  C223  1  0.01645000  0.97347000  0.70195000  1.0
  C  C224  1  0.98015000  0.41286000  0.81891000  1.0
  C  C225  1  0.21113000  0.37541000  0.95854000  1.0
  C  C226  1  0.97346000  0.53124000  0.88688000  1.0
  C  C227  1  0.01645000  0.32458000  0.97347000  1.0
  C  C228  1  0.51984000  0.81890000  0.41287000  1.0
  C  C229  1  0.28887000  0.95853000  0.37542000  1.0
  C  C230  1  0.52653000  0.88688000  0.53124000  1.0
  C  C231  1  0.48355000  0.97347000  0.32458000  1.0
  C  C232  1  0.51985000  0.41286000  0.76823000  1.0
  C  C233  1  0.28888000  0.37542000  0.66605000  1.0
  C  C234  1  0.52654000  0.53124000  0.58188000  1.0
  C  C235  1  0.48355000  0.32458000  0.70195000  1.0
  C  C236  1  0.51985000  0.76823000  0.81891000  1.0
  C  C237  1  0.28888000  0.66605000  0.95853000  1.0
  C  C238  1  0.52654000  0.58188000  0.88688000  1.0
  C  C239  1  0.48355000  0.70195000  0.97347000  1.0
  C  C240  1  0.01985000  0.18109000  0.58714000  1.0
  C  C241  1  0.78887000  0.04147000  0.62458000  1.0
  C  C242  1  0.02653000  0.11312000  0.46876000  1.0
  C  C243  1  0.98355000  0.02653000  0.67542000  1.0
  C  C244  1  0.01985000  0.58714000  0.23177000  1.0
  C  C245  1  0.78887000  0.62458000  0.33395000  1.0
  C  C246  1  0.02654000  0.46876000  0.41812000  1.0
  C  C247  1  0.98355000  0.67542000  0.29806000  1.0
  C  C248  1  0.01985000  0.23177000  0.18109000  1.0
  C  C249  1  0.78887000  0.33395000  0.04146000  1.0
  C  C250  1  0.02654000  0.41812000  0.11312000  1.0
  C  C251  1  0.98355000  0.29805000  0.02653000  1.0
  C  C252  1  0.41554000  0.77500000  0.45000000  1.0
  C  C253  1  0.41555000  0.77500000  0.77500000  1.0
  C  C254  1  0.41555000  0.45000000  0.77500000  1.0
  C  C255  1  0.91555000  0.22500000  0.55000000  1.0
  C  C256  1  0.91555000  0.22500000  0.22500000  1.0
  C  C257  1  0.91555000  0.55000000  0.22500000  1.0
  C  C258  1  0.58445000  0.22500000  0.55000000  1.0
  C  C259  1  0.58445000  0.55000000  0.22500000  1.0
  C  C260  1  0.58445000  0.22500000  0.22500000  1.0
  C  C261  1  0.08446000  0.77500000  0.45000000  1.0
  C  C262  1  0.08445000  0.45000000  0.77500000  1.0
  C  C263  1  0.08445000  0.77500000  0.77500000  1.0
  C  C264  1  0.25000000  0.66671000  0.44959000  1.0
  C  C265  1  0.25000000  0.88370000  0.66671000  1.0
  C  C266  1  0.25000000  0.44959000  0.88374333  1.0
  C  C267  1  0.75000000  0.33333333  0.55036667  1.0
  C  C268  1  0.75000000  0.11630000  0.33329000  1.0
  C  C269  1  0.75000000  0.55041000  0.11630000  1.0
  C  C270  1  0.75000000  0.11630000  0.55041000  1.0
  C  C271  1  0.75000000  0.55041000  0.33329000  1.0
  C  C272  1  0.75000000  0.33333333  0.11625667  1.0
  C  C273  1  0.25000000  0.88370000  0.44963333  1.0
  C  C274  1  0.25000000  0.44959000  0.66671000  1.0
  C  C275  1  0.25000000  0.66671000  0.88370000  1.0
  C  C276  1  0.41162000  0.55536000  0.55535000  1.0
  C  C277  1  0.41162000  0.88929000  0.55535000  1.0
  C  C278  1  0.41162000  0.55536000  0.88928000  1.0
  C  C279  1  0.91162000  0.44464000  0.44465000  1.0
  C  C280  1  0.91162000  0.11071000  0.44465000  1.0
  C  C281  1  0.91162000  0.44464000  0.11072000  1.0
  C  C282  1  0.58838000  0.11071000  0.44465000  1.0
  C  C283  1  0.58838000  0.44464000  0.44465000  1.0
  C  C284  1  0.58838000  0.44464000  0.11072000  1.0
  C  C285  1  0.08838000  0.88929000  0.55535000  1.0
  C  C286  1  0.08838000  0.55536000  0.55535000  1.0
  C  C287  1  0.08838000  0.55536000  0.88928000  1.0
  C  C288  1  0.50000000  0.61285000  0.38715000  1.0
  C  C289  1  0.50000000  0.00000000  0.61285000  1.0
  C  C290  1  0.50000000  0.38715000  0.00000000  1.0
  C  C291  1  0.00000000  0.38715000  0.61285000  1.0
  C  C292  1  1.00000000  0.00000000  0.38715000  1.0
  C  C293  1  0.00000000  0.61285000  0.00000000  1.0
  C  C294  1  0.50000000  0.38715000  0.61285000  1.0
  C  C295  1  0.50000000  0.00000000  0.38715000  1.0
  C  C296  1  0.50000000  0.61285000  0.00000000  1.0
  C  C297  1  0.00000000  0.61285000  0.38715000  1.0
  C  C298  1  0.00000000  0.00000000  0.61285000  1.0
  C  C299  1  1.00000000  0.38715000  0.00000000  1.0
  N  N300  1  0.45340000  0.74073000  0.43638000  1.0
  N  N301  1  0.31303000  0.66645000  0.42283000  1.0
  N  N302  1  0.45335000  0.59690000  0.51464000  1.0
  N  N303  1  0.47339000  0.66186000  0.38120000  1.0
  N  N304  1  0.45341000  0.82289000  0.74073000  1.0
  N  N305  1  0.31303000  0.91072000  0.66645000  1.0
  N  N306  1  0.45335000  0.88845000  0.59691000  1.0
  N  N307  1  0.47339000  0.95694000  0.66187000  1.0
  N  N308  1  0.45340000  0.43638000  0.82289000  1.0
  N  N309  1  0.31303000  0.42282000  0.91073000  1.0
  N  N310  1  0.45335000  0.51464000  0.88846000  1.0
  N  N311  1  0.47338000  0.38119000  0.95694000  1.0
  N  N312  1  0.95340000  0.25927000  0.56362000  1.0
  N  N313  1  0.81303000  0.33355000  0.57717000  1.0
  N  N314  1  0.95335000  0.40310000  0.48536000  1.0
  N  N315  1  0.97338000  0.33814000  0.61880000  1.0
  N  N316  1  0.95341000  0.17711000  0.25927000  1.0
  N  N317  1  0.81302000  0.08928000  0.33355000  1.0
  N  N318  1  0.95335000  0.11155000  0.40309000  1.0
  N  N319  1  0.97339000  0.04306000  0.33813000  1.0
  N  N320  1  0.95341000  0.56362000  0.17711000  1.0
  N  N321  1  0.81303000  0.57717000  0.08928000  1.0
  N  N322  1  0.95335000  0.48536000  0.11154000  1.0
  N  N323  1  0.97338000  0.61881000  0.04306000  1.0
  N  N324  1  0.54660000  0.17711000  0.56362000  1.0
  N  N325  1  0.68697000  0.08928000  0.57718000  1.0
  N  N326  1  0.54665000  0.11154000  0.48536000  1.0
  N  N327  1  0.52662000  0.04306000  0.61880000  1.0
  N  N328  1  0.54659000  0.56362000  0.25927000  1.0
  N  N329  1  0.68697000  0.57717000  0.33355000  1.0
  N  N330  1  0.54665000  0.48536000  0.40309000  1.0
  N  N331  1  0.52662000  0.61881000  0.33813000  1.0
  N  N332  1  0.54659000  0.25927000  0.17711000  1.0
  N  N333  1  0.68697000  0.33354000  0.08928000  1.0
  N  N334  1  0.54665000  0.40310000  0.11154000  1.0
  N  N335  1  0.52662000  0.33813000  0.04306000  1.0
  N  N336  1  0.04660000  0.82289000  0.43638000  1.0
  N  N337  1  0.18697000  0.91072000  0.42282000  1.0
  N  N338  1  0.04665000  0.88846000  0.51464000  1.0
  N  N339  1  0.02662000  0.95694000  0.38119000  1.0
  N  N340  1  0.04660000  0.43638000  0.74073000  1.0
  N  N341  1  0.18697000  0.42283000  0.66645000  1.0
  N  N342  1  0.04665000  0.51464000  0.59691000  1.0
  N  N343  1  0.02662000  0.38119000  0.66187000  1.0
  N  N344  1  0.04659000  0.74073000  0.82289000  1.0
  N  N345  1  0.18698000  0.66645000  0.91073000  1.0
  N  N346  1  0.04665000  0.59690000  0.88846000  1.0
  N  N347  1  0.02662000  0.66187000  0.95694000  1.0
  N  N348  1  0.54660000  0.25927000  0.56362000  1.0
  N  N349  1  0.68697000  0.33355000  0.57717000  1.0
  N  N350  1  0.54665000  0.40310000  0.48536000  1.0
  N  N351  1  0.52662000  0.33813000  0.61881000  1.0
  N  N352  1  0.54659000  0.17711000  0.25927000  1.0
  N  N353  1  0.68697000  0.08928000  0.33355000  1.0
  N  N354  1  0.54665000  0.11155000  0.40309000  1.0
  N  N355  1  0.52661000  0.04306000  0.33813000  1.0
  N  N356  1  0.54660000  0.56362000  0.17711000  1.0
  N  N357  1  0.68697000  0.57717000  0.08928000  1.0
  N  N358  1  0.54665000  0.48536000  0.11154000  1.0
  N  N359  1  0.52662000  0.61881000  0.04306000  1.0
  N  N360  1  0.04660000  0.74073000  0.43638000  1.0
  N  N361  1  0.18698000  0.66645000  0.42283000  1.0
  N  N362  1  0.04665000  0.59690000  0.51464000  1.0
  N  N363  1  0.02662000  0.66186000  0.38120000  1.0
  N  N364  1  0.04659000  0.82289000  0.74073000  1.0
  N  N365  1  0.18697000  0.91072000  0.66645000  1.0
  N  N366  1  0.04665000  0.88845000  0.59691000  1.0
  N  N367  1  0.02662000  0.95694000  0.66187000  1.0
  N  N368  1  0.04660000  0.43638000  0.82289000  1.0
  N  N369  1  0.18697000  0.42282000  0.91072000  1.0
  N  N370  1  0.04665000  0.51464000  0.88846000  1.0
  N  N371  1  0.02662000  0.38119000  0.95694000  1.0
  N  N372  1  0.45340000  0.82289000  0.43638000  1.0
  N  N373  1  0.31302000  0.91072000  0.42282000  1.0
  N  N374  1  0.45335000  0.88846000  0.51464000  1.0
  N  N375  1  0.47338000  0.95694000  0.38119000  1.0
  N  N376  1  0.45340000  0.43638000  0.74073000  1.0
  N  N377  1  0.31302000  0.42283000  0.66645000  1.0
  N  N378  1  0.45335000  0.51464000  0.59691000  1.0
  N  N379  1  0.47338000  0.38119000  0.66187000  1.0
  N  N380  1  0.45341000  0.74073000  0.82289000  1.0
  N  N381  1  0.31303000  0.66646000  0.91072000  1.0
  N  N382  1  0.45335000  0.59690000  0.88846000  1.0
  N  N383  1  0.47338000  0.66187000  0.95694000  1.0
  N  N384  1  0.95340000  0.17711000  0.56362000  1.0
  N  N385  1  0.81303000  0.08928000  0.57718000  1.0
  N  N386  1  0.95335000  0.11154000  0.48536000  1.0
  N  N387  1  0.97338000  0.04306000  0.61881000  1.0
  N  N388  1  0.95341000  0.56362000  0.25927000  1.0
  N  N389  1  0.81302000  0.57717000  0.33355000  1.0
  N  N390  1  0.95335000  0.48536000  0.40309000  1.0
  N  N391  1  0.97338000  0.61881000  0.33813000  1.0
  N  N392  1  0.95341000  0.25927000  0.17711000  1.0
  N  N393  1  0.81303000  0.33354000  0.08928000  1.0
  N  N394  1  0.95335000  0.40310000  0.11154000  1.0
  N  N395  1  0.97339000  0.33813000  0.04306000  1.0
  N  N396  1  0.25000000  0.66699000  0.50200000  1.0
  N  N397  1  0.25000000  0.83101000  0.66698000  1.0
  N  N398  1  0.25000000  0.50200000  0.83101000  1.0
  N  N399  1  0.75000000  0.33301000  0.49800000  1.0
  N  N400  1  0.75000000  0.16899000  0.33302000  1.0
  N  N401  1  0.75000000  0.49799000  0.16900000  1.0
  N  N402  1  0.75000000  0.16899000  0.49800000  1.0
  N  N403  1  0.75000000  0.49799000  0.33302000  1.0
  N  N404  1  0.75000000  0.33301000  0.16899000  1.0
  N  N405  1  0.25000000  0.83101000  0.50200000  1.0
  N  N406  1  0.25000000  0.50201000  0.66699000  1.0
  N  N407  1  0.25000000  0.66699000  0.83100000  1.0
  O  O408  1  0.31164000  0.66703000  0.52318000  1.0
  O  O409  1  0.31165000  0.80979000  0.66704000  1.0
  O  O410  1  0.31164000  0.52317000  0.80979000  1.0
  O  O411  1  0.81165000  0.33296000  0.47683000  1.0
  O  O412  1  0.81165000  0.19021000  0.33296000  1.0
  O  O413  1  0.81165000  0.47683000  0.19021000  1.0
  O  O414  1  0.68835000  0.19021000  0.47683000  1.0
  O  O415  1  0.68835000  0.47683000  0.33296000  1.0
  O  O416  1  0.68835000  0.33296000  0.19021000  1.0
  O  O417  1  0.18835000  0.80979000  0.52317000  1.0
  O  O418  1  0.18835000  0.52317000  0.66704000  1.0
  O  O419  1  0.18836000  0.66704000  0.80979000  1.0
  O  O420  1  0.68836000  0.33296000  0.47683000  1.0
  O  O421  1  0.68835000  0.19021000  0.33297000  1.0
  O  O422  1  0.68835000  0.47683000  0.19020000  1.0
  O  O423  1  0.18835000  0.66703000  0.52318000  1.0
  O  O424  1  0.18836000  0.80979000  0.66704000  1.0
  O  O425  1  0.18835000  0.52317000  0.80979000  1.0
  O  O426  1  0.31165000  0.80979000  0.52317000  1.0
  O  O427  1  0.31164000  0.52317000  0.66704000  1.0
  O  O428  1  0.31165000  0.66704000  0.80979000  1.0
  O  O429  1  0.81165000  0.19021000  0.47683000  1.0
  O  O430  1  0.81165000  0.47683000  0.33296000  1.0
  O  O431  1  0.81165000  0.33296000  0.19021000  1.0
