# generated using pymatgen
data_CuH9C12NClO
_symmetry_space_group_name_H-M   'P 1'
_cell_length_a   3.75897000
_cell_length_b   8.50712000
_cell_length_c   15.97860000
_cell_angle_alpha   94.58430000
_cell_angle_beta   90.35030000
_cell_angle_gamma   100.41000000
_symmetry_Int_Tables_number   1
_chemical_formula_structural   CuH9C12NClO
_chemical_formula_sum   'Cu2 H18 C24 N2 Cl2 O2'
_cell_volume   500.83544057
_cell_formula_units_Z   2
loop_
 _symmetry_equiv_pos_site_id
 _symmetry_equiv_pos_as_xyz
  1  'x, y, z'
loop_
 _atom_site_type_symbol
 _atom_site_label
 _atom_site_symmetry_multiplicity
 _atom_site_fract_x
 _atom_site_fract_y
 _atom_site_fract_z
 _atom_site_occupancy
  Cu  Cu0  1  0.54324000  0.34369000  0.49554000  1.0
  Cu  Cu1  1  0.45680000  0.65631000  0.50446000  1.0
  H  H2  1  0.41888000  0.43409000  0.67169000  1.0
  H  H3  1  0.58112000  0.56590000  0.32830000  1.0
  H  H4  1  0.48046000  0.31926000  0.80911000  1.0
  H  H5  1  0.51953000  0.68073000  0.19089000  1.0
  H  H6  1  0.81601000  0.91433000  0.67097000  1.0
  H  H7  1  0.18398000  0.08567000  0.32903000  1.0
  H  H8  1  0.76624000  0.04974000  0.54169000  1.0
  H  H9  1  0.23379000  0.95025000  0.45831000  1.0
  H  H10  1  0.27577000  0.81285000  0.73043000  1.0
  H  H11  1  0.72423000  0.18715000  0.26957000  1.0
  H  H12  1  0.99796000  0.54366000  0.76394000  1.0
  H  H13  1  0.00201000  0.45634000  0.23606000  1.0
  H  H14  1  0.09098000  0.45172000  0.90549000  1.0
  H  H15  1  0.90899000  0.54829000  0.09451000  1.0
  H  H16  1  0.46974000  0.63882000  0.01389000  1.0
  H  H17  1  0.53024000  0.36120000  0.98611000  1.0
  H  H18  1  0.76063000  0.90890000  0.97978000  1.0
  H  H19  1  0.23935000  0.09111000  0.02023000  1.0
  C  C20  1  0.50911000  0.32000000  0.67488000  1.0
  C  C21  1  0.49089000  0.68000000  0.32512000  1.0
  C  C22  1  0.54396000  0.25571000  0.75086000  1.0
  C  C23  1  0.45605000  0.74428000  0.24914000  1.0
  C  C24  1  0.65275000  0.10686000  0.75219000  1.0
  C  C25  1  0.34725000  0.89315000  0.24781000  1.0
  C  C26  1  0.72709000  0.02966000  0.67531000  1.0
  C  C27  1  0.27292000  0.97033000  0.32469000  1.0
  C  C28  1  0.69728000  0.10443000  0.60203000  1.0
  C  C29  1  0.30273000  0.89557000  0.39797000  1.0
  C  C30  1  0.71012000  0.04544000  0.83589000  1.0
  C  C31  1  0.28987000  0.95456000  0.16411000  1.0
  C  C32  1  0.54209000  0.88055000  0.85277000  1.0
  C  C33  1  0.45788000  0.11945000  0.14723000  1.0
  C  C34  1  0.32511000  0.77581000  0.79244000  1.0
  C  C35  1  0.67489000  0.22419000  0.20756000  1.0
  C  C36  1  0.16725000  0.62233000  0.81128000  1.0
  C  C37  1  0.83273000  0.37767000  0.18872000  1.0
  C  C38  1  0.21881000  0.57190000  0.89081000  1.0
  C  C39  1  0.78118000  0.42810000  0.10919000  1.0
  C  C40  1  0.43092000  0.67616000  0.95144000  1.0
  C  C41  1  0.56906000  0.32385000  0.04856000  1.0
  C  C42  1  0.59271000  0.82896000  0.93272000  1.0
  C  C43  1  0.40727000  0.17105000  0.06728000  1.0
  N  N44  1  0.58725000  0.24698000  0.60057000  1.0
  N  N45  1  0.41277000  0.75301000  0.39943000  1.0
  Cl  Cl46  1  0.93467000  0.65006000  0.58550000  1.0
  Cl  Cl47  1  0.06536000  0.34993000  0.41450000  1.0
  O  O48  1  0.89697000  0.13917000  0.88924000  1.0
  O  O49  1  0.10304000  0.86083000  0.11076000  1.0
