# generated using pymatgen
data_CdH14C15(NO)4
_symmetry_space_group_name_H-M   'P 1'
_cell_length_a   11.55280000
_cell_length_b   13.69630000
_cell_length_c   13.99630000
_cell_angle_alpha   105.48300000
_cell_angle_beta   90.03280000
_cell_angle_gamma   114.92000000
_symmetry_Int_Tables_number   1
_chemical_formula_structural   CdH14C15(NO)4
_chemical_formula_sum   'Cd4 H56 C60 N16 O16'
_cell_volume   1919.30414048
_cell_formula_units_Z   4
loop_
 _symmetry_equiv_pos_site_id
 _symmetry_equiv_pos_as_xyz
  1  'x, y, z'
loop_
 _atom_site_type_symbol
 _atom_site_label
 _atom_site_symmetry_multiplicity
 _atom_site_fract_x
 _atom_site_fract_y
 _atom_site_fract_z
 _atom_site_occupancy
  Cd  Cd0  1  0.05514000  0.55915000  0.14414000  1.0
  Cd  Cd1  1  0.49640000  0.44112000  0.35576000  1.0
  Cd  Cd2  1  0.94486000  0.44085000  0.85586000  1.0
  Cd  Cd3  1  0.50361000  0.55888000  0.64424000  1.0
  H  H4  1  0.82462000  0.82350000  0.11146000  1.0
  H  H5  1  0.00153000  0.17638000  0.38824000  1.0
  H  H6  1  0.17538000  0.17649000  0.88853000  1.0
  H  H7  1  0.99847000  0.82362000  0.61176000  1.0
  H  H8  1  0.23889000  0.99077000  0.14024000  1.0
  H  H9  1  0.24860000  0.00913000  0.35905000  1.0
  H  H10  1  0.76111000  0.00923000  0.85976000  1.0
  H  H11  1  0.75140000  0.99087000  0.64095000  1.0
  H  H12  1  0.30443000  0.29962000  0.13391000  1.0
  H  H13  1  0.00536000  0.70060000  0.36610000  1.0
  H  H14  1  0.69556000  0.70037000  0.86610000  1.0
  H  H15  1  0.99464000  0.29940000  0.63389000  1.0
  H  H16  1  0.84224000  0.64766000  0.11959000  1.0
  H  H17  1  0.19476000  0.35234000  0.38010000  1.0
  H  H18  1  0.15775000  0.35234000  0.88041000  1.0
  H  H19  1  0.80524000  0.64766000  0.61990000  1.0
  H  H20  1  0.23951000  0.80933000  0.15346000  1.0
  H  H21  1  0.43041000  0.19062000  0.34583000  1.0
  H  H22  1  0.76048000  0.19066000  0.84655000  1.0
  H  H23  1  0.56960000  0.80938000  0.65416000  1.0
  H  H24  1  0.27515000  0.47218000  0.13930000  1.0
  H  H25  1  0.80354000  0.52805000  0.36063000  1.0
  H  H26  1  0.72485000  0.52782000  0.86070000  1.0
  H  H27  1  0.19646000  0.47195000  0.63937000  1.0
  H  H28  1  0.37297000  0.71863000  0.54651000  1.0
  H  H29  1  0.65429000  0.28141000  0.95352000  1.0
  H  H30  1  0.62703000  0.28137000  0.45349000  1.0
  H  H31  1  0.34571000  0.71858000  0.04648000  1.0
  H  H32  1  0.22044000  0.62720000  0.47718000  1.0
  H  H33  1  0.59294000  0.37267000  0.02276000  1.0
  H  H34  1  0.77956000  0.37279000  0.52282000  1.0
  H  H35  1  0.40706000  0.62733000  0.97724000  1.0
  H  H36  1  0.89241000  0.12460000  0.13346000  1.0
  H  H37  1  0.76845000  0.87589000  0.36689000  1.0
  H  H38  1  0.10759000  0.87541000  0.86655000  1.0
  H  H39  1  0.23156000  0.12412000  0.63311000  1.0
  H  H40  1  0.88221000  0.30711000  0.14304000  1.0
  H  H41  1  0.57577000  0.69339000  0.35727000  1.0
  H  H42  1  0.11778000  0.69289000  0.85697000  1.0
  H  H43  1  0.42423000  0.30661000  0.64274000  1.0
  H  H44  1  0.43694000  0.77685000  0.38200000  1.0
  H  H45  1  0.66055000  0.22333000  0.11801000  1.0
  H  H46  1  0.56305000  0.22315000  0.61800000  1.0
  H  H47  1  0.33945000  0.77668000  0.88200000  1.0
  H  H48  1  0.38739000  0.89984000  0.52798000  1.0
  H  H49  1  0.48768000  0.10011000  0.97224000  1.0
  H  H50  1  0.61261000  0.10015000  0.47202000  1.0
  H  H51  1  0.51232000  0.89989000  0.02776000  1.0
  H  H52  1  0.33044000  0.90532000  0.41239000  1.0
  H  H53  1  0.42564000  0.09481000  0.08794000  1.0
  H  H54  1  0.66956000  0.09468000  0.58761000  1.0
  H  H55  1  0.57436000  0.90519000  0.91206000  1.0
  H  H56  1  0.22047000  0.82400000  0.48105000  1.0
  H  H57  1  0.39660000  0.17594000  0.01919000  1.0
  H  H58  1  0.77953000  0.17600000  0.51895000  1.0
  H  H59  1  0.60341000  0.82406000  0.98081000  1.0
  C  C60  1  0.03086000  0.91911000  0.12496000  1.0
  C  C61  1  0.11227000  0.08089000  0.37455000  1.0
  C  C62  1  0.96914000  0.08089000  0.87504000  1.0
  C  C63  1  0.88773000  0.91912000  0.62545000  1.0
  C  C64  1  0.91770000  0.82212000  0.11913000  1.0
  C  C65  1  0.09601000  0.17786000  0.38043000  1.0
  C  C66  1  0.08230000  0.17788000  0.88087000  1.0
  C  C67  1  0.90400000  0.82215000  0.61957000  1.0
  C  C68  1  0.09904000  0.19805000  0.13071000  1.0
  C  C69  1  0.90152000  0.80221000  0.36943000  1.0
  C  C70  1  0.90096000  0.80195000  0.86929000  1.0
  C  C71  1  0.09848000  0.19779000  0.63057000  1.0
  C  C72  1  0.15000000  0.91613000  0.13567000  1.0
  C  C73  1  0.23429000  0.08376000  0.36372000  1.0
  C  C74  1  0.84999000  0.08386000  0.86434000  1.0
  C  C75  1  0.76571000  0.91624000  0.63628000  1.0
  C  C76  1  0.20833000  0.29648000  0.13289000  1.0
  C  C77  1  0.91243000  0.70376000  0.36715000  1.0
  C  C78  1  0.79167000  0.70352000  0.86711000  1.0
  C  C79  1  0.08758000  0.29624000  0.63285000  1.0
  C  C80  1  0.92730000  0.72563000  0.12408000  1.0
  C  C81  1  0.20197000  0.27437000  0.37551000  1.0
  C  C82  1  0.07269000  0.27437000  0.87592000  1.0
  C  C83  1  0.79803000  0.72563000  0.62448000  1.0
  C  C84  1  0.15051000  0.81688000  0.14176000  1.0
  C  C85  1  0.33391000  0.18303000  0.35762000  1.0
  C  C86  1  0.84948000  0.18312000  0.85825000  1.0
  C  C87  1  0.66609000  0.81697000  0.64237000  1.0
  C  C88  1  0.24514000  0.68362000  0.30753000  1.0
  C  C89  1  0.56204000  0.31652000  0.19260000  1.0
  C  C90  1  0.75485000  0.31638000  0.69247000  1.0
  C  C91  1  0.43796000  0.68348000  0.80740000  1.0
  C  C92  1  0.19275000  0.39301000  0.13625000  1.0
  C  C93  1  0.80035000  0.60726000  0.36375000  1.0
  C  C94  1  0.80725000  0.60699000  0.86375000  1.0
  C  C95  1  0.19965000  0.39275000  0.63625000  1.0
  C  C96  1  0.32357000  0.67059000  0.47019000  1.0
  C  C97  1  0.65293000  0.32947000  0.02981000  1.0
  C  C98  1  0.67643000  0.32941000  0.52981000  1.0
  C  C99  1  0.34707000  0.67053000  0.97019000  1.0
  C  C100  1  0.97840000  0.19989000  0.13388000  1.0
  C  C101  1  0.77912000  0.80052000  0.36634000  1.0
  C  C102  1  0.02160000  0.80012000  0.86612000  1.0
  C  C103  1  0.22088000  0.19948000  0.63366000  1.0
  C  C104  1  0.97252000  0.29971000  0.13794000  1.0
  C  C105  1  0.67344000  0.70073000  0.36227000  1.0
  C  C106  1  0.02748000  0.70029000  0.86207000  1.0
  C  C107  1  0.32656000  0.29928000  0.63774000  1.0
  C  C108  1  0.33945000  0.74737000  0.40415000  1.0
  C  C109  1  0.59241000  0.25274000  0.09592000  1.0
  C  C110  1  0.66054000  0.25263000  0.59586000  1.0
  C  C111  1  0.40759000  0.74726000  0.90409000  1.0
  C  C112  1  0.31817000  0.85018000  0.45974000  1.0
  C  C113  1  0.46828000  0.14986000  0.04047000  1.0
  C  C114  1  0.68183000  0.14982000  0.54026000  1.0
  C  C115  1  0.53172000  0.85014000  0.95953000  1.0
  C  C116  1  0.36916000  0.58075000  0.42764000  1.0
  C  C117  1  0.78824000  0.41950000  0.07237000  1.0
  C  C118  1  0.63085000  0.41925000  0.57236000  1.0
  C  C119  1  0.21176000  0.58050000  0.92763000  1.0
  N  N120  1  0.07726000  0.39432000  0.13791000  1.0
  N  N121  1  0.68361000  0.60610000  0.36228000  1.0
  N  N122  1  0.92274000  0.60567000  0.86209000  1.0
  N  N123  1  0.31640000  0.39390000  0.63772000  1.0
  N  N124  1  0.04131000  0.72347000  0.13588000  1.0
  N  N125  1  0.31811000  0.27651000  0.36372000  1.0
  N  N126  1  0.95868000  0.27653000  0.86413000  1.0
  N  N127  1  0.68189000  0.72349000  0.63628000  1.0
  N  N128  1  0.01446000  0.01519000  0.12273000  1.0
  N  N129  1  0.99983000  0.98491000  0.37692000  1.0
  N  N130  1  0.98554000  0.98481000  0.87727000  1.0
  N  N131  1  0.00017000  0.01509000  0.62308000  1.0
  N  N132  1  0.11819000  0.10170000  0.12811000  1.0
  N  N133  1  0.01706000  0.89845000  0.37191000  1.0
  N  N134  1  0.88180000  0.89830000  0.87189000  1.0
  N  N135  1  0.98294000  0.10155000  0.62809000  1.0
  O  O136  1  0.12765000  0.62305000  0.31596000  1.0
  O  O137  1  0.50472000  0.37685000  0.18413000  1.0
  O  O138  1  0.87234000  0.37694000  0.68404000  1.0
  O  O139  1  0.49529000  0.62316000  0.81587000  1.0
  O  O140  1  0.28326000  0.69587000  0.22469000  1.0
  O  O141  1  0.58838000  0.30449000  0.27544000  1.0
  O  O142  1  0.71673000  0.30413000  0.77531000  1.0
  O  O143  1  0.41163000  0.69551000  0.72456000  1.0
  O  O144  1  0.37039000  0.54678000  0.33420000  1.0
  O  O145  1  0.82341000  0.45369000  0.16583000  1.0
  O  O146  1  0.62961000  0.45322000  0.66580000  1.0
  O  O147  1  0.17659000  0.54631000  0.83417000  1.0
  O  O148  1  0.40736000  0.54046000  0.48744000  1.0
  O  O149  1  0.86665000  0.45968000  0.01252000  1.0
  O  O150  1  0.59264000  0.45954000  0.51256000  1.0
  O  O151  1  0.13335000  0.54032000  0.98747000  1.0
