# generated using pymatgen
data_ZnH22C16(NO)4
_symmetry_space_group_name_H-M   'P 1'
_cell_length_a   9.10783000
_cell_length_b   11.18410000
_cell_length_c   12.91840000
_cell_angle_alpha   67.25460000
_cell_angle_beta   78.79500000
_cell_angle_gamma   82.73420000
_symmetry_Int_Tables_number   1
_chemical_formula_structural   ZnH22C16(NO)4
_chemical_formula_sum   'Zn2 H44 C32 N8 O8'
_cell_volume   1188.51865438
_cell_formula_units_Z   2
loop_
 _symmetry_equiv_pos_site_id
 _symmetry_equiv_pos_as_xyz
  1  'x, y, z'
loop_
 _atom_site_type_symbol
 _atom_site_label
 _atom_site_symmetry_multiplicity
 _atom_site_fract_x
 _atom_site_fract_y
 _atom_site_fract_z
 _atom_site_occupancy
  Zn  Zn0  1  0.00525000  0.21242000  0.79513000  1.0
  Zn  Zn1  1  0.99475000  0.78758000  0.20487000  1.0
  H  H2  1  0.84339000  0.31489000  0.56962000  1.0
  H  H3  1  0.15661000  0.68511000  0.43037000  1.0
  H  H4  1  0.28653000  0.33718000  0.60860000  1.0
  H  H5  1  0.71347000  0.66282000  0.39140000  1.0
  H  H6  1  0.26657000  0.43312000  0.37543000  1.0
  H  H7  1  0.73343000  0.56688000  0.62456000  1.0
  H  H8  1  0.98311000  0.51576000  0.28898000  1.0
  H  H9  1  0.01688000  0.48424000  0.71102000  1.0
  H  H10  1  0.85774000  0.39151000  0.36326000  1.0
  H  H11  1  0.14226000  0.60849000  0.63674000  1.0
  H  H12  1  0.06202000  0.22896000  0.32402000  1.0
  H  H13  1  0.93798000  0.77104000  0.67598000  1.0
  H  H14  1  0.17887000  0.35974000  0.24481000  1.0
  H  H15  1  0.82113000  0.64026000  0.75519000  1.0
  H  H16  1  0.88122000  0.31910000  0.18790000  1.0
  H  H17  1  0.11877000  0.68090000  0.81210000  1.0
  H  H18  1  0.97716000  0.46323000  0.11775000  1.0
  H  H19  1  0.02284000  0.53677000  0.88225000  1.0
  H  H20  1  0.03814000  0.31813000  0.00796000  1.0
  H  H21  1  0.96186000  0.68187000  0.99204000  1.0
  H  H22  1  0.20086000  0.34386000  0.05141000  1.0
  H  H23  1  0.79914000  0.65615000  0.94858000  1.0
  H  H24  1  0.94436000  0.09339000  0.08330000  1.0
  H  H25  1  0.05564000  0.90661000  0.91670000  1.0
  H  H26  1  0.27485000  0.88231000  0.28419000  1.0
  H  H27  1  0.72514000  0.11769000  0.71581000  1.0
  H  H28  1  0.31108000  0.14644000  0.21547000  1.0
  H  H29  1  0.68891000  0.85356000  0.78454000  1.0
  H  H30  1  0.63195000  0.29252000  0.04577000  1.0
  H  H31  1  0.36805000  0.70748000  0.95423000  1.0
  H  H32  1  0.74936000  0.41761000  0.01603000  1.0
  H  H33  1  0.25064000  0.58238000  0.98398000  1.0
  H  H34  1  0.46138000  0.44724000  0.91451000  1.0
  H  H35  1  0.53862000  0.55276000  0.08550000  1.0
  H  H36  1  0.58094000  0.57296000  0.87898000  1.0
  H  H37  1  0.41907000  0.42703000  0.12102000  1.0
  H  H38  1  0.51056000  0.21094000  0.84650000  1.0
  H  H39  1  0.48944000  0.78906000  0.15350000  1.0
  H  H40  1  0.40743000  0.21244000  0.97442000  1.0
  H  H41  1  0.59257000  0.78756000  0.02558000  1.0
  H  H42  1  0.45624000  0.97908000  0.89934000  1.0
  H  H43  1  0.54376000  0.02092000  0.10066000  1.0
  H  H44  1  0.33101000  0.98074000  0.02028000  1.0
  H  H45  1  0.66899000  0.01926000  0.97972000  1.0
  C  C46  1  0.96242000  0.32972000  0.55039000  1.0
  C  C47  1  0.03759000  0.67029000  0.44961000  1.0
  C  C48  1  0.19343000  0.34365000  0.56523000  1.0
  C  C49  1  0.80657000  0.65635000  0.43476000  1.0
  C  C50  1  0.18576000  0.38932000  0.45113000  1.0
  C  C51  1  0.81425000  0.61068000  0.54887000  1.0
  C  C52  1  0.97719000  0.41140000  0.33885000  1.0
  C  C53  1  0.02281000  0.58860000  0.66115000  1.0
  C  C54  1  0.06120000  0.33296000  0.26994000  1.0
  C  C55  1  0.93879000  0.66705000  0.73006000  1.0
  C  C56  1  0.99342000  0.35791000  0.16386000  1.0
  C  C57  1  0.00658000  0.64209000  0.83614000  1.0
  C  C58  1  0.09129000  0.30056000  0.08222000  1.0
  C  C59  1  0.90871000  0.69944000  0.91778000  1.0
  C  C60  1  0.03704000  0.06942000  0.13089000  1.0
  C  C61  1  0.96296000  0.93058000  0.86911000  1.0
  C  C62  1  0.20914000  0.96499000  0.23457000  1.0
  C  C63  1  0.79085000  0.03501000  0.76543000  1.0
  C  C64  1  0.22918000  0.09508000  0.20060000  1.0
  C  C65  1  0.77082000  0.90492000  0.79940000  1.0
  C  C66  1  0.76294000  0.34870000  0.88133000  1.0
  C  C67  1  0.23706000  0.65130000  0.11867000  1.0
  C  C68  1  0.67142000  0.38433000  0.97863000  1.0
  C  C69  1  0.32858000  0.61566000  0.02137000  1.0
  C  C70  1  0.54022000  0.48352000  0.94892000  1.0
  C  C71  1  0.45979000  0.51648000  0.05108000  1.0
  C  C72  1  0.27336000  0.21856000  0.85537000  1.0
  C  C73  1  0.72665000  0.78144000  0.14463000  1.0
  C  C74  1  0.41333000  0.16827000  0.91069000  1.0
  C  C75  1  0.58667000  0.83173000  0.08931000  1.0
  C  C76  1  0.43555000  0.02101000  0.96569000  1.0
  C  C77  1  0.56445000  0.97898000  0.03431000  1.0
  N  N78  1  0.05308000  0.30694000  0.62622000  1.0
  N  N79  1  0.94693000  0.69306000  0.37377000  1.0
  N  N80  1  0.03841000  0.37966000  0.44351000  1.0
  N  N81  1  0.96159000  0.62035000  0.55649000  1.0
  N  N82  1  0.08889000  0.95044000  0.19065000  1.0
  N  N83  1  0.91111000  0.04956000  0.80935000  1.0
  N  N84  1  0.11947000  0.15977000  0.13489000  1.0
  N  N85  1  0.88053000  0.84024000  0.86510000  1.0
  O  O86  1  0.88356000  0.27566000  0.90897000  1.0
  O  O87  1  0.11645000  0.72433000  0.09104000  1.0
  O  O88  1  0.72405000  0.38644000  0.78576000  1.0
  O  O89  1  0.27596000  0.61355000  0.21424000  1.0
  O  O90  1  0.19247000  0.13083000  0.85504000  1.0
  O  O91  1  0.80753000  0.86917000  0.14496000  1.0
  O  O92  1  0.24077000  0.33828000  0.81430000  1.0
  O  O93  1  0.75923000  0.66172000  0.18570000  1.0
