# generated using pymatgen
data_ZnH24C33NCl7O12
_symmetry_space_group_name_H-M   'P 1'
_cell_length_a   15.96040000
_cell_length_b   18.67640000
_cell_length_c   19.33680000
_cell_angle_alpha   89.91440000
_cell_angle_beta   88.15180000
_cell_angle_gamma   89.05290000
_symmetry_Int_Tables_number   1
_chemical_formula_structural   ZnH24C33NCl7O12
_chemical_formula_sum   'Zn2 H48 C66 N2 Cl14 O24'
_cell_volume   5760.17953893
_cell_formula_units_Z   2
loop_
 _symmetry_equiv_pos_site_id
 _symmetry_equiv_pos_as_xyz
  1  'x, y, z'
loop_
 _atom_site_type_symbol
 _atom_site_label
 _atom_site_symmetry_multiplicity
 _atom_site_fract_x
 _atom_site_fract_y
 _atom_site_fract_z
 _atom_site_occupancy
  Zn  Zn0  1  0.50859000  0.57943000  0.49519000  1.0
  Zn  Zn1  1  0.50276000  0.41669000  0.49911000  1.0
  H  H2  1  0.05139000  0.47792000  0.31099000  1.0
  H  H3  1  0.70386000  0.11324000  0.48443000  1.0
  H  H4  1  0.72550000  0.19457000  0.43736000  1.0
  H  H5  1  0.72834000  0.11011000  0.39304000  1.0
  H  H6  1  0.69180000  0.66552000  0.35030000  1.0
  H  H7  1  0.63163000  0.74693000  0.34338000  1.0
  H  H8  1  0.58081000  0.66097000  0.33930000  1.0
  H  H9  1  0.47447000  0.32651000  0.67262000  1.0
  H  H10  1  0.38594000  0.26754000  0.68299000  1.0
  H  H11  1  0.37042000  0.36291000  0.67414000  1.0
  H  H12  1  0.72107000  0.42266000  0.69217000  1.0
  H  H13  1  0.03097000  0.57272000  0.31754000  1.0
  H  H14  1  0.62060000  0.38765000  0.67327000  1.0
  H  H15  1  0.65585000  0.38708000  0.76137000  1.0
  H  H16  1  0.67682000  0.46033000  0.28058000  1.0
  H  H17  1  0.65440000  0.51999000  0.35198000  1.0
  H  H18  1  0.73484000  0.54120000  0.28938000  1.0
  H  H19  1  0.61685000  0.56477000  0.90674000  1.0
  H  H20  1  0.67476000  0.54392000  0.82737000  1.0
  H  H21  1  0.69950000  0.49860000  0.90644000  1.0
  H  H22  1  0.63971000  0.47712000  0.06911000  1.0
  H  H23  1  0.68669000  0.51188000  0.14549000  1.0
  H  H24  1  0.96597000  0.51799000  0.26586000  1.0
  H  H25  1  0.68484000  0.56437000  0.06788000  1.0
  H  H26  1  0.24563000  0.42366000  0.79262000  1.0
  H  H27  1  0.18475000  0.47330000  0.85639000  1.0
  H  H28  1  0.27155000  0.41886000  0.88268000  1.0
  H  H29  1  0.26432000  0.35336000  0.23110000  1.0
  H  H30  1  0.36446000  0.33151000  0.19040000  1.0
  H  H31  1  0.27399000  0.34103000  0.13882000  1.0
  H  H32  1  0.50783000  0.64850000  0.89753000  1.0
  H  H33  1  0.46547000  0.68051000  0.97969000  1.0
  H  H34  1  0.42200000  0.71161000  0.90013000  1.0
  H  H35  1  0.98275000  0.42765000  0.68485000  1.0
  H  H36  1  0.58500000  0.37199000  0.10577000  1.0
  H  H37  1  0.57601000  0.33164000  0.02156000  1.0
  H  H38  1  0.54600000  0.28303000  0.09851000  1.0
  H  H39  1  0.28378000  0.57862000  0.12053000  1.0
  H  H40  1  0.26990000  0.62600000  0.04031000  1.0
  H  H41  1  0.30077000  0.67347000  0.11603000  1.0
  H  H42  1  0.37542000  0.34074000  0.86584000  1.0
  H  H43  1  0.36734000  0.30387000  0.95196000  1.0
  H  H44  1  0.44072000  0.26616000  0.88920000  1.0
  H  H45  1  0.96571000  0.52314000  0.68929000  1.0
  H  H46  1  0.05199000  0.48238000  0.73280000  1.0
  H  H47  1  0.42611000  0.88502000  0.65968000  1.0
  H  H48  1  0.37978000  0.79824000  0.67066000  1.0
  H  H49  1  0.31401000  0.87626000  0.66132000  1.0
  C  C50  1  0.50220000  0.50352000  0.36404000  1.0
  C  C51  1  0.41141000  0.46691000  0.26638000  1.0
  C  C52  1  0.47561000  0.50598000  0.70666000  1.0
  C  C53  1  0.48641000  0.49710000  0.28779000  1.0
  C  C54  1  0.41086000  0.54922000  0.96232000  1.0
  C  C55  1  0.44985000  0.42398000  0.03566000  1.0
  C  C56  1  0.41172000  0.55003000  0.03488000  1.0
  C  C57  1  0.45090000  0.42324000  0.96300000  1.0
  C  C58  1  0.43396000  0.48826000  0.07164000  1.0
  C  C59  1  0.43290000  0.48611000  0.92593000  1.0
  C  C60  1  0.43922000  0.73098000  0.53791000  1.0
  C  C61  1  0.49336000  0.50915000  0.62972000  1.0
  C  C62  1  0.55669000  0.26205000  0.45768000  1.0
  C  C63  1  0.43704000  0.80625000  0.54042000  1.0
  C  C64  1  0.56075000  0.18698000  0.46173000  1.0
  C  C65  1  0.66545000  0.48238000  0.50153000  1.0
  C  C66  1  0.34579000  0.49393000  0.49493000  1.0
  C  C67  1  0.50166000  0.84354000  0.50629000  1.0
  C  C68  1  0.50624000  0.15284000  0.50906000  1.0
  C  C69  1  0.56492000  0.80491000  0.47035000  1.0
  C  C70  1  0.45221000  0.19446000  0.55149000  1.0
  C  C71  1  0.56129000  0.72972000  0.46800000  1.0
  C  C72  1  0.52722000  0.48184000  0.82129000  1.0
  C  C73  1  0.45524000  0.26962000  0.54725000  1.0
  C  C74  1  0.54802000  0.95891000  0.55789000  1.0
  C  C75  1  0.45702000  0.03752000  0.46119000  1.0
  C  C76  1  0.54899000  0.03406000  0.55860000  1.0
  C  C77  1  0.45588000  0.96240000  0.46054000  1.0
  C  C78  1  0.50395000  0.07350000  0.51006000  1.0
  C  C79  1  0.50176000  0.92293000  0.50865000  1.0
  C  C80  1  0.02828000  0.56280000  0.47231000  1.0
  C  C81  1  0.98355000  0.43307000  0.52671000  1.0
  C  C82  1  0.97787000  0.50340000  0.43278000  1.0
  C  C83  1  0.52237000  0.52518000  0.16777000  1.0
  C  C84  1  0.03386000  0.49267000  0.56607000  1.0
  C  C85  1  0.75610000  0.48334000  0.50228000  1.0
  C  C86  1  0.25543000  0.50025000  0.49651000  1.0
  C  C87  1  0.97039000  0.55190000  0.53862000  1.0
  C  C88  1  0.04095000  0.44395000  0.46021000  1.0
  C  C89  1  0.92006000  0.49224000  0.50004000  1.0
  C  C90  1  0.09136000  0.50343000  0.49881000  1.0
  C  C91  1  0.83216000  0.48695000  0.50081000  1.0
  C  C92  1  0.17940000  0.50528000  0.49823000  1.0
  C  C93  1  0.54224000  0.49089000  0.74988000  1.0
  C  C94  1  0.44514000  0.48901000  0.84974000  1.0
  C  C95  1  0.54294000  0.52523000  0.23802000  1.0
  C  C96  1  0.00238000  0.51993000  0.31283000  1.0
  C  C97  1  0.01324000  0.47989000  0.68716000  1.0
  C  C98  1  0.37388000  0.85082000  0.64554000  1.0
  C  C99  1  0.69749000  0.14130000  0.43475000  1.0
  C  C100  1  0.63109000  0.69146000  0.36203000  1.0
  C  C101  1  0.40958000  0.31668000  0.65869000  1.0
  C  C102  1  0.65644000  0.41638000  0.71192000  1.0
  C  C103  1  0.67315000  0.51679000  0.29691000  1.0
  C  C104  1  0.64890000  0.52204000  0.87623000  1.0
  C  C105  1  0.44867000  0.49271000  0.14678000  1.0
  C  C106  1  0.65020000  0.52559000  0.09990000  1.0
  C  C107  1  0.24797000  0.45386000  0.84145000  1.0
  C  C108  1  0.30489000  0.36088000  0.18475000  1.0
  C  C109  1  0.45041000  0.66573000  0.92656000  1.0
  C  C110  1  0.54788000  0.33605000  0.07408000  1.0
  C  C111  1  0.30660000  0.62282000  0.08755000  1.0
  C  C112  1  0.41055000  0.31593000  0.90804000  1.0
  C  C113  1  0.37823000  0.50430000  0.80620000  1.0
  C  C114  1  0.39293000  0.46306000  0.19602000  1.0
  C  C115  1  0.39394000  0.51185000  0.73471000  1.0
  N  N116  1  0.49935000  0.69436000  0.50190000  1.0
  N  N117  1  0.50657000  0.30166000  0.50013000  1.0
  Cl  Cl118  1  0.36187000  0.68552000  0.58089000  1.0
  Cl  Cl119  1  0.95392000  0.35044000  0.55836000  1.0
  Cl  Cl120  1  0.08788000  0.37502000  0.41315000  1.0
  Cl  Cl121  1  0.92377000  0.62131000  0.58522000  1.0
  Cl  Cl122  1  0.31054000  0.52627000  0.68091000  1.0
  Cl  Cl123  1  0.33687000  0.43932000  0.32726000  1.0
  Cl  Cl124  1  0.61616000  0.30377000  0.39514000  1.0
  Cl  Cl125  1  0.64852000  0.84910000  0.43267000  1.0
  Cl  Cl126  1  0.37882000  0.15351000  0.60463000  1.0
  Cl  Cl127  1  0.60423000  0.91030000  0.61667000  1.0
  Cl  Cl128  1  0.40106000  0.08612000  0.40253000  1.0
  Cl  Cl129  1  0.60594000  0.07861000  0.61863000  1.0
  Cl  Cl130  1  0.39968000  0.91800000  0.40033000  1.0
  Cl  Cl131  1  0.05758000  0.64577000  0.44147000  1.0
  O  O132  1  0.50487000  0.56657000  0.38839000  1.0
  O  O133  1  0.07052000  0.48903000  0.62847000  1.0
  O  O134  1  0.37169000  0.84354000  0.57118000  1.0
  O  O135  1  0.61013000  0.14677000  0.41727000  1.0
  O  O136  1  0.62114000  0.68855000  0.43711000  1.0
  O  O137  1  0.40408000  0.31379000  0.58412000  1.0
  O  O138  1  0.62263000  0.48790000  0.72125000  1.0
  O  O139  1  0.61723000  0.55689000  0.25393000  1.0
  O  O140  1  0.59221000  0.46470000  0.86389000  1.0
  O  O141  1  0.57191000  0.55986000  0.11912000  1.0
  O  O142  1  0.29845000  0.51621000  0.83338000  1.0
  O  O143  1  0.49437000  0.44828000  0.60053000  1.0
  O  O144  1  0.31961000  0.43592000  0.17261000  1.0
  O  O145  1  0.38929000  0.61000000  0.92611000  1.0
  O  O146  1  0.46243000  0.36130000  0.07233000  1.0
  O  O147  1  0.39447000  0.61308000  0.07017000  1.0
  O  O148  1  0.47671000  0.36117000  0.92894000  1.0
  O  O149  1  0.51154000  0.44517000  0.39669000  1.0
  O  O150  1  0.50480000  0.56968000  0.60207000  1.0
  O  O151  1  0.63026000  0.54308000  0.49263000  1.0
  O  O152  1  0.37599000  0.43060000  0.49443000  1.0
  O  O153  1  0.63113000  0.42175000  0.50865000  1.0
  O  O154  1  0.38495000  0.55251000  0.49424000  1.0
  O  O155  1  0.94282000  0.50779000  0.36967000  1.0
