# generated using pymatgen
data_FeH12C18(S3N5)2
_symmetry_space_group_name_H-M   'P 1'
_cell_length_a   7.96299000
_cell_length_b   10.07902876
_cell_length_c   15.74030000
_cell_angle_alpha   88.78253961
_cell_angle_beta   89.98140000
_cell_angle_gamma   67.95308996
_symmetry_Int_Tables_number   1
_chemical_formula_structural   FeH12C18(S3N5)2
_chemical_formula_sum   'Fe2 H24 C36 S12 N20'
_cell_volume   1170.62295912
_cell_formula_units_Z   2
loop_
 _symmetry_equiv_pos_site_id
 _symmetry_equiv_pos_as_xyz
  1  'x, y, z'
loop_
 _atom_site_type_symbol
 _atom_site_label
 _atom_site_symmetry_multiplicity
 _atom_site_fract_x
 _atom_site_fract_y
 _atom_site_fract_z
 _atom_site_occupancy
  Fe  Fe0  1  0.50022000  0.99975000  0.50027000  1.0
  Fe  Fe1  1  0.98858000  0.01738000  0.99843000  1.0
  H  H2  1  0.09886000  0.24012000  0.47937000  1.0
  H  H3  1  0.39305000  0.77773000  0.97851000  1.0
  H  H4  1  0.65253000  0.22920000  0.52842000  1.0
  H  H5  1  0.82729000  0.77767000  0.02183000  1.0
  H  H6  1  0.90245000  0.75926000  0.52111000  1.0
  H  H7  1  0.61440000  0.23608000  0.02667000  1.0
  H  H8  1  0.34909000  0.76986000  0.47182000  1.0
  H  H9  1  0.15012000  0.24009000  0.97182000  1.0
  H  H10  1  0.20409000  0.28849000  0.77987000  1.0
  H  H11  1  0.29109000  0.70568000  0.27825000  1.0
  H  H12  1  0.50431000  0.27599000  0.22673000  1.0
  H  H13  1  0.00968000  0.71148000  0.72546000  1.0
  H  H14  1  0.79633000  0.71247000  0.22053000  1.0
  H  H15  1  0.71550000  0.28135000  0.72434000  1.0
  H  H16  1  0.49453000  0.72426000  0.77380000  1.0
  H  H17  1  0.99762000  0.27400000  0.27200000  1.0
  H  H18  1  0.45259000  0.13224000  0.68646000  1.0
  H  H19  1  0.04272000  0.87379000  0.18431000  1.0
  H  H20  1  0.42862000  0.10424000  0.31996000  1.0
  H  H21  1  0.08285000  0.88493000  0.81603000  1.0
  H  H22  1  0.54794000  0.86785000  0.31433000  1.0
  H  H23  1  0.96066000  0.11765000  0.81872000  1.0
  H  H24  1  0.57056000  0.89603000  0.68063000  1.0
  H  H25  1  0.91501000  0.11132000  0.17827000  1.0
  C  C26  1  0.17449000  0.00313000  0.39408000  1.0
  C  C27  1  0.31891000  0.00599000  0.89363000  1.0
  C  C28  1  0.82638000  0.99635000  0.60592000  1.0
  C  C29  1  0.67378000  0.00255000  0.10569000  1.0
  C  C30  1  0.12316000  0.25277000  0.54619000  1.0
  C  C31  1  0.36939000  0.75927000  0.04495000  1.0
  C  C32  1  0.61968000  0.23872000  0.46116000  1.0
  C  C33  1  0.87024000  0.76105000  0.95609000  1.0
  C  C34  1  0.87786000  0.74673000  0.45430000  1.0
  C  C35  1  0.63760000  0.24595000  0.95931000  1.0
  C  C36  1  0.38142000  0.76050000  0.53913000  1.0
  C  C37  1  0.11606000  0.24746000  0.03874000  1.0
  C  C38  1  0.98875000  0.34343000  0.59854000  1.0
  C  C39  1  0.50244000  0.66146000  0.09750000  1.0
  C  C40  1  0.65950000  0.33465000  0.40736000  1.0
  C  C41  1  0.83603000  0.66200000  0.90504000  1.0
  C  C42  1  0.01206000  0.65617000  0.40182000  1.0
  C  C43  1  0.50417000  0.33759000  0.90484000  1.0
  C  C44  1  0.34145000  0.66463000  0.59288000  1.0
  C  C45  1  0.16086000  0.33703000  0.09298000  1.0
  C  C46  1  0.17977000  0.27959000  0.71241000  1.0
  C  C47  1  0.31442000  0.71988000  0.21099000  1.0
  C  C48  1  0.53974000  0.26587000  0.29419000  1.0
  C  C49  1  0.96913000  0.72465000  0.79190000  1.0
  C  C50  1  0.82071000  0.72068000  0.28807000  1.0
  C  C51  1  0.69071000  0.27155000  0.79188000  1.0
  C  C52  1  0.46007000  0.73393000  0.70623000  1.0
  C  C53  1  0.03405000  0.26674000  0.20500000  1.0
  C  C54  1  0.31778000  0.19199000  0.66086000  1.0
  C  C55  1  0.17675000  0.81428000  0.15953000  1.0
  C  C56  1  0.49720000  0.16923000  0.34585000  1.0
  C  C57  1  0.00926000  0.82195000  0.84169000  1.0
  C  C58  1  0.68286000  0.80797000  0.33979000  1.0
  C  C59  1  0.82816000  0.17948000  0.84387000  1.0
  C  C60  1  0.50262000  0.83063000  0.65464000  1.0
  C  C61  1  0.98739000  0.17546000  0.15321000  1.0
  S  S62  1  0.99046000  0.00284000  0.35294000  1.0
  S  S63  1  0.50823000  0.99592000  0.85213000  1.0
  S  S64  1  0.01102000  0.99700000  0.64616000  1.0
  S  S65  1  0.49045000  0.00227000  0.14893000  1.0
  S  S66  1  0.76538000  0.45560000  0.56692000  1.0
  S  S67  1  0.72305000  0.54619000  0.06676000  1.0
  S  S68  1  0.76113000  0.45633000  0.43777000  1.0
  S  S69  1  0.72486000  0.54657000  0.93755000  1.0
  S  S70  1  0.23537000  0.54367000  0.43326000  1.0
  S  S71  1  0.28348000  0.45517000  0.93430000  1.0
  S  S72  1  0.24036000  0.54263000  0.56240000  1.0
  S  S73  1  0.27451000  0.45243000  0.06330000  1.0
  N  N74  1  0.31163000  0.00243000  0.42501000  1.0
  N  N75  1  0.17985000  0.01279000  0.92503000  1.0
  N  N76  1  0.68881000  0.99698000  0.57554000  1.0
  N  N77  1  0.80891000  0.00278000  0.07327000  1.0
  N  N78  1  0.28842000  0.17699000  0.57820000  1.0
  N  N79  1  0.20658000  0.83526000  0.07730000  1.0
  N  N80  1  0.54026000  0.15230000  0.42976000  1.0
  N  N81  1  0.95664000  0.84154000  0.92321000  1.0
  N  N82  1  0.71250000  0.82263000  0.42246000  1.0
  N  N83  1  0.80160000  0.16366000  0.92802000  1.0
  N  N84  1  0.46025000  0.84723000  0.57065000  1.0
  N  N85  1  0.03072000  0.16326000  0.06966000  1.0
  N  N86  1  0.01450000  0.35581000  0.68140000  1.0
  N  N87  1  0.47753000  0.64334000  0.18013000  1.0
  N  N88  1  0.62308000  0.34854000  0.32398000  1.0
  N  N89  1  0.88185000  0.64448000  0.82326000  1.0
  N  N90  1  0.98604000  0.64417000  0.31892000  1.0
  N  N91  1  0.52713000  0.35058000  0.82145000  1.0
  N  N92  1  0.37726000  0.65095000  0.67632000  1.0
  N  N93  1  0.12264000  0.34744000  0.17579000  1.0
