# generated using pymatgen
data_ZnH6C6(SN4)2
_symmetry_space_group_name_H-M   'P 1'
_cell_length_a   8.01470000
_cell_length_b   9.79745000
_cell_length_c   15.83480000
_cell_angle_alpha   90.00030000
_cell_angle_beta   90.00010000
_cell_angle_gamma   90.00000000
_symmetry_Int_Tables_number   1
_chemical_formula_structural   ZnH6C6(SN4)2
_chemical_formula_sum   'Zn4 H24 C24 S8 N32'
_cell_volume   1243.40585778
_cell_formula_units_Z   4
loop_
 _symmetry_equiv_pos_site_id
 _symmetry_equiv_pos_as_xyz
  1  'x, y, z'
loop_
 _atom_site_type_symbol
 _atom_site_label
 _atom_site_symmetry_multiplicity
 _atom_site_fract_x
 _atom_site_fract_y
 _atom_site_fract_z
 _atom_site_occupancy
  Zn  Zn0  1  0.50000000  0.71249000  0.25000000  1.0
  Zn  Zn1  1  0.00000000  0.78751000  0.75000000  1.0
  Zn  Zn2  1  0.50000000  0.28751000  0.75000000  1.0
  Zn  Zn3  1  0.00000000  0.21249000  0.25000000  1.0
  H  H4  1  0.25875000  0.46283000  0.18401000  1.0
  H  H5  1  0.24125000  0.03717000  0.68401000  1.0
  H  H6  1  0.74125000  0.46283000  0.31599000  1.0
  H  H7  1  0.75875000  0.03717000  0.81599000  1.0
  H  H8  1  0.74125000  0.53717000  0.81599000  1.0
  H  H9  1  0.75875000  0.96283000  0.31599000  1.0
  H  H10  1  0.25875000  0.53718000  0.68401000  1.0
  H  H11  1  0.24125000  0.96283000  0.18401000  1.0
  H  H12  1  0.13845000  0.36792000  0.42956000  1.0
  H  H13  1  0.36155000  0.13208000  0.92955000  1.0
  H  H14  1  0.86155000  0.36792000  0.07045000  1.0
  H  H15  1  0.63845000  0.13207000  0.57045000  1.0
  H  H16  1  0.86155000  0.63208000  0.57045000  1.0
  H  H17  1  0.63845000  0.86792000  0.07045000  1.0
  H  H18  1  0.13845000  0.63208000  0.92955000  1.0
  H  H19  1  0.36155000  0.86792000  0.42955000  1.0
  H  H20  1  0.33919000  0.57742000  0.43695000  1.0
  H  H21  1  0.16082000  0.92258000  0.93694000  1.0
  H  H22  1  0.66082000  0.57742000  0.06305000  1.0
  H  H23  1  0.83919000  0.92258000  0.56305000  1.0
  H  H24  1  0.66081000  0.42258000  0.56305000  1.0
  H  H25  1  0.83919000  0.07742000  0.06305000  1.0
  H  H26  1  0.33919000  0.42258000  0.93695000  1.0
  H  H27  1  0.16081000  0.07742000  0.43695000  1.0
  C  C28  1  0.76293000  0.72502000  0.40079000  1.0
  C  C29  1  0.73705000  0.77498000  0.90079000  1.0
  C  C30  1  0.23706000  0.72502000  0.09921000  1.0
  C  C31  1  0.26294000  0.77498000  0.59921000  1.0
  C  C32  1  0.23706000  0.27498000  0.59921000  1.0
  C  C33  1  0.26295000  0.22503000  0.09921000  1.0
  C  C34  1  0.76294000  0.27498000  0.90079000  1.0
  C  C35  1  0.73705000  0.22502000  0.40079000  1.0
  C  C36  1  0.25334000  0.46605000  0.25228000  1.0
  C  C37  1  0.24667000  0.03395000  0.75228000  1.0
  C  C38  1  0.74666000  0.46606000  0.24772000  1.0
  C  C39  1  0.75334000  0.03394000  0.74772000  1.0
  C  C40  1  0.74666000  0.53394000  0.74772000  1.0
  C  C41  1  0.75334000  0.96606000  0.24772000  1.0
  C  C42  1  0.25335000  0.53395000  0.75228000  1.0
  C  C43  1  0.24666000  0.96605000  0.25228000  1.0
  C  C44  1  0.29562000  0.52620000  0.38006000  1.0
  C  C45  1  0.20439000  0.97380000  0.88005000  1.0
  C  C46  1  0.70438000  0.52620000  0.11994000  1.0
  C  C47  1  0.79562000  0.97380000  0.61994000  1.0
  C  C48  1  0.70438000  0.47380000  0.61994000  1.0
  C  C49  1  0.79562000  0.02620000  0.11995000  1.0
  C  C50  1  0.29562000  0.47380000  0.88005000  1.0
  C  C51  1  0.20438000  0.02620000  0.38006000  1.0
  S  S52  1  0.93835000  0.73576000  0.45166000  1.0
  S  S53  1  0.56164000  0.76424000  0.95166000  1.0
  S  S54  1  0.06165000  0.73577000  0.04834000  1.0
  S  S55  1  0.43835000  0.76424000  0.54834000  1.0
  S  S56  1  0.06164000  0.26424000  0.54835000  1.0
  S  S57  1  0.43836000  0.23576000  0.04834000  1.0
  S  S58  1  0.93836000  0.26424000  0.95166000  1.0
  S  S59  1  0.56163000  0.23576000  0.45166000  1.0
  N  N60  1  0.63469000  0.71960000  0.36342000  1.0
  N  N61  1  0.86529000  0.78041000  0.86341000  1.0
  N  N62  1  0.36530000  0.71960000  0.13659000  1.0
  N  N63  1  0.13470000  0.78040000  0.63659000  1.0
  N  N64  1  0.36529000  0.28041000  0.63659000  1.0
  N  N65  1  0.13471000  0.21960000  0.13659000  1.0
  N  N66  1  0.63471000  0.28041000  0.86341000  1.0
  N  N67  1  0.86528000  0.21959000  0.36341000  1.0
  N  N68  1  0.33636000  0.55850000  0.30051000  1.0
  N  N69  1  0.16365000  0.94150000  0.80051000  1.0
  N  N70  1  0.66364000  0.55850000  0.19949000  1.0
  N  N71  1  0.83636000  0.94150000  0.69949000  1.0
  N  N72  1  0.66364000  0.44150000  0.69949000  1.0
  N  N73  1  0.83636000  0.05850000  0.19949000  1.0
  N  N74  1  0.33636000  0.44150000  0.80051000  1.0
  N  N75  1  0.16364000  0.05850000  0.30051000  1.0
  N  N76  1  0.16388000  0.37926000  0.29799000  1.0
  N  N77  1  0.33612000  0.12074000  0.79799000  1.0
  N  N78  1  0.83612000  0.37926000  0.20201000  1.0
  N  N79  1  0.66388000  0.12074000  0.70201000  1.0
  N  N80  1  0.83612000  0.62074000  0.70201000  1.0
  N  N81  1  0.66388000  0.87926000  0.20201000  1.0
  N  N82  1  0.16388000  0.62074000  0.79799000  1.0
  N  N83  1  0.33612000  0.87926000  0.29799000  1.0
  N  N84  1  0.19161000  0.41938000  0.37873000  1.0
  N  N85  1  0.30840000  0.08062000  0.87873000  1.0
  N  N86  1  0.80840000  0.41938000  0.12127000  1.0
  N  N87  1  0.69161000  0.08062000  0.62127000  1.0
  N  N88  1  0.80840000  0.58062000  0.62127000  1.0
  N  N89  1  0.69160000  0.91938000  0.12127000  1.0
  N  N90  1  0.19161000  0.58062000  0.87873000  1.0
  N  N91  1  0.30839000  0.91938000  0.37873000  1.0
