# generated using pymatgen
data_ZnH10C16N2(ClO2)2
_symmetry_space_group_name_H-M   'P 1'
_cell_length_a   11.61830000
_cell_length_b   12.71450000
_cell_length_c   15.76040000
_cell_angle_alpha   90.00000000
_cell_angle_beta   90.00000000
_cell_angle_gamma   116.83200000
_symmetry_Int_Tables_number   1
_chemical_formula_structural   ZnH10C16N2(ClO2)2
_chemical_formula_sum   'Zn4 H40 C64 N8 Cl8 O16'
_cell_volume   2077.47823169
_cell_formula_units_Z   4
loop_
 _symmetry_equiv_pos_site_id
 _symmetry_equiv_pos_as_xyz
  1  'x, y, z'
loop_
 _atom_site_type_symbol
 _atom_site_label
 _atom_site_symmetry_multiplicity
 _atom_site_fract_x
 _atom_site_fract_y
 _atom_site_fract_z
 _atom_site_occupancy
  Zn  Zn0  1  0.15848000  0.31725000  0.38149000  1.0
  Zn  Zn1  1  0.34152000  0.68275000  0.88149000  1.0
  Zn  Zn2  1  0.84152000  0.68275000  0.61851000  1.0
  Zn  Zn3  1  0.65848000  0.31725000  0.11851000  1.0
  H  H4  1  0.98189000  0.31582000  0.23364000  1.0
  H  H5  1  0.51811000  0.68418000  0.73364000  1.0
  H  H6  1  0.01810000  0.68418000  0.76636000  1.0
  H  H7  1  0.48190000  0.31582000  0.26636000  1.0
  H  H8  1  0.92917000  0.23415000  0.08728000  1.0
  H  H9  1  0.57084000  0.76585000  0.58728000  1.0
  H  H10  1  0.07084000  0.76585000  0.91272000  1.0
  H  H11  1  0.42916000  0.23415000  0.41272000  1.0
  H  H12  1  0.06022000  0.14140000  0.02318000  1.0
  H  H13  1  0.43978000  0.85861000  0.52318000  1.0
  H  H14  1  0.93978000  0.85861000  0.97682000  1.0
  H  H15  1  0.56022000  0.14140000  0.47682000  1.0
  H  H16  1  0.22939000  0.12389000  0.11315000  1.0
  H  H17  1  0.27061000  0.87611000  0.61315000  1.0
  H  H18  1  0.77061000  0.87611000  0.88685000  1.0
  H  H19  1  0.72939000  0.12389000  0.38685000  1.0
  H  H20  1  0.25660000  0.19555000  0.26367000  1.0
  H  H21  1  0.24340000  0.80445000  0.76367000  1.0
  H  H22  1  0.74340000  0.80445000  0.73633000  1.0
  H  H23  1  0.75660000  0.19555000  0.23633000  1.0
  H  H24  1  0.28583000  0.58388000  0.38246000  1.0
  H  H25  1  0.21417000  0.41612000  0.88246000  1.0
  H  H26  1  0.71417000  0.41612000  0.61754000  1.0
  H  H27  1  0.78583000  0.58388000  0.11754000  1.0
  H  H28  1  0.22054000  0.74598000  0.39792000  1.0
  H  H29  1  0.27946000  0.25401000  0.89792000  1.0
  H  H30  1  0.77946000  0.25402000  0.60208000  1.0
  H  H31  1  0.72054000  0.74598000  0.10209000  1.0
  H  H32  1  0.98409000  0.69231000  0.40514000  1.0
  H  H33  1  0.51591000  0.30769000  0.90514000  1.0
  H  H34  1  0.01591000  0.30769000  0.59486000  1.0
  H  H35  1  0.48409000  0.69231000  0.09486000  1.0
  H  H36  1  0.82413000  0.47974000  0.39602000  1.0
  H  H37  1  0.67586000  0.52026000  0.89602000  1.0
  H  H38  1  0.17587000  0.52026000  0.60398000  1.0
  H  H39  1  0.32413000  0.47974000  0.10398000  1.0
  H  H40  1  0.90607000  0.32807000  0.38818000  1.0
  H  H41  1  0.59394000  0.67193000  0.88818000  1.0
  H  H42  1  0.09394000  0.67193000  0.61182000  1.0
  H  H43  1  0.40606000  0.32807000  0.11182000  1.0
  C  C44  1  0.42944000  0.46183000  0.42076000  1.0
  C  C45  1  0.07056000  0.53817000  0.92076000  1.0
  C  C46  1  0.57056000  0.53817000  0.57924000  1.0
  C  C47  1  0.92944000  0.46183000  0.07924000  1.0
  C  C48  1  0.56321000  0.53160000  0.41755000  1.0
  C  C49  1  0.93679000  0.46840000  0.91755000  1.0
  C  C50  1  0.43679000  0.46840000  0.58245000  1.0
  C  C51  1  0.06321000  0.53160000  0.08245000  1.0
  C  C52  1  0.63767000  0.56975000  0.49214000  1.0
  C  C53  1  0.86233000  0.43025000  0.99214000  1.0
  C  C54  1  0.36233000  0.43025000  0.50786000  1.0
  C  C55  1  0.13767000  0.56975000  0.00786000  1.0
  C  C56  1  0.98530000  0.10123000  0.46939000  1.0
  C  C57  1  0.51470000  0.89877000  0.96939000  1.0
  C  C58  1  0.01470000  0.89877000  0.53061000  1.0
  C  C59  1  0.48530000  0.10123000  0.03061000  1.0
  C  C60  1  0.88695000  0.01643000  0.51878000  1.0
  C  C61  1  0.61305000  0.98357000  0.01878000  1.0
  C  C62  1  0.11305000  0.98357000  0.48122000  1.0
  C  C63  1  0.38695000  0.01643000  0.98122000  1.0
  C  C64  1  0.89342000  0.91493000  0.54883000  1.0
  C  C65  1  0.60658000  0.08507000  0.04883000  1.0
  C  C66  1  0.10658000  0.08507000  0.45117000  1.0
  C  C67  1  0.39342000  0.91493000  0.95117000  1.0
  C  C68  1  0.03239000  0.27012000  0.20546000  1.0
  C  C69  1  0.46761000  0.72988000  0.70546000  1.0
  C  C70  1  0.96761000  0.72988000  0.79454000  1.0
  C  C71  1  0.53239000  0.27012000  0.29454000  1.0
  C  C72  1  0.00624000  0.22778000  0.12260000  1.0
  C  C73  1  0.49377000  0.77222000  0.62260000  1.0
  C  C74  1  0.99376000  0.77222000  0.87740000  1.0
  C  C75  1  0.50624000  0.22778000  0.37740000  1.0
  C  C76  1  0.07763000  0.17468000  0.08812000  1.0
  C  C77  1  0.42237000  0.82532000  0.58812000  1.0
  C  C78  1  0.92237000  0.82532000  0.91188000  1.0
  C  C79  1  0.57763000  0.17468000  0.41188000  1.0
  C  C80  1  0.17068000  0.16366000  0.13813000  1.0
  C  C81  1  0.32932000  0.83634000  0.63813000  1.0
  C  C82  1  0.82932000  0.83634000  0.86187000  1.0
  C  C83  1  0.67068000  0.16366000  0.36187000  1.0
  C  C84  1  0.18813000  0.20524000  0.22117000  1.0
  C  C85  1  0.31187000  0.79476000  0.72117000  1.0
  C  C86  1  0.81187000  0.79476000  0.77883000  1.0
  C  C87  1  0.68813000  0.20524000  0.27883000  1.0
  C  C88  1  0.18471000  0.56492000  0.38678000  1.0
  C  C89  1  0.31529000  0.43508000  0.88678000  1.0
  C  C90  1  0.81529000  0.43508000  0.61322000  1.0
  C  C91  1  0.68471000  0.56492000  0.11322000  1.0
  C  C92  1  0.14784000  0.65438000  0.39451000  1.0
  C  C93  1  0.35216000  0.34562000  0.89451000  1.0
  C  C94  1  0.85216000  0.34562000  0.60549000  1.0
  C  C95  1  0.64784000  0.65438000  0.10549000  1.0
  C  C96  1  0.01669000  0.62485000  0.39798000  1.0
  C  C97  1  0.48331000  0.37515000  0.89798000  1.0
  C  C98  1  0.98331000  0.37515000  0.60202000  1.0
  C  C99  1  0.51669000  0.62485000  0.10202000  1.0
  C  C100  1  0.92725000  0.50635000  0.39381000  1.0
  C  C101  1  0.57276000  0.49365000  0.89380000  1.0
  C  C102  1  0.07275000  0.49365000  0.60620000  1.0
  C  C103  1  0.42724000  0.50635000  0.10620000  1.0
  C  C104  1  0.97193000  0.42187000  0.38804000  1.0
  C  C105  1  0.52807000  0.57813000  0.88804000  1.0
  C  C106  1  0.02807000  0.57813000  0.61196000  1.0
  C  C107  1  0.47193000  0.42187000  0.11196000  1.0
  N  N108  1  0.12106000  0.25852000  0.25430000  1.0
  N  N109  1  0.37894000  0.74148000  0.75430000  1.0
  N  N110  1  0.87894000  0.74148000  0.74570000  1.0
  N  N111  1  0.62106000  0.25852000  0.24570000  1.0
  N  N112  1  0.09831000  0.45019000  0.38400000  1.0
  N  N113  1  0.40170000  0.54981000  0.88400000  1.0
  N  N114  1  0.90169000  0.54981000  0.61600000  1.0
  N  N115  1  0.59830000  0.45019000  0.11600000  1.0
  Cl  Cl116  1  0.64036000  0.57095000  0.32060000  1.0
  Cl  Cl117  1  0.85964000  0.42905000  0.82060000  1.0
  Cl  Cl118  1  0.35964000  0.42905000  0.67940000  1.0
  Cl  Cl119  1  0.14036000  0.57095000  0.17940000  1.0
  Cl  Cl120  1  0.75062000  0.03349000  0.54254000  1.0
  Cl  Cl121  1  0.74938000  0.96651000  0.04254000  1.0
  Cl  Cl122  1  0.24938000  0.96651000  0.45746000  1.0
  Cl  Cl123  1  0.25062000  0.03349000  0.95746000  1.0
  O  O124  1  0.35731000  0.42180000  0.35602000  1.0
  O  O125  1  0.14269000  0.57820000  0.85602000  1.0
  O  O126  1  0.64269000  0.57820000  0.64398000  1.0
  O  O127  1  0.85731000  0.42180000  0.14398000  1.0
  O  O128  1  0.98231000  0.19170000  0.43773000  1.0
  O  O129  1  0.51769000  0.80830000  0.93773000  1.0
  O  O130  1  0.01769000  0.80830000  0.56227000  1.0
  O  O131  1  0.48231000  0.19170000  0.06227000  1.0
  O  O132  1  0.75884000  0.62905000  0.49268000  1.0
  O  O133  1  0.74116000  0.37095000  0.99268000  1.0
  O  O134  1  0.24116000  0.37095000  0.50732000  1.0
  O  O135  1  0.25884000  0.62905000  0.00732000  1.0
  O  O136  1  0.80513000  0.83439000  0.59087000  1.0
  O  O137  1  0.69487000  0.16561000  0.09087000  1.0
  O  O138  1  0.19487000  0.16561000  0.40913000  1.0
  O  O139  1  0.30513000  0.83439000  0.90913000  1.0
