# generated using pymatgen
data_ZnH14C12(N2O3)2
_symmetry_space_group_name_H-M   'P 1'
_cell_length_a   7.92948000
_cell_length_b   10.39700000
_cell_length_c   10.39690000
_cell_angle_alpha   95.83750000
_cell_angle_beta   103.22500000
_cell_angle_gamma   103.22500000
_symmetry_Int_Tables_number   1
_chemical_formula_structural   ZnH14C12(N2O3)2
_chemical_formula_sum   'Zn2 H28 C24 N8 O12'
_cell_volume   801.48418708
_cell_formula_units_Z   2
loop_
 _symmetry_equiv_pos_site_id
 _symmetry_equiv_pos_as_xyz
  1  'x, y, z'
loop_
 _atom_site_type_symbol
 _atom_site_label
 _atom_site_symmetry_multiplicity
 _atom_site_fract_x
 _atom_site_fract_y
 _atom_site_fract_z
 _atom_site_occupancy
  Zn  Zn0  1  0.75000000  0.64385000  0.35616000  1.0
  Zn  Zn1  1  0.25000000  0.35615000  0.64385000  1.0
  H  H2  1  0.76850000  0.60816000  0.60915000  1.0
  H  H3  1  0.26850000  0.60914000  0.60816000  1.0
  H  H4  1  0.23150000  0.39184000  0.39086000  1.0
  H  H5  1  0.73150000  0.39086000  0.39184000  1.0
  H  H6  1  0.58986000  0.65631000  0.56358000  1.0
  H  H7  1  0.08985000  0.56358000  0.65631000  1.0
  H  H8  1  0.41015000  0.34369000  0.43642000  1.0
  H  H9  1  0.91014000  0.43642000  0.34369000  1.0
  H  H10  1  0.20056000  0.14812000  0.34031000  1.0
  H  H11  1  0.70057000  0.34032000  0.14812000  1.0
  H  H12  1  0.79943000  0.85188000  0.65969000  1.0
  H  H13  1  0.29943000  0.65969000  0.85188000  1.0
  H  H14  1  0.25070000  0.16019000  0.18274000  1.0
  H  H15  1  0.75070000  0.18274000  0.16019000  1.0
  H  H16  1  0.74930000  0.83981000  0.81726000  1.0
  H  H17  1  0.24930000  0.81726000  0.83981000  1.0
  H  H18  1  0.94416000  0.00837000  0.15378000  1.0
  H  H19  1  0.44416000  0.15378000  0.00837000  1.0
  H  H20  1  0.05584000  0.99163000  0.84622000  1.0
  H  H21  1  0.55584000  0.84622000  0.99163000  1.0
  H  H22  1  0.03667000  0.90546000  0.26105000  1.0
  H  H23  1  0.53667000  0.26105000  0.90546000  1.0
  H  H24  1  0.96333000  0.09454000  0.73895000  1.0
  H  H25  1  0.46333000  0.73895000  0.09454000  1.0
  H  H26  1  0.08658000  0.91411000  0.10357000  1.0
  H  H27  1  0.58658000  0.10357000  0.91411000  1.0
  H  H28  1  0.91342000  0.08589000  0.89643000  1.0
  H  H29  1  0.41342000  0.89643000  0.08589000  1.0
  C  C30  1  0.67228000  0.93937000  0.37408000  1.0
  C  C31  1  0.17228000  0.37408000  0.93936000  1.0
  C  C32  1  0.32772000  0.06063000  0.62591000  1.0
  C  C33  1  0.82772000  0.62592000  0.06064000  1.0
  C  C34  1  0.85020000  0.16130000  0.47148000  1.0
  C  C35  1  0.35019000  0.47147000  0.16130000  1.0
  C  C36  1  0.14980000  0.83870000  0.52852000  1.0
  C  C37  1  0.64980000  0.52852000  0.83870000  1.0
  C  C38  1  0.68419000  0.07618000  0.39915000  1.0
  C  C39  1  0.18419000  0.39915000  0.07619000  1.0
  C  C40  1  0.31581000  0.92382000  0.60084000  1.0
  C  C41  1  0.81581000  0.60085000  0.92381000  1.0
  C  C42  1  0.53422000  0.13251000  0.35883000  1.0
  C  C43  1  0.03422000  0.35883000  0.13252000  1.0
  C  C44  1  0.46578000  0.86748000  0.64117000  1.0
  C  C45  1  0.96578000  0.64117000  0.86748000  1.0
  C  C46  1  0.22179000  0.09121000  0.25320000  1.0
  C  C47  1  0.72180000  0.25321000  0.09121000  1.0
  C  C48  1  0.77821000  0.90878000  0.74680000  1.0
  C  C49  1  0.27821000  0.74680000  0.90879000  1.0
  C  C50  1  0.06406000  0.97245000  0.18921000  1.0
  C  C51  1  0.56406000  0.18921000  0.97245000  1.0
  C  C52  1  0.93594000  0.02755000  0.81079000  1.0
  C  C53  1  0.43594000  0.81079000  0.02755000  1.0
  N  N54  1  0.67075000  0.82611000  0.35541000  1.0
  N  N55  1  0.17075000  0.35541000  0.82612000  1.0
  N  N56  1  0.32925000  0.17389000  0.64459000  1.0
  N  N57  1  0.82924000  0.64459000  0.17388000  1.0
  N  N58  1  0.98867000  0.23226000  0.53242000  1.0
  N  N59  1  0.48869000  0.53243000  0.23227000  1.0
  N  N60  1  0.01133000  0.76774000  0.46757000  1.0
  N  N61  1  0.51132000  0.46757000  0.76773000  1.0
  O  O62  1  0.67185000  0.61059000  0.53096000  1.0
  O  O63  1  0.17184000  0.53095000  0.61059000  1.0
  O  O64  1  0.32816000  0.38941000  0.46905000  1.0
  O  O65  1  0.82816000  0.46905000  0.38941000  1.0
  O  O66  1  0.54584000  0.25529000  0.37630000  1.0
  O  O67  1  0.04585000  0.37630000  0.25529000  1.0
  O  O68  1  0.45416000  0.74471000  0.62370000  1.0
  O  O69  1  0.95416000  0.62370000  0.74471000  1.0
  O  O70  1  0.37872000  0.04010000  0.29840000  1.0
  O  O71  1  0.87872000  0.29840000  0.04010000  1.0
  O  O72  1  0.62128000  0.95990000  0.70160000  1.0
  O  O73  1  0.12128000  0.70160000  0.95990000  1.0
