# generated using pymatgen
data_LiBH12C6O3F4
_symmetry_space_group_name_H-M   'P 1'
_cell_length_a   8.18977000
_cell_length_b   8.83650000
_cell_length_c   13.77600000
_cell_angle_alpha   85.61240000
_cell_angle_beta   89.99930000
_cell_angle_gamma   89.99980000
_symmetry_Int_Tables_number   1
_chemical_formula_structural   LiBH12C6O3F4
_chemical_formula_sum   'Li4 B4 H48 C24 O12 F16'
_cell_volume   994.03226149
_cell_formula_units_Z   4
loop_
 _symmetry_equiv_pos_site_id
 _symmetry_equiv_pos_as_xyz
  1  'x, y, z'
loop_
 _atom_site_type_symbol
 _atom_site_label
 _atom_site_symmetry_multiplicity
 _atom_site_fract_x
 _atom_site_fract_y
 _atom_site_fract_z
 _atom_site_occupancy
  Li  Li0  1  0.05621000  0.85736000  0.73408000  1.0
  Li  Li1  1  0.55621000  0.64264000  0.76592000  1.0
  Li  Li2  1  0.94378000  0.14264000  0.26591000  1.0
  Li  Li3  1  0.44378000  0.35736000  0.23409000  1.0
  B  B4  1  0.34661000  0.89587000  0.85617000  1.0
  B  B5  1  0.84662000  0.60413000  0.64383000  1.0
  B  B6  1  0.65337000  0.10413000  0.14383000  1.0
  B  B7  1  0.15337000  0.39586000  0.35617000  1.0
  H  H8  1  0.44876000  0.66017000  0.52389000  1.0
  H  H9  1  0.94876000  0.83983000  0.97611000  1.0
  H  H10  1  0.55124000  0.33983000  0.47611000  1.0
  H  H11  1  0.05124000  0.16018000  0.02389000  1.0
  H  H12  1  0.23031000  0.66610000  0.52889000  1.0
  H  H13  1  0.73031000  0.83390000  0.97111000  1.0
  H  H14  1  0.76970000  0.33389000  0.47110000  1.0
  H  H15  1  0.26970000  0.16611000  0.02889000  1.0
  H  H16  1  0.45215000  0.90070000  0.61664000  1.0
  H  H17  1  0.95215000  0.59930000  0.88337000  1.0
  H  H18  1  0.54785000  0.09929000  0.38337000  1.0
  H  H19  1  0.04786000  0.40071000  0.11664000  1.0
  H  H20  1  0.37666000  0.91871000  0.49417000  1.0
  H  H21  1  0.87665000  0.58129000  0.00583000  1.0
  H  H22  1  0.62335000  0.08129000  0.50583000  1.0
  H  H23  1  0.12335000  0.41872000  0.99417000  1.0
  H  H24  1  0.27623000  0.13954000  0.63760000  1.0
  H  H25  1  0.77624000  0.36046000  0.86240000  1.0
  H  H26  1  0.72377000  0.86046000  0.36239000  1.0
  H  H27  1  0.22377000  0.63955000  0.13760000  1.0
  H  H28  1  0.22414000  0.12765000  0.51182000  1.0
  H  H29  1  0.72414000  0.37235000  0.98817000  1.0
  H  H30  1  0.77587000  0.87235000  0.48817000  1.0
  H  H31  1  0.27587000  0.62765000  0.01183000  1.0
  H  H32  1  0.00423000  0.25800000  0.60201000  1.0
  H  H33  1  0.50424000  0.24199000  0.89799000  1.0
  H  H34  1  0.99578000  0.74200000  0.39798000  1.0
  H  H35  1  0.49577000  0.75801000  0.10202000  1.0
  H  H36  1  0.93503000  0.08933000  0.55163000  1.0
  H  H37  1  0.43504000  0.41067000  0.94837000  1.0
  H  H38  1  0.06497000  0.91067000  0.44836000  1.0
  H  H39  1  0.56497000  0.58933000  0.05164000  1.0
  H  H40  1  0.72828000  0.02166000  0.68243000  1.0
  H  H41  1  0.22829000  0.47834000  0.81758000  1.0
  H  H42  1  0.27173000  0.97835000  0.31757000  1.0
  H  H43  1  0.77171000  0.52165000  0.18243000  1.0
  H  H44  1  0.77269000  0.20824000  0.71949000  1.0
  H  H45  1  0.27270000  0.29176000  0.78051000  1.0
  H  H46  1  0.22731000  0.79176000  0.28051000  1.0
  H  H47  1  0.72731000  0.70823000  0.21949000  1.0
  H  H48  1  0.87600000  0.09226000  0.87900000  1.0
  H  H49  1  0.37601000  0.40774000  0.62100000  1.0
  H  H50  1  0.12400000  0.90774000  0.12099000  1.0
  H  H51  1  0.62399000  0.59226000  0.37901000  1.0
  H  H52  1  0.66932000  0.03527000  0.85992000  1.0
  H  H53  1  0.16932000  0.46473000  0.64008000  1.0
  H  H54  1  0.33068000  0.96474000  0.14007000  1.0
  H  H55  1  0.83067000  0.53526000  0.35992000  1.0
  C  C56  1  0.34313000  0.69849000  0.56572000  1.0
  C  C57  1  0.84312000  0.80151000  0.93429000  1.0
  C  C58  1  0.65687000  0.30151000  0.43429000  1.0
  C  C59  1  0.15688000  0.19850000  0.06571000  1.0
  C  C60  1  0.35182000  0.86853000  0.56872000  1.0
  C  C61  1  0.85182000  0.63146000  0.93128000  1.0
  C  C62  1  0.64818000  0.13146000  0.43128000  1.0
  C  C63  1  0.14818000  0.36854000  0.06872000  1.0
  C  C64  1  0.19101000  0.08889000  0.58727000  1.0
  C  C65  1  0.69102000  0.41110000  0.91273000  1.0
  C  C66  1  0.80899000  0.91110000  0.41272000  1.0
  C  C67  1  0.30899000  0.58890000  0.08727000  1.0
  C  C68  1  0.01683000  0.13375000  0.60631000  1.0
  C  C69  1  0.51684000  0.36625000  0.89369000  1.0
  C  C70  1  0.98318000  0.86626000  0.39369000  1.0
  C  C71  1  0.48317000  0.63375000  0.10631000  1.0
  C  C72  1  0.80782000  0.08780000  0.72838000  1.0
  C  C73  1  0.30782000  0.41219000  0.77162000  1.0
  C  C74  1  0.19218000  0.91220000  0.27162000  1.0
  C  C75  1  0.69218000  0.58780000  0.22838000  1.0
  C  C76  1  0.79526000  0.02709000  0.83315000  1.0
  C  C77  1  0.29527000  0.47291000  0.66686000  1.0
  C  C78  1  0.20474000  0.97292000  0.16685000  1.0
  C  C79  1  0.70473000  0.52708000  0.33315000  1.0
  O  O80  1  0.19967000  0.92613000  0.60157000  1.0
  O  O81  1  0.69968000  0.57387000  0.89843000  1.0
  O  O82  1  0.80033000  0.07387000  0.39842000  1.0
  O  O83  1  0.30033000  0.42614000  0.10158000  1.0
  O  O84  1  0.97556000  0.06889000  0.70168000  1.0
  O  O85  1  0.47557000  0.43110000  0.79832000  1.0
  O  O86  1  0.02444000  0.93112000  0.29832000  1.0
  O  O87  1  0.52443000  0.56890000  0.20168000  1.0
  O  O88  1  0.84680000  0.87183000  0.83735000  1.0
  O  O89  1  0.34680000  0.62816000  0.66265000  1.0
  O  O90  1  0.15320000  0.12817000  0.16265000  1.0
  O  O91  1  0.65319000  0.37183000  0.33735000  1.0
  F  F92  1  0.20373000  0.80740000  0.83816000  1.0
  F  F93  1  0.70374000  0.69261000  0.66183000  1.0
  F  F94  1  0.79626000  0.19260000  0.16182000  1.0
  F  F95  1  0.29626000  0.30739000  0.33817000  1.0
  F  F96  1  0.48318000  0.82384000  0.81413000  1.0
  F  F97  1  0.98319000  0.67617000  0.68587000  1.0
  F  F98  1  0.51681000  0.17616000  0.18588000  1.0
  F  F99  1  0.01681000  0.32383000  0.31413000  1.0
  F  F100  1  0.36862000  0.89956000  0.95631000  1.0
  F  F101  1  0.86864000  0.60046000  0.54369000  1.0
  F  F102  1  0.63134000  0.10045000  0.04369000  1.0
  F  F103  1  0.13133000  0.39954000  0.45631000  1.0
  F  F104  1  0.32888000  0.04236000  0.81018000  1.0
  F  F105  1  0.82890000  0.45765000  0.68981000  1.0
  F  F106  1  0.67110000  0.95765000  0.18982000  1.0
  F  F107  1  0.17109000  0.54235000  0.31019000  1.0
