# generated using pymatgen
data_CuH4C6(NO5)2
_symmetry_space_group_name_H-M   'P 1'
_cell_length_a   6.97777000
_cell_length_b   8.83772751
_cell_length_c   9.46438000
_cell_angle_alpha   115.85887161
_cell_angle_beta   90.02980000
_cell_angle_gamma   113.20049999
_symmetry_Int_Tables_number   1
_chemical_formula_structural   CuH4C6(NO5)2
_chemical_formula_sum   'Cu2 H8 C12 N4 O20'
_cell_volume   472.13757141
_cell_formula_units_Z   2
loop_
 _symmetry_equiv_pos_site_id
 _symmetry_equiv_pos_as_xyz
  1  'x, y, z'
loop_
 _atom_site_type_symbol
 _atom_site_label
 _atom_site_symmetry_multiplicity
 _atom_site_fract_x
 _atom_site_fract_y
 _atom_site_fract_z
 _atom_site_occupancy
  Cu  Cu0  1  0.00947000  0.99992000  0.24994000  1.0
  Cu  Cu1  1  0.99053000  0.00008000  0.75004000  1.0
  H  H2  1  0.29309000  0.97945000  0.08964000  1.0
  H  H3  1  0.31371000  0.02092000  0.41078000  1.0
  H  H4  1  0.70694000  0.02056000  0.91037000  1.0
  H  H5  1  0.68630000  0.97910000  0.58924000  1.0
  H  H6  1  0.07248000  0.81655000  0.97535000  1.0
  H  H7  1  0.25544000  0.18362000  0.52485000  1.0
  H  H8  1  0.92753000  0.18346000  0.02465000  1.0
  H  H9  1  0.74454000  0.81639000  0.47516000  1.0
  C  C10  1  0.93238000  0.30651000  0.46272000  1.0
  C  C11  1  0.62606000  0.69331000  0.03713000  1.0
  C  C12  1  0.06760000  0.69349000  0.53725000  1.0
  C  C13  1  0.37393000  0.30667000  0.96291000  1.0
  C  C14  1  0.04016000  0.38123000  0.34993000  1.0
  C  C15  1  0.65905000  0.61858000  0.15001000  1.0
  C  C16  1  0.95982000  0.61877000  0.65006000  1.0
  C  C17  1  0.34090000  0.38140000  0.84999000  1.0
  C  C18  1  0.10369000  0.57224000  0.39433000  1.0
  C  C19  1  0.53134000  0.42776000  0.10578000  1.0
  C  C20  1  0.89630000  0.42775000  0.60564000  1.0
  C  C21  1  0.46868000  0.57222000  0.89423000  1.0
  N  N22  1  0.20327000  0.64180000  0.28827000  1.0
  N  N23  1  0.56120000  0.35830000  0.21200000  1.0
  N  N24  1  0.79674000  0.35822000  0.71171000  1.0
  N  N25  1  0.43881000  0.64169000  0.78801000  1.0
  O  O26  1  0.88602000  0.13804000  0.42225000  1.0
  O  O27  1  0.74823000  0.86162000  0.07745000  1.0
  O  O28  1  0.11398000  0.86197000  0.57776000  1.0
  O  O29  1  0.25175000  0.13831000  0.92254000  1.0
  O  O30  1  0.06645000  0.26486000  0.22551000  1.0
  O  O31  1  0.80194000  0.73484000  0.27435000  1.0
  O  O32  1  0.93354000  0.73514000  0.77447000  1.0
  O  O33  1  0.19805000  0.26516000  0.72567000  1.0
  O  O34  1  0.13971000  0.53626000  0.14156000  1.0
  O  O35  1  0.60287000  0.46394000  0.35868000  1.0
  O  O36  1  0.86028000  0.46376000  0.85841000  1.0
  O  O37  1  0.39710000  0.53606000  0.64135000  1.0
  O  O38  1  0.35241000  0.80399000  0.34842000  1.0
  O  O39  1  0.54836000  0.19611000  0.15202000  1.0
  O  O40  1  0.64761000  0.19600000  0.65155000  1.0
  O  O41  1  0.45170000  0.80390000  0.84800000  1.0
  O  O42  1  0.15659000  0.88267000  0.08616000  1.0
  O  O43  1  0.27356000  0.11751000  0.41409000  1.0
  O  O44  1  0.84342000  0.11735000  0.91385000  1.0
  O  O45  1  0.72644000  0.88250000  0.58592000  1.0
