# generated using pymatgen
data_CdH10C12S2(NO2)2
_symmetry_space_group_name_H-M   'P 1'
_cell_length_a   7.16304000
_cell_length_b   13.74070000
_cell_length_c   14.19870000
_cell_angle_alpha   93.13020000
_cell_angle_beta   89.99960000
_cell_angle_gamma   89.99820000
_symmetry_Int_Tables_number   1
_chemical_formula_structural   CdH10C12S2(NO2)2
_chemical_formula_sum   'Cd4 H40 C48 S8 N8 O16'
_cell_volume   1395.42460913
_cell_formula_units_Z   4
loop_
 _symmetry_equiv_pos_site_id
 _symmetry_equiv_pos_as_xyz
  1  'x, y, z'
loop_
 _atom_site_type_symbol
 _atom_site_label
 _atom_site_symmetry_multiplicity
 _atom_site_fract_x
 _atom_site_fract_y
 _atom_site_fract_z
 _atom_site_occupancy
  Cd  Cd0  1  0.75152000  0.24065000  0.64622000  1.0
  Cd  Cd1  1  0.25152000  0.25936000  0.85379000  1.0
  Cd  Cd2  1  0.24850000  0.75936000  0.35378000  1.0
  Cd  Cd3  1  0.74849000  0.74064000  0.14621000  1.0
  H  H4  1  0.88720000  0.46480000  0.72314000  1.0
  H  H5  1  0.38720000  0.03521000  0.77685000  1.0
  H  H6  1  0.11280000  0.53522000  0.27685000  1.0
  H  H7  1  0.61280000  0.96479000  0.22315000  1.0
  H  H8  1  0.89551000  0.63476000  0.66528000  1.0
  H  H9  1  0.39550000  0.86524000  0.83470000  1.0
  H  H10  1  0.10450000  0.36526000  0.33472000  1.0
  H  H11  1  0.60449000  0.13475000  0.16529000  1.0
  H  H12  1  0.79601000  0.66264000  0.50113000  1.0
  H  H13  1  0.29599000  0.83735000  0.99885000  1.0
  H  H14  1  0.20399000  0.33737000  0.49887000  1.0
  H  H15  1  0.70398000  0.16263000  0.00113000  1.0
  H  H16  1  0.67545000  0.59308000  0.34680000  1.0
  H  H17  1  0.17543000  0.90691000  0.15320000  1.0
  H  H18  1  0.32457000  0.40693000  0.65320000  1.0
  H  H19  1  0.82456000  0.09307000  0.84680000  1.0
  H  H20  1  0.56869000  0.45055000  0.24725000  1.0
  H  H21  1  0.06867000  0.04944000  0.25275000  1.0
  H  H22  1  0.43132000  0.54946000  0.75274000  1.0
  H  H23  1  0.93133000  0.95054000  0.74725000  1.0
  H  H24  1  0.49516000  0.27240000  0.23149000  1.0
  H  H25  1  0.99516000  0.22759000  0.26851000  1.0
  H  H26  1  0.50484000  0.72761000  0.76851000  1.0
  H  H27  1  0.00483000  0.77239000  0.73149000  1.0
  H  H28  1  0.50189000  0.10768000  0.30390000  1.0
  H  H29  1  0.00190000  0.39232000  0.19612000  1.0
  H  H30  1  0.49812000  0.89234000  0.69610000  1.0
  H  H31  1  0.99810000  0.60766000  0.80389000  1.0
  H  H32  1  0.64255000  0.09506000  0.46174000  1.0
  H  H33  1  0.14255000  0.40494000  0.03828000  1.0
  H  H34  1  0.35748000  0.90495000  0.53826000  1.0
  H  H35  1  0.85745000  0.59505000  0.96173000  1.0
  H  H36  1  0.74328000  0.02797000  0.59653000  1.0
  H  H37  1  0.24326000  0.47204000  0.90348000  1.0
  H  H38  1  0.25674000  0.97204000  0.40347000  1.0
  H  H39  1  0.75676000  0.52796000  0.09653000  1.0
  H  H40  1  0.53492000  0.06288000  0.61982000  1.0
  H  H41  1  0.03490000  0.43712000  0.88019000  1.0
  H  H42  1  0.46510000  0.93713000  0.38018000  1.0
  H  H43  1  0.96511000  0.56287000  0.11981000  1.0
  C  C44  1  0.84836000  0.47928000  0.65090000  1.0
  C  C45  1  0.34834000  0.02072000  0.84910000  1.0
  C  C46  1  0.15164000  0.52074000  0.34910000  1.0
  C  C47  1  0.65164000  0.97927000  0.15090000  1.0
  C  C48  1  0.85114000  0.57402000  0.61865000  1.0
  C  C49  1  0.35112000  0.92598000  0.88134000  1.0
  C  C50  1  0.14886000  0.42600000  0.38135000  1.0
  C  C51  1  0.64885000  0.07401000  0.11865000  1.0
  C  C52  1  0.79603000  0.58969000  0.52758000  1.0
  C  C53  1  0.29601000  0.91030000  0.97241000  1.0
  C  C54  1  0.20396000  0.41032000  0.47242000  1.0
  C  C55  1  0.70395000  0.08968000  0.02758000  1.0
  C  C56  1  0.73822000  0.50959000  0.46837000  1.0
  C  C57  1  0.23821000  0.99040000  0.03163000  1.0
  C  C58  1  0.26178000  0.49042000  0.53163000  1.0
  C  C59  1  0.76177000  0.00958000  0.96836000  1.0
  C  C60  1  0.67711000  0.52028000  0.37357000  1.0
  C  C61  1  0.17709000  0.97971000  0.12643000  1.0
  C  C62  1  0.32289000  0.47973000  0.62643000  1.0
  C  C63  1  0.82288000  0.02027000  0.87357000  1.0
  C  C64  1  0.61889000  0.44139000  0.31878000  1.0
  C  C65  1  0.11887000  0.05860000  0.18122000  1.0
  C  C66  1  0.38111000  0.55862000  0.68122000  1.0
  C  C67  1  0.88112000  0.94139000  0.81878000  1.0
  C  C68  1  0.61952000  0.34594000  0.35442000  1.0
  C  C69  1  0.11951000  0.15405000  0.14558000  1.0
  C  C70  1  0.38048000  0.65407000  0.64559000  1.0
  C  C71  1  0.88047000  0.84593000  0.85441000  1.0
  C  C72  1  0.55160000  0.26319000  0.30190000  1.0
  C  C73  1  0.05159000  0.23680000  0.19810000  1.0
  C  C74  1  0.44840000  0.73682000  0.69809000  1.0
  C  C75  1  0.94839000  0.76318000  0.80191000  1.0
  C  C76  1  0.55658000  0.17318000  0.34069000  1.0
  C  C77  1  0.05656000  0.32682000  0.15932000  1.0
  C  C78  1  0.44343000  0.82684000  0.65931000  1.0
  C  C79  1  0.94343000  0.67317000  0.84068000  1.0
  C  C80  1  0.63207000  0.16578000  0.43128000  1.0
  C  C81  1  0.13208000  0.33422000  0.06873000  1.0
  C  C82  1  0.36794000  0.83424000  0.56871000  1.0
  C  C83  1  0.86792000  0.66576000  0.93127000  1.0
  C  C84  1  0.68507000  0.33207000  0.44741000  1.0
  C  C85  1  0.18506000  0.16793000  0.05259000  1.0
  C  C86  1  0.31494000  0.66795000  0.55259000  1.0
  C  C87  1  0.81492000  0.83206000  0.94741000  1.0
  C  C88  1  0.74249000  0.41590000  0.50613000  1.0
  C  C89  1  0.24248000  0.08410000  0.99387000  1.0
  C  C90  1  0.25751000  0.58411000  0.49387000  1.0
  C  C91  1  0.75749000  0.91589000  0.00613000  1.0
  S  S92  1  0.05740000  0.17929000  0.71450000  1.0
  S  S93  1  0.55740000  0.32073000  0.78551000  1.0
  S  S94  1  0.94261000  0.82073000  0.28550000  1.0
  S  S95  1  0.44260000  0.67927000  0.21449000  1.0
  S  S96  1  0.22752000  0.16121000  0.59371000  1.0
  S  S97  1  0.72751000  0.33879000  0.90631000  1.0
  S  S98  1  0.77249000  0.83879000  0.40630000  1.0
  S  S99  1  0.27249000  0.66120000  0.09370000  1.0
  N  N100  1  0.79666000  0.40253000  0.59585000  1.0
  N  N101  1  0.29665000  0.09747000  0.90415000  1.0
  N  N102  1  0.20334000  0.59749000  0.40415000  1.0
  N  N103  1  0.70333000  0.90252000  0.09585000  1.0
  N  N104  1  0.69182000  0.24281000  0.48326000  1.0
  N  N105  1  0.19182000  0.25719000  0.01675000  1.0
  N  N106  1  0.30819000  0.75721000  0.51673000  1.0
  N  N107  1  0.80817000  0.74280000  0.98326000  1.0
  O  O108  1  0.10427000  0.16802000  0.51224000  1.0
  O  O109  1  0.60427000  0.33198000  0.98778000  1.0
  O  O110  1  0.89574000  0.83198000  0.48777000  1.0
  O  O111  1  0.39573000  0.66801000  0.01222000  1.0
  O  O112  1  0.31208000  0.06254000  0.59844000  1.0
  O  O113  1  0.81207000  0.43747000  0.90158000  1.0
  O  O114  1  0.68793000  0.93747000  0.40157000  1.0
  O  O115  1  0.18794000  0.56252000  0.09843000  1.0
  O  O116  1  0.36973000  0.23856000  0.60293000  1.0
  O  O117  1  0.86973000  0.26144000  0.89708000  1.0
  O  O118  1  0.63027000  0.76145000  0.39707000  1.0
  O  O119  1  0.13027000  0.73855000  0.10292000  1.0
  O  O120  1  0.66906000  0.06878000  0.64057000  1.0
  O  O121  1  0.16904000  0.43123000  0.85943000  1.0
  O  O122  1  0.33097000  0.93123000  0.35943000  1.0
  O  O123  1  0.83097000  0.56877000  0.14057000  1.0
