# generated using pymatgen
data_ZnH9C17N3O4
_symmetry_space_group_name_H-M   'P 1'
_cell_length_a   18.12710000
_cell_length_b   23.31595158
_cell_length_c   23.31592243
_cell_angle_alpha   63.13819861
_cell_angle_beta   67.14445154
_cell_angle_gamma   67.14438174
_symmetry_Int_Tables_number   1
_chemical_formula_structural   ZnH9C17N3O4
_chemical_formula_sum   'Zn8 H72 C136 N24 O32'
_cell_volume   7824.53466158
_cell_formula_units_Z   8
loop_
 _symmetry_equiv_pos_site_id
 _symmetry_equiv_pos_as_xyz
  1  'x, y, z'
loop_
 _atom_site_type_symbol
 _atom_site_label
 _atom_site_symmetry_multiplicity
 _atom_site_fract_x
 _atom_site_fract_y
 _atom_site_fract_z
 _atom_site_occupancy
  Zn  Zn0  1  0.52702000  0.63906000  0.28358000  1.0
  Zn  Zn1  1  0.94976000  0.86098000  0.21642000  1.0
  Zn  Zn2  1  0.47298000  0.71642000  0.36094000  1.0
  Zn  Zn3  1  0.05024000  0.78359000  0.13902000  1.0
  Zn  Zn4  1  0.47298000  0.36094000  0.71642000  1.0
  Zn  Zn5  1  0.05025000  0.13902000  0.78358000  1.0
  Zn  Zn6  1  0.52702000  0.28358000  0.63906000  1.0
  Zn  Zn7  1  0.94976000  0.21642000  0.86098000  1.0
  H  H8  1  0.25285000  0.98587000  0.15602000  1.0
  H  H9  1  0.89466000  0.51412000  0.34401000  1.0
  H  H10  1  0.74716000  0.84398000  0.01413000  1.0
  H  H11  1  0.10535000  0.65598000  0.48588000  1.0
  H  H12  1  0.74716000  0.01413000  0.84398000  1.0
  H  H13  1  0.10535000  0.48588000  0.65598000  1.0
  H  H14  1  0.25284000  0.15602000  0.98587000  1.0
  H  H15  1  0.89466000  0.34401000  0.51412000  1.0
  H  H16  1  0.28729000  0.02888000  0.02888000  1.0
  H  H17  1  0.84504000  0.47109000  0.47109000  1.0
  H  H18  1  0.71271000  0.97112000  0.97112000  1.0
  H  H19  1  0.15498000  0.52890000  0.52890000  1.0
  H  H20  1  0.24601000  0.83635000  0.09924000  1.0
  H  H21  1  0.68158000  0.66369000  0.40058000  1.0
  H  H22  1  0.75398000  0.90076000  0.16366000  1.0
  H  H23  1  0.31842000  0.59942000  0.33631000  1.0
  H  H24  1  0.75398000  0.16366000  0.90076000  1.0
  H  H25  1  0.31842000  0.33630000  0.59942000  1.0
  H  H26  1  0.24602000  0.09924000  0.83634000  1.0
  H  H27  1  0.68159000  0.40057000  0.66369000  1.0
  H  H28  1  0.05383000  0.99728000  0.99728000  1.0
  H  H29  1  0.54843000  0.50268000  0.50268000  1.0
  H  H30  1  0.94616000  0.00273000  0.00273000  1.0
  H  H31  1  0.45157000  0.49732000  0.49732000  1.0
  H  H32  1  0.33082000  0.74940000  0.17681000  1.0
  H  H33  1  0.75705000  0.75061000  0.32308000  1.0
  H  H34  1  0.66919000  0.82318000  0.25060000  1.0
  H  H35  1  0.24294000  0.67692000  0.24939000  1.0
  H  H36  1  0.66919000  0.25060000  0.82318000  1.0
  H  H37  1  0.24294000  0.24939000  0.67692000  1.0
  H  H38  1  0.33082000  0.17681000  0.74940000  1.0
  H  H39  1  0.75705000  0.32308000  0.75061000  1.0
  H  H40  1  0.33553000  0.89763000  0.23524000  1.0
  H  H41  1  0.96837000  0.60234000  0.26487000  1.0
  H  H42  1  0.66447000  0.76476000  0.10237000  1.0
  H  H43  1  0.03162000  0.73513000  0.39767000  1.0
  H  H44  1  0.66447000  0.10237000  0.76476000  1.0
  H  H45  1  0.03162000  0.39767000  0.73513000  1.0
  H  H46  1  0.33553000  0.23524000  0.89763000  1.0
  H  H47  1  0.96837000  0.26487000  0.60234000  1.0
  H  H48  1  0.63842000  0.64009000  0.15325000  1.0
  H  H49  1  0.93164000  0.85987000  0.34678000  1.0
  H  H50  1  0.36157000  0.84675000  0.35991000  1.0
  H  H51  1  0.06836000  0.65322000  0.14013000  1.0
  H  H52  1  0.36158000  0.35990000  0.84675000  1.0
  H  H53  1  0.06836000  0.14013000  0.65322000  1.0
  H  H54  1  0.63841000  0.15325000  0.64010000  1.0
  H  H55  1  0.93164000  0.34678000  0.85987000  1.0
  H  H56  1  0.49240000  0.51569000  0.29913000  1.0
  H  H57  1  0.80718000  0.98434000  0.20084000  1.0
  H  H58  1  0.50760000  0.70087000  0.48431000  1.0
  H  H59  1  0.19283000  0.79916000  0.01566000  1.0
  H  H60  1  0.50760000  0.48431000  0.70087000  1.0
  H  H61  1  0.19283000  0.01566000  0.79916000  1.0
  H  H62  1  0.49241000  0.29913000  0.51568000  1.0
  H  H63  1  0.80718000  0.20084000  0.98434000  1.0
  H  H64  1  0.68263000  0.57739000  0.07578000  1.0
  H  H65  1  0.83575000  0.92252000  0.42427000  1.0
  H  H66  1  0.31737000  0.92422000  0.42261000  1.0
  H  H67  1  0.16425000  0.57573000  0.07748000  1.0
  H  H68  1  0.31737000  0.42260000  0.92422000  1.0
  H  H69  1  0.16425000  0.07748000  0.57573000  1.0
  H  H70  1  0.68262000  0.07578000  0.57740000  1.0
  H  H71  1  0.83575000  0.42427000  0.92252000  1.0
  H  H72  1  0.52994000  0.44702000  0.22839000  1.0
  H  H73  1  0.70537000  0.05298000  0.27161000  1.0
  H  H74  1  0.47006000  0.77161000  0.55298000  1.0
  H  H75  1  0.29463000  0.72839000  0.94702000  1.0
  H  H76  1  0.47006000  0.55298000  0.77161000  1.0
  H  H77  1  0.29463000  0.94702000  0.72839000  1.0
  H  H78  1  0.52994000  0.22839000  0.44702000  1.0
  H  H79  1  0.70537000  0.27161000  0.05298000  1.0
  C  C80  1  0.33862000  0.81798000  0.21081000  1.0
  C  C81  1  0.86744000  0.68202000  0.28921000  1.0
  C  C82  1  0.66138000  0.78918000  0.18202000  1.0
  C  C83  1  0.13255000  0.71079000  0.31799000  1.0
  C  C84  1  0.66138000  0.18202000  0.78918000  1.0
  C  C85  1  0.13256000  0.31798000  0.71079000  1.0
  C  C86  1  0.33863000  0.21081000  0.81798000  1.0
  C  C87  1  0.86744000  0.28921000  0.68202000  1.0
  C  C88  1  0.20122000  0.96895000  0.06996000  1.0
  C  C89  1  0.74011000  0.53104000  0.43003000  1.0
  C  C90  1  0.79877000  0.93004000  0.03106000  1.0
  C  C91  1  0.25989000  0.56997000  0.46895000  1.0
  C  C92  1  0.79878000  0.03105000  0.93004000  1.0
  C  C93  1  0.25989000  0.46895000  0.56997000  1.0
  C  C94  1  0.20122000  0.06996000  0.96895000  1.0
  C  C95  1  0.74011000  0.43003000  0.53104000  1.0
  C  C96  1  0.13473000  0.96044000  0.06023000  1.0
  C  C97  1  0.65539000  0.53955000  0.43977000  1.0
  C  C98  1  0.86527000  0.93978000  0.03956000  1.0
  C  C99  1  0.34462000  0.56023000  0.46044000  1.0
  C  C100  1  0.86527000  0.03956000  0.93978000  1.0
  C  C101  1  0.34462000  0.46044000  0.56022000  1.0
  C  C102  1  0.13473000  0.06023000  0.96044000  1.0
  C  C103  1  0.65539000  0.43977000  0.53955000  1.0
  C  C104  1  0.24426000  0.91745000  0.12145000  1.0
  C  C105  1  0.78314000  0.58255000  0.37852000  1.0
  C  C106  1  0.75574000  0.87855000  0.08255000  1.0
  C  C107  1  0.21686000  0.62148000  0.41745000  1.0
  C  C108  1  0.75574000  0.08255000  0.87855000  1.0
  C  C109  1  0.21687000  0.41745000  0.62147000  1.0
  C  C110  1  0.24426000  0.12145000  0.91745000  1.0
  C  C111  1  0.78314000  0.37852000  0.58255000  1.0
  C  C112  1  0.26974000  0.93397000  0.16053000  1.0
  C  C113  1  0.86421000  0.56602000  0.33949000  1.0
  C  C114  1  0.73026000  0.83947000  0.06603000  1.0
  C  C115  1  0.13580000  0.66050000  0.43398000  1.0
  C  C116  1  0.73026000  0.06603000  0.83947000  1.0
  C  C117  1  0.13579000  0.43398000  0.66050000  1.0
  C  C118  1  0.26974000  0.16053000  0.93397000  1.0
  C  C119  1  0.86421000  0.33949000  0.56602000  1.0
  C  C120  1  0.23259000  0.02410000  0.02410000  1.0
  C  C121  1  0.78076000  0.47589000  0.47589000  1.0
  C  C122  1  0.76742000  0.97590000  0.97590000  1.0
  C  C123  1  0.21924000  0.52411000  0.52411000  1.0
  C  C124  1  0.26532000  0.85009000  0.12907000  1.0
  C  C125  1  0.74448000  0.64991000  0.37084000  1.0
  C  C126  1  0.73468000  0.87093000  0.14991000  1.0
  C  C127  1  0.25553000  0.62916000  0.35008000  1.0
  C  C128  1  0.73468000  0.14991000  0.87093000  1.0
  C  C129  1  0.25553000  0.35008000  0.62916000  1.0
  C  C130  1  0.26532000  0.12907000  0.85009000  1.0
  C  C131  1  0.74447000  0.37084000  0.64992000  1.0
  C  C132  1  0.10373000  0.00531000  0.00531000  1.0
  C  C133  1  0.61437000  0.49467000  0.49466000  1.0
  C  C134  1  0.89626000  0.99470000  0.99470000  1.0
  C  C135  1  0.38564000  0.50533000  0.50533000  1.0
  C  C136  1  0.31255000  0.80121000  0.17252000  1.0
  C  C137  1  0.78630000  0.69879000  0.32743000  1.0
  C  C138  1  0.68744000  0.82748000  0.19879000  1.0
  C  C139  1  0.21369000  0.67257000  0.30121000  1.0
  C  C140  1  0.68744000  0.19879000  0.82748000  1.0
  C  C141  1  0.21370000  0.30120000  0.67257000  1.0
  C  C142  1  0.31255000  0.17252000  0.80121000  1.0
  C  C143  1  0.78630000  0.32743000  0.69879000  1.0
  C  C144  1  0.31560000  0.88480000  0.20505000  1.0
  C  C145  1  0.90545000  0.61519000  0.29501000  1.0
  C  C146  1  0.68440000  0.79495000  0.11520000  1.0
  C  C147  1  0.09455000  0.70499000  0.38482000  1.0
  C  C148  1  0.68440000  0.11520000  0.79495000  1.0
  C  C149  1  0.09455000  0.38481000  0.70499000  1.0
  C  C150  1  0.31560000  0.20505000  0.88480000  1.0
  C  C151  1  0.90544000  0.29501000  0.61519000  1.0
  C  C152  1  0.39275000  0.76580000  0.25526000  1.0
  C  C153  1  0.91383000  0.73419000  0.24475000  1.0
  C  C154  1  0.60726000  0.74474000  0.23419000  1.0
  C  C155  1  0.08616000  0.75525000  0.26582000  1.0
  C  C156  1  0.60726000  0.23420000  0.74473000  1.0
  C  C157  1  0.08616000  0.26582000  0.75525000  1.0
  C  C158  1  0.39274000  0.25527000  0.76580000  1.0
  C  C159  1  0.91383000  0.24475000  0.73419000  1.0
  C  C160  1  0.09141000  0.90623000  0.10668000  1.0
  C  C161  1  0.60429000  0.59381000  0.39335000  1.0
  C  C162  1  0.90858000  0.89333000  0.09378000  1.0
  C  C163  1  0.39571000  0.60665000  0.40619000  1.0
  C  C164  1  0.90858000  0.09378000  0.89333000  1.0
  C  C165  1  0.39573000  0.40618000  0.60664000  1.0
  C  C166  1  0.09141000  0.10668000  0.90623000  1.0
  C  C167  1  0.60429000  0.39335000  0.59381000  1.0
  C  C168  1  0.61643000  0.59703000  0.16705000  1.0
  C  C169  1  0.88040000  0.90294000  0.33298000  1.0
  C  C170  1  0.38358000  0.83294000  0.40297000  1.0
  C  C171  1  0.11959000  0.66703000  0.09706000  1.0
  C  C172  1  0.38358000  0.40297000  0.83294000  1.0
  C  C173  1  0.11959000  0.09706000  0.66703000  1.0
  C  C174  1  0.61643000  0.16705000  0.59703000  1.0
  C  C175  1  0.88040000  0.33298000  0.90294000  1.0
  C  C176  1  0.53417000  0.52692000  0.24920000  1.0
  C  C177  1  0.81026000  0.97308000  0.25079000  1.0
  C  C178  1  0.46582000  0.75080000  0.47308000  1.0
  C  C179  1  0.18973000  0.74921000  0.02692000  1.0
  C  C180  1  0.46582000  0.47308000  0.75080000  1.0
  C  C181  1  0.18974000  0.02692000  0.74921000  1.0
  C  C182  1  0.53417000  0.24920000  0.52692000  1.0
  C  C183  1  0.81027000  0.25079000  0.97308000  1.0
  C  C184  1  0.64045000  0.56229000  0.12488000  1.0
  C  C185  1  0.82756000  0.93768000  0.37515000  1.0
  C  C186  1  0.35955000  0.87512000  0.43771000  1.0
  C  C187  1  0.17244000  0.62485000  0.06232000  1.0
  C  C188  1  0.35955000  0.43771000  0.87512000  1.0
  C  C189  1  0.17245000  0.06232000  0.62485000  1.0
  C  C190  1  0.64045000  0.12488000  0.56229000  1.0
  C  C191  1  0.82756000  0.37515000  0.93768000  1.0
  C  C192  1  0.55530000  0.48932000  0.21009000  1.0
  C  C193  1  0.75471000  0.01067000  0.28991000  1.0
  C  C194  1  0.44470000  0.78991000  0.51068000  1.0
  C  C195  1  0.24529000  0.71009000  0.98933000  1.0
  C  C196  1  0.44470000  0.51068000  0.78991000  1.0
  C  C197  1  0.24529000  0.98933000  0.71009000  1.0
  C  C198  1  0.55530000  0.21009000  0.48932000  1.0
  C  C199  1  0.75471000  0.28991000  0.01067000  1.0
  C  C200  1  0.60903000  0.50760000  0.14629000  1.0
  C  C201  1  0.76291000  0.99238000  0.35373000  1.0
  C  C202  1  0.39097000  0.85371000  0.49240000  1.0
  C  C203  1  0.23710000  0.64627000  0.00761000  1.0
  C  C204  1  0.39097000  0.49240000  0.85371000  1.0
  C  C205  1  0.23710000  0.00761000  0.64627000  1.0
  C  C206  1  0.60903000  0.14629000  0.50760000  1.0
  C  C207  1  0.76290000  0.35373000  0.99239000  1.0
  C  C208  1  0.63398000  0.47094000  0.10161000  1.0
  C  C209  1  0.70656000  0.02905000  0.39839000  1.0
  C  C210  1  0.36602000  0.89839000  0.52906000  1.0
  C  C211  1  0.29343000  0.60161000  0.97095000  1.0
  C  C212  1  0.36602000  0.52905000  0.89839000  1.0
  C  C213  1  0.29344000  0.97095000  0.60161000  1.0
  C  C214  1  0.63399000  0.10161000  0.47094000  1.0
  C  C215  1  0.70656000  0.39839000  0.02905000  1.0
  N  N216  1  0.56378000  0.57991000  0.22778000  1.0
  N  N217  1  0.87141000  0.92009000  0.27221000  1.0
  N  N218  1  0.43623000  0.77221000  0.42009000  1.0
  N  N219  1  0.12858000  0.72780000  0.07991000  1.0
  N  N220  1  0.43623000  0.42009000  0.77221000  1.0
  N  N221  1  0.12859000  0.07991000  0.72779000  1.0
  N  N222  1  0.56378000  0.22778000  0.57991000  1.0
  N  N223  1  0.87141000  0.27221000  0.92009000  1.0
  N  N224  1  0.61368000  0.41307000  0.12426000  1.0
  N  N225  1  0.65107000  0.08689000  0.37571000  1.0
  N  N226  1  0.38631000  0.87575000  0.58693000  1.0
  N  N227  1  0.34893000  0.62429000  0.91311000  1.0
  N  N228  1  0.38630000  0.58693000  0.87575000  1.0
  N  N229  1  0.34893000  0.91311000  0.62429000  1.0
  N  N230  1  0.61368000  0.12426000  0.41307000  1.0
  N  N231  1  0.65107000  0.37571000  0.08689000  1.0
  N  N232  1  0.67055000  0.50036000  0.03679000  1.0
  N  N233  1  0.70772000  0.99965000  0.46321000  1.0
  N  N234  1  0.32945000  0.96321000  0.49964000  1.0
  N  N235  1  0.29228000  0.53679000  0.00035000  1.0
  N  N236  1  0.32945000  0.49964000  0.96321000  1.0
  N  N237  1  0.29228000  0.00035000  0.53679000  1.0
  N  N238  1  0.67055000  0.03679000  0.50036000  1.0
  N  N239  1  0.70772000  0.46321000  0.99965000  1.0
  O  O240  1  0.04669000  0.90910000  0.16307000  1.0
  O  O241  1  0.61866000  0.59095000  0.33698000  1.0
  O  O242  1  0.95330000  0.83694000  0.09091000  1.0
  O  O243  1  0.38134000  0.66302000  0.40905000  1.0
  O  O244  1  0.95330000  0.09091000  0.83694000  1.0
  O  O245  1  0.38134000  0.40905000  0.66301000  1.0
  O  O246  1  0.04669000  0.16307000  0.90910000  1.0
  O  O247  1  0.61866000  0.33698000  0.59095000  1.0
  O  O248  1  0.40638000  0.78347000  0.29410000  1.0
  O  O249  1  0.98389000  0.71653000  0.20589000  1.0
  O  O250  1  0.59362000  0.70590000  0.21653000  1.0
  O  O251  1  0.01610000  0.79411000  0.28348000  1.0
  O  O252  1  0.59361000  0.21654000  0.70590000  1.0
  O  O253  1  0.01611000  0.28347000  0.79411000  1.0
  O  O254  1  0.40638000  0.29410000  0.78347000  1.0
  O  O255  1  0.98389000  0.20589000  0.71653000  1.0
  O  O256  1  0.09963000  0.86360000  0.08288000  1.0
  O  O257  1  0.54622000  0.63646000  0.41718000  1.0
  O  O258  1  0.90036000  0.91713000  0.13641000  1.0
  O  O259  1  0.45377000  0.58283000  0.36354000  1.0
  O  O260  1  0.90036000  0.13641000  0.91713000  1.0
  O  O261  1  0.45379000  0.36353000  0.58281000  1.0
  O  O262  1  0.09963000  0.08288000  0.86360000  1.0
  O  O263  1  0.54622000  0.41718000  0.63646000  1.0
  O  O264  1  0.42275000  0.70825000  0.25088000  1.0
  O  O265  1  0.88197000  0.79174000  0.24916000  1.0
  O  O266  1  0.57725000  0.74912000  0.29175000  1.0
  O  O267  1  0.11801000  0.75085000  0.20827000  1.0
  O  O268  1  0.57726000  0.29175000  0.74912000  1.0
  O  O269  1  0.11802000  0.20826000  0.75085000  1.0
  O  O270  1  0.42275000  0.25088000  0.70825000  1.0
  O  O271  1  0.88198000  0.24915000  0.79174000  1.0
