# generated using pymatgen
data_ZnH21C25IN3O7
_symmetry_space_group_name_H-M   'P 1'
_cell_length_a   7.41831000
_cell_length_b   12.89640000
_cell_length_c   13.52800000
_cell_angle_alpha   82.90150000
_cell_angle_beta   88.97790000
_cell_angle_gamma   82.73240000
_symmetry_Int_Tables_number   1
_chemical_formula_structural   ZnH21C25IN3O7
_chemical_formula_sum   'Zn2 H42 C50 I2 N6 O14'
_cell_volume   1273.97589185
_cell_formula_units_Z   2
loop_
 _symmetry_equiv_pos_site_id
 _symmetry_equiv_pos_as_xyz
  1  'x, y, z'
loop_
 _atom_site_type_symbol
 _atom_site_label
 _atom_site_symmetry_multiplicity
 _atom_site_fract_x
 _atom_site_fract_y
 _atom_site_fract_z
 _atom_site_occupancy
  Zn  Zn0  1  0.98748000  0.77560000  0.84290000  1.0
  Zn  Zn1  1  0.01251000  0.22441000  0.15710000  1.0
  H  H2  1  0.68072000  0.75480000  0.76836000  1.0
  H  H3  1  0.31928000  0.24520000  0.23164000  1.0
  H  H4  1  0.69268000  0.67561000  0.87021000  1.0
  H  H5  1  0.30732000  0.32439000  0.12979000  1.0
  H  H6  1  0.77511000  0.69745000  0.35265000  1.0
  H  H7  1  0.22490000  0.30254000  0.64735000  1.0
  H  H8  1  0.20897000  0.74350000  0.14045000  1.0
  H  H9  1  0.79103000  0.25650000  0.85955000  1.0
  H  H10  1  0.12061000  0.93883000  0.37831000  1.0
  H  H11  1  0.87940000  0.06116000  0.62170000  1.0
  H  H12  1  0.97188000  0.51821000  0.10607000  1.0
  H  H13  1  0.02810000  0.48180000  0.89393000  1.0
  H  H14  1  0.16900000  0.57649000  0.13151000  1.0
  H  H15  1  0.83099000  0.42350000  0.86849000  1.0
  H  H16  1  0.55548000  0.95264000  0.24774000  1.0
  H  H17  1  0.44453000  0.04736000  0.75226000  1.0
  H  H18  1  0.41621000  0.93110000  0.35410000  1.0
  H  H19  1  0.58379000  0.06890000  0.64590000  1.0
  H  H20  1  0.36256000  0.72799000  0.92390000  1.0
  H  H21  1  0.63745000  0.27201000  0.07609000  1.0
  H  H22  1  0.59557000  0.81690000  0.99852000  1.0
  H  H23  1  0.40444000  0.18311000  0.00147000  1.0
  H  H24  1  0.22594000  0.10745000  0.94308000  1.0
  H  H25  1  0.77407000  0.89255000  0.05692000  1.0
  H  H26  1  0.01220000  0.00448000  0.87212000  1.0
  H  H27  1  0.98781000  0.99552000  0.12789000  1.0
  H  H28  1  0.03137000  0.57916000  0.75755000  1.0
  H  H29  1  0.96861000  0.42084000  0.24245000  1.0
  H  H30  1  0.15315000  0.50227000  0.60938000  1.0
  H  H31  1  0.84684000  0.49773000  0.39061000  1.0
  H  H32  1  0.36574000  0.79699000  0.51559000  1.0
  H  H33  1  0.63424000  0.20302000  0.48441000  1.0
  H  H34  1  0.24008000  0.85955000  0.67034000  1.0
  H  H35  1  0.75991000  0.14045000  0.32966000  1.0
  H  H36  1  0.17738000  0.46787000  0.46855000  1.0
  H  H37  1  0.82259000  0.53214000  0.53145000  1.0
  H  H38  1  0.27658000  0.41031000  0.30677000  1.0
  H  H39  1  0.72341000  0.58969000  0.69324000  1.0
  H  H40  1  0.57633000  0.65877000  0.24038000  1.0
  H  H41  1  0.42367000  0.34123000  0.75963000  1.0
  H  H42  1  0.49598000  0.72671000  0.40135000  1.0
  H  H43  1  0.50402000  0.27329000  0.59865000  1.0
  C  C44  1  0.93707000  0.82188000  0.37211000  1.0
  C  C45  1  0.06294000  0.17812000  0.62789000  1.0
  C  C46  1  0.88580000  0.74063000  0.32489000  1.0
  C  C47  1  0.11421000  0.25937000  0.67511000  1.0
  C  C48  1  0.98229000  0.71234000  0.23973000  1.0
  C  C49  1  0.01772000  0.28766000  0.76027000  1.0
  C  C50  1  0.12877000  0.76428000  0.20479000  1.0
  C  C51  1  0.87124000  0.23572000  0.79521000  1.0
  C  C52  1  0.18224000  0.84288000  0.25690000  1.0
  C  C53  1  0.81776000  0.15712000  0.74310000  1.0
  C  C54  1  0.08481000  0.87503000  0.34000000  1.0
  C  C55  1  0.91520000  0.12496000  0.66000000  1.0
  C  C56  1  0.02225000  0.59301000  0.11571000  1.0
  C  C57  1  0.97774000  0.40700000  0.88428000  1.0
  C  C58  1  0.99036000  0.66436000  0.01786000  1.0
  C  C59  1  0.00965000  0.33564000  0.98214000  1.0
  C  C60  1  0.41373000  0.95485000  0.27291000  1.0
  C  C61  1  0.58627000  0.04516000  0.72709000  1.0
  C  C62  1  0.32243000  0.06836000  0.25199000  1.0
  C  C63  1  0.67758000  0.93165000  0.74802000  1.0
  C  C64  1  0.34034000  0.81236000  0.92954000  1.0
  C  C65  1  0.65967000  0.18765000  0.07046000  1.0
  C  C66  1  0.46878000  0.86284000  0.97163000  1.0
  C  C67  1  0.53123000  0.13717000  0.02837000  1.0
  C  C68  1  0.43318000  0.97153000  0.97801000  1.0
  C  C69  1  0.56683000  0.02847000  0.02199000  1.0
  C  C70  1  0.26592000  0.02356000  0.94069000  1.0
  C  C71  1  0.73410000  0.97644000  0.05931000  1.0
  C  C72  1  0.14384000  0.96692000  0.90065000  1.0
  C  C73  1  0.85618000  0.03309000  0.09935000  1.0
  C  C74  1  0.10607000  0.62462000  0.70178000  1.0
  C  C75  1  0.89392000  0.37538000  0.29822000  1.0
  C  C76  1  0.17357000  0.58286000  0.61721000  1.0
  C  C77  1  0.82642000  0.41715000  0.38279000  1.0
  C  C78  1  0.26601000  0.64401000  0.54496000  1.0
  C  C79  1  0.73398000  0.35599000  0.45504000  1.0
  C  C80  1  0.29241000  0.74490000  0.56633000  1.0
  C  C81  1  0.70758000  0.25510000  0.43367000  1.0
  C  C82  1  0.22087000  0.78134000  0.65309000  1.0
  C  C83  1  0.77911000  0.21866000  0.34692000  1.0
  C  C84  1  0.32718000  0.60417000  0.45055000  1.0
  C  C85  1  0.67280000  0.39584000  0.54945000  1.0
  C  C86  1  0.26781000  0.51324000  0.42172000  1.0
  C  C87  1  0.73217000  0.48677000  0.57827000  1.0
  C  C88  1  0.32247000  0.48044000  0.33046000  1.0
  C  C89  1  0.67752000  0.51956000  0.66954000  1.0
  C  C90  1  0.48885000  0.61781000  0.29354000  1.0
  C  C91  1  0.51115000  0.38219000  0.70646000  1.0
  C  C92  1  0.44291000  0.65605000  0.38396000  1.0
  C  C93  1  0.55708000  0.34396000  0.61604000  1.0
  I  I94  1  0.78787000  0.85966000  0.50054000  1.0
  I  I95  1  0.21215000  0.14033000  0.49946000  1.0
  N  N96  1  0.17940000  0.86282000  0.89485000  1.0
  N  N97  1  0.82062000  0.13719000  0.10515000  1.0
  N  N98  1  0.42989000  0.53170000  0.26562000  1.0
  N  N99  1  0.57010000  0.46830000  0.73439000  1.0
  N  N100  1  0.12551000  0.72312000  0.71929000  1.0
  N  N101  1  0.87448000  0.27689000  0.28071000  1.0
  O  O102  1  0.08969000  0.63764000  0.94456000  1.0
  O  O103  1  0.91033000  0.36236000  0.05544000  1.0
  O  O104  1  0.87077000  0.74389000  0.01038000  1.0
  O  O105  1  0.12923000  0.25611000  0.98962000  1.0
  O  O106  1  0.17934000  0.08516000  0.19920000  1.0
  O  O107  1  0.82066000  0.91484000  0.80081000  1.0
  O  O108  1  0.40028000  0.13635000  0.28958000  1.0
  O  O109  1  0.59974000  0.86366000  0.71041000  1.0
  O  O110  1  0.92401000  0.63070000  0.19888000  1.0
  O  O111  1  0.07599000  0.36930000  0.80112000  1.0
  O  O112  1  0.33769000  0.88122000  0.22115000  1.0
  O  O113  1  0.66232000  0.11878000  0.77885000  1.0
  O  O114  1  0.75842000  0.69351000  0.80894000  1.0
  O  O115  1  0.24158000  0.30649000  0.19106000  1.0
