# generated using pymatgen
data_H12PbC19SNO6
_symmetry_space_group_name_H-M   'P 1'
_cell_length_a   7.75778000
_cell_length_b   10.47730000
_cell_length_c   12.13320000
_cell_angle_alpha   110.84600000
_cell_angle_beta   94.85530000
_cell_angle_gamma   106.10400000
_symmetry_Int_Tables_number   1
_chemical_formula_structural   H12PbC19SNO6
_chemical_formula_sum   'H24 Pb2 C38 S2 N2 O12'
_cell_volume   866.81415474
_cell_formula_units_Z   2
loop_
 _symmetry_equiv_pos_site_id
 _symmetry_equiv_pos_as_xyz
  1  'x, y, z'
loop_
 _atom_site_type_symbol
 _atom_site_label
 _atom_site_symmetry_multiplicity
 _atom_site_fract_x
 _atom_site_fract_y
 _atom_site_fract_z
 _atom_site_occupancy
  H  H0  1  0.72288000  0.09363000  0.23880000  1.0
  H  H1  1  0.27720000  0.90639000  0.76117000  1.0
  H  H2  1  0.60488000  0.90795000  0.31831000  1.0
  H  H3  1  0.39518000  0.09207000  0.68165000  1.0
  H  H4  1  0.47894000  0.23375000  0.60725000  1.0
  H  H5  1  0.52128000  0.76630000  0.39277000  1.0
  H  H6  1  0.60612000  0.40567000  0.51658000  1.0
  H  H7  1  0.39408000  0.59437000  0.48344000  1.0
  H  H8  1  0.28117000  0.49850000  0.18662000  1.0
  H  H9  1  0.71885000  0.50140000  0.81329000  1.0
  H  H10  1  0.07459000  0.60675000  0.10879000  1.0
  H  H11  1  0.92536000  0.39315000  0.89114000  1.0
  H  H12  1  0.53461000  0.86551000  0.01933000  1.0
  H  H13  1  0.46539000  0.13461000  0.98080000  1.0
  H  H14  1  0.73355000  0.74037000  0.08211000  1.0
  H  H15  1  0.26645000  0.25968000  0.91791000  1.0
  H  H16  1  0.00140000  0.80399000  0.21866000  1.0
  H  H17  1  0.99844000  0.19598000  0.78131000  1.0
  H  H18  1  0.98485000  0.98937000  0.40807000  1.0
  H  H19  1  0.01502000  0.01059000  0.59193000  1.0
  H  H20  1  0.26617000  0.32714000  0.29815000  1.0
  H  H21  1  0.73364000  0.67283000  0.70184000  1.0
  H  H22  1  0.28687000  0.14177000  0.10801000  1.0
  H  H23  1  0.71292000  0.85822000  0.89196000  1.0
  Pb  Pb24  1  0.88181000  0.45409000  0.31510000  1.0
  Pb  Pb25  1  0.11831000  0.54600000  0.68490000  1.0
  C  C26  1  0.66893000  0.12048000  0.32119000  1.0
  C  C27  1  0.33118000  0.87955000  0.67881000  1.0
  C  C28  1  0.60153000  0.01647000  0.36680000  1.0
  C  C29  1  0.39857000  0.98356000  0.63318000  1.0
  C  C30  1  0.53392000  0.05328000  0.47329000  1.0
  C  C31  1  0.46618000  0.94674000  0.52669000  1.0
  C  C32  1  0.53305000  0.19608000  0.52634000  1.0
  C  C33  1  0.46712000  0.80397000  0.47368000  1.0
  C  C34  1  0.60336000  0.29400000  0.47556000  1.0
  C  C35  1  0.39680000  0.70604000  0.52444000  1.0
  C  C36  1  0.64668000  0.55407000  0.18977000  1.0
  C  C37  1  0.35333000  0.44592000  0.81021000  1.0
  C  C38  1  0.52089000  0.61806000  0.14376000  1.0
  C  C39  1  0.47910000  0.38192000  0.85621000  1.0
  C  C40  1  0.33561000  0.57989000  0.15114000  1.0
  C  C41  1  0.66438000  0.42004000  0.84883000  1.0
  C  C42  1  0.22062000  0.64049000  0.10850000  1.0
  C  C43  1  0.77938000  0.35947000  0.89148000  1.0
  C  C44  1  0.29628000  0.74432000  0.06319000  1.0
  C  C45  1  0.70369000  0.25569000  0.93687000  1.0
  C  C46  1  0.48047000  0.78387000  0.05472000  1.0
  C  C47  1  0.51954000  0.21620000  0.94535000  1.0
  C  C48  1  0.59167000  0.71724000  0.09254000  1.0
  C  C49  1  0.40835000  0.28278000  0.90748000  1.0
  C  C50  1  0.14431000  0.96320000  0.15207000  1.0
  C  C51  1  0.85559000  0.03678000  0.84794000  1.0
  C  C52  1  0.05977000  0.91835000  0.23582000  1.0
  C  C53  1  0.94010000  0.08161000  0.76417000  1.0
  C  C54  1  0.04947000  0.02278000  0.34212000  1.0
  C  C55  1  0.95039000  0.97718000  0.65788000  1.0
  C  C56  1  0.12043000  0.17018000  0.36401000  1.0
  C  C57  1  0.87948000  0.82978000  0.63599000  1.0
  C  C58  1  0.20656000  0.21270000  0.27983000  1.0
  C  C59  1  0.79328000  0.78727000  0.72017000  1.0
  C  C60  1  0.22024000  0.10919000  0.17359000  1.0
  C  C61  1  0.77960000  0.89078000  0.82639000  1.0
  C  C62  1  0.10224000  0.28158000  0.47696000  1.0
  C  C63  1  0.89773000  0.71840000  0.52307000  1.0
  S  S64  1  0.15445000  0.82907000  0.01511000  1.0
  S  S65  1  0.84552000  0.17092000  0.98490000  1.0
  N  N66  1  0.67317000  0.25816000  0.37532000  1.0
  N  N67  1  0.32694000  0.74186000  0.62465000  1.0
  O  O68  1  0.80306000  0.57172000  0.16279000  1.0
  O  O69  1  0.19696000  0.42828000  0.83721000  1.0
  O  O70  1  0.59127000  0.48626000  0.25745000  1.0
  O  O71  1  0.40876000  0.51375000  0.74257000  1.0
  O  O72  1  0.05103000  0.24866000  0.56163000  1.0
  O  O73  1  0.94892000  0.75132000  0.43839000  1.0
  O  O74  1  0.14079000  0.41259000  0.48118000  1.0
  O  O75  1  0.85928000  0.58741000  0.51886000  1.0
  O  O76  1  0.97202000  0.72336000  0.96167000  1.0
  O  O77  1  0.02801000  0.27662000  0.03832000  1.0
  O  O78  1  0.24842000  0.90117000  0.94361000  1.0
  O  O79  1  0.75161000  0.09887000  0.05646000  1.0
