# generated using pymatgen
data_Ag2H6C9SBrNO6
_symmetry_space_group_name_H-M   'P 1'
_cell_length_a   6.97502000
_cell_length_b   8.18068000
_cell_length_c   12.28370000
_cell_angle_alpha   85.13020000
_cell_angle_beta   73.81480000
_cell_angle_gamma   68.41760000
_symmetry_Int_Tables_number   1
_chemical_formula_structural   Ag2H6C9SBrNO6
_chemical_formula_sum   'Ag4 H12 C18 S2 Br2 N2 O12'
_cell_volume   625.81694312
_cell_formula_units_Z   2
loop_
 _symmetry_equiv_pos_site_id
 _symmetry_equiv_pos_as_xyz
  1  'x, y, z'
loop_
 _atom_site_type_symbol
 _atom_site_label
 _atom_site_symmetry_multiplicity
 _atom_site_fract_x
 _atom_site_fract_y
 _atom_site_fract_z
 _atom_site_occupancy
  Ag  Ag0  1  0.94348000  0.83212000  0.76491000  1.0
  Ag  Ag1  1  0.05652000  0.16789000  0.23508000  1.0
  Ag  Ag2  1  0.73112000  0.99277000  0.49691000  1.0
  Ag  Ag3  1  0.26889000  0.00723000  0.50309000  1.0
  H  H4  1  0.30668000  0.36766000  0.56381000  1.0
  H  H5  1  0.69332000  0.63234000  0.43619000  1.0
  H  H6  1  0.12950000  0.83093000  0.35466000  1.0
  H  H7  1  0.87051000  0.16907000  0.64534000  1.0
  H  H8  1  0.46951000  0.39529000  0.11513000  1.0
  H  H9  1  0.53048000  0.60471000  0.88488000  1.0
  H  H10  1  0.80930000  0.52916000  0.15581000  1.0
  H  H11  1  0.19071000  0.47084000  0.84419000  1.0
  H  H12  1  0.62962000  0.75117000  0.19245000  1.0
  H  H13  1  0.37039000  0.24883000  0.80755000  1.0
  H  H14  1  0.90556000  0.68943000  0.18579000  1.0
  H  H15  1  0.09445000  0.31057000  0.81420000  1.0
  C  C16  1  0.43464000  0.32992000  0.29045000  1.0
  C  C17  1  0.56536000  0.67008000  0.70955000  1.0
  C  C18  1  0.35448000  0.39214000  0.40400000  1.0
  C  C19  1  0.64553000  0.60786000  0.59600000  1.0
  C  C20  1  0.24050000  0.57493000  0.42645000  1.0
  C  C21  1  0.75951000  0.42507000  0.57355000  1.0
  C  C22  1  0.21385000  0.69067000  0.33649000  1.0
  C  C23  1  0.78615000  0.30933000  0.66351000  1.0
  C  C24  1  0.29682000  0.62676000  0.22544000  1.0
  C  C25  1  0.70317000  0.37324000  0.77456000  1.0
  C  C26  1  0.40557000  0.44687000  0.20196000  1.0
  C  C27  1  0.59443000  0.55313000  0.79805000  1.0
  C  C28  1  0.15311000  0.64008000  0.54607000  1.0
  C  C29  1  0.84690000  0.35992000  0.45394000  1.0
  C  C30  1  0.79218000  0.66794000  0.14743000  1.0
  C  C31  1  0.20782000  0.33206000  0.85256000  1.0
  C  C32  1  0.83607000  0.71412000  0.02976000  1.0
  C  C33  1  0.16392000  0.28588000  0.97024000  1.0
  S  S34  1  0.57283000  0.10098000  0.25447000  1.0
  S  S35  1  0.42717000  0.89902000  0.74553000  1.0
  Br  Br36  1  0.27165000  0.78331000  0.10181000  1.0
  Br  Br37  1  0.72834000  0.21669000  0.89819000  1.0
  N  N38  1  0.87431000  0.74788000  0.93419000  1.0
  N  N39  1  0.12568000  0.25212000  0.06580000  1.0
  O  O40  1  0.75622000  0.03925000  0.30610000  1.0
  O  O41  1  0.24378000  0.96074000  0.69390000  1.0
  O  O42  1  0.41723000  0.01312000  0.30697000  1.0
  O  O43  1  0.58277000  0.98688000  0.69303000  1.0
  O  O44  1  0.63968000  0.08662000  0.13194000  1.0
  O  O45  1  0.36032000  0.91337000  0.86806000  1.0
  O  O46  1  0.38367000  0.28175000  0.49070000  1.0
  O  O47  1  0.61634000  0.71825000  0.50930000  1.0
  O  O48  1  0.04469000  0.80413000  0.56871000  1.0
  O  O49  1  0.95531000  0.19587000  0.43130000  1.0
  O  O50  1  0.18975000  0.52844000  0.62427000  1.0
  O  O51  1  0.81025000  0.47155000  0.37573000  1.0
