# generated using pymatgen
data_CdH14C20N2(O3F2)2
_symmetry_space_group_name_H-M   'P 1'
_cell_length_a   7.02347000
_cell_length_b   7.83311000
_cell_length_c   9.83029894
_cell_angle_alpha   96.47181469
_cell_angle_beta   110.22592877
_cell_angle_gamma   100.50350000
_symmetry_Int_Tables_number   1
_chemical_formula_structural   CdH14C20N2(O3F2)2
_chemical_formula_sum   'Cd1 H14 C20 N2 O6 F4'
_cell_volume   489.83242945
_cell_formula_units_Z   1
loop_
 _symmetry_equiv_pos_site_id
 _symmetry_equiv_pos_as_xyz
  1  'x, y, z'
loop_
 _atom_site_type_symbol
 _atom_site_label
 _atom_site_symmetry_multiplicity
 _atom_site_fract_x
 _atom_site_fract_y
 _atom_site_fract_z
 _atom_site_occupancy
  Cd  Cd0  1  0.00000000  0.00000000  0.00000000  1.0
  H  H1  1  0.66489000  0.91616000  0.07763000  1.0
  H  H2  1  0.33510000  0.08382000  0.92235000  1.0
  H  H3  1  0.54650000  0.85191000  0.90742000  1.0
  H  H4  1  0.45350000  0.14809000  0.09257000  1.0
  H  H5  1  0.60055000  0.18225000  0.48672000  1.0
  H  H6  1  0.39947000  0.81777000  0.51328000  1.0
  H  H7  1  0.54793000  0.64200000  0.63731000  1.0
  H  H8  1  0.45207000  0.35801000  0.36270000  1.0
  H  H9  1  0.68418000  0.56173000  0.87247000  1.0
  H  H10  1  0.31582000  0.43827000  0.12755000  1.0
  H  H11  1  0.77676000  0.00049000  0.65732000  1.0
  H  H12  1  0.22326000  0.99953000  0.34268000  1.0
  H  H13  1  0.85071000  0.35956000  0.02547000  1.0
  H  H14  1  0.14927000  0.64042000  0.97453000  1.0
  C  C15  1  0.65141000  0.22799000  0.60537000  1.0
  C  C16  1  0.34863000  0.77203000  0.39464000  1.0
  C  C17  1  0.54096000  0.51517000  0.57460000  1.0
  C  C18  1  0.45905000  0.48484000  0.42542000  1.0
  C  C19  1  0.69957000  0.43802000  0.81911000  1.0
  C  C20  1  0.30043000  0.56199000  0.18090000  1.0
  C  C21  1  0.94192000  0.65548000  0.47206000  1.0
  C  C22  1  0.05806000  0.34452000  0.52792000  1.0
  C  C23  1  0.62840000  0.39198000  0.66437000  1.0
  C  C24  1  0.37160000  0.60802000  0.33564000  1.0
  C  C25  1  0.12452000  0.80470000  0.74056000  1.0
  C  C26  1  0.87548000  0.19530000  0.25943000  1.0
  C  C27  1  0.74942000  0.12462000  0.69969000  1.0
  C  C28  1  0.25059000  0.87539000  0.30032000  1.0
  C  C29  1  0.12088000  0.48994000  0.64171000  1.0
  C  C30  1  0.87910000  0.51005000  0.35828000  1.0
  C  C31  1  0.79286000  0.32532000  0.90556000  1.0
  C  C32  1  0.20714000  0.67467000  0.09445000  1.0
  C  C33  1  0.06479000  0.64829000  0.61573000  1.0
  C  C34  1  0.93520000  0.35172000  0.38426000  1.0
  N  N35  1  0.82148000  0.17230000  0.84809000  1.0
  N  N36  1  0.17854000  0.82770000  0.15192000  1.0
  O  O37  1  0.97849000  0.82184000  0.78495000  1.0
  O  O38  1  0.02151000  0.17814000  0.21505000  1.0
  O  O39  1  0.30811000  0.90066000  0.78767000  1.0
  O  O40  1  0.69189000  0.09933000  0.21232000  1.0
  O  O41  1  0.66803000  0.83894000  0.99082000  1.0
  O  O42  1  0.33197000  0.16105000  0.00917000  1.0
  F  F43  1  0.23726000  0.47588000  0.78091000  1.0
  F  F44  1  0.76272000  0.52412000  0.21908000  1.0
  F  F45  1  0.88110000  0.80638000  0.44229000  1.0
  F  F46  1  0.11886000  0.19361000  0.55770000  1.0
