# generated using pymatgen
data_CuH13C17N6(O3F2)2
_symmetry_space_group_name_H-M   'P 1'
_cell_length_a   8.39768000
_cell_length_b   9.28610000
_cell_length_c   13.59040000
_cell_angle_alpha   80.60920000
_cell_angle_beta   89.57330000
_cell_angle_gamma   73.63600000
_symmetry_Int_Tables_number   1
_chemical_formula_structural   CuH13C17N6(O3F2)2
_chemical_formula_sum   'Cu2 H26 C34 N12 O12 F8'
_cell_volume   1002.41230040
_cell_formula_units_Z   2
loop_
 _symmetry_equiv_pos_site_id
 _symmetry_equiv_pos_as_xyz
  1  'x, y, z'
loop_
 _atom_site_type_symbol
 _atom_site_label
 _atom_site_symmetry_multiplicity
 _atom_site_fract_x
 _atom_site_fract_y
 _atom_site_fract_z
 _atom_site_occupancy
  Cu  Cu0  1  0.64101000  0.94398000  0.35112000  1.0
  Cu  Cu1  1  0.35898000  0.05602000  0.64888000  1.0
  H  H2  1  0.25090000  0.12458000  0.30015000  1.0
  H  H3  1  0.74909000  0.87543000  0.69986000  1.0
  H  H4  1  0.63468000  0.97774000  0.10624000  1.0
  H  H5  1  0.36532000  0.02226000  0.89376000  1.0
  H  H6  1  0.00553000  0.18026000  0.17161000  1.0
  H  H7  1  0.99448000  0.81973000  0.82839000  1.0
  H  H8  1  0.05609000  0.11158000  0.05805000  1.0
  H  H9  1  0.94392000  0.88842000  0.94194000  1.0
  H  H10  1  0.40032000  0.75878000  0.29021000  1.0
  H  H11  1  0.59968000  0.24121000  0.70979000  1.0
  H  H12  1  0.92481000  0.62880000  0.30600000  1.0
  H  H13  1  0.07518000  0.37120000  0.69399000  1.0
  H  H14  1  0.36031000  0.52467000  0.23928000  1.0
  H  H15  1  0.63969000  0.47534000  0.76070000  1.0
  H  H16  1  0.53484000  0.35851000  0.25585000  1.0
  H  H17  1  0.46516000  0.64149000  0.74414000  1.0
  H  H18  1  0.30645000  0.39317000  0.41777000  1.0
  H  H19  1  0.69354000  0.60684000  0.58223000  1.0
  H  H20  1  0.88622000  0.80646000  0.48024000  1.0
  H  H21  1  0.11378000  0.19354000  0.51976000  1.0
  H  H22  1  0.72639000  0.93032000  0.51938000  1.0
  H  H23  1  0.27361000  0.06967000  0.48063000  1.0
  H  H24  1  0.90858000  0.04366000  0.33249000  1.0
  H  H25  1  0.09142000  0.95634000  0.66751000  1.0
  H  H26  1  0.98738000  0.88210000  0.30323000  1.0
  H  H27  1  0.01262000  0.11790000  0.69677000  1.0
  C  C28  1  0.32112000  0.09968000  0.23476000  1.0
  C  C29  1  0.67888000  0.90032000  0.76524000  1.0
  C  C30  1  0.51360000  0.02560000  0.13446000  1.0
  C  C31  1  0.48639000  0.97441000  0.86554000  1.0
  C  C32  1  0.08282000  0.18605000  0.10641000  1.0
  C  C33  1  0.91718000  0.81394000  0.89359000  1.0
  C  C34  1  0.04592000  0.34659000  0.05061000  1.0
  C  C35  1  0.95408000  0.65340000  0.94939000  1.0
  C  C36  1  0.04358000  0.46722000  0.10042000  1.0
  C  C37  1  0.95643000  0.53278000  0.89959000  1.0
  C  C38  1  0.00517000  0.38217000  0.94834000  1.0
  C  C39  1  0.99484000  0.61782000  0.05166000  1.0
  C  C40  1  0.53085000  0.69997000  0.28492000  1.0
  C  C41  1  0.46914000  0.30003000  0.71508000  1.0
  C  C42  1  0.79753000  0.62794000  0.29289000  1.0
  C  C43  1  0.20247000  0.37207000  0.70711000  1.0
  C  C44  1  0.48841000  0.47703000  0.21787000  1.0
  C  C45  1  0.51159000  0.52298000  0.78212000  1.0
  C  C46  1  0.49588000  0.48844000  0.10608000  1.0
  C  C47  1  0.50413000  0.51157000  0.89391000  1.0
  C  C48  1  0.40252000  0.61773000  0.04222000  1.0
  C  C49  1  0.59748000  0.38227000  0.95777000  1.0
  C  C50  1  0.40401000  0.62806000  0.93887000  1.0
  C  C51  1  0.59600000  0.37194000  0.06112000  1.0
  C  C52  1  0.60147000  0.18382000  0.47529000  1.0
  C  C53  1  0.39852000  0.81618000  0.52472000  1.0
  C  C54  1  0.55097000  0.34913000  0.48419000  1.0
  C  C55  1  0.44902000  0.65087000  0.51582000  1.0
  C  C56  1  0.66040000  0.40754000  0.53263000  1.0
  C  C57  1  0.33959000  0.59247000  0.46738000  1.0
  C  C58  1  0.83165000  0.30781000  0.56839000  1.0
  C  C59  1  0.16834000  0.69220000  0.43161000  1.0
  C  C60  1  0.39189000  0.44155000  0.45196000  1.0
  C  C61  1  0.60810000  0.55845000  0.54805000  1.0
  N  N62  1  0.48500000  0.03796000  0.23241000  1.0
  N  N63  1  0.51500000  0.96204000  0.76760000  1.0
  N  N64  1  0.37644000  0.07779000  0.07645000  1.0
  N  N65  1  0.62357000  0.92221000  0.92355000  1.0
  N  N66  1  0.25575000  0.12313000  0.14161000  1.0
  N  N67  1  0.74426000  0.87687000  0.85839000  1.0
  N  N68  1  0.66231000  0.74310000  0.30944000  1.0
  N  N69  1  0.33768000  0.25690000  0.69056000  1.0
  N  N70  1  0.75582000  0.51724000  0.25834000  1.0
  N  N71  1  0.24418000  0.48276000  0.74165000  1.0
  N  N72  1  0.58664000  0.56501000  0.25471000  1.0
  N  N73  1  0.41336000  0.43499000  0.74528000  1.0
  O  O74  1  0.59037000  0.15236000  0.38728000  1.0
  O  O75  1  0.40962000  0.84764000  0.61273000  1.0
  O  O76  1  0.64958000  0.08814000  0.55446000  1.0
  O  O77  1  0.35041000  0.91186000  0.44555000  1.0
  O  O78  1  0.92662000  0.25377000  0.50217000  1.0
  O  O79  1  0.07338000  0.74625000  0.49783000  1.0
  O  O80  1  0.86600000  0.28604000  0.66192000  1.0
  O  O81  1  0.13400000  0.71396000  0.33808000  1.0
  O  O82  1  0.75785000  0.84229000  0.48083000  1.0
  O  O83  1  0.24215000  0.15771000  0.51917000  1.0
  O  O84  1  0.90008000  0.98242000  0.28201000  1.0
  O  O85  1  0.09992000  0.01757000  0.71799000  1.0
  F  F86  1  0.09256000  0.43617000  0.19819000  1.0
  F  F87  1  0.90745000  0.56382000  0.80181000  1.0
  F  F88  1  0.01280000  0.26927000  0.89537000  1.0
  F  F89  1  0.98723000  0.73072000  0.10463000  1.0
  F  F90  1  0.30723000  0.73683000  0.08151000  1.0
  F  F91  1  0.69278000  0.26317000  0.91848000  1.0
  F  F92  1  0.30431000  0.75386000  0.88170000  1.0
  F  F93  1  0.69569000  0.24614000  0.11828000  1.0
