# generated using pymatgen
data_ZnH4C7N3O4
_symmetry_space_group_name_H-M   'P 1'
_cell_length_a   9.57505000
_cell_length_b   9.71734000
_cell_length_c   13.83370000
_cell_angle_alpha   101.38100000
_cell_angle_beta   89.99980000
_cell_angle_gamma   89.99950000
_symmetry_Int_Tables_number   1
_chemical_formula_structural   ZnH4C7N3O4
_chemical_formula_sum   'Zn4 H16 C28 N12 O16'
_cell_volume   1261.83348674
_cell_formula_units_Z   4
loop_
 _symmetry_equiv_pos_site_id
 _symmetry_equiv_pos_as_xyz
  1  'x, y, z'
loop_
 _atom_site_type_symbol
 _atom_site_label
 _atom_site_symmetry_multiplicity
 _atom_site_fract_x
 _atom_site_fract_y
 _atom_site_fract_z
 _atom_site_occupancy
  Zn  Zn0  1  0.06383000  0.90992000  0.60133000  1.0
  Zn  Zn1  1  0.56383000  0.59008000  0.39867000  1.0
  Zn  Zn2  1  0.93617000  0.09008000  0.39867000  1.0
  Zn  Zn3  1  0.43617000  0.40992000  0.60133000  1.0
  H  H4  1  0.88175000  0.12418000  0.88299000  1.0
  H  H5  1  0.38175000  0.37582000  0.11701000  1.0
  H  H6  1  0.11825000  0.87582000  0.11701000  1.0
  H  H7  1  0.61826000  0.62418000  0.88299000  1.0
  H  H8  1  0.76985000  0.38852000  0.17011000  1.0
  H  H9  1  0.26985000  0.11148000  0.82990000  1.0
  H  H10  1  0.23015000  0.61148000  0.82989000  1.0
  H  H11  1  0.73015000  0.88852000  0.17010000  1.0
  H  H12  1  0.19066000  0.63980000  0.67357000  1.0
  H  H13  1  0.69065000  0.86020000  0.32643000  1.0
  H  H14  1  0.80935000  0.36020000  0.32643000  1.0
  H  H15  1  0.30935000  0.13980000  0.67357000  1.0
  H  H16  1  0.30934000  0.80836000  0.42788000  1.0
  H  H17  1  0.80934000  0.69164000  0.57211000  1.0
  H  H18  1  0.69066000  0.19164000  0.57212000  1.0
  H  H19  1  0.19066000  0.30836000  0.42789000  1.0
  C  C20  1  0.93324000  0.06730000  0.93343000  1.0
  C  C21  1  0.43324000  0.43271000  0.06657000  1.0
  C  C22  1  0.06676000  0.93270000  0.06657000  1.0
  C  C23  1  0.56676000  0.56729000  0.93342000  1.0
  C  C24  1  0.06577000  0.93846000  0.79204000  1.0
  C  C25  1  0.56577000  0.56154000  0.20796000  1.0
  C  C26  1  0.93423000  0.06154000  0.20796000  1.0
  C  C27  1  0.43423000  0.43846000  0.79204000  1.0
  C  C28  1  0.90541000  0.10926000  0.03395000  1.0
  C  C29  1  0.40541000  0.39074000  0.96605000  1.0
  C  C30  1  0.09460000  0.89074000  0.96605000  1.0
  C  C31  1  0.59459000  0.60926000  0.03395000  1.0
  C  C32  1  0.02788000  0.95992000  0.89870000  1.0
  C  C33  1  0.52788000  0.54009000  0.10129000  1.0
  C  C34  1  0.97213000  0.04008000  0.10130000  1.0
  C  C35  1  0.47213000  0.45991000  0.89870000  1.0
  C  C36  1  0.24409000  0.65795000  0.60810000  1.0
  C  C37  1  0.74409000  0.84205000  0.39190000  1.0
  C  C38  1  0.75591000  0.34205000  0.39190000  1.0
  C  C39  1  0.25591000  0.15795000  0.60810000  1.0
  C  C40  1  0.30486000  0.74495000  0.48420000  1.0
  C  C41  1  0.80486000  0.75505000  0.51580000  1.0
  C  C42  1  0.69513000  0.25505000  0.51580000  1.0
  C  C43  1  0.19513000  0.24495000  0.48420000  1.0
  C  C44  1  0.81090000  0.23270000  0.06264000  1.0
  C  C45  1  0.31090000  0.26730000  0.93736000  1.0
  C  C46  1  0.18910000  0.76729000  0.93736000  1.0
  C  C47  1  0.68910000  0.73270000  0.06264000  1.0
  N  N48  1  0.20913000  0.75865000  0.55746000  1.0
  N  N49  1  0.70913000  0.74135000  0.44254000  1.0
  N  N50  1  0.79087000  0.24136000  0.44254000  1.0
  N  N51  1  0.29087000  0.25864000  0.55746000  1.0
  N  N52  1  0.35525000  0.58578000  0.56833000  1.0
  N  N53  1  0.85525000  0.91421000  0.43167000  1.0
  N  N54  1  0.64475000  0.41422000  0.43167000  1.0
  N  N55  1  0.14475000  0.08578000  0.56833000  1.0
  N  N56  1  0.39439000  0.64171000  0.48869000  1.0
  N  N57  1  0.89439000  0.85828000  0.51131000  1.0
  N  N58  1  0.60561000  0.35829000  0.51131000  1.0
  N  N59  1  0.10561000  0.14172000  0.48869000  1.0
  O  O60  1  0.97203000  0.89216000  0.72661000  1.0
  O  O61  1  0.47203000  0.60785000  0.27339000  1.0
  O  O62  1  0.02797000  0.10784000  0.27339000  1.0
  O  O63  1  0.52797000  0.39216000  0.72661000  1.0
  O  O64  1  0.18505000  0.97585000  0.76696000  1.0
  O  O65  1  0.68505000  0.52414000  0.23305000  1.0
  O  O66  1  0.81496000  0.02414000  0.23305000  1.0
  O  O67  1  0.31495000  0.47586000  0.76696000  1.0
  O  O68  1  0.83137000  0.30210000  0.15608000  1.0
  O  O69  1  0.33137000  0.19790000  0.84393000  1.0
  O  O70  1  0.16863000  0.69790000  0.84392000  1.0
  O  O71  1  0.66863000  0.80210000  0.15607000  1.0
  O  O72  1  0.72742000  0.26986000  0.00582000  1.0
  O  O73  1  0.22741000  0.23015000  0.99418000  1.0
  O  O74  1  0.27258000  0.73014000  0.99418000  1.0
  O  O75  1  0.77259000  0.76985000  0.00582000  1.0
