# generated using pymatgen
data_CdH22C26(NO3)2
_symmetry_space_group_name_H-M   'P 1'
_cell_length_a   9.04912000
_cell_length_b   10.16130000
_cell_length_c   14.74570000
_cell_angle_alpha   73.24410000
_cell_angle_beta   82.82960000
_cell_angle_gamma   63.66300000
_symmetry_Int_Tables_number   1
_chemical_formula_structural   CdH22C26(NO3)2
_chemical_formula_sum   'Cd2 H44 C52 N4 O12'
_cell_volume   1163.53887966
_cell_formula_units_Z   2
loop_
 _symmetry_equiv_pos_site_id
 _symmetry_equiv_pos_as_xyz
  1  'x, y, z'
loop_
 _atom_site_type_symbol
 _atom_site_label
 _atom_site_symmetry_multiplicity
 _atom_site_fract_x
 _atom_site_fract_y
 _atom_site_fract_z
 _atom_site_occupancy
  Cd  Cd0  1  0.24990000  0.22689000  0.55065000  1.0
  Cd  Cd1  1  0.75010000  0.77311000  0.44935000  1.0
  H  H2  1  0.37761000  0.43274000  0.38535000  1.0
  H  H3  1  0.62239000  0.56726000  0.61465000  1.0
  H  H4  1  0.38802000  0.52235000  0.21282000  1.0
  H  H5  1  0.61198000  0.47765000  0.78718000  1.0
  H  H6  1  0.12005000  0.26722000  0.19410000  1.0
  H  H7  1  0.87995000  0.73278000  0.80590000  1.0
  H  H8  1  0.12996000  0.17987000  0.36816000  1.0
  H  H9  1  0.87004000  0.82013000  0.63184000  1.0
  H  H10  1  0.30945000  0.64741000  0.07825000  1.0
  H  H11  1  0.69055000  0.35260000  0.92175000  1.0
  H  H12  1  0.30960000  0.73815000  0.90493000  1.0
  H  H13  1  0.69040000  0.26185000  0.09507000  1.0
  H  H14  1  0.24990000  0.60868000  0.80377000  1.0
  H  H15  1  0.75010000  0.39132000  0.19622000  1.0
  H  H16  1  0.19094000  0.38432000  0.88057000  1.0
  H  H17  1  0.80906000  0.61568000  0.11943000  1.0
  H  H18  1  0.19322000  0.28945000  0.05395000  1.0
  H  H19  1  0.80678000  0.71055000  0.94605000  1.0
  H  H20  1  0.02965000  0.32624000  0.72951000  1.0
  H  H21  1  0.97035000  0.67376000  0.27049000  1.0
  H  H22  1  0.02199000  0.24767000  0.90500000  1.0
  H  H23  1  0.97801000  0.75233000  0.09500000  1.0
  H  H24  1  0.48161000  0.85397000  0.89513000  1.0
  H  H25  1  0.51839000  0.14603000  0.10487000  1.0
  H  H26  1  0.47180000  0.95350000  0.72047000  1.0
  H  H27  1  0.52821000  0.04649000  0.27953000  1.0
  H  H28  1  0.99084000  0.12800000  0.03665000  1.0
  H  H29  1  0.00916000  0.87201000  0.96335000  1.0
  H  H30  1  0.99179000  0.03915000  0.21152000  1.0
  H  H31  1  0.00820000  0.96086000  0.78848000  1.0
  H  H32  1  0.24838000  0.84509000  0.29762000  1.0
  H  H33  1  0.75161000  0.15492000  0.70238000  1.0
  H  H34  1  0.50743000  0.74207000  0.20901000  1.0
  H  H35  1  0.49256000  0.25794000  0.79099000  1.0
  H  H36  1  0.51152000  0.83435000  0.03451000  1.0
  H  H37  1  0.48848000  0.16565000  0.96550000  1.0
  H  H38  1  0.53331000  0.22258000  0.59154000  1.0
  H  H39  1  0.46669000  0.77741000  0.40846000  1.0
  H  H40  1  0.60791000  0.09653000  0.52969000  1.0
  H  H41  1  0.39209000  0.90346000  0.47031000  1.0
  H  H42  1  0.89516000  0.38326000  0.52429000  1.0
  H  H43  1  0.10484000  0.61674000  0.47571000  1.0
  H  H44  1  0.96331000  0.20595000  0.58626000  1.0
  H  H45  1  0.03668000  0.79405000  0.41374000  1.0
  C  C46  1  0.32316000  0.39669000  0.34080000  1.0
  C  C47  1  0.67684000  0.60331000  0.65920000  1.0
  C  C48  1  0.32689000  0.44829000  0.24281000  1.0
  C  C49  1  0.67311000  0.55171000  0.75719000  1.0
  C  C50  1  0.25325000  0.40479000  0.18523000  1.0
  C  C51  1  0.74675000  0.59521000  0.81477000  1.0
  C  C52  1  0.18068000  0.30644000  0.23263000  1.0
  C  C53  1  0.81932000  0.69357000  0.76737000  1.0
  C  C54  1  0.18413000  0.25761000  0.33103000  1.0
  C  C55  1  0.81587000  0.74239000  0.66897000  1.0
  C  C56  1  0.25208000  0.46028000  0.08056000  1.0
  C  C57  1  0.74792000  0.53972000  0.91944000  1.0
  C  C58  1  0.28461000  0.58733000  0.03601000  1.0
  C  C59  1  0.71538000  0.41267000  0.96399000  1.0
  C  C60  1  0.28413000  0.63970000  0.93762000  1.0
  C  C61  1  0.71587000  0.36030000  0.06238000  1.0
  C  C62  1  0.25036000  0.56751000  0.88084000  1.0
  C  C63  1  0.74964000  0.43249000  0.11916000  1.0
  C  C64  1  0.21708000  0.44196000  0.92396000  1.0
  C  C65  1  0.78292000  0.55804000  0.07603000  1.0
  C  C66  1  0.21815000  0.38866000  0.02241000  1.0
  C  C67  1  0.78186000  0.61134000  0.97759000  1.0
  C  C68  1  0.12816000  0.22307000  0.76963000  1.0
  C  C69  1  0.87184000  0.77692000  0.23037000  1.0
  C  C70  1  0.12441000  0.17697000  0.86780000  1.0
  C  C71  1  0.87559000  0.82303000  0.13220000  1.0
  C  C72  1  0.25160000  0.04174000  0.91757000  1.0
  C  C73  1  0.74839000  0.95826000  0.08244000  1.0
  C  C74  1  0.37840000  0.95997000  0.86243000  1.0
  C  C75  1  0.62161000  0.04002000  0.13757000  1.0
  C  C76  1  0.37359000  0.01373000  0.76447000  1.0
  C  C77  1  0.62641000  0.98626000  0.23554000  1.0
  C  C78  1  0.25134000  0.98836000  0.02178000  1.0
  C  C79  1  0.74866000  0.01164000  0.97822000  1.0
  C  C80  1  0.10567000  0.04521000  0.07350000  1.0
  C  C81  1  0.89433000  0.95479000  0.92650000  1.0
  C  C82  1  0.10496000  0.99465000  0.17185000  1.0
  C  C83  1  0.89504000  0.00536000  0.82815000  1.0
  C  C84  1  0.24941000  0.88488000  0.22081000  1.0
  C  C85  1  0.75059000  0.11513000  0.77920000  1.0
  C  C86  1  0.39487000  0.82706000  0.17046000  1.0
  C  C87  1  0.60512000  0.17295000  0.82954000  1.0
  C  C88  1  0.39606000  0.87880000  0.07213000  1.0
  C  C89  1  0.60394000  0.12120000  0.92787000  1.0
  C  C90  1  0.33558000  0.48746000  0.59184000  1.0
  C  C91  1  0.66443000  0.51254000  0.40816000  1.0
  C  C92  1  0.27482000  0.64313000  0.59824000  1.0
  C  C93  1  0.72519000  0.35688000  0.40175000  1.0
  C  C94  1  0.21915000  0.77746000  0.59570000  1.0
  C  C95  1  0.78085000  0.22254000  0.40429000  1.0
  C  C96  1  0.15831000  0.93983000  0.58491000  1.0
  C  C97  1  0.84168000  0.06017000  0.41509000  1.0
  N  N98  1  0.25332000  0.30247000  0.38497000  1.0
  N  N99  1  0.74668000  0.69753000  0.61503000  1.0
  N  N100  1  0.25061000  0.14323000  0.71826000  1.0
  N  N101  1  0.74939000  0.85676000  0.28174000  1.0
  O  O102  1  0.52841000  0.13245000  0.58032000  1.0
  O  O103  1  0.47159000  0.86754000  0.41968000  1.0
  O  O104  1  0.96957000  0.30448000  0.57723000  1.0
  O  O105  1  0.03043000  0.69551000  0.42277000  1.0
  O  O106  1  0.23270000  0.46393000  0.55324000  1.0
  O  O107  1  0.76731000  0.53606000  0.44676000  1.0
  O  O108  1  0.47798000  0.39269000  0.62184000  1.0
  O  O109  1  0.52203000  0.60731000  0.37816000  1.0
  O  O110  1  0.26001000  0.99502000  0.54336000  1.0
  O  O111  1  0.73999000  0.00498000  0.45663000  1.0
  O  O112  1  0.01697000  0.01102000  0.61492000  1.0
  O  O113  1  0.98303000  0.98898000  0.38507000  1.0
