# generated using pymatgen
data_CuH9C13N2O
_symmetry_space_group_name_H-M   'P 1'
_cell_length_a   8.90129000
_cell_length_b   9.02984000
_cell_length_c   13.77850000
_cell_angle_alpha   79.28500000
_cell_angle_beta   89.99970000
_cell_angle_gamma   89.99950000
_symmetry_Int_Tables_number   1
_chemical_formula_structural   CuH9C13N2O
_chemical_formula_sum   'Cu4 H36 C52 N8 O4'
_cell_volume   1088.16778059
_cell_formula_units_Z   4
loop_
 _symmetry_equiv_pos_site_id
 _symmetry_equiv_pos_as_xyz
  1  'x, y, z'
loop_
 _atom_site_type_symbol
 _atom_site_label
 _atom_site_symmetry_multiplicity
 _atom_site_fract_x
 _atom_site_fract_y
 _atom_site_fract_z
 _atom_site_occupancy
  Cu  Cu0  1  0.63349000  0.87725000  0.80031000  1.0
  Cu  Cu1  1  0.13350000  0.62276000  0.19968000  1.0
  Cu  Cu2  1  0.36650000  0.12276000  0.19967000  1.0
  Cu  Cu3  1  0.86650000  0.37725000  0.80032000  1.0
  H  H4  1  0.49376000  0.67642000  0.98266000  1.0
  H  H5  1  0.99377000  0.82358000  0.01734000  1.0
  H  H6  1  0.50624000  0.32359000  0.01733000  1.0
  H  H7  1  0.00623000  0.17640000  0.98266000  1.0
  H  H8  1  0.24877000  0.54629000  0.02315000  1.0
  H  H9  1  0.74877000  0.95370000  0.97685000  1.0
  H  H10  1  0.75123000  0.45372000  0.97684000  1.0
  H  H11  1  0.25123000  0.04629000  0.02316000  1.0
  H  H12  1  0.03496000  0.60264000  0.89985000  1.0
  H  H13  1  0.53496000  0.89734000  0.10016000  1.0
  H  H14  1  0.96504000  0.39736000  0.10016000  1.0
  H  H15  1  0.46504000  0.10266000  0.89985000  1.0
  H  H16  1  0.07885000  0.78641000  0.74467000  1.0
  H  H17  1  0.57886000  0.71359000  0.25534000  1.0
  H  H18  1  0.92114000  0.21360000  0.25534000  1.0
  H  H19  1  0.42115000  0.28641000  0.74467000  1.0
  H  H20  1  0.07500000  0.04407000  0.73342000  1.0
  H  H21  1  0.57503000  0.45593000  0.26658000  1.0
  H  H22  1  0.92498000  0.95594000  0.26657000  1.0
  H  H23  1  0.42499000  0.54406000  0.73343000  1.0
  H  H24  1  0.90306000  0.19692000  0.61611000  1.0
  H  H25  1  0.40308000  0.30308000  0.38389000  1.0
  H  H26  1  0.09694000  0.80308000  0.38388000  1.0
  H  H27  1  0.59694000  0.69692000  0.61612000  1.0
  H  H28  1  0.96588000  0.25882000  0.43717000  1.0
  H  H29  1  0.46589000  0.24118000  0.56283000  1.0
  H  H30  1  0.03410000  0.74118000  0.56282000  1.0
  H  H31  1  0.53410000  0.75882000  0.43718000  1.0
  H  H32  1  0.19805000  0.15398000  0.37474000  1.0
  H  H33  1  0.69805000  0.34602000  0.62526000  1.0
  H  H34  1  0.80194000  0.84602000  0.62524000  1.0
  H  H35  1  0.30195000  0.65398000  0.37475000  1.0
  H  H36  1  0.37280000  0.99958000  0.49231000  1.0
  H  H37  1  0.87281000  0.50042000  0.50770000  1.0
  H  H38  1  0.62719000  0.00042000  0.50769000  1.0
  H  H39  1  0.12719000  0.49957000  0.49231000  1.0
  C  C40  1  0.72069000  0.06420000  0.80353000  1.0
  C  C41  1  0.22071000  0.43582000  0.19646000  1.0
  C  C42  1  0.27931000  0.93581000  0.19646000  1.0
  C  C43  1  0.77930000  0.56419000  0.80354000  1.0
  C  C44  1  0.39885000  0.69923000  0.93192000  1.0
  C  C45  1  0.89886000  0.80077000  0.06808000  1.0
  C  C46  1  0.60115000  0.30078000  0.06807000  1.0
  C  C47  1  0.10115000  0.19922000  0.93192000  1.0
  C  C48  1  0.26166000  0.62632000  0.95401000  1.0
  C  C49  1  0.76166000  0.87367000  0.04599000  1.0
  C  C50  1  0.73835000  0.37368000  0.04598000  1.0
  C  C51  1  0.23834000  0.12632000  0.95402000  1.0
  C  C52  1  0.14352000  0.65873000  0.88678000  1.0
  C  C53  1  0.64353000  0.84126000  0.11322000  1.0
  C  C54  1  0.85647000  0.34128000  0.11322000  1.0
  C  C55  1  0.35648000  0.15873000  0.88679000  1.0
  C  C56  1  0.16741000  0.76260000  0.79992000  1.0
  C  C57  1  0.66742000  0.73740000  0.20009000  1.0
  C  C58  1  0.83258000  0.23741000  0.20008000  1.0
  C  C59  1  0.33258000  0.26259000  0.79992000  1.0
  C  C60  1  0.30834000  0.83156000  0.78280000  1.0
  C  C61  1  0.80836000  0.66844000  0.21720000  1.0
  C  C62  1  0.69165000  0.16844000  0.21720000  1.0
  C  C63  1  0.19165000  0.33156000  0.78280000  1.0
  C  C64  1  0.35032000  0.93331000  0.68903000  1.0
  C  C65  1  0.85034000  0.56668000  0.31098000  1.0
  C  C66  1  0.64967000  0.06669000  0.31096000  1.0
  C  C67  1  0.14967000  0.43331000  0.68904000  1.0
  C  C68  1  0.23702000  0.01237000  0.62091000  1.0
  C  C69  1  0.73704000  0.48763000  0.37910000  1.0
  C  C70  1  0.76297000  0.98763000  0.37908000  1.0
  C  C71  1  0.26298000  0.51237000  0.62092000  1.0
  C  C72  1  0.10249000  0.06645000  0.65498000  1.0
  C  C73  1  0.60251000  0.43355000  0.34502000  1.0
  C  C74  1  0.89750000  0.93356000  0.34501000  1.0
  C  C75  1  0.39750000  0.56644000  0.65499000  1.0
  C  C76  1  0.00590000  0.15451000  0.58870000  1.0
  C  C77  1  0.50592000  0.34549000  0.41130000  1.0
  C  C78  1  0.99409000  0.84550000  0.41130000  1.0
  C  C79  1  0.49409000  0.65449000  0.58870000  1.0
  C  C80  1  0.04151000  0.18853000  0.48837000  1.0
  C  C81  1  0.54152000  0.31147000  0.51163000  1.0
  C  C82  1  0.95848000  0.81147000  0.51163000  1.0
  C  C83  1  0.45848000  0.68852000  0.48837000  1.0
  C  C84  1  0.17271000  0.13141000  0.45356000  1.0
  C  C85  1  0.67272000  0.36859000  0.54643000  1.0
  C  C86  1  0.82728000  0.86858000  0.54643000  1.0
  C  C87  1  0.32729000  0.63142000  0.45357000  1.0
  C  C88  1  0.27064000  0.04446000  0.51932000  1.0
  C  C89  1  0.77065000  0.45555000  0.48068000  1.0
  C  C90  1  0.72936000  0.95554000  0.48068000  1.0
  C  C91  1  0.22936000  0.54446000  0.51932000  1.0
  N  N92  1  0.76994000  0.18588000  0.80198000  1.0
  N  N93  1  0.26996000  0.31413000  0.19800000  1.0
  N  N94  1  0.23006000  0.81413000  0.19800000  1.0
  N  N95  1  0.73005000  0.68588000  0.80199000  1.0
  N  N96  1  0.42342000  0.79959000  0.84837000  1.0
  N  N97  1  0.92343000  0.70041000  0.15163000  1.0
  N  N98  1  0.57658000  0.20041000  0.15162000  1.0
  N  N99  1  0.07657000  0.29958000  0.84838000  1.0
  O  O100  1  0.48713000  0.94953000  0.66895000  1.0
  O  O101  1  0.98715000  0.55046000  0.33106000  1.0
  O  O102  1  0.51286000  0.05046000  0.33105000  1.0
  O  O103  1  0.01287000  0.44954000  0.66895000  1.0
