# generated using pymatgen
data_HoH18C20N4Cl3
_symmetry_space_group_name_H-M   'P 1'
_cell_length_a   12.68320000
_cell_length_b   14.24490000
_cell_length_c   14.75590000
_cell_angle_alpha   90.00010000
_cell_angle_beta   90.00000000
_cell_angle_gamma   90.00000000
_symmetry_Int_Tables_number   1
_chemical_formula_structural   HoH18C20N4Cl3
_chemical_formula_sum   'Ho4 H72 C80 N16 Cl12'
_cell_volume   2665.96196468
_cell_formula_units_Z   4
loop_
 _symmetry_equiv_pos_site_id
 _symmetry_equiv_pos_as_xyz
  1  'x, y, z'
loop_
 _atom_site_type_symbol
 _atom_site_label
 _atom_site_symmetry_multiplicity
 _atom_site_fract_x
 _atom_site_fract_y
 _atom_site_fract_z
 _atom_site_occupancy
  Ho  Ho0  1  0.16557000  0.33297000  0.36479000  1.0
  Ho  Ho1  1  0.33443000  0.66703000  0.86479000  1.0
  Ho  Ho2  1  0.66557000  0.16703000  0.63521000  1.0
  Ho  Ho3  1  0.83443000  0.83297000  0.13521000  1.0
  H  H4  1  0.08470000  0.89929000  0.64192000  1.0
  H  H5  1  0.41531000  0.10071000  0.14192000  1.0
  H  H6  1  0.58470000  0.60071000  0.35808000  1.0
  H  H7  1  0.91530000  0.39929000  0.85808000  1.0
  H  H8  1  0.12810000  0.77038000  0.74929000  1.0
  H  H9  1  0.37189000  0.22962000  0.24929000  1.0
  H  H10  1  0.62811000  0.72962000  0.25071000  1.0
  H  H11  1  0.87189000  0.27038000  0.75071000  1.0
  H  H12  1  0.40715000  0.99571000  0.67237000  1.0
  H  H13  1  0.09285000  0.00429000  0.17237000  1.0
  H  H14  1  0.90715000  0.50429000  0.32763000  1.0
  H  H15  1  0.59285000  0.49571000  0.82763000  1.0
  H  H16  1  0.31981000  0.32473000  0.55308000  1.0
  H  H17  1  0.18019000  0.67527000  0.05308000  1.0
  H  H18  1  0.81981000  0.17527000  0.44692000  1.0
  H  H19  1  0.68019000  0.82473000  0.94692000  1.0
  H  H20  1  0.32297000  0.36330000  0.71753000  1.0
  H  H21  1  0.17703000  0.63670000  0.21753000  1.0
  H  H22  1  0.82297000  0.13670000  0.28247000  1.0
  H  H23  1  0.67703000  0.86330000  0.78247000  1.0
  H  H24  1  0.30944000  0.36363000  0.17393000  1.0
  H  H25  1  0.19056000  0.63637000  0.67393000  1.0
  H  H26  1  0.80944000  0.13637000  0.82607000  1.0
  H  H27  1  0.69056000  0.86363000  0.32607000  1.0
  H  H28  1  0.03398000  0.18795000  0.50752000  1.0
  H  H29  1  0.46602000  0.81205000  0.00752000  1.0
  H  H30  1  0.53398000  0.31205000  0.49248000  1.0
  H  H31  1  0.96602000  0.68795000  0.99248000  1.0
  H  H32  1  0.34520000  0.17004000  0.42288000  1.0
  H  H33  1  0.15480000  0.82996000  0.92288000  1.0
  H  H34  1  0.84520000  0.32996000  0.57712000  1.0
  H  H35  1  0.65480000  0.67004000  0.07712000  1.0
  H  H36  1  0.16290000  0.43478000  0.78863000  1.0
  H  H37  1  0.33710000  0.56523000  0.28863000  1.0
  H  H38  1  0.66290000  0.06523000  0.21137000  1.0
  H  H39  1  0.83710000  0.93478000  0.71138000  1.0
  H  H40  1  0.98778000  0.39303000  0.21208000  1.0
  H  H41  1  0.51222000  0.60697000  0.71208000  1.0
  H  H42  1  0.48778000  0.10697000  0.78792000  1.0
  H  H43  1  0.01222000  0.89303000  0.28792000  1.0
  H  H44  1  0.38076000  0.03692000  0.52844000  1.0
  H  H45  1  0.11924000  0.96308000  0.02844000  1.0
  H  H46  1  0.88076000  0.46308000  0.47156000  1.0
  H  H47  1  0.61924000  0.53692000  0.97156000  1.0
  H  H48  1  0.05683000  0.05998000  0.61762000  1.0
  H  H49  1  0.44317000  0.94002000  0.11762000  1.0
  H  H50  1  0.55683000  0.44002000  0.38238000  1.0
  H  H51  1  0.94317000  0.55998000  0.88238000  1.0
  H  H52  1  0.01293000  0.41924000  0.52603000  1.0
  H  H53  1  0.48707000  0.58076000  0.02603000  1.0
  H  H54  1  0.51293000  0.08076000  0.47397000  1.0
  H  H55  1  0.98707000  0.91924000  0.97397000  1.0
  H  H56  1  0.00158000  0.46041000  0.69066000  1.0
  H  H57  1  0.49842000  0.53959000  0.19066000  1.0
  H  H58  1  0.50158000  0.03959000  0.30934000  1.0
  H  H59  1  0.99842000  0.96041000  0.80934000  1.0
  H  H60  1  0.43698000  0.86131000  0.77526000  1.0
  H  H61  1  0.06302000  0.13869000  0.27526000  1.0
  H  H62  1  0.93698000  0.63869000  0.22474000  1.0
  H  H63  1  0.56302000  0.36131000  0.72474000  1.0
  H  H64  1  0.96167000  0.44821000  0.05285000  1.0
  H  H65  1  0.53833000  0.55179000  0.55285000  1.0
  H  H66  1  0.46167000  0.05179000  0.94715000  1.0
  H  H67  1  0.03834000  0.94821000  0.44715000  1.0
  H  H68  1  0.29642000  0.41396000  0.01113000  1.0
  H  H69  1  0.20358000  0.58604000  0.51113000  1.0
  H  H70  1  0.79642000  0.08604000  0.98887000  1.0
  H  H71  1  0.70358000  0.91396000  0.48887000  1.0
  H  H72  1  0.12076000  0.46058000  0.95031000  1.0
  H  H73  1  0.37924000  0.53942000  0.45031000  1.0
  H  H74  1  0.62076000  0.03942000  0.04969000  1.0
  H  H75  1  0.87924000  0.96058000  0.54969000  1.0
  C  C76  1  0.24236000  0.95951000  0.64709000  1.0
  C  C77  1  0.25764000  0.04049000  0.14709000  1.0
  C  C78  1  0.74236000  0.54049000  0.35291000  1.0
  C  C79  1  0.75764000  0.45951000  0.85291000  1.0
  C  C80  1  0.16368000  0.89484000  0.67076000  1.0
  C  C81  1  0.33632000  0.10516000  0.17076000  1.0
  C  C82  1  0.66368000  0.60516000  0.32924000  1.0
  C  C83  1  0.83632000  0.39484000  0.82924000  1.0
  C  C84  1  0.18773000  0.82179000  0.72964000  1.0
  C  C85  1  0.31227000  0.17821000  0.22964000  1.0
  C  C86  1  0.68773000  0.67821000  0.27036000  1.0
  C  C87  1  0.81227000  0.32179000  0.77036000  1.0
  C  C88  1  0.34215000  0.94775000  0.68662000  1.0
  C  C89  1  0.15785000  0.05225000  0.18662000  1.0
  C  C90  1  0.84215000  0.55225000  0.31338000  1.0
  C  C91  1  0.65785000  0.44775000  0.81338000  1.0
  C  C92  1  0.22217000  0.03608000  0.58228000  1.0
  C  C93  1  0.27783000  0.96392000  0.08228000  1.0
  C  C94  1  0.72217000  0.46392000  0.41772000  1.0
  C  C95  1  0.77783000  0.53608000  0.91772000  1.0
  C  C96  1  0.25044000  0.35461000  0.58583000  1.0
  C  C97  1  0.24956000  0.64539000  0.08583000  1.0
  C  C98  1  0.75044000  0.14539000  0.41417000  1.0
  C  C99  1  0.74956000  0.85461000  0.91417000  1.0
  C  C100  1  0.25189000  0.37566000  0.67798000  1.0
  C  C101  1  0.24811000  0.62434000  0.17798000  1.0
  C  C102  1  0.75189000  0.12434000  0.32202000  1.0
  C  C103  1  0.74811000  0.87566000  0.82202000  1.0
  C  C104  1  0.23337000  0.38092000  0.14373000  1.0
  C  C105  1  0.26662000  0.61908000  0.64373000  1.0
  C  C106  1  0.73338000  0.11908000  0.85627000  1.0
  C  C107  1  0.76662000  0.88092000  0.35627000  1.0
  C  C108  1  0.11001000  0.15278000  0.51374000  1.0
  C  C109  1  0.38999000  0.84722000  0.01374000  1.0
  C  C110  1  0.61001000  0.34722000  0.48626000  1.0
  C  C111  1  0.88999000  0.65278000  0.98626000  1.0
  C  C112  1  0.28289000  0.14218000  0.46623000  1.0
  C  C113  1  0.21711000  0.85782000  0.96623000  1.0
  C  C114  1  0.78289000  0.35782000  0.53377000  1.0
  C  C115  1  0.71711000  0.64218000  0.03377000  1.0
  C  C116  1  0.16217000  0.41458000  0.71740000  1.0
  C  C117  1  0.33783000  0.58541000  0.21740000  1.0
  C  C118  1  0.66217000  0.08542000  0.28260000  1.0
  C  C119  1  0.83783000  0.91458000  0.78261000  1.0
  C  C120  1  0.05408000  0.39883000  0.16534000  1.0
  C  C121  1  0.44592000  0.60117000  0.66534000  1.0
  C  C122  1  0.55408000  0.10117000  0.83466000  1.0
  C  C123  1  0.94592000  0.89883000  0.33466000  1.0
  C  C124  1  0.30277000  0.06860000  0.52548000  1.0
  C  C125  1  0.19723000  0.93140000  0.02549000  1.0
  C  C126  1  0.80277000  0.43140000  0.47452000  1.0
  C  C127  1  0.69723000  0.56860000  0.97451000  1.0
  C  C128  1  0.12342000  0.07957000  0.57494000  1.0
  C  C129  1  0.37658000  0.92043000  0.07494000  1.0
  C  C130  1  0.62342000  0.42043000  0.42506000  1.0
  C  C131  1  0.87658000  0.57957000  0.92506000  1.0
  C  C132  1  0.07901000  0.40695000  0.57154000  1.0
  C  C133  1  0.42099000  0.59305000  0.07154000  1.0
  C  C134  1  0.57901000  0.09305000  0.42846000  1.0
  C  C135  1  0.92099000  0.90695000  0.92846000  1.0
  C  C136  1  0.07360000  0.42981000  0.66311000  1.0
  C  C137  1  0.42640000  0.57018000  0.16311000  1.0
  C  C138  1  0.57360000  0.07018000  0.33689000  1.0
  C  C139  1  0.92640000  0.92981000  0.83689000  1.0
  C  C140  1  0.35959000  0.87246000  0.74467000  1.0
  C  C141  1  0.14041000  0.12754000  0.24467000  1.0
  C  C142  1  0.85959000  0.62754000  0.25533000  1.0
  C  C143  1  0.64041000  0.37246000  0.75533000  1.0
  C  C144  1  0.04014000  0.42870000  0.07631000  1.0
  C  C145  1  0.45986000  0.57130000  0.57631000  1.0
  C  C146  1  0.54014000  0.07130000  0.92369000  1.0
  C  C147  1  0.95986000  0.92870000  0.42369000  1.0
  C  C148  1  0.22623000  0.40904000  0.05361000  1.0
  C  C149  1  0.27377000  0.59096000  0.55361000  1.0
  C  C150  1  0.72623000  0.09096000  0.94639000  1.0
  C  C151  1  0.77377000  0.90904000  0.44640000  1.0
  C  C152  1  0.12776000  0.43431000  0.01943000  1.0
  C  C153  1  0.37225000  0.56569000  0.51943000  1.0
  C  C154  1  0.62775000  0.06569000  0.98057000  1.0
  C  C155  1  0.87225000  0.93431000  0.48057000  1.0
  N  N156  1  0.18825000  0.18469000  0.46008000  1.0
  N  N157  1  0.31175000  0.81531000  0.96008000  1.0
  N  N158  1  0.68825000  0.31531000  0.53992000  1.0
  N  N159  1  0.81175000  0.68469000  0.03992000  1.0
  N  N160  1  0.16583000  0.37029000  0.53265000  1.0
  N  N161  1  0.33417000  0.62971000  0.03265000  1.0
  N  N162  1  0.66583000  0.12971000  0.46735000  1.0
  N  N163  1  0.83417000  0.87029000  0.96735000  1.0
  N  N164  1  0.14924000  0.37551000  0.19933000  1.0
  N  N165  1  0.35076000  0.62449000  0.69933000  1.0
  N  N166  1  0.64924000  0.12449000  0.80067000  1.0
  N  N167  1  0.85076000  0.87551000  0.30067000  1.0
  N  N168  1  0.28436000  0.80913000  0.76580000  1.0
  N  N169  1  0.21563000  0.19087000  0.26580000  1.0
  N  N170  1  0.78437000  0.69087000  0.23420000  1.0
  N  N171  1  0.71563000  0.30913000  0.73420000  1.0
  Cl  Cl172  1  0.36819000  0.36213000  0.36268000  1.0
  Cl  Cl173  1  0.13181000  0.63787000  0.86268000  1.0
  Cl  Cl174  1  0.86819000  0.13787000  0.63732000  1.0
  Cl  Cl175  1  0.63181000  0.86213000  0.13732000  1.0
  Cl  Cl176  1  0.97030000  0.28225000  0.36054000  1.0
  Cl  Cl177  1  0.52970000  0.71775000  0.86055000  1.0
  Cl  Cl178  1  0.47030000  0.21775000  0.63945000  1.0
  Cl  Cl179  1  0.02970000  0.78225000  0.13945000  1.0
  Cl  Cl180  1  0.11282000  0.51052000  0.36845000  1.0
  Cl  Cl181  1  0.38718000  0.48948000  0.86845000  1.0
  Cl  Cl182  1  0.61282000  0.98948000  0.63155000  1.0
  Cl  Cl183  1  0.88718000  0.01052000  0.13155000  1.0
