# generated using pymatgen
data_FeH2C7N3ClO2
_symmetry_space_group_name_H-M   'P 1'
_cell_length_a   7.94090000
_cell_length_b   22.18420000
_cell_length_c   22.18420000
_cell_angle_alpha   118.60200000
_cell_angle_beta   96.85310000
_cell_angle_gamma   96.85310000
_symmetry_Int_Tables_number   1
_chemical_formula_structural   FeH2C7N3ClO2
_chemical_formula_sum   'Fe6 H12 C42 N18 Cl6 O12'
_cell_volume   3336.07951880
_cell_formula_units_Z   6
loop_
 _symmetry_equiv_pos_site_id
 _symmetry_equiv_pos_as_xyz
  1  'x, y, z'
loop_
 _atom_site_type_symbol
 _atom_site_label
 _atom_site_symmetry_multiplicity
 _atom_site_fract_x
 _atom_site_fract_y
 _atom_site_fract_z
 _atom_site_occupancy
  Fe  Fe0  1  0.19887000  0.39773000  0.69887000  1.0
  Fe  Fe1  1  0.80113000  0.30113000  0.60227000  1.0
  Fe  Fe2  1  0.50000000  0.30115000  0.69885000  1.0
  Fe  Fe3  1  0.80113000  0.60227000  0.30113000  1.0
  Fe  Fe4  1  0.19887000  0.69887000  0.39773000  1.0
  Fe  Fe5  1  0.50000000  0.69885000  0.30115000  1.0
  H  H6  1  0.24121000  0.48634000  0.60807000  1.0
  H  H7  1  0.75879000  0.39193000  0.51366000  1.0
  H  H8  1  0.63320000  0.39192000  0.87829000  1.0
  H  H9  1  0.75485000  0.12173000  0.51362000  1.0
  H  H10  1  0.24514000  0.48638000  0.87827000  1.0
  H  H11  1  0.36680000  0.12171000  0.60808000  1.0
  H  H12  1  0.75879000  0.51366000  0.39193000  1.0
  H  H13  1  0.24121000  0.60807000  0.48634000  1.0
  H  H14  1  0.36680000  0.60808000  0.12171000  1.0
  H  H15  1  0.24515000  0.87827000  0.48638000  1.0
  H  H16  1  0.75485000  0.51362000  0.12173000  1.0
  H  H17  1  0.63320000  0.87829000  0.39192000  1.0
  C  C18  1  0.42730000  0.42002000  0.60633000  1.0
  C  C19  1  0.57270000  0.39367000  0.57998000  1.0
  C  C20  1  0.82102000  0.39365000  0.81370000  1.0
  C  C21  1  0.00727000  0.18629000  0.57995000  1.0
  C  C22  1  0.99273000  0.42005000  0.81371000  1.0
  C  C23  1  0.17898000  0.18630000  0.60635000  1.0
  C  C24  1  0.57270000  0.57998000  0.39367000  1.0
  C  C25  1  0.42730000  0.60633000  0.42002000  1.0
  C  C26  1  0.17898000  0.60635000  0.18630000  1.0
  C  C27  1  0.99274000  0.81371000  0.42005000  1.0
  C  C28  1  0.00726000  0.57995000  0.18629000  1.0
  C  C29  1  0.82102000  0.81370000  0.39365000  1.0
  C  C30  1  0.35274000  0.46529000  0.58880000  1.0
  C  C31  1  0.64726000  0.41120000  0.53471000  1.0
  C  C32  1  0.76401000  0.41116000  0.87651000  1.0
  C  C33  1  0.88741000  0.12349000  0.53466000  1.0
  C  C34  1  0.11259000  0.46534000  0.87651000  1.0
  C  C35  1  0.23599000  0.12349000  0.58884000  1.0
  C  C36  1  0.64726000  0.53471000  0.41120000  1.0
  C  C37  1  0.35274000  0.58880000  0.46529000  1.0
  C  C38  1  0.23599000  0.58884000  0.12349000  1.0
  C  C39  1  0.11259000  0.87651000  0.46534000  1.0
  C  C40  1  0.88741000  0.53466000  0.12349000  1.0
  C  C41  1  0.76402000  0.87651000  0.41116000  1.0
  C  C42  1  0.42719000  0.48235000  0.54437000  1.0
  C  C43  1  0.57280000  0.45563000  0.51765000  1.0
  C  C44  1  0.88291000  0.45560000  0.93798000  1.0
  C  C45  1  0.94480000  0.06201000  0.51762000  1.0
  C  C46  1  0.05520000  0.48238000  0.93799000  1.0
  C  C47  1  0.11709000  0.06202000  0.54440000  1.0
  C  C48  1  0.57280000  0.51765000  0.45563000  1.0
  C  C49  1  0.42719000  0.54437000  0.48235000  1.0
  C  C50  1  0.11709000  0.54440000  0.06202000  1.0
  C  C51  1  0.05520000  0.93799000  0.48238000  1.0
  C  C52  1  0.94480000  0.51762000  0.06201000  1.0
  C  C53  1  0.88291000  0.93798000  0.45560000  1.0
  C  C54  1  0.24482000  0.48965000  0.74485000  1.0
  C  C55  1  0.75518000  0.25514000  0.51035000  1.0
  C  C56  1  0.50000000  0.25520000  0.74480000  1.0
  C  C57  1  0.75518000  0.51035000  0.25514000  1.0
  C  C58  1  0.24482000  0.74485000  0.48965000  1.0
  C  C59  1  0.50000000  0.74480000  0.25520000  1.0
  N  N60  1  0.38618000  0.39279000  0.64768000  1.0
  N  N61  1  0.61382000  0.35232000  0.60721000  1.0
  N  N62  1  0.73854000  0.35232000  0.74512000  1.0
  N  N63  1  0.99339000  0.25487000  0.60719000  1.0
  N  N64  1  0.00661000  0.39281000  0.74513000  1.0
  N  N65  1  0.26146000  0.25488000  0.64768000  1.0
  N  N66  1  0.61382000  0.60721000  0.35232000  1.0
  N  N67  1  0.38618000  0.64768000  0.39279000  1.0
  N  N68  1  0.26146000  0.64768000  0.25488000  1.0
  N  N69  1  0.00661000  0.74513000  0.39281000  1.0
  N  N70  1  0.99339000  0.60719000  0.25487000  1.0
  N  N71  1  0.73854000  0.74512000  0.35232000  1.0
  N  N72  1  0.50000000  0.35298000  0.64703000  1.0
  N  N73  1  0.85299000  0.35298000  0.70595000  1.0
  N  N74  1  0.14701000  0.29405000  0.64702000  1.0
  N  N75  1  0.50000000  0.64702000  0.35298000  1.0
  N  N76  1  0.14701000  0.64702000  0.29405000  1.0
  N  N77  1  0.85299000  0.70595000  0.35298000  1.0
  Cl  Cl78  1  0.38910000  0.38909000  0.77816000  1.0
  Cl  Cl79  1  0.61090000  0.22184000  0.61091000  1.0
  Cl  Cl80  1  0.00000000  0.38907000  0.61093000  1.0
  Cl  Cl81  1  0.61090000  0.61091000  0.22184000  1.0
  Cl  Cl82  1  0.38910000  0.77816000  0.38909000  1.0
  Cl  Cl83  1  0.00000000  0.61093000  0.38907000  1.0
  O  O84  1  0.35448000  0.52651000  0.52651000  1.0
  O  O85  1  0.64551000  0.47349000  0.47349000  1.0
  O  O86  1  0.82797000  0.47346000  0.99998000  1.0
  O  O87  1  0.82797000  0.99998000  0.47346000  1.0
  O  O88  1  0.17203000  0.52654000  0.00002000  1.0
  O  O89  1  0.17203000  0.00002000  0.52654000  1.0
  O  O90  1  0.27531000  0.55070000  0.77542000  1.0
  O  O91  1  0.72469000  0.22458000  0.44930000  1.0
  O  O92  1  0.50000000  0.22468000  0.77532000  1.0
  O  O93  1  0.72469000  0.44930000  0.22458000  1.0
  O  O94  1  0.27531000  0.77542000  0.55070000  1.0
  O  O95  1  0.50000000  0.77532000  0.22468000  1.0
