# generated using pymatgen
data_CdH8C12I2N4O
_symmetry_space_group_name_H-M   'P 1'
_cell_length_a   6.76811000
_cell_length_b   8.75069000
_cell_length_c   14.73570000
_cell_angle_alpha   89.99980000
_cell_angle_beta   89.99870000
_cell_angle_gamma   112.58400000
_symmetry_Int_Tables_number   1
_chemical_formula_structural   CdH8C12I2N4O
_chemical_formula_sum   'Cd2 H16 C24 I4 N8 O2'
_cell_volume   805.80794291
_cell_formula_units_Z   2
loop_
 _symmetry_equiv_pos_site_id
 _symmetry_equiv_pos_as_xyz
  1  'x, y, z'
loop_
 _atom_site_type_symbol
 _atom_site_label
 _atom_site_symmetry_multiplicity
 _atom_site_fract_x
 _atom_site_fract_y
 _atom_site_fract_z
 _atom_site_occupancy
  Cd  Cd0  1  0.07339000  0.48516000  0.30663000  1.0
  Cd  Cd1  1  0.92660000  0.51485000  0.80662000  1.0
  H  H2  1  0.35792000  0.88981000  0.25953000  1.0
  H  H3  1  0.64210000  0.11020000  0.75953000  1.0
  H  H4  1  0.54047000  0.07746000  0.12891000  1.0
  H  H5  1  0.45955000  0.92253000  0.62892000  1.0
  H  H6  1  0.55757000  0.94969000  0.97859000  1.0
  H  H7  1  0.44241000  0.05028000  0.47860000  1.0
  H  H8  1  0.40115000  0.63887000  0.96390000  1.0
  H  H9  1  0.59881000  0.36109000  0.46389000  1.0
  H  H10  1  0.17403000  0.17561000  0.87735000  1.0
  H  H11  1  0.82597000  0.82440000  0.37736000  1.0
  H  H12  1  0.09357000  0.91958000  0.78458000  1.0
  H  H13  1  0.90646000  0.08041000  0.28458000  1.0
  H  H14  1  0.84879000  0.61449000  0.00694000  1.0
  H  H15  1  0.15118000  0.38553000  0.50693000  1.0
  H  H16  1  0.92404000  0.85702000  0.11035000  1.0
  H  H17  1  0.07595000  0.14301000  0.61034000  1.0
  C  C18  1  0.37040000  0.84041000  0.19259000  1.0
  C  C19  1  0.62962000  0.15959000  0.69259000  1.0
  C  C20  1  0.47204000  0.94343000  0.11994000  1.0
  C  C21  1  0.52797000  0.05655000  0.61995000  1.0
  C  C22  1  0.48258000  0.87148000  0.03658000  1.0
  C  C23  1  0.51740000  0.12850000  0.53658000  1.0
  C  C24  1  0.39545000  0.69967000  0.02801000  1.0
  C  C25  1  0.60452000  0.30031000  0.52801000  1.0
  C  C26  1  0.29840000  0.60691000  0.10442000  1.0
  C  C27  1  0.70159000  0.39309000  0.60441000  1.0
  C  C28  1  0.20392000  0.42754000  0.10458000  1.0
  C  C29  1  0.79607000  0.57245000  0.60457000  1.0
  C  C30  1  0.09743000  0.17598000  0.06100000  1.0
  C  C31  1  0.90258000  0.82403000  0.56100000  1.0
  C  C32  1  0.05680000  0.03557000  0.00170000  1.0
  C  C33  1  0.94321000  0.96445000  0.50170000  1.0
  C  C34  1  0.10445000  0.05372000  0.90884000  1.0
  C  C35  1  0.89555000  0.94629000  0.40884000  1.0
  C  C36  1  0.06024000  0.91126000  0.85715000  1.0
  C  C37  1  0.93978000  0.08875000  0.35715000  1.0
  C  C38  1  0.92332000  0.74120000  0.98156000  1.0
  C  C39  1  0.07667000  0.25881000  0.48155000  1.0
  C  C40  1  0.96399000  0.87586000  0.03855000  1.0
  C  C41  1  0.03601000  0.12416000  0.53855000  1.0
  I  I42  1  0.66267000  0.46397000  0.26508000  1.0
  I  I43  1  0.33734000  0.53604000  0.76510000  1.0
  I  I44  1  0.30719000  0.70704000  0.44027000  1.0
  I  I45  1  0.69285000  0.29298000  0.94028000  1.0
  N  N46  1  0.28392000  0.67567000  0.18508000  1.0
  N  N47  1  0.71610000  0.32432000  0.68507000  1.0
  N  N48  1  0.10917000  0.33401000  0.17398000  1.0
  N  N49  1  0.89082000  0.66598000  0.67397000  1.0
  N  N50  1  0.04021000  0.17218000  0.14632000  1.0
  N  N51  1  0.95979000  0.82780000  0.64632000  1.0
  N  N52  1  0.97148000  0.75779000  0.89253000  1.0
  N  N53  1  0.02852000  0.24221000  0.39252000  1.0
  O  O54  1  0.20417000  0.33508000  0.03087000  1.0
  O  O55  1  0.79583000  0.66493000  0.53087000  1.0
