# generated using pymatgen
data_ZnH10C17IN3O4
_symmetry_space_group_name_H-M   'P 1'
_cell_length_a   10.89770000
_cell_length_b   15.89070000
_cell_length_c   17.25550000
_cell_angle_alpha   92.65740000
_cell_angle_beta   90.37060000
_cell_angle_gamma   91.51700000
_symmetry_Int_Tables_number   1
_chemical_formula_structural   ZnH10C17IN3O4
_chemical_formula_sum   'Zn2 H20 C34 I2 N6 O8'
_cell_volume   2983.82264497
_cell_formula_units_Z   2
loop_
 _symmetry_equiv_pos_site_id
 _symmetry_equiv_pos_as_xyz
  1  'x, y, z'
loop_
 _atom_site_type_symbol
 _atom_site_label
 _atom_site_symmetry_multiplicity
 _atom_site_fract_x
 _atom_site_fract_y
 _atom_site_fract_z
 _atom_site_occupancy
  Zn  Zn0  1  0.50329000  0.58749000  0.49734000  1.0
  Zn  Zn1  1  0.49026000  0.41264000  0.50140000  1.0
  H  H2  1  0.91186000  0.57964000  0.61122000  1.0
  H  H3  1  0.07181000  0.44131000  0.61999000  1.0
  H  H4  1  0.48309000  0.61286000  0.25058000  1.0
  H  H5  1  0.55739000  0.38830000  0.74476000  1.0
  H  H6  1  0.50364000  0.60676000  0.10480000  1.0
  H  H7  1  0.57326000  0.39463000  0.89101000  1.0
  H  H8  1  0.50917000  0.65546000  0.74851000  1.0
  H  H9  1  0.53016000  0.34582000  0.25228000  1.0
  H  H10  1  0.37830000  0.72888000  0.57406000  1.0
  H  H11  1  0.61604000  0.27184000  0.42550000  1.0
  H  H12  1  0.38239000  0.88832000  0.57439000  1.0
  H  H13  1  0.08175000  0.42006000  0.38894000  1.0
  H  H14  1  0.61521000  0.11247000  0.42649000  1.0
  H  H15  1  0.33324000  0.12807000  0.60046000  1.0
  H  H16  1  0.66541000  0.87177000  0.40114000  1.0
  H  H17  1  0.34479000  0.28735000  0.59150000  1.0
  H  H18  1  0.64998000  0.71237000  0.40843000  1.0
  H  H19  1  0.06746000  0.64799000  0.49630000  1.0
  H  H20  1  0.92613000  0.35174000  0.50391000  1.0
  H  H21  1  0.92178000  0.55839000  0.38030000  1.0
  C  C22  1  0.51469000  0.51664000  0.65207000  1.0
  C  C23  1  0.44007000  0.76383000  0.53703000  1.0
  C  C24  1  0.55488000  0.14949000  0.46380000  1.0
  C  C25  1  0.44228000  0.85106000  0.53698000  1.0
  C  C26  1  0.47378000  0.10959000  0.51419000  1.0
  C  C27  1  0.52449000  0.89076000  0.48712000  1.0
  C  C28  1  0.39655000  0.15856000  0.56126000  1.0
  C  C29  1  0.60114000  0.84150000  0.43989000  1.0
  C  C30  1  0.40284000  0.24579000  0.55659000  1.0
  C  C31  1  0.59275000  0.75419000  0.44366000  1.0
  C  C32  1  0.25798000  0.50613000  0.50414000  1.0
  C  C33  1  0.49536000  0.48413000  0.34639000  1.0
  C  C34  1  0.73609000  0.49333000  0.49543000  1.0
  C  C35  1  0.03521000  0.58233000  0.49799000  1.0
  C  C36  1  0.95861000  0.41735000  0.50222000  1.0
  C  C37  1  0.95163000  0.54444000  0.56192000  1.0
  C  C38  1  0.04212000  0.45522000  0.43827000  1.0
  C  C39  1  0.87244000  0.49402000  0.49760000  1.0
  C  C40  1  0.12151000  0.50562000  0.50261000  1.0
  C  C41  1  0.95682000  0.53265000  0.43361000  1.0
  C  C42  1  0.03701000  0.46702000  0.56660000  1.0
  C  C43  1  0.52989000  0.52129000  0.73884000  1.0
  C  C44  1  0.54713000  0.52807000  0.90145000  1.0
  C  C45  1  0.50614000  0.47979000  0.25946000  1.0
  C  C46  1  0.54970000  0.44753000  0.77853000  1.0
  C  C47  1  0.49896000  0.55373000  0.21821000  1.0
  C  C48  1  0.55850000  0.45089000  0.85867000  1.0
  C  C49  1  0.51056000  0.55056000  0.13834000  1.0
  C  C50  1  0.53027000  0.47331000  0.09725000  1.0
  C  C51  1  0.53192000  0.60224000  0.86096000  1.0
  C  C52  1  0.53717000  0.39937000  0.13908000  1.0
  C  C53  1  0.52288000  0.59883000  0.78032000  1.0
  C  C54  1  0.52510000  0.40255000  0.21949000  1.0
  C  C55  1  0.55522000  0.23665000  0.46293000  1.0
  I  I56  1  0.51555000  0.71950000  0.92173000  1.0
  I  I57  1  0.56983000  0.28268000  0.08096000  1.0
  N  N58  1  0.54964000  0.53510000  0.98291000  1.0
  N  N59  1  0.53564000  0.46588000  0.01590000  1.0
  N  N60  1  0.48061000  0.28371000  0.50833000  1.0
  N  N61  1  0.51375000  0.71650000  0.49126000  1.0
  N  N62  1  0.46207000  0.02110000  0.52119000  1.0
  N  N63  1  0.53703000  0.97928000  0.48043000  1.0
  O  O64  1  0.51074000  0.58593000  0.61808000  1.0
  O  O65  1  0.48907000  0.41484000  0.38048000  1.0
  O  O66  1  0.50630000  0.44301000  0.61975000  1.0
  O  O67  1  0.49450000  0.55775000  0.37887000  1.0
  O  O68  1  0.31547000  0.57692000  0.50274000  1.0
  O  O69  1  0.67880000  0.42241000  0.49592000  1.0
  O  O70  1  0.30682000  0.43402000  0.50608000  1.0
  O  O71  1  0.68721000  0.56544000  0.49376000  1.0
