# generated using pymatgen
data_CoH12C14S2(N3O2)2
_symmetry_space_group_name_H-M   'P 1'
_cell_length_a   8.83473000
_cell_length_b   10.62550000
_cell_length_c   12.06700000
_cell_angle_alpha   90.00020000
_cell_angle_beta   90.00070000
_cell_angle_gamma   75.36600000
_symmetry_Int_Tables_number   1
_chemical_formula_structural   CoH12C14S2(N3O2)2
_chemical_formula_sum   'Co2 H24 C28 S4 N12 O8'
_cell_volume   1096.02286634
_cell_formula_units_Z   2
loop_
 _symmetry_equiv_pos_site_id
 _symmetry_equiv_pos_as_xyz
  1  'x, y, z'
loop_
 _atom_site_type_symbol
 _atom_site_label
 _atom_site_symmetry_multiplicity
 _atom_site_fract_x
 _atom_site_fract_y
 _atom_site_fract_z
 _atom_site_occupancy
  Co  Co0  1  0.00000000  0.50000000  0.50000000  1.0
  Co  Co1  1  0.50000000  0.00000000  0.00000000  1.0
  H  H2  1  0.21814000  0.29492000  0.58887000  1.0
  H  H3  1  0.28187000  0.20508000  0.08887000  1.0
  H  H4  1  0.78187000  0.70508000  0.41113000  1.0
  H  H5  1  0.71813000  0.79492000  0.91114000  1.0
  H  H6  1  0.04571000  0.31430000  0.64531000  1.0
  H  H7  1  0.45429000  0.18570000  0.14532000  1.0
  H  H8  1  0.95430000  0.68570000  0.35468000  1.0
  H  H9  1  0.54570000  0.81429000  0.85468000  1.0
  H  H10  1  0.61640000  0.58798000  0.22864000  1.0
  H  H11  1  0.88360000  0.91202000  0.72864000  1.0
  H  H12  1  0.38361000  0.41202000  0.77136000  1.0
  H  H13  1  0.11640000  0.08798000  0.27136000  1.0
  H  H14  1  0.67890000  0.74992000  0.10217000  1.0
  H  H15  1  0.82110000  0.75008000  0.60217000  1.0
  H  H16  1  0.32110000  0.25009000  0.89783000  1.0
  H  H17  1  0.17890000  0.24993000  0.39783000  1.0
  H  H18  1  0.21839000  0.97408000  0.10547000  1.0
  H  H19  1  0.28161000  0.52593000  0.60547000  1.0
  H  H20  1  0.78161000  0.02591000  0.89453000  1.0
  H  H21  1  0.71840000  0.47408000  0.39453000  1.0
  H  H22  1  0.13573000  0.81759000  0.22731000  1.0
  H  H23  1  0.36427000  0.68242000  0.72731000  1.0
  H  H24  1  0.86427000  0.18241000  0.77269000  1.0
  H  H25  1  0.63573000  0.31758000  0.27270000  1.0
  C  C26  1  0.36863000  0.68877000  0.23917000  1.0
  C  C27  1  0.13136000  0.81123000  0.73917000  1.0
  C  C28  1  0.63138000  0.31122000  0.76082000  1.0
  C  C29  1  0.86863000  0.18878000  0.26083000  1.0
  C  C30  1  0.52337000  0.67079000  0.20252000  1.0
  C  C31  1  0.97662000  0.82920000  0.70252000  1.0
  C  C32  1  0.47663000  0.32920000  0.79748000  1.0
  C  C33  1  0.02337000  0.17081000  0.29748000  1.0
  C  C34  1  0.55954000  0.76235000  0.13210000  1.0
  C  C35  1  0.94045000  0.73765000  0.63210000  1.0
  C  C36  1  0.44045000  0.23765000  0.86790000  1.0
  C  C37  1  0.05955000  0.26235000  0.36790000  1.0
  C  C38  1  0.30290000  0.88707000  0.13354000  1.0
  C  C39  1  0.19709000  0.61293000  0.63354000  1.0
  C  C40  1  0.69710000  0.11293000  0.86646000  1.0
  C  C41  1  0.80290000  0.38707000  0.36646000  1.0
  C  C42  1  0.25750000  0.80001000  0.20282000  1.0
  C  C43  1  0.24250000  0.69999000  0.70282000  1.0
  C  C44  1  0.74250000  0.19998000  0.79717000  1.0
  C  C45  1  0.75751000  0.30001000  0.29718000  1.0
  C  C46  1  0.31929000  0.59860000  0.31158000  1.0
  C  C47  1  0.18070000  0.90141000  0.81158000  1.0
  C  C48  1  0.68071000  0.40140000  0.68842000  1.0
  C  C49  1  0.81930000  0.09860000  0.18842000  1.0
  C  C50  1  0.33596000  0.42519000  0.41538000  1.0
  C  C51  1  0.16403000  0.07481000  0.91538000  1.0
  C  C52  1  0.66404000  0.57480000  0.58462000  1.0
  C  C53  1  0.83596000  0.92519000  0.08462000  1.0
  S  S54  1  0.42372000  0.28627000  0.47849000  1.0
  S  S55  1  0.07627000  0.21373000  0.97849000  1.0
  S  S56  1  0.57628000  0.71373000  0.52151000  1.0
  S  S57  1  0.92372000  0.78627000  0.02151000  1.0
  N  N58  1  0.45199000  0.86961000  0.09716000  1.0
  N  N59  1  0.04800000  0.63039000  0.59716000  1.0
  N  N60  1  0.54801000  0.13039000  0.90284000  1.0
  N  N61  1  0.95200000  0.36961000  0.40284000  1.0
  N  N62  1  0.18791000  0.50115000  0.41699000  1.0
  N  N63  1  0.31208000  0.99886000  0.91699000  1.0
  N  N64  1  0.81209000  0.49885000  0.58301000  1.0
  N  N65  1  0.68792000  0.00115000  0.08301000  1.0
  N  N66  1  0.17969000  0.60954000  0.35244000  1.0
  N  N67  1  0.32030000  0.89047000  0.85244000  1.0
  N  N68  1  0.82031000  0.39045000  0.64756000  1.0
  N  N69  1  0.67971000  0.10954000  0.14756000  1.0
  O  O70  1  0.42196000  0.48646000  0.34565000  1.0
  O  O71  1  0.07802000  0.01354000  0.84565000  1.0
  O  O72  1  0.57804000  0.51353000  0.65435000  1.0
  O  O73  1  0.92197000  0.98647000  0.15435000  1.0
  O  O74  1  0.13187000  0.35474000  0.62933000  1.0
  O  O75  1  0.36813000  0.14525000  0.12932000  1.0
  O  O76  1  0.86813000  0.64526000  0.37067000  1.0
  O  O77  1  0.63186000  0.85474000  0.87068000  1.0
