# generated using pymatgen
data_FeH4C14(SN3)2
_symmetry_space_group_name_H-M   'P 1'
_cell_length_a   5.52579000
_cell_length_b   5.93543000
_cell_length_c   11.26750000
_cell_angle_alpha   77.32870000
_cell_angle_beta   82.43370000
_cell_angle_gamma   75.95810000
_symmetry_Int_Tables_number   1
_chemical_formula_structural   FeH4C14(SN3)2
_chemical_formula_sum   'Fe1 H4 C14 S2 N6'
_cell_volume   348.57289291
_cell_formula_units_Z   1
loop_
 _symmetry_equiv_pos_site_id
 _symmetry_equiv_pos_as_xyz
  1  'x, y, z'
loop_
 _atom_site_type_symbol
 _atom_site_label
 _atom_site_symmetry_multiplicity
 _atom_site_fract_x
 _atom_site_fract_y
 _atom_site_fract_z
 _atom_site_occupancy
  Fe  Fe0  1  0.97719000  0.01923000  0.00905000  1.0
  H  H1  1  0.44738000  0.79685000  0.30546000  1.0
  H  H2  1  0.55935000  0.19475000  0.69216000  1.0
  H  H3  1  0.28117000  0.16245000  0.54737000  1.0
  H  H4  1  0.72628000  0.82887000  0.45012000  1.0
  C  C5  1  0.47229000  0.66636000  0.39017000  1.0
  C  C6  1  0.53549000  0.32476000  0.60724000  1.0
  C  C7  1  0.34347000  0.47750000  0.41507000  1.0
  C  C8  1  0.66448000  0.51358000  0.58224000  1.0
  C  C9  1  0.38079000  0.30623000  0.52605000  1.0
  C  C10  1  0.62752000  0.68447000  0.47117000  1.0
  C  C11  1  0.17820000  0.46111000  0.33259000  1.0
  C  C12  1  0.82558000  0.53362000  0.66562000  1.0
  C  C13  1  0.06104000  0.26728000  0.35083000  1.0
  C  C14  1  0.94236000  0.72796000  0.64672000  1.0
  C  C15  1  0.11524000  0.63561000  0.22930000  1.0
  C  C16  1  0.87652000  0.36928000  0.77380000  1.0
  C  C17  1  0.59740000  0.80864000  0.92223000  1.0
  C  C18  1  0.40152000  0.19772000  0.07770000  1.0
  S  S19  1  0.36958000  0.74843000  0.86678000  1.0
  S  S20  1  0.65592000  0.24069000  0.12078000  1.0
  N  N21  1  0.96502000  0.10745000  0.36303000  1.0
  N  N22  1  0.03787000  0.88815000  0.63437000  1.0
  N  N23  1  0.05613000  0.78116000  0.14320000  1.0
  N  N24  1  0.92235000  0.23818000  0.86627000  1.0
  N  N25  1  0.76062000  0.85780000  0.96233000  1.0
  N  N26  1  0.21925000  0.16187000  0.04838000  1.0
