# generated using pymatgen
data_ZnPH5C2N4O3
_symmetry_space_group_name_H-M   'P 1'
_cell_length_a   8.19096000
_cell_length_b   9.16396000
_cell_length_c   9.83727000
_cell_angle_alpha   103.74000000
_cell_angle_beta   90.00000000
_cell_angle_gamma   90.00000000
_symmetry_Int_Tables_number   1
_chemical_formula_structural   ZnPH5C2N4O3
_chemical_formula_sum   'Zn4 P4 H20 C8 N16 O12'
_cell_volume   717.27108075
_cell_formula_units_Z   4
loop_
 _symmetry_equiv_pos_site_id
 _symmetry_equiv_pos_as_xyz
  1  'x, y, z'
loop_
 _atom_site_type_symbol
 _atom_site_label
 _atom_site_symmetry_multiplicity
 _atom_site_fract_x
 _atom_site_fract_y
 _atom_site_fract_z
 _atom_site_occupancy
  Zn  Zn0  1  0.10483000  0.03834000  0.31940000  1.0
  Zn  Zn1  1  0.60483000  0.46166000  0.68060000  1.0
  Zn  Zn2  1  0.89517000  0.96166000  0.68060000  1.0
  Zn  Zn3  1  0.39517000  0.53834000  0.31940000  1.0
  P  P4  1  0.16767000  0.78862000  0.48248000  1.0
  P  P5  1  0.66767000  0.71138000  0.51752000  1.0
  P  P6  1  0.83232000  0.21138000  0.51752000  1.0
  P  P7  1  0.33233000  0.28862000  0.48248000  1.0
  H  H8  1  0.31997000  0.86120000  0.50229000  1.0
  H  H9  1  0.81997000  0.63880000  0.49771000  1.0
  H  H10  1  0.68003000  0.13880000  0.49771000  1.0
  H  H11  1  0.18003000  0.36120000  0.50229000  1.0
  H  H12  1  0.47792000  0.79954000  0.77066000  1.0
  H  H13  1  0.97792000  0.70046000  0.22934000  1.0
  H  H14  1  0.52208000  0.20046000  0.22934000  1.0
  H  H15  1  0.02208000  0.29954000  0.77066000  1.0
  H  H16  1  0.33347000  0.81638000  0.90097000  1.0
  H  H17  1  0.83346000  0.68362000  0.09903000  1.0
  H  H18  1  0.66654000  0.18362000  0.09903000  1.0
  H  H19  1  0.16654000  0.31638000  0.90097000  1.0
  H  H20  1  0.53142000  0.99869000  0.67009000  1.0
  H  H21  1  0.03142000  0.50131000  0.32991000  1.0
  H  H22  1  0.46858000  0.00131000  0.32991000  1.0
  H  H23  1  0.96858000  0.49869000  0.67009000  1.0
  H  H24  1  0.42132000  0.16746000  0.72135000  1.0
  H  H25  1  0.92132000  0.33254000  0.27865000  1.0
  H  H26  1  0.57869000  0.83254000  0.27865000  1.0
  H  H27  1  0.07868000  0.66746000  0.72135000  1.0
  C  C28  1  0.20564000  0.05996000  0.02495000  1.0
  C  C29  1  0.70564000  0.44004000  0.97505000  1.0
  C  C30  1  0.79437000  0.94004000  0.97504000  1.0
  C  C31  1  0.29436000  0.55996000  0.02495000  1.0
  C  C32  1  0.37415000  0.00911000  0.83387000  1.0
  C  C33  1  0.87415000  0.49089000  0.16613000  1.0
  C  C34  1  0.62585000  0.99089000  0.16614000  1.0
  C  C35  1  0.12585000  0.50911000  0.83387000  1.0
  N  N36  1  0.14494000  0.03197000  0.12471000  1.0
  N  N37  1  0.64494000  0.46803000  0.87529000  1.0
  N  N38  1  0.85506000  0.96803000  0.87529000  1.0
  N  N39  1  0.35506000  0.53197000  0.12471000  1.0
  N  N40  1  0.26459000  0.09914000  0.91827000  1.0
  N  N41  1  0.76459000  0.40086000  0.08173000  1.0
  N  N42  1  0.73542000  0.90086000  0.08173000  1.0
  N  N43  1  0.23541000  0.59914000  0.91827000  1.0
  N  N44  1  0.40936000  0.86999000  0.84639000  1.0
  N  N45  1  0.90937000  0.63001000  0.15361000  1.0
  N  N46  1  0.59064000  0.13001000  0.15361000  1.0
  N  N47  1  0.09063000  0.36999000  0.84639000  1.0
  N  N48  1  0.45062000  0.06439000  0.73776000  1.0
  N  N49  1  0.95062000  0.43561000  0.26224000  1.0
  N  N50  1  0.54938000  0.93561000  0.26224000  1.0
  N  N51  1  0.04938000  0.56439000  0.73775000  1.0
  O  O52  1  0.07419000  0.84633000  0.36918000  1.0
  O  O53  1  0.57419000  0.65368000  0.63082000  1.0
  O  O54  1  0.92581000  0.15368000  0.63082000  1.0
  O  O55  1  0.42581000  0.34633000  0.36918000  1.0
  O  O56  1  0.08039000  0.82500000  0.62504000  1.0
  O  O57  1  0.58039000  0.67500000  0.37496000  1.0
  O  O58  1  0.91961000  0.17500000  0.37496000  1.0
  O  O59  1  0.41961000  0.32500000  0.62505000  1.0
  O  O60  1  0.19863000  0.61852000  0.43251000  1.0
  O  O61  1  0.69863000  0.88148000  0.56749000  1.0
  O  O62  1  0.80136000  0.38148000  0.56749000  1.0
  O  O63  1  0.30137000  0.11853000  0.43251000  1.0
