# generated using pymatgen
data_Sm2H37C36N7O22
_symmetry_space_group_name_H-M   'P 1'
_cell_length_a   13.73620000
_cell_length_b   13.73620000
_cell_length_c   16.41850000
_cell_angle_alpha   67.22360000
_cell_angle_beta   67.22360000
_cell_angle_gamma   75.68410000
_symmetry_Int_Tables_number   1
_chemical_formula_structural   Sm2H37C36N7O22
_chemical_formula_sum   'Sm4 H74 C72 N14 O44'
_cell_volume   2616.26061372
_cell_formula_units_Z   2
loop_
 _symmetry_equiv_pos_site_id
 _symmetry_equiv_pos_as_xyz
  1  'x, y, z'
loop_
 _atom_site_type_symbol
 _atom_site_label
 _atom_site_symmetry_multiplicity
 _atom_site_fract_x
 _atom_site_fract_y
 _atom_site_fract_z
 _atom_site_occupancy
  Sm  Sm0  1  0.54908000  0.82994000  0.00159000  1.0
  Sm  Sm1  1  0.17006000  0.45092000  0.49841000  1.0
  Sm  Sm2  1  0.45092000  0.17006000  0.99841000  1.0
  Sm  Sm3  1  0.82994000  0.54908000  0.50159000  1.0
  H  H4  1  0.77010000  0.66808000  0.75084000  1.0
  H  H5  1  0.33192000  0.22990000  0.74916000  1.0
  H  H6  1  0.22990000  0.33192000  0.24916000  1.0
  H  H7  1  0.66808000  0.77010000  0.25084000  1.0
  H  H8  1  0.09788000  0.53730000  0.71167000  1.0
  H  H9  1  0.46270000  0.90212000  0.78833000  1.0
  H  H10  1  0.90212000  0.46270000  0.28833000  1.0
  H  H11  1  0.53730000  0.09788000  0.21167000  1.0
  H  H12  1  0.91835000  0.65559000  0.94298000  1.0
  H  H13  1  0.34441000  0.08164000  0.55702000  1.0
  H  H14  1  0.08164000  0.34441000  0.05702000  1.0
  H  H15  1  0.65559000  0.91836000  0.44298000  1.0
  H  H16  1  0.86919000  0.90834000  0.85429000  1.0
  H  H17  1  0.09166000  0.13081000  0.64571000  1.0
  H  H18  1  0.13081000  0.09166000  0.14571000  1.0
  H  H19  1  0.90834000  0.86919000  0.35429000  1.0
  H  H20  1  0.76004000  0.23996000  0.75000000  1.0
  H  H21  1  0.23997000  0.76003000  0.25000000  1.0
  H  H22  1  0.63724000  0.55149000  0.17913000  1.0
  H  H23  1  0.44851000  0.36276000  0.32087000  1.0
  H  H24  1  0.36275000  0.44851000  0.82087000  1.0
  H  H25  1  0.55149000  0.63724000  0.67913000  1.0
  H  H26  1  0.64010000  0.50090000  0.31978000  1.0
  H  H27  1  0.49910000  0.35990000  0.18022000  1.0
  H  H28  1  0.35990000  0.49910000  0.68022000  1.0
  H  H29  1  0.50090000  0.64010000  0.81978000  1.0
  H  H30  1  0.59970000  0.60180000  0.37194000  1.0
  H  H31  1  0.39820000  0.40030000  0.12806000  1.0
  H  H32  1  0.40030000  0.39820000  0.62806000  1.0
  H  H33  1  0.60180000  0.59970000  0.87194000  1.0
  H  H34  1  0.51015000  0.50695000  0.40461000  1.0
  H  H35  1  0.49305000  0.48985000  0.09539000  1.0
  H  H36  1  0.48985000  0.49305000  0.59539000  1.0
  H  H37  1  0.50695000  0.51015000  0.90461000  1.0
  H  H38  1  0.36985000  0.65156000  0.35300000  1.0
  H  H39  1  0.34844000  0.63015000  0.14700000  1.0
  H  H40  1  0.63015000  0.34844000  0.64700000  1.0
  H  H41  1  0.65156000  0.36985000  0.85300000  1.0
  H  H42  1  0.41175000  0.74360000  0.23592000  1.0
  H  H43  1  0.25640000  0.58825000  0.26408000  1.0
  H  H44  1  0.58825000  0.25640000  0.76408000  1.0
  H  H45  1  0.74360000  0.41175000  0.73592000  1.0
  H  H46  1  0.45466000  0.74903000  0.32362000  1.0
  H  H47  1  0.25098000  0.54534000  0.17638000  1.0
  H  H48  1  0.54534000  0.25098000  0.67638000  1.0
  H  H49  1  0.74902000  0.45466000  0.82362000  1.0
  H  H50  1  0.15426000  0.87686000  0.95130000  1.0
  H  H51  1  0.12314000  0.84574000  0.54870000  1.0
  H  H52  1  0.84574000  0.12314000  0.04870000  1.0
  H  H53  1  0.87686000  0.15426000  0.45131000  1.0
  H  H54  1  0.09638000  0.75421000  0.00674000  1.0
  H  H55  1  0.24579000  0.90361000  0.49326000  1.0
  H  H56  1  0.90361000  0.24579000  0.99326000  1.0
  H  H57  1  0.75421000  0.09639000  0.50674000  1.0
  H  H58  1  0.16471000  0.79613000  0.88421000  1.0
  H  H59  1  0.20386000  0.83529000  0.61579000  1.0
  H  H60  1  0.83529000  0.20386000  0.11579000  1.0
  H  H61  1  0.79613000  0.16471000  0.38421000  1.0
  H  H62  1  0.30133000  0.62524000  0.90132000  1.0
  H  H63  1  0.37476000  0.69867000  0.59868000  1.0
  H  H64  1  0.69867000  0.37476000  0.09868000  1.0
  H  H65  1  0.62524000  0.30133000  0.40132000  1.0
  H  H66  1  0.22272000  0.58422000  0.02077000  1.0
  H  H67  1  0.41578000  0.77727000  0.47923000  1.0
  H  H68  1  0.77727000  0.41578000  0.97923000  1.0
  H  H69  1  0.58422000  0.22273000  0.52077000  1.0
  H  H70  1  0.36101000  0.59640000  0.98933000  1.0
  H  H71  1  0.40360000  0.63899000  0.51067000  1.0
  H  H72  1  0.63899000  0.40360000  0.01067000  1.0
  H  H73  1  0.59640000  0.36101000  0.48933000  1.0
  H  H74  1  0.30130000  0.87344000  0.97071000  1.0
  H  H75  1  0.12657000  0.69870000  0.52929000  1.0
  H  H76  1  0.69870000  0.12656000  0.02930000  1.0
  H  H77  1  0.87343000  0.30130000  0.47070000  1.0
  C  C78  1  0.93863000  0.57252000  0.64085000  1.0
  C  C79  1  0.42749000  0.06136000  0.85915000  1.0
  C  C80  1  0.06137000  0.42749000  0.35914000  1.0
  C  C81  1  0.57251000  0.93863000  0.14086000  1.0
  C  C82  1  0.93352000  0.59795000  0.72387000  1.0
  C  C83  1  0.40205000  0.06648000  0.77613000  1.0
  C  C84  1  0.06648000  0.40205000  0.27613000  1.0
  C  C85  1  0.59795000  0.93352000  0.22387000  1.0
  C  C86  1  0.83332000  0.66612000  0.85325000  1.0
  C  C87  1  0.33387000  0.16668000  0.64676000  1.0
  C  C88  1  0.16668000  0.33388000  0.14675000  1.0
  C  C89  1  0.66612000  0.83332000  0.35325000  1.0
  C  C90  1  0.73331000  0.71760000  0.90838000  1.0
  C  C91  1  0.28240000  0.26669000  0.59162000  1.0
  C  C92  1  0.26669000  0.28240000  0.09162000  1.0
  C  C93  1  0.71760000  0.73331000  0.40838000  1.0
  C  C94  1  0.92258000  0.63956000  0.88180000  1.0
  C  C95  1  0.36044000  0.07741000  0.61820000  1.0
  C  C96  1  0.07741000  0.36044000  0.11820000  1.0
  C  C97  1  0.63956000  0.92259000  0.38180000  1.0
  C  C98  1  0.80306000  0.07260000  0.81015000  1.0
  C  C99  1  0.92740000  0.19694000  0.68985000  1.0
  C  C100  1  0.19694000  0.92740000  0.18986000  1.0
  C  C101  1  0.07260000  0.80306000  0.31014000  1.0
  C  C102  1  0.69204000  0.05075000  0.87623000  1.0
  C  C103  1  0.94925000  0.30796000  0.62377000  1.0
  C  C104  1  0.30796000  0.94924000  0.12378000  1.0
  C  C105  1  0.05076000  0.69204000  0.37622000  1.0
  C  C106  1  0.88532000  0.98906000  0.80911000  1.0
  C  C107  1  0.01095000  0.11469000  0.69089000  1.0
  C  C108  1  0.11469000  0.01095000  0.19090000  1.0
  C  C109  1  0.98906000  0.88531000  0.30911000  1.0
  C  C110  1  0.83914000  0.64596000  0.77413000  1.0
  C  C111  1  0.35404000  0.16086000  0.72588000  1.0
  C  C112  1  0.16086000  0.35404000  0.22587000  1.0
  C  C113  1  0.64596000  0.83914000  0.27413000  1.0
  C  C114  1  0.02394000  0.57354000  0.75077000  1.0
  C  C115  1  0.42646000  0.97606000  0.74923000  1.0
  C  C116  1  0.97606000  0.42646000  0.24923000  1.0
  C  C117  1  0.57354000  0.02394000  0.25077000  1.0
  C  C118  1  0.01664000  0.59574000  0.82898000  1.0
  C  C119  1  0.40426000  0.98336000  0.67102000  1.0
  C  C120  1  0.98336000  0.40426000  0.17102000  1.0
  C  C121  1  0.59575000  0.01664000  0.32898000  1.0
  C  C122  1  0.82452000  0.17548000  0.75000000  1.0
  C  C123  1  0.17548000  0.82452000  0.25000000  1.0
  C  C124  1  0.98775000  0.01225000  0.75000000  1.0
  C  C125  1  0.01225000  0.98775000  0.25000000  1.0
  C  C126  1  0.56704000  0.61114000  0.18861000  1.0
  C  C127  1  0.38886000  0.43296000  0.31139000  1.0
  C  C128  1  0.43296000  0.38886000  0.81138000  1.0
  C  C129  1  0.61114000  0.56704000  0.68861000  1.0
  C  C130  1  0.43478000  0.69612000  0.29788000  1.0
  C  C131  1  0.30388000  0.56522000  0.20212000  1.0
  C  C132  1  0.56522000  0.30388000  0.70212000  1.0
  C  C133  1  0.69612000  0.43478000  0.79788000  1.0
  C  C134  1  0.16397000  0.79500000  0.95173000  1.0
  C  C135  1  0.20500000  0.83602000  0.54827000  1.0
  C  C136  1  0.83603000  0.20500000  0.04827000  1.0
  C  C137  1  0.79500000  0.16397000  0.45173000  1.0
  C  C138  1  0.28904000  0.62964000  0.97010000  1.0
  C  C139  1  0.37036000  0.71096000  0.52990000  1.0
  C  C140  1  0.71096000  0.37036000  0.02990000  1.0
  C  C141  1  0.62964000  0.28904000  0.47010000  1.0
  C  C142  1  0.33057000  0.79005000  0.97392000  1.0
  C  C143  1  0.20995000  0.66943000  0.52608000  1.0
  C  C144  1  0.66944000  0.20994000  0.02608000  1.0
  C  C145  1  0.79005000  0.33056000  0.47392000  1.0
  C  C146  1  0.57180000  0.55395000  0.34680000  1.0
  C  C147  1  0.44605000  0.42820000  0.15319000  1.0
  C  C148  1  0.42820000  0.44605000  0.65319000  1.0
  C  C149  1  0.55395000  0.57180000  0.84680000  1.0
  N  N150  1  0.11190000  0.57518000  0.85563000  1.0
  N  N151  1  0.42482000  0.88810000  0.64437000  1.0
  N  N152  1  0.88809000  0.42482000  0.14437000  1.0
  N  N153  1  0.57518000  0.11191000  0.35563000  1.0
  N  N154  1  0.07474000  0.92526000  0.75000000  1.0
  N  N155  1  0.92526000  0.07473000  0.25000000  1.0
  N  N156  1  0.26299000  0.73969000  0.96799000  1.0
  N  N157  1  0.26031000  0.73701000  0.53201000  1.0
  N  N158  1  0.73701000  0.26031000  0.03201000  1.0
  N  N159  1  0.73969000  0.26300000  0.46799000  1.0
  N  N160  1  0.52762000  0.62155000  0.27312000  1.0
  N  N161  1  0.37845000  0.47238000  0.22688000  1.0
  N  N162  1  0.47238000  0.37845000  0.72688000  1.0
  N  N163  1  0.62155000  0.52762000  0.77312000  1.0
  O  O164  1  0.67523000  0.95419000  0.91376000  1.0
  O  O165  1  0.04580000  0.32478000  0.58624000  1.0
  O  O166  1  0.32478000  0.04580000  0.08624000  1.0
  O  O167  1  0.95420000  0.67522000  0.41376000  1.0
  O  O168  1  0.52897000  0.66271000  0.12343000  1.0
  O  O169  1  0.33729000  0.47103000  0.37657000  1.0
  O  O170  1  0.47103000  0.33729000  0.87657000  1.0
  O  O171  1  0.66271000  0.52897000  0.62343000  1.0
  O  O172  1  0.85380000  0.59167000  0.62130000  1.0
  O  O173  1  0.40833000  0.14620000  0.87870000  1.0
  O  O174  1  0.14620000  0.40833000  0.37870000  1.0
  O  O175  1  0.59167000  0.85380000  0.12130000  1.0
  O  O176  1  0.73137000  0.72787000  0.98265000  1.0
  O  O177  1  0.27213000  0.26862000  0.51736000  1.0
  O  O178  1  0.26862000  0.27212000  0.01735000  1.0
  O  O179  1  0.72787000  0.73138000  0.48264000  1.0
  O  O180  1  0.62569000  0.13042000  0.88934000  1.0
  O  O181  1  0.86958000  0.37431000  0.61066000  1.0
  O  O182  1  0.37431000  0.86958000  0.11066000  1.0
  O  O183  1  0.13043000  0.62569000  0.38934000  1.0
  O  O184  1  0.02796000  0.53331000  0.59605000  1.0
  O  O185  1  0.46669000  0.97204000  0.90394000  1.0
  O  O186  1  0.97204000  0.46669000  0.40394000  1.0
  O  O187  1  0.53331000  0.02796000  0.09606000  1.0
  O  O188  1  0.65358000  0.75006000  0.87844000  1.0
  O  O189  1  0.24994000  0.34642000  0.62156000  1.0
  O  O190  1  0.34643000  0.24994000  0.12156000  1.0
  O  O191  1  0.75006000  0.65358000  0.37844000  1.0
  O  O192  1  0.41963000  0.74860000  0.98244000  1.0
  O  O193  1  0.25140000  0.58036000  0.51756000  1.0
  O  O194  1  0.58037000  0.25140000  0.01756000  1.0
  O  O195  1  0.74860000  0.41964000  0.48244000  1.0
  O  O196  1  0.19960000  0.55885000  0.79763000  1.0
  O  O197  1  0.44115000  0.80040000  0.70237000  1.0
  O  O198  1  0.80040000  0.44116000  0.20237000  1.0
  O  O199  1  0.55884000  0.19960000  0.29763000  1.0
  O  O200  1  0.10032000  0.57647000  0.93397000  1.0
  O  O201  1  0.42353000  0.89968000  0.56603000  1.0
  O  O202  1  0.89968000  0.42353000  0.06603000  1.0
  O  O203  1  0.57647000  0.10032000  0.43397000  1.0
  O  O204  1  0.05178000  0.83253000  0.79219000  1.0
  O  O205  1  0.16747000  0.94822000  0.70781000  1.0
  O  O206  1  0.94822000  0.16747000  0.20781000  1.0
  O  O207  1  0.83253000  0.05178000  0.29219000  1.0
