# generated using pymatgen
data_RbH7C10(NO2)4
_symmetry_space_group_name_H-M   'P 1'
_cell_length_a   5.09762000
_cell_length_b   8.12607000
_cell_length_c   9.71345000
_cell_angle_alpha   111.41500000
_cell_angle_beta   101.12100000
_cell_angle_gamma   92.51810000
_symmetry_Int_Tables_number   1
_chemical_formula_structural   RbH7C10(NO2)4
_chemical_formula_sum   'Rb1 H7 C10 N4 O8'
_cell_volume   364.66129009
_cell_formula_units_Z   1
loop_
 _symmetry_equiv_pos_site_id
 _symmetry_equiv_pos_as_xyz
  1  'x, y, z'
loop_
 _atom_site_type_symbol
 _atom_site_label
 _atom_site_symmetry_multiplicity
 _atom_site_fract_x
 _atom_site_fract_y
 _atom_site_fract_z
 _atom_site_occupancy
  Rb  Rb0  1  0.00000000  0.00000000  0.00000000  1.0
  H  H1  1  0.00000000  0.50000000  0.50000000  1.0
  H  H2  1  0.84658000  0.39912000  0.02495000  1.0
  H  H3  1  0.15343000  0.60088000  0.97506000  1.0
  H  H4  1  0.76812000  0.88582000  0.32703000  1.0
  H  H5  1  0.23188000  0.11418000  0.67298000  1.0
  H  H6  1  0.45451000  0.76288000  0.42715000  1.0
  H  H7  1  0.54548000  0.23712000  0.57285000  1.0
  C  C8  1  0.25758000  0.42382000  0.34495000  1.0
  C  C9  1  0.74242000  0.57617000  0.65504000  1.0
  C  C10  1  0.45951000  0.49474000  0.27935000  1.0
  C  C11  1  0.54049000  0.50526000  0.72065000  1.0
  C  C12  1  0.57779000  0.38201000  0.15825000  1.0
  C  C13  1  0.42221000  0.61799000  0.84175000  1.0
  C  C14  1  0.53689000  0.67445000  0.33609000  1.0
  C  C15  1  0.46311000  0.32555000  0.66391000  1.0
  C  C16  1  0.84406000  0.65414000  0.17285000  1.0
  C  C17  1  0.15594000  0.34586000  0.82715000  1.0
  N  N18  1  0.76393000  0.47553000  0.11411000  1.0
  N  N19  1  0.23607000  0.52447000  0.88589000  1.0
  N  N20  1  0.71900000  0.75144000  0.28503000  1.0
  N  N21  1  0.28100000  0.24856000  0.71497000  1.0
  O  O22  1  0.20041000  0.26116000  0.31061000  1.0
  O  O23  1  0.79959000  0.73884000  0.68939000  1.0
  O  O24  1  0.15441000  0.55031000  0.43832000  1.0
  O  O25  1  0.84559000  0.44969000  0.56168000  1.0
  O  O26  1  0.53057000  0.21854000  0.08909000  1.0
  O  O27  1  0.46944000  0.78146000  0.91091000  1.0
  O  O28  1  0.01364000  0.72703000  0.12934000  1.0
  O  O29  1  0.98636000  0.27297000  0.87066000  1.0
