# generated using pymatgen
data_ZnH14C15(NO2)2
_symmetry_space_group_name_H-M   'P 1'
_cell_length_a   9.71467000
_cell_length_b   11.02570000
_cell_length_c   13.02300000
_cell_angle_alpha   84.63710000
_cell_angle_beta   77.31300000
_cell_angle_gamma   81.80500000
_symmetry_Int_Tables_number   1
_chemical_formula_structural   ZnH14C15(NO2)2
_chemical_formula_sum   'Zn2 H28 C30 N4 O8'
_cell_volume   1344.15996117
_cell_formula_units_Z   2
loop_
 _symmetry_equiv_pos_site_id
 _symmetry_equiv_pos_as_xyz
  1  'x, y, z'
loop_
 _atom_site_type_symbol
 _atom_site_label
 _atom_site_symmetry_multiplicity
 _atom_site_fract_x
 _atom_site_fract_y
 _atom_site_fract_z
 _atom_site_occupancy
  Zn  Zn0  1  0.64987000  0.48674000  0.48403000  1.0
  Zn  Zn1  1  0.34736000  0.52633000  0.51126000  1.0
  H  H2  1  0.33333333  0.53738000  0.19974000  1.0
  H  H3  1  0.66026000  0.45598000  0.79758000  1.0
  H  H4  1  0.78715000  0.44912000  0.13625000  1.0
  H  H5  1  0.20762000  0.52954000  0.86200000  1.0
  H  H6  1  0.27997000  0.13896000  0.57814000  1.0
  H  H7  1  0.71722000  0.87347000  0.41661000  1.0
  H  H8  1  0.27949000  0.91112000  0.57809000  1.0
  H  H9  1  0.71768000  0.10120000  0.41662000  1.0
  H  H10  1  0.86826000  0.62250000  0.37425000  1.0
  H  H11  1  0.13030000  0.38897000  0.61944000  1.0
  H  H12  1  0.09066000  0.57000000  0.02964000  1.0
  H  H13  1  0.02021000  0.47190000  0.20087000  1.0
  H  H14  1  0.19878000  0.40270000  0.19313000  1.0
  H  H15  1  0.09702000  0.35930000  0.10730000  1.0
  H  H16  1  0.80730000  0.37692000  0.87004000  1.0
  H  H17  1  0.01078000  0.48553000  0.84730000  1.0
  H  H18  1  0.92200000  0.56560000  0.96110000  1.0
  H  H19  1  0.85368000  0.59188000  0.84416000  1.0
  H  H20  1  0.98006000  0.84663000  0.43016000  1.0
  H  H21  1  0.13739000  0.81316000  0.48288000  1.0
  H  H22  1  0.14514000  0.88980000  0.35622000  1.0
  H  H23  1  0.24795000  0.66923000  0.34107000  1.0
  H  H24  1  0.09469000  0.70122000  0.28531000  1.0
  H  H25  1  0.86008000  0.20081000  0.50493000  1.0
  H  H26  1  0.01873000  0.16368000  0.55585000  1.0
  H  H27  1  0.85399000  0.11938000  0.62943000  1.0
  H  H28  1  0.91009000  0.30299000  0.70401000  1.0
  H  H29  1  0.75279000  0.33895000  0.65212000  1.0
  C  C30  1  0.49959000  0.26896000  0.49888000  1.0
  C  C31  1  0.49752000  0.74338000  0.49663000  1.0
  C  C32  1  0.49822000  0.87915000  0.49711000  1.0
  C  C33  1  0.49904000  0.13322000  0.49795000  1.0
  C  C34  1  0.06555000  0.59435000  0.43057000  1.0
  C  C35  1  0.93376000  0.41612000  0.56217000  1.0
  C  C36  1  0.92866000  0.56994000  0.42850000  1.0
  C  C37  1  0.07000000  0.44110000  0.56492000  1.0
  C  C38  1  0.44062000  0.49654000  0.70435000  1.0
  C  C39  1  0.55683000  0.50923000  0.29169000  1.0
  C  C40  1  0.55909000  0.49711000  0.17782000  1.0
  C  C41  1  0.43580000  0.49360000  0.82014000  1.0
  C  C42  1  0.29880000  0.51401000  0.00002000  1.0
  C  C43  1  0.69150000  0.45059000  0.00212000  1.0
  C  C44  1  0.30475000  0.51388000  0.89267000  1.0
  C  C45  1  0.68899000  0.46500000  0.10689000  1.0
  C  C46  1  0.56148000  0.46994000  0.85598000  1.0
  C  C47  1  0.43170000  0.51169000  0.14380000  1.0
  C  C48  1  0.56144000  0.46969000  0.96434000  1.0
  C  C49  1  0.42899000  0.49657000  0.03803000  1.0
  C  C50  1  0.37510000  0.07991000  0.54278000  1.0
  C  C51  1  0.62209000  0.93248000  0.45206000  1.0
  C  C52  1  0.37470000  0.95385000  0.54258000  1.0
  C  C53  1  0.62247000  0.05855000  0.45231000  1.0
  C  C54  1  0.11847000  0.43716000  0.14660000  1.0
  C  C55  1  0.90634000  0.52064000  0.89348000  1.0
  C  C56  1  0.13214000  0.69447000  0.35973000  1.0
  C  C57  1  0.09552000  0.81858000  0.41071000  1.0
  C  C58  1  0.86854000  0.31384000  0.63104000  1.0
  C  C59  1  0.90343000  0.19195000  0.57661000  1.0
  N  N60  1  0.86393000  0.48330000  0.49272000  1.0
  N  N61  1  0.13459000  0.52798000  0.50082000  1.0
  N  N62  1  0.16725000  0.53781000  0.07115000  1.0
  N  N63  1  0.82336000  0.41854000  0.93230000  1.0
  O  O64  1  0.62090000  0.30748000  0.48210000  1.0
  O  O65  1  0.37609000  0.70502000  0.51465000  1.0
  O  O66  1  0.37950000  0.33527000  0.51643000  1.0
  O  O67  1  0.61760000  0.67699000  0.47838000  1.0
  O  O68  1  0.56406000  0.48506000  0.64401000  1.0
  O  O69  1  0.43412000  0.52742000  0.35229000  1.0
  O  O70  1  0.32315000  0.51046000  0.67361000  1.0
  O  O71  1  0.67492000  0.49870000  0.32131000  1.0
