# generated using pymatgen
data_AlH6C9BrO5
_symmetry_space_group_name_H-M   'P 1'
_cell_length_a   6.63784000
_cell_length_b   8.84990000
_cell_length_c   11.05610000
_cell_angle_alpha   79.23230000
_cell_angle_beta   73.90620000
_cell_angle_gamma   74.96550000
_symmetry_Int_Tables_number   1
_chemical_formula_structural   AlH6C9BrO5
_chemical_formula_sum   'Al2 H12 C18 Br2 O10'
_cell_volume   598.02798030
_cell_formula_units_Z   2
loop_
 _symmetry_equiv_pos_site_id
 _symmetry_equiv_pos_as_xyz
  1  'x, y, z'
loop_
 _atom_site_type_symbol
 _atom_site_label
 _atom_site_symmetry_multiplicity
 _atom_site_fract_x
 _atom_site_fract_y
 _atom_site_fract_z
 _atom_site_occupancy
  Al  Al0  1  0.49165000  0.50594000  0.49890000  1.0
  Al  Al1  1  0.99290000  0.50707000  0.49478000  1.0
  H  H2  1  0.76700000  0.62027000  0.34614000  1.0
  H  H3  1  0.19648000  0.41288000  0.65222000  1.0
  H  H4  1  0.21555000  0.27223000  0.24885000  1.0
  H  H5  1  0.14902000  0.07228000  0.14643000  1.0
  H  H6  1  0.47926000  0.26466000  0.78082000  1.0
  H  H7  1  0.28374000  0.06720000  0.91213000  1.0
  H  H8  1  0.65916000  0.93899000  0.47466000  1.0
  H  H9  1  0.86738000  0.93095000  0.33648000  1.0
  H  H10  1  0.67469000  0.11229000  0.36404000  1.0
  H  H11  1  0.29767000  0.90155000  0.63858000  1.0
  H  H12  1  0.11700000  0.09027000  0.65301000  1.0
  H  H13  1  0.33405000  0.06397000  0.51991000  1.0
  C  C14  1  0.35935000  0.50240000  0.27137000  1.0
  C  C15  1  0.13650000  0.78757000  0.49901000  1.0
  C  C16  1  0.63046000  0.51082000  0.72309000  1.0
  C  C17  1  0.84968000  0.22496000  0.49502000  1.0
  C  C18  1  0.90787000  0.05470000  0.47636000  1.0
  C  C19  1  0.07602000  0.95742000  0.51898000  1.0
  C  C20  1  0.42938000  0.50522000  0.12985000  1.0
  C  C21  1  0.38468000  0.38910000  0.07318000  1.0
  C  C22  1  0.53735000  0.61802000  0.05588000  1.0
  C  C23  1  0.27310000  0.27241000  0.14650000  1.0
  C  C24  1  0.23512000  0.16073000  0.08891000  1.0
  C  C25  1  0.56554000  0.50787000  0.86467000  1.0
  C  C26  1  0.60250000  0.62130000  0.92189000  1.0
  C  C27  1  0.45746000  0.38869000  0.93839000  1.0
  C  C28  1  0.41983000  0.26924000  0.88267000  1.0
  C  C29  1  0.31024000  0.15834000  0.95636000  1.0
  C  C30  1  0.76963000  0.00734000  0.40883000  1.0
  C  C31  1  0.21305000  0.00554000  0.58685000  1.0
  Br  Br32  1  0.72702000  0.78678000  0.81901000  1.0
  Br  Br33  1  0.58753000  0.77551000  0.13297000  1.0
  O  O34  1  0.50712000  0.47153000  0.33022000  1.0
  O  O35  1  0.98524000  0.71943000  0.50751000  1.0
  O  O36  1  0.82958000  0.48255000  0.66964000  1.0
  O  O37  1  0.64984000  0.28953000  0.52585000  1.0
  O  O38  1  0.47782000  0.53652000  0.66838000  1.0
  O  O39  1  0.00316000  0.29444000  0.47746000  1.0
  O  O40  1  0.15873000  0.52946000  0.32118000  1.0
  O  O41  1  0.33637000  0.72237000  0.47574000  1.0
  O  O42  1  0.74507000  0.57651000  0.43496000  1.0
  O  O43  1  0.23686000  0.43562000  0.56044000  1.0
