# generated using pymatgen
data_CuH7C8N3Cl2
_symmetry_space_group_name_H-M   'P 1'
_cell_length_a   3.87724000
_cell_length_b   15.43650000
_cell_length_c   15.54100000
_cell_angle_alpha   89.99880000
_cell_angle_beta   89.99970000
_cell_angle_gamma   85.45570000
_symmetry_Int_Tables_number   1
_chemical_formula_structural   CuH7C8N3Cl2
_chemical_formula_sum   'Cu4 H28 C32 N12 Cl8'
_cell_volume   927.22059989
_cell_formula_units_Z   4
loop_
 _symmetry_equiv_pos_site_id
 _symmetry_equiv_pos_as_xyz
  1  'x, y, z'
loop_
 _atom_site_type_symbol
 _atom_site_label
 _atom_site_symmetry_multiplicity
 _atom_site_fract_x
 _atom_site_fract_y
 _atom_site_fract_z
 _atom_site_occupancy
  Cu  Cu0  1  0.00200000  0.74857000  0.71036000  1.0
  Cu  Cu1  1  0.49798000  0.75143000  0.21036000  1.0
  Cu  Cu2  1  0.99801000  0.25143000  0.28964000  1.0
  Cu  Cu3  1  0.50199000  0.24857000  0.78964000  1.0
  H  H4  1  0.13974000  0.84621000  0.00978000  1.0
  H  H5  1  0.36027000  0.65379000  0.50978000  1.0
  H  H6  1  0.86029000  0.15379000  0.99022000  1.0
  H  H7  1  0.63971000  0.34621000  0.49022000  1.0
  H  H8  1  0.75452000  0.97741000  0.95663000  1.0
  H  H9  1  0.74550000  0.52259000  0.45664000  1.0
  H  H10  1  0.24552000  0.02259000  0.04337000  1.0
  H  H11  1  0.25450000  0.47741000  0.54336000  1.0
  H  H12  1  0.62981000  0.94439000  0.78395000  1.0
  H  H13  1  0.87016000  0.55561000  0.28396000  1.0
  H  H14  1  0.37019000  0.05561000  0.21605000  1.0
  H  H15  1  0.12982000  0.44439000  0.71604000  1.0
  H  H16  1  0.48050000  0.70432000  0.01195000  1.0
  H  H17  1  0.01950000  0.79568000  0.51195000  1.0
  H  H18  1  0.51950000  0.29567000  0.98805000  1.0
  H  H19  1  0.98046000  0.20433000  0.48805000  1.0
  H  H20  1  0.78115000  0.55812000  0.99135000  1.0
  H  H21  1  0.71886000  0.94187000  0.49135000  1.0
  H  H22  1  0.21886000  0.44187000  0.00865000  1.0
  H  H23  1  0.28112000  0.05813000  0.50865000  1.0
  H  H24  1  0.76394000  0.48607000  0.84531000  1.0
  H  H25  1  0.73605000  0.01393000  0.34531000  1.0
  H  H26  1  0.23607000  0.51392000  0.15469000  1.0
  H  H27  1  0.26395000  0.98608000  0.65469000  1.0
  H  H28  1  0.45507000  0.57010000  0.72442000  1.0
  H  H29  1  0.04491000  0.92990000  0.22442000  1.0
  H  H30  1  0.54496000  0.42989000  0.27558000  1.0
  H  H31  1  0.95508000  0.07011000  0.77558000  1.0
  C  C32  1  0.10772000  0.79603000  0.88204000  1.0
  C  C33  1  0.39229000  0.70397000  0.38204000  1.0
  C  C34  1  0.89232000  0.20397000  0.11796000  1.0
  C  C35  1  0.60770000  0.29603000  0.61796000  1.0
  C  C36  1  0.84207000  0.92276000  0.91659000  1.0
  C  C37  1  0.65792000  0.57724000  0.41659000  1.0
  C  C38  1  0.15795000  0.07724000  0.08341000  1.0
  C  C39  1  0.34206000  0.42276000  0.58341000  1.0
  C  C40  1  0.78348000  0.90639000  0.83065000  1.0
  C  C41  1  0.71647000  0.59361000  0.33066000  1.0
  C  C42  1  0.21650000  0.09360000  0.16935000  1.0
  C  C43  1  0.28351000  0.40639000  0.66934000  1.0
  C  C44  1  0.30254000  0.71244000  0.87983000  1.0
  C  C45  1  0.19745000  0.78756000  0.37983000  1.0
  C  C46  1  0.69747000  0.28756000  0.12017000  1.0
  C  C47  1  0.80254000  0.21244000  0.62017000  1.0
  C  C48  1  0.47602000  0.67225000  0.94957000  1.0
  C  C49  1  0.02398000  0.82775000  0.44957000  1.0
  C  C50  1  0.52400000  0.32775000  0.05043000  1.0
  C  C51  1  0.97600000  0.17226000  0.55043000  1.0
  C  C52  1  0.64446000  0.59009000  0.93732000  1.0
  C  C53  1  0.85555000  0.90991000  0.43733000  1.0
  C  C54  1  0.35555000  0.40991000  0.06267000  1.0
  C  C55  1  0.14444000  0.09009000  0.56267000  1.0
  C  C56  1  0.63710000  0.55074000  0.85657000  1.0
  C  C57  1  0.86290000  0.94926000  0.35657000  1.0
  C  C58  1  0.36291000  0.44925000  0.14343000  1.0
  C  C59  1  0.13709000  0.05075000  0.64343000  1.0
  C  C60  1  0.46407000  0.59598000  0.78951000  1.0
  C  C61  1  0.03590000  0.90402000  0.28951000  1.0
  C  C62  1  0.53593000  0.40401000  0.21049000  1.0
  C  C63  1  0.96409000  0.09598000  0.71049000  1.0
  N  N64  1  0.95015000  0.82749000  0.81042000  1.0
  N  N65  1  0.54983000  0.67251000  0.31042000  1.0
  N  N66  1  0.04986000  0.17250000  0.18958000  1.0
  N  N67  1  0.45014000  0.32750000  0.68958000  1.0
  N  N68  1  0.04300000  0.85247000  0.94773000  1.0
  N  N69  1  0.45701000  0.64753000  0.44773000  1.0
  N  N70  1  0.95703000  0.14753000  0.05227000  1.0
  N  N71  1  0.54297000  0.35247000  0.55227000  1.0
  N  N72  1  0.29898000  0.67468000  0.80084000  1.0
  N  N73  1  0.20102000  0.82533000  0.30083000  1.0
  N  N74  1  0.70103000  0.32532000  0.19916000  1.0
  N  N75  1  0.79898000  0.17468000  0.69916000  1.0
  Cl  Cl76  1  0.00670000  0.63786000  0.61559000  1.0
  Cl  Cl77  1  0.49329000  0.86214000  0.11559000  1.0
  Cl  Cl78  1  0.99330000  0.36214000  0.38441000  1.0
  Cl  Cl79  1  0.50670000  0.13786000  0.88441000  1.0
  Cl  Cl80  1  0.54719000  0.82540000  0.64157000  1.0
  Cl  Cl81  1  0.95281000  0.67460000  0.14157000  1.0
  Cl  Cl82  1  0.45282000  0.17460000  0.35843000  1.0
  Cl  Cl83  1  0.04718000  0.32540000  0.85843000  1.0
