# generated using pymatgen
data_Cu2H44C33(NO4)4
_symmetry_space_group_name_H-M   'P 1'
_cell_length_a   10.52220000
_cell_length_b   15.64040000
_cell_length_c   15.64530000
_cell_angle_alpha   83.42450000
_cell_angle_beta   70.35030000
_cell_angle_gamma   70.36050000
_symmetry_Int_Tables_number   1
_chemical_formula_structural   Cu2H44C33(NO4)4
_chemical_formula_sum   'Cu4 H88 C66 N8 O32'
_cell_volume   2283.76498906
_cell_formula_units_Z   2
loop_
 _symmetry_equiv_pos_site_id
 _symmetry_equiv_pos_as_xyz
  1  'x, y, z'
loop_
 _atom_site_type_symbol
 _atom_site_label
 _atom_site_symmetry_multiplicity
 _atom_site_fract_x
 _atom_site_fract_y
 _atom_site_fract_z
 _atom_site_occupancy
  Cu  Cu0  1  0.00000000  0.50000000  0.49999000  1.0
  Cu  Cu1  1  0.50001000  0.00000000  0.50000000  1.0
  Cu  Cu2  1  0.49999000  0.00000000  0.00001000  1.0
  Cu  Cu3  1  0.50000000  0.50001000  0.99999000  1.0
  H  H4  1  0.25594000  0.39545000  0.54719000  1.0
  H  H5  1  0.65122000  0.04725000  0.60451000  1.0
  H  H6  1  0.69777000  0.10493000  0.95289000  1.0
  H  H7  1  0.80248000  0.45303000  0.89563000  1.0
  H  H8  1  0.74406000  0.60455000  0.45282000  1.0
  H  H9  1  0.34879000  0.95276000  0.39550000  1.0
  H  H10  1  0.30223000  0.89508000  0.04710000  1.0
  H  H11  1  0.19750000  0.54699000  0.10438000  1.0
  H  H12  1  0.51673000  0.33377000  0.46734000  1.0
  H  H13  1  0.85070000  0.96740000  0.66616000  1.0
  H  H14  1  0.81696000  0.16670000  0.03293000  1.0
  H  H15  1  0.98377000  0.53289000  0.83402000  1.0
  H  H16  1  0.48329000  0.66621000  0.53266000  1.0
  H  H17  1  0.14931000  0.03258000  0.33384000  1.0
  H  H18  1  0.18303000  0.83331000  0.96706000  1.0
  H  H19  1  0.01622000  0.46710000  0.16598000  1.0
  H  H20  1  0.42529000  0.42607000  0.21533000  1.0
  H  H21  1  0.85185000  0.71532000  0.57422000  1.0
  H  H22  1  0.56626000  0.07390000  0.28481000  1.0
  H  H23  1  0.64107000  0.78491000  0.92572000  1.0
  H  H24  1  0.57472000  0.57391000  0.78468000  1.0
  H  H25  1  0.14814000  0.28466000  0.42579000  1.0
  H  H26  1  0.43376000  0.92610000  0.71519000  1.0
  H  H27  1  0.35896000  0.21511000  0.07425000  1.0
  H  H28  1  0.16999000  0.48806000  0.30772000  1.0
  H  H29  1  0.65838000  0.80757000  0.51232000  1.0
  H  H30  1  0.46583000  0.01160000  0.19228000  1.0
  H  H31  1  0.47776000  0.69266000  0.98764000  1.0
  H  H32  1  0.83004000  0.51193000  0.69229000  1.0
  H  H33  1  0.34160000  0.19244000  0.48770000  1.0
  H  H34  1  0.53421000  0.98839000  0.80771000  1.0
  H  H35  1  0.52224000  0.30736000  0.01234000  1.0
  H  H36  1  0.69823000  0.24110000  0.36797000  1.0
  H  H37  1  0.93993000  0.86782000  0.75906000  1.0
  H  H38  1  0.80684000  0.25930000  0.13217000  1.0
  H  H39  1  0.06628000  0.63226000  0.74101000  1.0
  H  H40  1  0.30177000  0.75891000  0.63203000  1.0
  H  H41  1  0.06009000  0.13217000  0.24093000  1.0
  H  H42  1  0.19317000  0.74071000  0.86783000  1.0
  H  H43  1  0.93375000  0.36773000  0.25899000  1.0
  H  H44  1  0.74827000  0.33990000  0.36612000  1.0
  H  H45  1  0.08858000  0.86633000  0.66021000  1.0
  H  H46  1  0.95357000  0.16026000  0.13389000  1.0
  H  H47  1  0.11449000  0.63369000  0.83988000  1.0
  H  H48  1  0.25173000  0.66010000  0.63387000  1.0
  H  H49  1  0.91143000  0.13367000  0.33977000  1.0
  H  H50  1  0.04644000  0.83974000  0.86611000  1.0
  H  H51  1  0.88551000  0.36631000  0.16012000  1.0
  H  H52  1  0.97692000  0.79358000  0.38945000  1.0
  H  H53  1  0.76938000  0.88929000  0.20688000  1.0
  H  H54  1  0.65948000  0.70636000  0.11070000  1.0
  H  H55  1  0.36525000  0.61084000  0.29303000  1.0
  H  H56  1  0.02307000  0.20642000  0.61056000  1.0
  H  H57  1  0.23060000  0.11072000  0.79313000  1.0
  H  H58  1  0.34050000  0.29363000  0.88931000  1.0
  H  H59  1  0.63472000  0.38918000  0.70697000  1.0
  H  H60  1  0.09238000  0.72076000  0.29705000  1.0
  H  H61  1  0.81255000  0.79691000  0.27993000  1.0
  H  H62  1  0.61033000  0.77912000  0.20299000  1.0
  H  H63  1  0.38942000  0.70316000  0.22003000  1.0
  H  H64  1  0.90762000  0.27925000  0.70296000  1.0
  H  H65  1  0.18746000  0.20309000  0.72007000  1.0
  H  H66  1  0.38965000  0.22087000  0.79701000  1.0
  H  H67  1  0.61055000  0.29686000  0.77998000  1.0
  H  H68  1  0.16414000  0.76998000  0.36100000  1.0
  H  H69  1  0.93324000  0.86108000  0.23013000  1.0
  H  H70  1  0.79510000  0.72960000  0.13892000  1.0
  H  H71  1  0.52401000  0.63918000  0.27018000  1.0
  H  H72  1  0.83585000  0.23003000  0.63900000  1.0
  H  H73  1  0.06675000  0.13893000  0.76985000  1.0
  H  H74  1  0.20487000  0.27039000  0.86109000  1.0
  H  H75  1  0.47596000  0.36082000  0.72983000  1.0
  H  H76  1  0.12018000  0.58590000  0.56678000  1.0
  H  H77  1  0.70623000  0.06645000  0.41383000  1.0
  H  H78  1  0.77289000  0.91409000  0.93346000  1.0
  H  H79  1  0.68639000  0.43401000  0.08628000  1.0
  H  H80  1  0.87981000  0.41412000  0.43323000  1.0
  H  H81  1  0.29378000  0.93355000  0.58618000  1.0
  H  H82  1  0.22710000  0.08589000  0.06653000  1.0
  H  H83  1  0.31360000  0.56600000  0.91372000  1.0
  H  H84  1  0.98907000  0.59208000  0.65397000  1.0
  H  H85  1  0.58182000  0.15350000  0.40666000  1.0
  H  H86  1  0.73543000  0.90789000  0.84614000  1.0
  H  H87  1  0.64183000  0.34692000  0.09330000  1.0
  H  H88  1  0.01092000  0.40792000  0.34604000  1.0
  H  H89  1  0.41817000  0.84650000  0.59336000  1.0
  H  H90  1  0.26457000  0.09213000  0.15385000  1.0
  H  H91  1  0.35817000  0.65308000  0.90669000  1.0
  C  C92  1  0.29914000  0.40018000  0.47366000  1.0
  C  C93  1  0.69922000  0.97368000  0.59995000  1.0
  C  C94  1  0.67233000  0.10014000  0.02643000  1.0
  C  C95  1  0.77239000  0.52657000  0.90023000  1.0
  C  C96  1  0.70086000  0.59981000  0.52634000  1.0
  C  C97  1  0.30079000  0.02632000  0.40006000  1.0
  C  C98  1  0.32768000  0.89986000  0.97356000  1.0
  C  C99  1  0.22761000  0.47343000  0.09976000  1.0
  C  C100  1  0.44436000  0.36549000  0.42844000  1.0
  C  C101  1  0.80990000  0.92851000  0.63463000  1.0
  C  C102  1  0.73754000  0.13487000  0.07174000  1.0
  C  C103  1  0.87256000  0.57177000  0.86554000  1.0
  C  C104  1  0.55566000  0.63451000  0.57155000  1.0
  C  C105  1  0.19013000  0.07147000  0.36536000  1.0
  C  C106  1  0.26248000  0.86512000  0.92825000  1.0
  C  C107  1  0.12744000  0.42823000  0.13446000  1.0
  C  C108  1  0.49256000  0.37417000  0.33350000  1.0
  C  C109  1  0.86704000  0.83356000  0.62601000  1.0
  C  C110  1  0.69959000  0.12605000  0.16667000  1.0
  C  C111  1  0.82617000  0.66671000  0.87407000  1.0
  C  C112  1  0.50745000  0.62582000  0.66650000  1.0
  C  C113  1  0.13297000  0.16642000  0.37400000  1.0
  C  C114  1  0.30043000  0.87395000  0.83332000  1.0
  C  C115  1  0.17384000  0.33333333  0.12592000  1.0
  C  C116  1  0.39210000  0.41702000  0.28859000  1.0
  C  C117  1  0.80964000  0.78858000  0.58320000  1.0
  C  C118  1  0.59733000  0.08300000  0.21154000  1.0
  C  C119  1  0.68098000  0.71165000  0.91684000  1.0
  C  C120  1  0.60790000  0.58297000  0.71141000  1.0
  C  C121  1  0.19036000  0.21140000  0.41681000  1.0
  C  C122  1  0.40268000  0.91700000  0.78847000  1.0
  C  C123  1  0.31903000  0.28837000  0.08314000  1.0
  C  C124  1  0.25050000  0.45106000  0.33948000  1.0
  C  C125  1  0.70191000  0.83941000  0.54916000  1.0
  C  C126  1  0.54089000  0.04880000  0.16060000  1.0
  C  C127  1  0.59003000  0.66082000  0.95089000  1.0
  C  C128  1  0.74952000  0.54893000  0.66052000  1.0
  C  C129  1  0.29807000  0.16059000  0.45086000  1.0
  C  C130  1  0.45913000  0.95119000  0.83939000  1.0
  C  C131  1  0.40998000  0.33919000  0.04910000  1.0
  C  C132  1  0.73416000  0.29406000  0.32415000  1.0
  C  C133  1  0.02870000  0.82419000  0.70604000  1.0
  C  C134  1  0.85177000  0.20617000  0.17597000  1.0
  C  C135  1  0.05849000  0.67587000  0.79402000  1.0
  C  C136  1  0.26586000  0.70593000  0.67585000  1.0
  C  C137  1  0.97132000  0.17580000  0.29394000  1.0
  C  C138  1  0.14824000  0.79384000  0.82403000  1.0
  C  C139  1  0.94155000  0.32412000  0.20597000  1.0
  C  C140  1  0.87466000  0.25003000  0.25003000  1.0
  C  C141  1  0.12536000  0.74995000  0.74997000  1.0
  C  C142  1  0.08612000  0.66102000  0.42932000  1.0
  C  C143  1  0.74698000  0.92914000  0.33917000  1.0
  C  C144  1  0.67676000  0.83885000  0.07073000  1.0
  C  C145  1  0.51549000  0.57089000  0.16093000  1.0
  C  C146  1  0.91387000  0.33898000  0.57069000  1.0
  C  C147  1  0.25303000  0.07086000  0.66083000  1.0
  C  C148  1  0.32321000  0.16114000  0.92926000  1.0
  C  C149  1  0.48448000  0.42911000  0.83907000  1.0
  C  C150  1  0.08102000  0.74112000  0.36473000  1.0
  C  C151  1  0.82137000  0.86467000  0.25923000  1.0
  C  C152  1  0.68685000  0.75868000  0.13528000  1.0
  C  C153  1  0.44518000  0.63545000  0.24085000  1.0
  C  C154  1  0.91897000  0.25888000  0.63528000  1.0
  C  C155  1  0.17863000  0.13534000  0.74078000  1.0
  C  C156  1  0.31312000  0.24131000  0.86472000  1.0
  C  C157  1  0.55479000  0.36456000  0.75916000  1.0
  N  N158  1  0.20364000  0.44265000  0.43066000  1.0
  N  N159  1  0.64628000  0.93058000  0.55757000  1.0
  N  N160  1  0.57653000  0.05746000  0.06944000  1.0
  N  N161  1  0.63395000  0.56965000  0.94250000  1.0
  N  N162  1  0.79636000  0.55734000  0.56934000  1.0
  N  N163  1  0.35373000  0.06942000  0.44243000  1.0
  N  N164  1  0.42348000  0.94254000  0.93055000  1.0
  N  N165  1  0.36605000  0.43036000  0.05749000  1.0
  O  O166  1  0.62957000  0.34456000  0.28091000  1.0
  O  O167  1  0.97450000  0.78104000  0.65568000  1.0
  O  O168  1  0.75421000  0.15585000  0.21925000  1.0
  O  O169  1  0.91084000  0.71919000  0.84434000  1.0
  O  O170  1  0.37045000  0.65543000  0.71910000  1.0
  O  O171  1  0.02551000  0.21896000  0.34433000  1.0
  O  O172  1  0.24579000  0.84415000  0.78074000  1.0
  O  O173  1  0.08917000  0.28081000  0.15565000  1.0
  O  O174  1  0.00206000  0.61618000  0.43048000  1.0
  O  O175  1  0.61792000  0.93057000  0.38396000  1.0
  O  O176  1  0.54913000  0.88364000  0.06942000  1.0
  O  O177  1  0.43284000  0.56935000  0.11608000  1.0
  O  O178  1  0.99793000  0.38382000  0.56952000  1.0
  O  O179  1  0.38207000  0.06943000  0.61605000  1.0
  O  O180  1  0.45085000  0.11637000  0.93059000  1.0
  O  O181  1  0.56713000  0.43068000  0.88390000  1.0
  O  O182  1  0.16639000  0.64410000  0.47765000  1.0
  O  O183  1  0.81080000  0.97718000  0.35602000  1.0
  O  O184  1  0.78849000  0.85585000  0.02262000  1.0
  O  O185  1  0.64419000  0.52296000  0.14417000  1.0
  O  O186  1  0.83359000  0.35591000  0.52236000  1.0
  O  O187  1  0.18919000  0.02282000  0.64399000  1.0
  O  O188  1  0.21150000  0.14412000  0.97737000  1.0
  O  O189  1  0.35577000  0.47705000  0.85582000  1.0
  O  O190  1  0.08148000  0.55006000  0.62220000  1.0
  O  O191  1  0.63149000  0.12194000  0.44918000  1.0
  O  O192  1  0.75360000  0.94997000  0.87811000  1.0
  O  O193  1  0.70251000  0.37851000  0.05086000  1.0
  O  O194  1  0.91850000  0.44994000  0.37779000  1.0
  O  O195  1  0.36852000  0.87806000  0.55083000  1.0
  O  O196  1  0.24640000  0.05003000  0.12189000  1.0
  O  O197  1  0.29750000  0.62149000  0.94914000  1.0
