# generated using pymatgen
data_Cu2H5C6N5
_symmetry_space_group_name_H-M   'P 1'
_cell_length_a   7.13527000
_cell_length_b   7.67316000
_cell_length_c   14.75120000
_cell_angle_alpha   90.00020000
_cell_angle_beta   90.00030000
_cell_angle_gamma   91.62200000
_symmetry_Int_Tables_number   1
_chemical_formula_structural   Cu2H5C6N5
_chemical_formula_sum   'Cu8 H20 C24 N20'
_cell_volume   807.30560758
_cell_formula_units_Z   4
loop_
 _symmetry_equiv_pos_site_id
 _symmetry_equiv_pos_as_xyz
  1  'x, y, z'
loop_
 _atom_site_type_symbol
 _atom_site_label
 _atom_site_symmetry_multiplicity
 _atom_site_fract_x
 _atom_site_fract_y
 _atom_site_fract_z
 _atom_site_occupancy
  Cu  Cu0  1  0.03188000  0.89603000  0.44033000  1.0
  Cu  Cu1  1  0.96812000  0.60396000  0.94033000  1.0
  Cu  Cu2  1  0.96811000  0.10396000  0.55967000  1.0
  Cu  Cu3  1  0.03189000  0.39603000  0.05967000  1.0
  Cu  Cu4  1  0.52623000  0.59331000  0.56460000  1.0
  Cu  Cu5  1  0.47377000  0.90668000  0.06460000  1.0
  Cu  Cu6  1  0.47377000  0.40668000  0.43540000  1.0
  Cu  Cu7  1  0.52623000  0.09332000  0.93540000  1.0
  H  H8  1  0.33070000  0.04472000  0.20354000  1.0
  H  H9  1  0.66930000  0.45529000  0.70354000  1.0
  H  H10  1  0.66930000  0.95529000  0.79646000  1.0
  H  H11  1  0.33070000  0.54472000  0.29646000  1.0
  H  H12  1  0.34987000  0.06528000  0.32123000  1.0
  H  H13  1  0.65014000  0.43473000  0.82123000  1.0
  H  H14  1  0.65013000  0.93472000  0.67877000  1.0
  H  H15  1  0.34986000  0.56528000  0.17877000  1.0
  H  H16  1  0.63134000  0.97617000  0.40206000  1.0
  H  H17  1  0.36866000  0.52384000  0.90206000  1.0
  H  H18  1  0.36866000  0.02383000  0.59794000  1.0
  H  H19  1  0.63133000  0.47617000  0.09794000  1.0
  H  H20  1  0.07626000  0.80807000  0.24438000  1.0
  H  H21  1  0.92374000  0.69193000  0.74438000  1.0
  H  H22  1  0.92374000  0.19193000  0.75562000  1.0
  H  H23  1  0.07627000  0.30807000  0.25561000  1.0
  H  H24  1  0.87484000  0.82398000  0.10484000  1.0
  H  H25  1  0.12516000  0.67602000  0.60484000  1.0
  H  H26  1  0.12516000  0.17602000  0.89516000  1.0
  H  H27  1  0.87484000  0.32398000  0.39516000  1.0
  C  C28  1  0.83889000  0.87272000  0.54444000  1.0
  C  C29  1  0.16112000  0.62727000  0.04444000  1.0
  C  C30  1  0.16112000  0.12727000  0.45556000  1.0
  C  C31  1  0.83889000  0.37272000  0.95556000  1.0
  C  C32  1  0.33958000  0.62616000  0.45737000  1.0
  C  C33  1  0.66042000  0.87384000  0.95736000  1.0
  C  C34  1  0.66042000  0.37383000  0.54264000  1.0
  C  C35  1  0.33958000  0.12617000  0.04263000  1.0
  C  C36  1  0.57266000  0.95579000  0.25704000  1.0
  C  C37  1  0.42734000  0.54422000  0.75704000  1.0
  C  C38  1  0.42734000  0.04421000  0.74296000  1.0
  C  C39  1  0.57266000  0.45579000  0.24296000  1.0
  C  C40  1  0.68623000  0.94273000  0.33545000  1.0
  C  C41  1  0.31378000  0.55728000  0.83545000  1.0
  C  C42  1  0.31377000  0.05727000  0.66455000  1.0
  C  C43  1  0.68623000  0.44273000  0.16455000  1.0
  C  C44  1  0.93153000  0.84866000  0.24794000  1.0
  C  C45  1  0.06847000  0.65133000  0.74794000  1.0
  C  C46  1  0.06847000  0.15134000  0.75206000  1.0
  C  C47  1  0.93153000  0.34867000  0.25206000  1.0
  C  C48  1  0.82072000  0.85864000  0.17136000  1.0
  C  C49  1  0.17928000  0.64136000  0.67136000  1.0
  C  C50  1  0.17928000  0.14136000  0.82864000  1.0
  C  C51  1  0.82072000  0.35864000  0.32864000  1.0
  N  N52  1  0.71122000  0.77884000  0.56509000  1.0
  N  N53  1  0.28876000  0.72114000  0.06509000  1.0
  N  N54  1  0.28877000  0.22114000  0.43491000  1.0
  N  N55  1  0.71122000  0.27884000  0.93491000  1.0
  N  N56  1  0.21641000  0.72112000  0.44063000  1.0
  N  N57  1  0.78359000  0.77887000  0.94063000  1.0
  N  N58  1  0.78359000  0.27887000  0.55937000  1.0
  N  N59  1  0.21640000  0.22112000  0.05937000  1.0
  N  N60  1  0.64150000  0.91014000  0.17467000  1.0
  N  N61  1  0.35850000  0.58987000  0.67467000  1.0
  N  N62  1  0.35850000  0.08987000  0.82533000  1.0
  N  N63  1  0.64150000  0.41013000  0.32533000  1.0
  N  N64  1  0.86232000  0.89041000  0.33061000  1.0
  N  N65  1  0.13768000  0.60959000  0.83061000  1.0
  N  N66  1  0.13768000  0.10959000  0.66939000  1.0
  N  N67  1  0.86232000  0.39041000  0.16939000  1.0
  N  N68  1  0.39490000  0.01051000  0.26237000  1.0
  N  N69  1  0.60510000  0.48950000  0.76237000  1.0
  N  N70  1  0.60510000  0.98949000  0.73763000  1.0
  N  N71  1  0.39490000  0.51051000  0.23763000  1.0
