# generated using pymatgen
data_V2CuH3C4(NO3)2
_symmetry_space_group_name_H-M   'P 1'
_cell_length_a   8.72386000
_cell_length_b   13.33000000
_cell_length_c   14.38130000
_cell_angle_alpha   90.00000000
_cell_angle_beta   90.00120000
_cell_angle_gamma   89.99980000
_symmetry_Int_Tables_number   1
_chemical_formula_structural   V2CuH3C4(NO3)2
_chemical_formula_sum   'V16 Cu8 H24 C32 N16 O48'
_cell_volume   1672.38776904
_cell_formula_units_Z   8
loop_
 _symmetry_equiv_pos_site_id
 _symmetry_equiv_pos_as_xyz
  1  'x, y, z'
loop_
 _atom_site_type_symbol
 _atom_site_label
 _atom_site_symmetry_multiplicity
 _atom_site_fract_x
 _atom_site_fract_y
 _atom_site_fract_z
 _atom_site_occupancy
  V  V0  1  0.68789000  0.62198000  0.51902000  1.0
  V  V1  1  0.18790000  0.37803000  0.98098000  1.0
  V  V2  1  0.31211000  0.12198000  0.48097000  1.0
  V  V3  1  0.81211000  0.87803000  0.01902000  1.0
  V  V4  1  0.31211000  0.37803000  0.48098000  1.0
  V  V5  1  0.81211000  0.62197000  0.01901000  1.0
  V  V6  1  0.68789000  0.87802000  0.51902000  1.0
  V  V7  1  0.18789000  0.12197000  0.98098000  1.0
  V  V8  1  0.52383000  0.38282000  0.28044000  1.0
  V  V9  1  0.02383000  0.61718000  0.21956000  1.0
  V  V10  1  0.47617000  0.88282000  0.71956000  1.0
  V  V11  1  0.97617000  0.11718000  0.78044000  1.0
  V  V12  1  0.47617000  0.61718000  0.71956000  1.0
  V  V13  1  0.97617000  0.38282000  0.78043000  1.0
  V  V14  1  0.52383000  0.11718000  0.28045000  1.0
  V  V15  1  0.02382000  0.88282000  0.21956000  1.0
  Cu  Cu16  1  0.91178000  0.45429000  0.40188000  1.0
  Cu  Cu17  1  0.41178000  0.54571000  0.09810000  1.0
  Cu  Cu18  1  0.08822000  0.95429000  0.59811000  1.0
  Cu  Cu19  1  0.58821000  0.04570000  0.90190000  1.0
  Cu  Cu20  1  0.08822000  0.54571000  0.59811000  1.0
  Cu  Cu21  1  0.58822000  0.45430000  0.90190000  1.0
  Cu  Cu22  1  0.91177000  0.04570000  0.40188000  1.0
  Cu  Cu23  1  0.41177000  0.95430000  0.09810000  1.0
  H  H24  1  0.14245000  0.41294000  0.22790000  1.0
  H  H25  1  0.64246000  0.58706000  0.27210000  1.0
  H  H26  1  0.85755000  0.91295000  0.77210000  1.0
  H  H27  1  0.35755000  0.08705000  0.72790000  1.0
  H  H28  1  0.85755000  0.58706000  0.77210000  1.0
  H  H29  1  0.35755000  0.41295000  0.72790000  1.0
  H  H30  1  0.14245000  0.08704000  0.22790000  1.0
  H  H31  1  0.64245000  0.91295000  0.27210000  1.0
  H  H32  1  0.24076000  0.24999000  0.15996000  1.0
  H  H33  1  0.74076000  0.75001000  0.34004000  1.0
  H  H34  1  0.75924000  0.75001000  0.84004000  1.0
  H  H35  1  0.25924000  0.25000000  0.65996000  1.0
  H  H36  1  0.73843000  0.41284000  0.59432000  1.0
  H  H37  1  0.23843000  0.58715000  0.90568000  1.0
  H  H38  1  0.26157000  0.91286000  0.40568000  1.0
  H  H39  1  0.76157000  0.08715000  0.09432000  1.0
  H  H40  1  0.26157000  0.58716000  0.40568000  1.0
  H  H41  1  0.76157000  0.41285000  0.09432000  1.0
  H  H42  1  0.73843000  0.08714000  0.59432000  1.0
  H  H43  1  0.23843000  0.91285000  0.90568000  1.0
  H  H44  1  0.66588000  0.24999000  0.67361000  1.0
  H  H45  1  0.16588000  0.75000000  0.82639000  1.0
  H  H46  1  0.33412000  0.75001000  0.32640000  1.0
  H  H47  1  0.83412000  0.25000000  0.17361000  1.0
  C  C48  1  0.10805000  0.34010000  0.25540000  1.0
  C  C49  1  0.60805000  0.65990000  0.24459000  1.0
  C  C50  1  0.89195000  0.84011000  0.74459000  1.0
  C  C51  1  0.39195000  0.15990000  0.75541000  1.0
  C  C52  1  0.89195000  0.65990000  0.74460000  1.0
  C  C53  1  0.39195000  0.34011000  0.75541000  1.0
  C  C54  1  0.10805000  0.15989000  0.25541000  1.0
  C  C55  1  0.60805000  0.84011000  0.24459000  1.0
  C  C56  1  0.16095000  0.24999000  0.21800000  1.0
  C  C57  1  0.66095000  0.75000000  0.28200000  1.0
  C  C58  1  0.83905000  0.75000000  0.78200000  1.0
  C  C59  1  0.33905000  0.25000000  0.71800000  1.0
  C  C60  1  0.96974000  0.24999000  0.36239000  1.0
  C  C61  1  0.46974000  0.75000000  0.13761000  1.0
  C  C62  1  0.03025000  0.75001000  0.63761000  1.0
  C  C63  1  0.53026000  0.25000000  0.86239000  1.0
  C  C64  1  0.87904000  0.24999000  0.44740000  1.0
  C  C65  1  0.37904000  0.75000000  0.05259000  1.0
  C  C66  1  0.12096000  0.75001000  0.55260000  1.0
  C  C67  1  0.62096000  0.25000000  0.94740000  1.0
  C  C68  1  0.76703000  0.33996000  0.56517000  1.0
  C  C69  1  0.26703000  0.66004000  0.93483000  1.0
  C  C70  1  0.23297000  0.83997000  0.43483000  1.0
  C  C71  1  0.73297000  0.16003000  0.06517000  1.0
  C  C72  1  0.23297000  0.66004000  0.43483000  1.0
  C  C73  1  0.73297000  0.33997000  0.06517000  1.0
  C  C74  1  0.76702000  0.16003000  0.56517000  1.0
  C  C75  1  0.26703000  0.83997000  0.93483000  1.0
  C  C76  1  0.72748000  0.24999000  0.60809000  1.0
  C  C77  1  0.22748000  0.75000000  0.89190000  1.0
  C  C78  1  0.27252000  0.75001000  0.39191000  1.0
  C  C79  1  0.77252000  0.25000000  0.10810000  1.0
  N  N80  1  0.01081000  0.33923000  0.32807000  1.0
  N  N81  1  0.51080000  0.66076000  0.17193000  1.0
  N  N82  1  0.98920000  0.83924000  0.67194000  1.0
  N  N83  1  0.48920000  0.16076000  0.82807000  1.0
  N  N84  1  0.98919000  0.66077000  0.67194000  1.0
  N  N85  1  0.48920000  0.33924000  0.82808000  1.0
  N  N86  1  0.01080000  0.16076000  0.32807000  1.0
  N  N87  1  0.51080000  0.83924000  0.17193000  1.0
  N  N88  1  0.84355000  0.33887000  0.48412000  1.0
  N  N89  1  0.34354000  0.66113000  0.01588000  1.0
  N  N90  1  0.15645000  0.83888000  0.51588000  1.0
  N  N91  1  0.65646000  0.16113000  0.98412000  1.0
  N  N92  1  0.15645000  0.66113000  0.51588000  1.0
  N  N93  1  0.65646000  0.33888000  0.98412000  1.0
  N  N94  1  0.84354000  0.16112000  0.48412000  1.0
  N  N95  1  0.34354000  0.83888000  0.01588000  1.0
  O  O96  1  0.69141000  0.42394000  0.31610000  1.0
  O  O97  1  0.19141000  0.57605000  0.18390000  1.0
  O  O98  1  0.30860000  0.92395000  0.68389000  1.0
  O  O99  1  0.80860000  0.07605000  0.81611000  1.0
  O  O100  1  0.30860000  0.57605000  0.68389000  1.0
  O  O101  1  0.80860000  0.42394000  0.81610000  1.0
  O  O102  1  0.69140000  0.07604000  0.31611000  1.0
  O  O103  1  0.19140000  0.92395000  0.18390000  1.0
  O  O104  1  0.84138000  0.54737000  0.49455000  1.0
  O  O105  1  0.34137000  0.45262000  0.00546000  1.0
  O  O106  1  0.15860000  0.04738000  0.50546000  1.0
  O  O107  1  0.65863000  0.95263000  0.99454000  1.0
  O  O108  1  0.15862000  0.45263000  0.50546000  1.0
  O  O109  1  0.65864000  0.54737000  0.99454000  1.0
  O  O110  1  0.84139000  0.95262000  0.49455000  1.0
  O  O111  1  0.34137000  0.04738000  0.00546000  1.0
  O  O112  1  0.97500000  0.55905000  0.31925000  1.0
  O  O113  1  0.47499000  0.44094000  0.18075000  1.0
  O  O114  1  0.02501000  0.05906000  0.68074000  1.0
  O  O115  1  0.52501000  0.94095000  0.81925000  1.0
  O  O116  1  0.02501000  0.44095000  0.68074000  1.0
  O  O117  1  0.52502000  0.55906000  0.81925000  1.0
  O  O118  1  0.97499000  0.94094000  0.31926000  1.0
  O  O119  1  0.47499000  0.05906000  0.18075000  1.0
  O  O120  1  0.62120000  0.59364000  0.63419000  1.0
  O  O121  1  0.12121000  0.40635000  0.86580000  1.0
  O  O122  1  0.37880000  0.09364000  0.36580000  1.0
  O  O123  1  0.87879000  0.90636000  0.13420000  1.0
  O  O124  1  0.37880000  0.40635000  0.36581000  1.0
  O  O125  1  0.87881000  0.59364000  0.13419000  1.0
  O  O126  1  0.62120000  0.90635000  0.63419000  1.0
  O  O127  1  0.12120000  0.09364000  0.86580000  1.0
  O  O128  1  0.55269000  0.60792000  0.44269000  1.0
  O  O129  1  0.05269000  0.39208000  0.05730000  1.0
  O  O130  1  0.44729000  0.10791000  0.55730000  1.0
  O  O131  1  0.94731000  0.89209000  0.94271000  1.0
  O  O132  1  0.44730000  0.39208000  0.55731000  1.0
  O  O133  1  0.94731000  0.60792000  0.94269000  1.0
  O  O134  1  0.55270000  0.89208000  0.44270000  1.0
  O  O135  1  0.05269000  0.10792000  0.05729000  1.0
  O  O136  1  0.75378000  0.75000000  0.51805000  1.0
  O  O137  1  0.25378000  0.25000000  0.98195000  1.0
  O  O138  1  0.24622000  0.25000000  0.48195000  1.0
  O  O139  1  0.74622000  0.75000000  0.01805000  1.0
  O  O140  1  0.53374000  0.25000000  0.26172000  1.0
  O  O141  1  0.03374000  0.75000000  0.23828000  1.0
  O  O142  1  0.46627000  0.75000000  0.73828000  1.0
  O  O143  1  0.96626000  0.25000000  0.76172000  1.0
