# generated using pymatgen
data_Zn4H45C42N3O16
_symmetry_space_group_name_H-M   'P 1'
_cell_length_a   18.79900693
_cell_length_b   19.32460000
_cell_length_c   18.85794247
_cell_angle_alpha   118.16325442
_cell_angle_beta   119.21997667
_cell_angle_gamma   61.46371905
_symmetry_Int_Tables_number   1
_chemical_formula_structural   Zn4H45C42N3O16
_chemical_formula_sum   'Zn8 H90 C84 N6 O32'
_cell_volume   4991.44244319
_cell_formula_units_Z   2
loop_
 _symmetry_equiv_pos_site_id
 _symmetry_equiv_pos_as_xyz
  1  'x, y, z'
loop_
 _atom_site_type_symbol
 _atom_site_label
 _atom_site_symmetry_multiplicity
 _atom_site_fract_x
 _atom_site_fract_y
 _atom_site_fract_z
 _atom_site_occupancy
  Zn  Zn0  1  0.05062000  0.03550000  0.96196000  1.0
  Zn  Zn1  1  0.87353000  0.03385000  0.94714000  1.0
  Zn  Zn2  1  0.03400000  0.03337000  0.12238000  1.0
  Zn  Zn3  1  0.03922000  0.87387000  0.95744000  1.0
  Zn  Zn4  1  0.46148000  0.45057000  0.53914000  1.0
  Zn  Zn5  1  0.62809000  0.45203000  0.53484000  1.0
  Zn  Zn6  1  0.45999000  0.61517000  0.53462000  1.0
  Zn  Zn7  1  0.45885000  0.45107000  0.37068000  1.0
  H  H8  1  0.87999000  0.23520000  0.86185000  1.0
  H  H9  1  0.83378000  0.16931000  0.76397000  1.0
  H  H10  1  0.73866000  0.25443000  0.88947000  1.0
  H  H11  1  0.69605000  0.23284000  0.77836000  1.0
  H  H12  1  0.73431000  0.41435000  0.78501000  1.0
  H  H13  1  0.81621000  0.31995000  0.78725000  1.0
  H  H14  1  0.73543000  0.25379000  0.65309000  1.0
  H  H15  1  0.64990000  0.28699000  0.68900000  1.0
  H  H16  1  0.81559000  0.40203000  0.06239000  1.0
  H  H17  1  0.71406000  0.39395000  0.99674000  1.0
  H  H18  1  0.58672000  0.31187000  0.82044000  1.0
  H  H19  1  0.44081000  0.40888000  0.81699000  1.0
  H  H20  1  0.40473000  0.55801000  0.84020000  1.0
  H  H21  1  0.51795000  0.60911000  0.86702000  1.0
  H  H22  1  0.66428000  0.51209000  0.87056000  1.0
  H  H23  1  0.13651000  0.22836000  0.25116000  1.0
  H  H24  1  0.23528000  0.16316000  0.23665000  1.0
  H  H25  1  0.10986000  0.25632000  0.10777000  1.0
  H  H26  1  0.22202000  0.23123000  0.15183000  1.0
  H  H27  1  0.21843000  0.40387000  0.36593000  1.0
  H  H28  1  0.21736000  0.30719000  0.34687000  1.0
  H  H29  1  0.35399000  0.24785000  0.33846000  1.0
  H  H30  1  0.31597000  0.27984000  0.24894000  1.0
  H  H31  1  0.93819000  0.40696000  0.17695000  1.0
  H  H32  1  0.99919000  0.39180000  0.12151000  1.0
  H  H33  1  0.18477000  0.31471000  0.08700000  1.0
  H  H34  1  0.18979000  0.41584000  0.04649000  1.0
  H  H35  1  0.16400000  0.56372000  0.13677000  1.0
  H  H36  1  0.13289000  0.60932000  0.26955000  1.0
  H  H37  1  0.12823000  0.50791000  0.31063000  1.0
  H  H38  1  0.26713000  0.62338000  0.64682000  1.0
  H  H39  1  0.34170000  0.66619000  0.73895000  1.0
  H  H40  1  0.24297000  0.75707000  0.60800000  1.0
  H  H41  1  0.27325000  0.79841000  0.71967000  1.0
  H  H42  1  0.09265000  0.76742000  0.73001000  1.0
  H  H43  1  0.19214000  0.69127000  0.73230000  1.0
  H  H44  1  0.25881000  0.77646000  0.86067000  1.0
  H  H45  1  0.21873000  0.85488000  0.81475000  1.0
  H  H46  1  0.07130000  0.67784000  0.44590000  1.0
  H  H47  1  0.09333000  0.77145000  0.50216000  1.0
  H  H48  1  0.18921000  0.90745000  0.68399000  1.0
  H  H49  1  0.08763000  0.04825000  0.68442000  1.0
  H  H50  1  0.93286000  0.08104000  0.65580000  1.0
  H  H51  1  0.88061000  0.96978000  0.62625000  1.0
  H  H52  1  0.98246000  0.82897000  0.62704000  1.0
  H  H53  1  0.74831000  0.23996000  0.10959000  1.0
  H  H54  1  0.75527000  0.18071000  0.16105000  1.0
  H  H55  1  0.88784000  0.27019000  0.24684000  1.0
  H  H56  1  0.85198000  0.24022000  0.29477000  1.0
  H  H57  1  0.62861000  0.40937000  0.25352000  1.0
  H  H58  1  0.65156000  0.31340000  0.17724000  1.0
  H  H59  1  0.66424000  0.25185000  0.26464000  1.0
  H  H60  1  0.75332000  0.28500000  0.34395000  1.0
  H  H61  1  0.79194000  0.46788000  0.19234000  1.0
  H  H62  1  0.84943000  0.44104000  0.28558000  1.0
  H  H63  1  0.91607000  0.32218000  0.40121000  1.0
  H  H64  1  0.95660000  0.41847000  0.54662000  1.0
  H  H65  1  0.85917000  0.56313000  0.58525000  1.0
  H  H66  1  0.71858000  0.61025000  0.47521000  1.0
  H  H67  1  0.67737000  0.51385000  0.32956000  1.0
  H  H68  1  0.74835000  0.62384000  0.73281000  1.0
  H  H69  1  0.73247000  0.66928000  0.66310000  1.0
  H  H70  1  0.60397000  0.75618000  0.75627000  1.0
  H  H71  1  0.64408000  0.80019000  0.72664000  1.0
  H  H72  1  0.86235000  0.76778000  0.90750000  1.0
  H  H73  1  0.84278000  0.69050000  0.81006000  1.0
  H  H74  1  0.82645000  0.77298000  0.74167000  1.0
  H  H75  1  0.74045000  0.85200000  0.77743000  1.0
  H  H76  1  0.68562000  0.68325000  0.93356000  1.0
  H  H77  1  0.63370000  0.77967000  0.91650000  1.0
  H  H78  1  0.58261000  0.90718000  0.80828000  1.0
  H  H79  1  0.54327000  0.04832000  0.90695000  1.0
  H  H80  1  0.63483000  0.08301000  0.06035000  1.0
  H  H81  1  0.76741000  0.97324000  0.11405000  1.0
  H  H82  1  0.80742000  0.83201000  0.01521000  1.0
  H  H83  1  0.36086000  0.62311000  0.24412000  1.0
  H  H84  1  0.26375000  0.66675000  0.26275000  1.0
  H  H85  1  0.39635000  0.75520000  0.38705000  1.0
  H  H86  1  0.28399000  0.79807000  0.34890000  1.0
  H  H87  1  0.27434000  0.77458000  0.13171000  1.0
  H  H88  1  0.27601000  0.69282000  0.14885000  1.0
  H  H89  1  0.14770000  0.77125000  0.17753000  1.0
  H  H90  1  0.18808000  0.85339000  0.25624000  1.0
  H  H91  1  0.56108000  0.68183000  0.30124000  1.0
  H  H92  1  0.50224000  0.77582000  0.35701000  1.0
  H  H93  1  0.31324000  0.90814000  0.40517000  1.0
  H  H94  1  0.31175000  0.04953000  0.44329000  1.0
  H  H95  1  0.34684000  0.08376000  0.35487000  1.0
  H  H96  1  0.38301000  0.97354000  0.22594000  1.0
  H  H97  1  0.38284000  0.83224000  0.18661000  1.0
  C  C98  1  0.87909000  0.13170000  0.87104000  1.0
  C  C99  1  0.83517000  0.19985000  0.83069000  1.0
  C  C100  1  0.74547000  0.25658000  0.83603000  1.0
  C  C101  1  0.72839000  0.34771000  0.84742000  1.0
  C  C102  1  0.74729000  0.35005000  0.77751000  1.0
  C  C103  1  0.69304000  0.30845000  0.68689000  1.0
  C  C104  1  0.63729000  0.36366000  0.63044000  1.0
  C  C105  1  0.79316000  0.37727000  0.93716000  1.0
  C  C106  1  0.63665000  0.40436000  0.84508000  1.0
  C  C107  1  0.57262000  0.37681000  0.83051000  1.0
  C  C108  1  0.48968000  0.43183000  0.82868000  1.0
  C  C109  1  0.46940000  0.51534000  0.84165000  1.0
  C  C110  1  0.53283000  0.54381000  0.85665000  1.0
  C  C111  1  0.61521000  0.48898000  0.85836000  1.0
  C  C112  1  0.12788000  0.12819000  0.13811000  1.0
  C  C113  1  0.16841000  0.19514000  0.20299000  1.0
  C  C114  1  0.16411000  0.25481000  0.16808000  1.0
  C  C115  1  0.15486000  0.34367000  0.23265000  1.0
  C  C116  1  0.22644000  0.34098000  0.32050000  1.0
  C  C117  1  0.31760000  0.30177000  0.31477000  1.0
  C  C118  1  0.37073000  0.35965000  0.36762000  1.0
  C  C119  1  0.06632000  0.37494000  0.24294000  1.0
  C  C120  1  0.15679000  0.40343000  0.20241000  1.0
  C  C121  1  0.17359000  0.37901000  0.12793000  1.0
  C  C122  1  0.17629000  0.43638000  0.10463000  1.0
  C  C123  1  0.16185000  0.51920000  0.15514000  1.0
  C  C124  1  0.14447000  0.54459000  0.22942000  1.0
  C  C125  1  0.14202000  0.48738000  0.25255000  1.0
  C  C126  1  0.36851000  0.61914000  0.62543000  1.0
  C  C127  1  0.30434000  0.66484000  0.67186000  1.0
  C  C128  1  0.24553000  0.75149000  0.66455000  1.0
  C  C129  1  0.15358000  0.76988000  0.65910000  1.0
  C  C130  1  0.15782000  0.75664000  0.73594000  1.0
  C  C131  1  0.20001000  0.81376000  0.82238000  1.0
  C  C132  1  0.14237000  0.86785000  0.87608000  1.0
  C  C133  1  0.11662000  0.70526000  0.57594000  1.0
  C  C134  1  0.09372000  0.85742000  0.65604000  1.0
  C  C135  1  0.12175000  0.92013000  0.67128000  1.0
  C  C136  1  0.06416000  0.00010000  0.67130000  1.0
  C  C137  1  0.97746000  0.01859000  0.65540000  1.0
  C  C138  1  0.94836000  0.95637000  0.63913000  1.0
  C  C139  1  0.00587000  0.87705000  0.63966000  1.0
  C  C140  1  0.85816000  0.13436000  0.11734000  1.0
  C  C141  1  0.79342000  0.20714000  0.15728000  1.0
  C  C142  1  0.83015000  0.26607000  0.24397000  1.0
  C  C143  1  0.76334000  0.35410000  0.26244000  1.0
  C  C144  1  0.67684000  0.34755000  0.24475000  1.0
  C  C145  1  0.68637000  0.30640000  0.30342000  1.0
  C  C146  1  0.63318000  0.36288000  0.36154000  1.0
  C  C147  1  0.74935000  0.39284000  0.19889000  1.0
  C  C148  1  0.79326000  0.41035000  0.35410000  1.0
  C  C149  1  0.87179000  0.38497000  0.41643000  1.0
  C  C150  1  0.89515000  0.43968000  0.49912000  1.0
  C  C151  1  0.84067000  0.52072000  0.52081000  1.0
  C  C152  1  0.76213000  0.54704000  0.45916000  1.0
  C  C153  1  0.73892000  0.49247000  0.37710000  1.0
  C  C154  1  0.63496000  0.62223000  0.62742000  1.0
  C  C155  1  0.69913000  0.66672000  0.69585000  1.0
  C  C156  1  0.66310000  0.75229000  0.75408000  1.0
  C  C157  1  0.72907000  0.77077000  0.84588000  1.0
  C  C158  1  0.81578000  0.75625000  0.84241000  1.0
  C  C159  1  0.80676000  0.81163000  0.79855000  1.0
  C  C160  1  0.86296000  0.86646000  0.85597000  1.0
  C  C161  1  0.74341000  0.70631000  0.88272000  1.0
  C  C162  1  0.69854000  0.85871000  0.90396000  1.0
  C  C163  1  0.62391000  0.92067000  0.87512000  1.0
  C  C164  1  0.60123000  0.00088000  0.93107000  1.0
  C  C165  1  0.65246000  0.02041000  0.01699000  1.0
  C  C166  1  0.72672000  0.95901000  0.04693000  1.0
  C  C167  1  0.74926000  0.87943000  0.99105000  1.0
  C  C168  1  0.37264000  0.61984000  0.35876000  1.0
  C  C169  1  0.33146000  0.66497000  0.29413000  1.0
  C  C170  1  0.33943000  0.75120000  0.32900000  1.0
  C  C171  1  0.34569000  0.77136000  0.26228000  1.0
  C  C172  1  0.26947000  0.75887000  0.17762000  1.0
  C  C173  1  0.18157000  0.81162000  0.19067000  1.0
  C  C174  1  0.12245000  0.86469000  0.13228000  1.0
  C  C175  1  0.43057000  0.70729000  0.24523000  1.0
  C  C176  1  0.34774000  0.85928000  0.29255000  1.0
  C  C177  1  0.32855000  0.92149000  0.36510000  1.0
  C  C178  1  0.32796000  0.00181000  0.38714000  1.0
  C  C179  1  0.34741000  0.02112000  0.33754000  1.0
  C  C180  1  0.36744000  0.95949000  0.26534000  1.0
  C  C181  1  0.36730000  0.87988000  0.24326000  1.0
  N  N182  1  0.76939000  0.39776000  0.00403000  1.0
  N  N183  1  0.99619000  0.39381000  0.17475000  1.0
  N  N184  1  0.09727000  0.71721000  0.50191000  1.0
  N  N185  1  0.80871000  0.42929000  0.22413000  1.0
  N  N186  1  0.67866000  0.72283000  0.90797000  1.0
  N  N187  1  0.50411000  0.72061000  0.31010000  1.0
  O  O188  1  0.99910000  0.99515000  0.99747000  1.0
  O  O189  1  0.83486000  0.11840000  0.89461000  1.0
  O  O190  1  0.95825000  0.09302000  0.87830000  1.0
  O  O191  1  0.67378000  0.40008000  0.62318000  1.0
  O  O192  1  0.55805000  0.36833000  0.59363000  1.0
  O  O193  1  0.86363000  0.37739000  0.94829000  1.0
  O  O194  1  0.10300000  0.11884000  0.05887000  1.0
  O  O195  1  0.12169000  0.08624000  0.16939000  1.0
  O  O196  1  0.37631000  0.39619000  0.44599000  1.0
  O  O197  1  0.40665000  0.36647000  0.32970000  1.0
  O  O198  1  0.05896000  0.37888000  0.30652000  1.0
  O  O199  1  0.37780000  0.65841000  0.59356000  1.0
  O  O200  1  0.40816000  0.54325000  0.62213000  1.0
  O  O201  1  0.10453000  0.83209000  0.88229000  1.0
  O  O202  1  0.13669000  0.94434000  0.91095000  1.0
  O  O203  1  0.10967000  0.64503000  0.57604000  1.0
  O  O204  1  0.93803000  0.12107000  0.16177000  1.0
  O  O205  1  0.82625000  0.09171000  0.04079000  1.0
  O  O206  1  0.55403000  0.39921000  0.32608000  1.0
  O  O207  1  0.67129000  0.36893000  0.44077000  1.0
  O  O208  1  0.69183000  0.38796000  0.12826000  1.0
  O  O209  1  0.55514000  0.66076000  0.61712000  1.0
  O  O210  1  0.66767000  0.54788000  0.58549000  1.0
  O  O211  1  0.94190000  0.83085000  0.89259000  1.0
  O  O212  1  0.82701000  0.94345000  0.86294000  1.0
  O  O213  1  0.80558000  0.64210000  0.88386000  1.0
  O  O214  1  0.40191000  0.65911000  0.43773000  1.0
  O  O215  1  0.37482000  0.54452000  0.32733000  1.0
  O  O216  1  0.11533000  0.82920000  0.05356000  1.0
  O  O217  1  0.08446000  0.94043000  0.16657000  1.0
  O  O218  1  0.43236000  0.64604000  0.18092000  1.0
  O  O219  1  0.50197000  0.49420000  0.49565000  1.0
