# generated using pymatgen
data_LiH7C7SO8
_symmetry_space_group_name_H-M   'P 1'
_cell_length_a   6.51806000
_cell_length_b   6.58936000
_cell_length_c   11.89174133
_cell_angle_alpha   87.25094316
_cell_angle_beta   77.12479020
_cell_angle_gamma   74.31920000
_symmetry_Int_Tables_number   1
_chemical_formula_structural   LiH7C7SO8
_chemical_formula_sum   'Li2 H14 C14 S2 O16'
_cell_volume   479.33519755
_cell_formula_units_Z   2
loop_
 _symmetry_equiv_pos_site_id
 _symmetry_equiv_pos_as_xyz
  1  'x, y, z'
loop_
 _atom_site_type_symbol
 _atom_site_label
 _atom_site_symmetry_multiplicity
 _atom_site_fract_x
 _atom_site_fract_y
 _atom_site_fract_z
 _atom_site_occupancy
  Li  Li0  1  0.20332000  0.53634000  0.01028000  1.0
  Li  Li1  1  0.79668000  0.46368000  0.98972000  1.0
  H  H2  1  0.19587000  0.21884000  0.90476000  1.0
  H  H3  1  0.80415000  0.78115000  0.09523000  1.0
  H  H4  1  0.13917000  0.40969000  0.82277000  1.0
  H  H5  1  0.86085000  0.59031000  0.17721000  1.0
  H  H6  1  0.36656000  0.81835000  0.15076000  1.0
  H  H7  1  0.63342000  0.18165000  0.84925000  1.0
  H  H8  1  0.14023000  0.71153000  0.62702000  1.0
  H  H9  1  0.85977000  0.28848000  0.37298000  1.0
  H  H10  1  0.35046000  0.11372000  0.69172000  1.0
  H  H11  1  0.64954000  0.88629000  0.30829000  1.0
  H  H12  1  0.17700000  0.91009000  0.34269000  1.0
  H  H13  1  0.82300000  0.08992000  0.65730000  1.0
  H  H14  1  0.39504000  0.13581000  0.40337000  1.0
  H  H15  1  0.60497000  0.86418000  0.59663000  1.0
  C  C16  1  0.37446000  0.38163000  0.27687000  1.0
  C  C17  1  0.62556000  0.61836000  0.72312000  1.0
  C  C18  1  0.31516000  0.60302000  0.26041000  1.0
  C  C19  1  0.68483000  0.39697000  0.73959000  1.0
  C  C20  1  0.22810000  0.74061000  0.35461000  1.0
  C  C21  1  0.77189000  0.25937000  0.64539000  1.0
  C  C22  1  0.20883000  0.66263000  0.46686000  1.0
  C  C23  1  0.79117000  0.33737000  0.53314000  1.0
  C  C24  1  0.27096000  0.44083000  0.48422000  1.0
  C  C25  1  0.72903000  0.55918000  0.51578000  1.0
  C  C26  1  0.34979000  0.30415000  0.38795000  1.0
  C  C27  1  0.65022000  0.69584000  0.61206000  1.0
  C  C28  1  0.26070000  0.36247000  0.60119000  1.0
  C  C29  1  0.73931000  0.63753000  0.39881000  1.0
  S  S30  1  0.49227000  0.21375000  0.15388000  1.0
  S  S31  1  0.50772000  0.78625000  0.84613000  1.0
  O  O32  1  0.33220000  0.25920000  0.08060000  1.0
  O  O33  1  0.66780000  0.74082000  0.91940000  1.0
  O  O34  1  0.10327000  0.36276000  0.90408000  1.0
  O  O35  1  0.89672000  0.63723000  0.09592000  1.0
  O  O36  1  0.70094000  0.25667000  0.09973000  1.0
  O  O37  1  0.29908000  0.74332000  0.90027000  1.0
  O  O38  1  0.52595000  0.99342000  0.19723000  1.0
  O  O39  1  0.47405000  0.00657000  0.80278000  1.0
  O  O40  1  0.34643000  0.67470000  0.15058000  1.0
  O  O41  1  0.65355000  0.32530000  0.84942000  1.0
  O  O42  1  0.13416000  0.80009000  0.55552000  1.0
  O  O43  1  0.86584000  0.19991000  0.44447000  1.0
  O  O44  1  0.19524000  0.48607000  0.68719000  1.0
  O  O45  1  0.80474000  0.51394000  0.31281000  1.0
  O  O46  1  0.32789000  0.15542000  0.61204000  1.0
  O  O47  1  0.67210000  0.84458000  0.38798000  1.0
