# generated using pymatgen
data_CuH12C18I(NO2)2
_symmetry_space_group_name_H-M   'P 1'
_cell_length_a   8.25249000
_cell_length_b   8.43928000
_cell_length_c   29.55110000
_cell_angle_alpha   89.99760000
_cell_angle_beta   94.56350000
_cell_angle_gamma   89.99980000
_symmetry_Int_Tables_number   1
_chemical_formula_structural   CuH12C18I(NO2)2
_chemical_formula_sum   'Cu4 H48 C72 I4 N8 O16'
_cell_volume   2051.56391756
_cell_formula_units_Z   4
loop_
 _symmetry_equiv_pos_site_id
 _symmetry_equiv_pos_as_xyz
  1  'x, y, z'
loop_
 _atom_site_type_symbol
 _atom_site_label
 _atom_site_symmetry_multiplicity
 _atom_site_fract_x
 _atom_site_fract_y
 _atom_site_fract_z
 _atom_site_occupancy
  Cu  Cu0  1  0.36792000  0.55051000  0.47753000  1.0
  Cu  Cu1  1  0.63211000  0.05045000  0.02249000  1.0
  Cu  Cu2  1  0.63212000  0.44952000  0.52249000  1.0
  Cu  Cu3  1  0.36791000  0.94947000  0.97751000  1.0
  H  H4  1  0.75166000  0.65232000  0.20725000  1.0
  H  H5  1  0.24836000  0.15237000  0.29274000  1.0
  H  H6  1  0.24836000  0.34765000  0.79274000  1.0
  H  H7  1  0.75159000  0.84764000  0.70726000  1.0
  H  H8  1  0.30215000  0.38965000  0.18951000  1.0
  H  H9  1  0.69786000  0.88969000  0.31051000  1.0
  H  H10  1  0.69784000  0.61037000  0.81050000  1.0
  H  H11  1  0.30211000  0.11038000  0.68948000  1.0
  H  H12  1  0.32811000  0.38051000  0.10572000  1.0
  H  H13  1  0.67186000  0.88056000  0.39430000  1.0
  H  H14  1  0.67183000  0.61948000  0.89429000  1.0
  H  H15  1  0.32816000  0.11953000  0.60569000  1.0
  H  H16  1  0.56096000  0.51248000  0.07285000  1.0
  H  H17  1  0.43898000  0.01256000  0.42715000  1.0
  H  H18  1  0.43897000  0.48748000  0.92715000  1.0
  H  H19  1  0.56103000  0.98753000  0.57285000  1.0
  H  H20  1  0.17724000  0.70076000  0.40389000  1.0
  H  H21  1  0.82281000  0.20073000  0.09612000  1.0
  H  H22  1  0.82280000  0.29924000  0.59613000  1.0
  H  H23  1  0.17717000  0.79923000  0.90387000  1.0
  H  H24  1  0.18427000  0.73518000  0.32044000  1.0
  H  H25  1  0.81578000  0.23518000  0.17956000  1.0
  H  H26  1  0.81576000  0.26479000  0.67957000  1.0
  H  H27  1  0.18419000  0.76484000  0.82042000  1.0
  H  H28  1  0.58769000  0.40729000  0.32581000  1.0
  H  H29  1  0.41237000  0.90729000  0.17421000  1.0
  H  H30  1  0.41241000  0.59277000  0.67421000  1.0
  H  H31  1  0.58759000  0.09273000  0.82578000  1.0
  H  H32  1  0.56267000  0.38418000  0.40962000  1.0
  H  H33  1  0.43736000  0.88417000  0.09041000  1.0
  H  H34  1  0.43743000  0.61588000  0.59040000  1.0
  H  H35  1  0.56261000  0.11581000  0.90959000  1.0
  H  H36  1  0.28472000  0.61904000  0.99261000  1.0
  H  H37  1  0.71530000  0.11905000  0.50739000  1.0
  H  H38  1  0.71529000  0.38094000  0.00739000  1.0
  H  H39  1  0.28470000  0.88096000  0.49261000  1.0
  H  H40  1  0.11629000  0.46565000  0.04339000  1.0
  H  H41  1  0.88375000  0.96569000  0.45661000  1.0
  H  H42  1  0.88373000  0.53430000  0.95661000  1.0
  H  H43  1  0.11627000  0.03430000  0.54339000  1.0
  H  H44  1  0.93729000  0.91049000  0.09161000  1.0
  H  H45  1  0.06266000  0.41054000  0.40838000  1.0
  H  H46  1  0.06264000  0.08944000  0.90838000  1.0
  H  H47  1  0.93735000  0.58944000  0.59162000  1.0
  H  H48  1  0.11878000  0.04747000  0.03986000  1.0
  H  H49  1  0.88121000  0.54749000  0.46014000  1.0
  H  H50  1  0.88117000  0.95249000  0.96013000  1.0
  H  H51  1  0.11881000  0.45250000  0.53987000  1.0
  C  C52  1  0.66914000  0.58740000  0.13833000  1.0
  C  C53  1  0.33083000  0.08745000  0.36166000  1.0
  C  C54  1  0.33084000  0.41257000  0.86167000  1.0
  C  C55  1  0.66915000  0.91258000  0.63833000  1.0
  C  C56  1  0.65874000  0.59319000  0.18510000  1.0
  C  C57  1  0.34125000  0.09325000  0.31490000  1.0
  C  C58  1  0.34125000  0.40678000  0.81490000  1.0
  C  C59  1  0.65871000  0.90678000  0.68509000  1.0
  C  C60  1  0.52491000  0.52164000  0.20256000  1.0
  C  C61  1  0.47508000  0.02169000  0.29745000  1.0
  C  C62  1  0.47507000  0.47836000  0.79745000  1.0
  C  C63  1  0.52487000  0.97835000  0.70254000  1.0
  C  C64  1  0.40508000  0.44483000  0.17477000  1.0
  C  C65  1  0.59491000  0.94486000  0.32524000  1.0
  C  C66  1  0.59489000  0.55519000  0.82524000  1.0
  C  C67  1  0.40508000  0.05518000  0.67475000  1.0
  C  C68  1  0.41965000  0.44094000  0.12809000  1.0
  C  C69  1  0.58031000  0.94098000  0.37192000  1.0
  C  C70  1  0.58030000  0.55905000  0.87192000  1.0
  C  C71  1  0.41968000  0.05907000  0.62806000  1.0
  C  C72  1  0.55122000  0.51286000  0.10941000  1.0
  C  C73  1  0.44873000  0.01291000  0.39059000  1.0
  C  C74  1  0.44873000  0.48713000  0.89059000  1.0
  C  C75  1  0.55128000  0.98715000  0.60941000  1.0
  C  C76  1  0.26492000  0.63592000  0.38545000  1.0
  C  C77  1  0.73513000  0.13592000  0.11456000  1.0
  C  C78  1  0.73513000  0.36407000  0.61457000  1.0
  C  C79  1  0.26485000  0.86407000  0.88543000  1.0
  C  C80  1  0.26917000  0.65542000  0.33899000  1.0
  C  C81  1  0.73088000  0.15543000  0.16102000  1.0
  C  C82  1  0.73088000  0.34456000  0.66103000  1.0
  C  C83  1  0.26909000  0.84458000  0.83897000  1.0
  C  C84  1  0.38663000  0.57396000  0.31655000  1.0
  C  C85  1  0.61344000  0.07398000  0.18346000  1.0
  C  C86  1  0.61343000  0.42605000  0.68347000  1.0
  C  C87  1  0.38654000  0.92605000  0.81653000  1.0
  C  C88  1  0.49539000  0.47440000  0.34196000  1.0
  C  C89  1  0.50467000  0.97443000  0.15806000  1.0
  C  C90  1  0.50471000  0.52562000  0.65806000  1.0
  C  C91  1  0.49530000  0.02559000  0.84193000  1.0
  C  C92  1  0.48195000  0.46102000  0.38845000  1.0
  C  C93  1  0.51808000  0.96103000  0.11156000  1.0
  C  C94  1  0.51813000  0.53900000  0.61156000  1.0
  C  C95  1  0.48189000  0.03896000  0.88843000  1.0
  C  C96  1  0.38754000  0.59742000  0.26671000  1.0
  C  C97  1  0.61252000  0.09745000  0.23330000  1.0
  C  C98  1  0.61249000  0.40259000  0.73330000  1.0
  C  C99  1  0.38743000  0.90260000  0.76669000  1.0
  C  C100  1  0.20563000  0.67952000  0.01489000  1.0
  C  C101  1  0.79436000  0.17955000  0.48511000  1.0
  C  C102  1  0.79436000  0.32045000  0.98510000  1.0
  C  C103  1  0.20564000  0.82046000  0.51490000  1.0
  C  C104  1  0.11295000  0.59455000  0.04350000  1.0
  C  C105  1  0.88706000  0.09459000  0.45650000  1.0
  C  C106  1  0.88706000  0.40540000  0.95650000  1.0
  C  C107  1  0.11295000  0.90541000  0.54350000  1.0
  C  C108  1  0.01371000  0.67612000  0.07185000  1.0
  C  C109  1  0.98627000  0.17619000  0.42814000  1.0
  C  C110  1  0.98627000  0.32382000  0.92814000  1.0
  C  C111  1  0.01374000  0.82382000  0.57186000  1.0
  C  C112  1  0.01355000  0.84195000  0.07054000  1.0
  C  C113  1  0.98641000  0.34201000  0.42945000  1.0
  C  C114  1  0.98641000  0.15798000  0.92945000  1.0
  C  C115  1  0.01358000  0.65799000  0.57055000  1.0
  C  C116  1  0.11226000  0.91840000  0.04149000  1.0
  C  C117  1  0.88773000  0.41844000  0.45850000  1.0
  C  C118  1  0.88771000  0.08155000  0.95850000  1.0
  C  C119  1  0.11228000  0.58157000  0.54150000  1.0
  C  C120  1  0.91146000  0.58041000  0.10039000  1.0
  C  C121  1  0.08852000  0.08046000  0.39960000  1.0
  C  C122  1  0.08853000  0.41954000  0.89960000  1.0
  C  C123  1  0.91149000  0.91953000  0.60040000  1.0
  I  I124  1  0.62577000  0.74708000  0.49402000  1.0
  I  I125  1  0.37424000  0.24700000  0.00599000  1.0
  I  I126  1  0.37426000  0.25297000  0.50599000  1.0
  I  I127  1  0.62577000  0.75290000  0.99402000  1.0
  N  N128  1  0.36928000  0.54062000  0.41018000  1.0
  N  N129  1  0.63077000  0.04061000  0.08984000  1.0
  N  N130  1  0.63080000  0.45939000  0.58983000  1.0
  N  N131  1  0.36924000  0.95935000  0.91016000  1.0
  N  N132  1  0.20744000  0.83987000  0.01369000  1.0
  N  N133  1  0.79258000  0.33991000  0.48631000  1.0
  N  N134  1  0.79256000  0.16009000  0.98631000  1.0
  N  N135  1  0.20743000  0.66011000  0.51369000  1.0
  O  O136  1  0.51808000  0.52245000  0.24984000  1.0
  O  O137  1  0.48195000  0.02252000  0.25017000  1.0
  O  O138  1  0.48195000  0.47755000  0.75017000  1.0
  O  O139  1  0.51800000  0.97752000  0.74982000  1.0
  O  O140  1  0.28649000  0.67351000  0.24356000  1.0
  O  O141  1  0.71362000  0.17346000  0.25645000  1.0
  O  O142  1  0.71353000  0.32652000  0.75646000  1.0
  O  O143  1  0.28633000  0.82658000  0.74353000  1.0
  O  O144  1  0.79685000  0.66930000  0.11991000  1.0
  O  O145  1  0.20313000  0.16935000  0.38008000  1.0
  O  O146  1  0.20314000  0.33063000  0.88008000  1.0
  O  O147  1  0.79684000  0.83068000  0.61992000  1.0
  O  O148  1  0.92627000  0.43741000  0.10568000  1.0
  O  O149  1  0.07375000  0.93747000  0.39433000  1.0
  O  O150  1  0.07373000  0.56253000  0.89432000  1.0
  O  O151  1  0.92631000  0.06254000  0.60569000  1.0
