# generated using pymatgen
data_AlH18C24(NO2)3
_symmetry_space_group_name_H-M   'P 1'
_cell_length_a   3.95832000
_cell_length_b   27.89510000
_cell_length_c   27.89383509
_cell_angle_alpha   60.00150000
_cell_angle_beta   89.99279967
_cell_angle_gamma   89.98770000
_symmetry_Int_Tables_number   1
_chemical_formula_structural   AlH18C24(NO2)3
_chemical_formula_sum   'Al2 H36 C48 N6 O12'
_cell_volume   2667.37599258
_cell_formula_units_Z   2
loop_
 _symmetry_equiv_pos_site_id
 _symmetry_equiv_pos_as_xyz
  1  'x, y, z'
loop_
 _atom_site_type_symbol
 _atom_site_label
 _atom_site_symmetry_multiplicity
 _atom_site_fract_x
 _atom_site_fract_y
 _atom_site_fract_z
 _atom_site_occupancy
  Al  Al0  1  0.01276000  1.00000000  0.49999000  1.0
  Al  Al1  1  0.01279000  0.66667000  0.16667000  1.0
  H  H2  1  0.40013000  0.51083000  0.31161000  1.0
  H  H3  1  0.39860000  0.40686000  0.36041000  1.0
  H  H4  1  0.52887000  0.41435000  0.20419000  1.0
  H  H5  1  0.52902000  0.25232000  0.46247000  1.0
  H  H6  1  0.39844000  0.25982000  0.30625000  1.0
  H  H7  1  0.39988000  0.15584000  0.35506000  1.0
  H  H8  1  0.39998000  0.81161000  0.17756000  1.0
  H  H9  1  0.39853000  0.86043000  0.23271000  1.0
  H  H10  1  0.52890000  0.70420000  0.38147000  1.0
  H  H11  1  0.52889000  0.96250000  0.28518000  1.0
  H  H12  1  0.39868000  0.80626000  0.43393000  1.0
  H  H13  1  0.40019000  0.85507000  0.48910000  1.0
  H  H14  1  0.39997000  0.67757000  0.01084000  1.0
  H  H15  1  0.39845000  0.73274000  0.90687000  1.0
  H  H16  1  0.52889000  0.88148000  0.91434000  1.0
  H  H17  1  0.52882000  0.78519000  0.75234000  1.0
  H  H18  1  0.39850000  0.93394000  0.75980000  1.0
  H  H19  1  0.40000000  0.98911000  0.65582000  1.0
  H  H20  1  0.82945000  0.53797000  0.12561000  1.0
  H  H21  1  0.41835000  0.56502000  0.11826000  1.0
  H  H22  1  0.48131000  0.50117000  0.11925000  1.0
  H  H23  1  0.82952000  0.12868000  0.54105000  1.0
  H  H24  1  0.41845000  0.10164000  0.54842000  1.0
  H  H25  1  0.48132000  0.16550000  0.54741000  1.0
  H  H26  1  0.82943000  0.62561000  0.33643000  1.0
  H  H27  1  0.41836000  0.61826000  0.31674000  1.0
  H  H28  1  0.48122000  0.61926000  0.37960000  1.0
  H  H29  1  0.82940000  0.04106000  0.33024000  1.0
  H  H30  1  0.41831000  0.04841000  0.34993000  1.0
  H  H31  1  0.48123000  0.04743000  0.28706000  1.0
  H  H32  1  0.82945000  0.83641000  0.03797000  1.0
  H  H33  1  0.41842000  0.81673000  0.06502000  1.0
  H  H34  1  0.48126000  0.87960000  0.00116000  1.0
  H  H35  1  0.82941000  0.83024000  0.62870000  1.0
  H  H36  1  0.41836000  0.84994000  0.60166000  1.0
  H  H37  1  0.48125000  0.78708000  0.66551000  1.0
  C  C38  1  0.50770000  0.95373000  0.58513000  1.0
  C  C39  1  0.50765000  0.08513000  0.46113000  1.0
  C  C40  1  0.50776000  0.96115000  0.45372000  1.0
  C  C41  1  0.50780000  0.58154000  0.20552000  1.0
  C  C42  1  0.50771000  0.70553000  0.21294000  1.0
  C  C43  1  0.50770000  0.71293000  0.08155000  1.0
  C  C44  1  0.48865000  0.52036000  0.23116000  1.0
  C  C45  1  0.43503000  0.48902000  0.28865000  1.0
  C  C46  1  0.43250000  0.43176000  0.31580000  1.0
  C  C47  1  0.47219000  0.40514000  0.28464000  1.0
  C  C48  1  0.50946000  0.43657000  0.22703000  1.0
  C  C49  1  0.52370000  0.49433000  0.19920000  1.0
  C  C50  1  0.50952000  0.23009000  0.43963000  1.0
  C  C51  1  0.47222000  0.26151000  0.38203000  1.0
  C  C52  1  0.43239000  0.23490000  0.35087000  1.0
  C  C53  1  0.43485000  0.17765000  0.37802000  1.0
  C  C54  1  0.48846000  0.14631000  0.43551000  1.0
  C  C55  1  0.52370000  0.17234000  0.46746000  1.0
  C  C56  1  0.48847000  0.73116000  0.24849000  1.0
  C  C57  1  0.43489000  0.78865000  0.22233000  1.0
  C  C58  1  0.43241000  0.81581000  0.25243000  1.0
  C  C59  1  0.47220000  0.78465000  0.31020000  1.0
  C  C60  1  0.50945000  0.72704000  0.33640000  1.0
  C  C61  1  0.52364000  0.69921000  0.30647000  1.0
  C  C62  1  0.50947000  0.93965000  0.33025000  1.0
  C  C63  1  0.47224000  0.88204000  0.35644000  1.0
  C  C64  1  0.43255000  0.85087000  0.41422000  1.0
  C  C65  1  0.43506000  0.87802000  0.44433000  1.0
  C  C66  1  0.48862000  0.93552000  0.41817000  1.0
  C  C67  1  0.52369000  0.96747000  0.36018000  1.0
  C  C68  1  0.48853000  0.74848000  0.02037000  1.0
  C  C69  1  0.43488000  0.72234000  0.98902000  1.0
  C  C70  1  0.43237000  0.75245000  0.93177000  1.0
  C  C71  1  0.47213000  0.81022000  0.90515000  1.0
  C  C72  1  0.50942000  0.83641000  0.93657000  1.0
  C  C73  1  0.52366000  0.80647000  0.99433000  1.0
  C  C74  1  0.50939000  0.83025000  0.73011000  1.0
  C  C75  1  0.47213000  0.85645000  0.76152000  1.0
  C  C76  1  0.43239000  0.91422000  0.73490000  1.0
  C  C77  1  0.43492000  0.94433000  0.67765000  1.0
  C  C78  1  0.48851000  0.91818000  0.64631000  1.0
  C  C79  1  0.52364000  0.86019000  0.67235000  1.0
  C  C80  1  0.56416000  0.52636000  0.13724000  1.0
  C  C81  1  0.56420000  0.14031000  0.52942000  1.0
  C  C82  1  0.56412000  0.63724000  0.33642000  1.0
  C  C83  1  0.56412000  0.02943000  0.33025000  1.0
  C  C84  1  0.56415000  0.83641000  0.02635000  1.0
  C  C85  1  0.56411000  0.83026000  0.64032000  1.0
  N  N86  1  0.47328000  0.34720000  0.30710000  1.0
  N  N87  1  0.47336000  0.31947000  0.35956000  1.0
  N  N88  1  0.47334000  0.80712000  0.34569000  1.0
  N  N89  1  0.47331000  0.85958000  0.32095000  1.0
  N  N90  1  0.47327000  0.84571000  0.84719000  1.0
  N  N91  1  0.47325000  0.82097000  0.81948000  1.0
  O  O92  1  0.75139000  0.99438000  0.44533000  1.0
  O  O93  1  0.75137000  0.94533000  0.56028000  1.0
  O  O94  1  0.75126000  0.06027000  0.49439000  1.0
  O  O95  1  0.28156000  0.94776000  0.49104000  1.0
  O  O96  1  0.28145000  0.06120000  0.44776000  1.0
  O  O97  1  0.28146000  0.99104000  0.56119000  1.0
  O  O98  1  0.75133000  0.72133000  0.10639000  1.0
  O  O99  1  0.75150000  0.60638000  0.17229000  1.0
  O  O100  1  0.75135000  0.67228000  0.22134000  1.0
  O  O101  1  0.28154000  0.67562000  0.10548000  1.0
  O  O102  1  0.28145000  0.71890000  0.17563000  1.0
  O  O103  1  0.28159000  0.60547000  0.21891000  1.0
