# generated using pymatgen
data_ZnH18C30(NO2)4
_symmetry_space_group_name_H-M   'P 1'
_cell_length_a   7.99291000
_cell_length_b   13.41100000
_cell_length_c   13.41100000
_cell_angle_alpha   88.45390000
_cell_angle_beta   83.85710000
_cell_angle_gamma   83.85710000
_symmetry_Int_Tables_number   1
_chemical_formula_structural   ZnH18C30(NO2)4
_chemical_formula_sum   'Zn2 H36 C60 N8 O16'
_cell_volume   1420.92750909
_cell_formula_units_Z   2
loop_
 _symmetry_equiv_pos_site_id
 _symmetry_equiv_pos_as_xyz
  1  'x, y, z'
loop_
 _atom_site_type_symbol
 _atom_site_label
 _atom_site_symmetry_multiplicity
 _atom_site_fract_x
 _atom_site_fract_y
 _atom_site_fract_z
 _atom_site_occupancy
  Zn  Zn0  1  0.25000000  0.80923000  0.19077000  1.0
  Zn  Zn1  1  0.75000000  0.19077000  0.80923000  1.0
  H  H2  1  0.44895000  0.84003000  0.87528000  1.0
  H  H3  1  0.05104000  0.12472000  0.15997000  1.0
  H  H4  1  0.55105000  0.15997000  0.12472000  1.0
  H  H5  1  0.94895000  0.87528000  0.84003000  1.0
  H  H6  1  0.61349000  0.53771000  0.96576000  1.0
  H  H7  1  0.88651000  0.03424000  0.46229000  1.0
  H  H8  1  0.38651000  0.46229000  0.03424000  1.0
  H  H9  1  0.11349000  0.96576000  0.53771000  1.0
  H  H10  1  0.77018000  0.50325000  0.79771000  1.0
  H  H11  1  0.72982000  0.20229000  0.49675000  1.0
  H  H12  1  0.22981000  0.49675000  0.20229000  1.0
  H  H13  1  0.27019000  0.79771000  0.50325000  1.0
  H  H14  1  0.90613000  0.74577000  0.47696000  1.0
  H  H15  1  0.59387000  0.52304000  0.25423000  1.0
  H  H16  1  0.09387000  0.25423000  0.52304000  1.0
  H  H17  1  0.40613000  0.47696000  0.74577000  1.0
  H  H18  1  0.82439000  0.86915000  0.51133000  1.0
  H  H19  1  0.67561000  0.48867000  0.13085000  1.0
  H  H20  1  0.17561000  0.13085000  0.48867000  1.0
  H  H21  1  0.32439000  0.51133000  0.86915000  1.0
  H  H22  1  0.46781000  0.94380000  0.25881000  1.0
  H  H23  1  0.03219000  0.74119000  0.05620000  1.0
  H  H24  1  0.53219000  0.05620000  0.74119000  1.0
  H  H25  1  0.96781000  0.25881000  0.94380000  1.0
  H  H26  1  0.67848000  0.94776000  0.38104000  1.0
  H  H27  1  0.82152000  0.61896000  0.05224000  1.0
  H  H28  1  0.32152000  0.05224000  0.61896000  1.0
  H  H29  1  0.17848000  0.38104000  0.94776000  1.0
  H  H30  1  0.60596000  0.63850000  0.45747000  1.0
  H  H31  1  0.89404000  0.54253000  0.36151000  1.0
  H  H32  1  0.39404000  0.36150000  0.54253000  1.0
  H  H33  1  0.10596000  0.45747000  0.63850000  1.0
  H  H34  1  0.40413000  0.64561000  0.32870000  1.0
  H  H35  1  0.09588000  0.67130000  0.35439000  1.0
  H  H36  1  0.59588000  0.35439000  0.67130000  1.0
  H  H37  1  0.90412000  0.32870000  0.64561000  1.0
  C  C38  1  0.78003000  0.65754000  0.63776000  1.0
  C  C39  1  0.71998000  0.36224000  0.34246000  1.0
  C  C40  1  0.21997000  0.34246000  0.36224000  1.0
  C  C41  1  0.28002000  0.63776000  0.65754000  1.0
  C  C42  1  0.62637000  0.81267000  0.67359000  1.0
  C  C43  1  0.87363000  0.32641000  0.18733000  1.0
  C  C44  1  0.37363000  0.18733000  0.32641000  1.0
  C  C45  1  0.12637000  0.67359000  0.81267000  1.0
  C  C46  1  0.60644000  0.74715000  0.76436000  1.0
  C  C47  1  0.89356000  0.23564000  0.25285000  1.0
  C  C48  1  0.39356000  0.25284000  0.23564000  1.0
  C  C49  1  0.10644000  0.76436000  0.74715000  1.0
  C  C50  1  0.51908000  0.76741000  0.85770000  1.0
  C  C51  1  0.98092000  0.14230000  0.23259000  1.0
  C  C52  1  0.48092000  0.23259000  0.14230000  1.0
  C  C53  1  0.01908000  0.85770000  0.76741000  1.0
  C  C54  1  0.52457000  0.69042000  0.93110000  1.0
  C  C55  1  0.97543000  0.06890000  0.30958000  1.0
  C  C56  1  0.47543000  0.30958000  0.06890000  1.0
  C  C57  1  0.02457000  0.93110000  0.69042000  1.0
  C  C58  1  0.61437000  0.59665000  0.90834000  1.0
  C  C59  1  0.88563000  0.09166000  0.40336000  1.0
  C  C60  1  0.38563000  0.40335000  0.09166000  1.0
  C  C61  1  0.11437000  0.90834000  0.59664000  1.0
  C  C62  1  0.70219000  0.57663000  0.81387000  1.0
  C  C63  1  0.79781000  0.18613000  0.42337000  1.0
  C  C64  1  0.29781000  0.42337000  0.18613000  1.0
  C  C65  1  0.20219000  0.81387000  0.57663000  1.0
  C  C66  1  0.69779000  0.65353000  0.74264000  1.0
  C  C67  1  0.80221000  0.25736000  0.34646000  1.0
  C  C68  1  0.30221000  0.34646000  0.25735000  1.0
  C  C69  1  0.19779000  0.74264000  0.65353000  1.0
  C  C70  1  0.43571000  0.70766000  0.03535000  1.0
  C  C71  1  0.06429000  0.96465000  0.29234000  1.0
  C  C72  1  0.56429000  0.29234000  0.96465000  1.0
  C  C73  1  0.93571000  0.03535000  0.70766000  1.0
  C  C74  1  0.79013000  0.79310000  0.50356000  1.0
  C  C75  1  0.70987000  0.49644000  0.20690000  1.0
  C  C76  1  0.20987000  0.20690000  0.49644000  1.0
  C  C77  1  0.29013000  0.50356000  0.79310000  1.0
  C  C78  1  0.50513000  0.87691000  0.30236000  1.0
  C  C79  1  0.99487000  0.69764000  0.12309000  1.0
  C  C80  1  0.49487000  0.12309000  0.69764000  1.0
  C  C81  1  0.00513000  0.30236000  0.87691000  1.0
  C  C82  1  0.62216000  0.87874000  0.37146000  1.0
  C  C83  1  0.87784000  0.62854000  0.12126000  1.0
  C  C84  1  0.37784000  0.12126000  0.62854000  1.0
  C  C85  1  0.12216000  0.37146000  0.87874000  1.0
  C  C86  1  0.66229000  0.79290000  0.42885000  1.0
  C  C87  1  0.83771000  0.57115000  0.20710000  1.0
  C  C88  1  0.33771000  0.20710000  0.57115000  1.0
  C  C89  1  0.16229000  0.42885000  0.79290000  1.0
  C  C90  1  0.58232000  0.70733000  0.41394000  1.0
  C  C91  1  0.91768000  0.58606000  0.29267000  1.0
  C  C92  1  0.41768000  0.29267000  0.58606000  1.0
  C  C93  1  0.08232000  0.41394000  0.70733000  1.0
  C  C94  1  0.46780000  0.71096000  0.34279000  1.0
  C  C95  1  0.03220000  0.65721000  0.28904000  1.0
  C  C96  1  0.53220000  0.28904000  0.65721000  1.0
  C  C97  1  0.96780000  0.34279000  0.71096000  1.0
  N  N98  1  0.73190000  0.75457000  0.60168000  1.0
  N  N99  1  0.76810000  0.39832000  0.24543000  1.0
  N  N100  1  0.26810000  0.24543000  0.39832000  1.0
  N  N101  1  0.23190000  0.60168000  0.75457000  1.0
  N  N102  1  0.42909000  0.79431000  0.28794000  1.0
  N  N103  1  0.07091000  0.71206000  0.20569000  1.0
  N  N104  1  0.57091000  0.20569000  0.71206000  1.0
  N  N105  1  0.92909000  0.28794000  0.79431000  1.0
  O  O106  1  0.87280000  0.59329000  0.58938000  1.0
  O  O107  1  0.62719000  0.41063000  0.40671000  1.0
  O  O108  1  0.12719000  0.40671000  0.41062000  1.0
  O  O109  1  0.37280000  0.58938000  0.59329000  1.0
  O  O110  1  0.56755000  0.89940000  0.65939000  1.0
  O  O111  1  0.93246000  0.34061000  0.10060000  1.0
  O  O112  1  0.43245000  0.10060000  0.34061000  1.0
  O  O113  1  0.06755000  0.65939000  0.89940000  1.0
  O  O114  1  0.35381000  0.79580000  0.04988000  1.0
  O  O115  1  0.14618000  0.95012000  0.20421000  1.0
  O  O116  1  0.64619000  0.20420000  0.95012000  1.0
  O  O117  1  0.85381000  0.04988000  0.79580000  1.0
  O  O118  1  0.44601000  0.63901000  0.10021000  1.0
  O  O119  1  0.05399000  0.89979000  0.36100000  1.0
  O  O120  1  0.55399000  0.36100000  0.89979000  1.0
  O  O121  1  0.94601000  0.10021000  0.63900000  1.0
