# generated using pymatgen
data_AgH6C5N7O2
_symmetry_space_group_name_H-M   'P 1'
_cell_length_a   7.56470000
_cell_length_b   9.40740000
_cell_length_c   13.08140000
_cell_angle_alpha   89.99990000
_cell_angle_beta   89.99950000
_cell_angle_gamma   80.13710000
_symmetry_Int_Tables_number   1
_chemical_formula_structural   AgH6C5N7O2
_chemical_formula_sum   'Ag4 H24 C20 N28 O8'
_cell_volume   917.16814395
_cell_formula_units_Z   4
loop_
 _symmetry_equiv_pos_site_id
 _symmetry_equiv_pos_as_xyz
  1  'x, y, z'
loop_
 _atom_site_type_symbol
 _atom_site_label
 _atom_site_symmetry_multiplicity
 _atom_site_fract_x
 _atom_site_fract_y
 _atom_site_fract_z
 _atom_site_occupancy
  Ag  Ag0  1  0.67957000  0.65875000  0.99469000  1.0
  Ag  Ag1  1  0.32043000  0.34125000  0.49469000  1.0
  Ag  Ag2  1  0.55946000  0.24127000  0.29792000  1.0
  Ag  Ag3  1  0.44055000  0.75873000  0.79792000  1.0
  H  H4  1  0.97353000  0.16177000  0.66509000  1.0
  H  H5  1  0.02647000  0.83823000  0.16509000  1.0
  H  H6  1  0.07702000  0.32116000  0.65881000  1.0
  H  H7  1  0.92297000  0.67884000  0.15882000  1.0
  H  H8  1  0.54547000  0.34185000  0.91313000  1.0
  H  H9  1  0.45454000  0.65815000  0.41313000  1.0
  H  H10  1  0.94830000  0.53505000  0.77466000  1.0
  H  H11  1  0.05170000  0.46495000  0.27466000  1.0
  H  H12  1  0.77668000  0.51572000  0.36687000  1.0
  H  H13  1  0.22331000  0.48427000  0.86688000  1.0
  H  H14  1  0.72497000  0.14060000  0.53197000  1.0
  H  H15  1  0.27503000  0.85940000  0.03197000  1.0
  H  H16  1  0.89752000  0.16963000  0.01985000  1.0
  H  H17  1  0.10248000  0.83037000  0.51985000  1.0
  H  H18  1  0.98158000  0.33724000  0.00341000  1.0
  H  H19  1  0.01842000  0.66276000  0.50341000  1.0
  H  H20  1  0.29762000  0.97951000  0.27590000  1.0
  H  H21  1  0.70238000  0.02050000  0.77590000  1.0
  H  H22  1  0.29019000  0.35707000  0.10104000  1.0
  H  H23  1  0.70981000  0.64294000  0.60104000  1.0
  H  H24  1  0.40493000  0.15655000  0.74671000  1.0
  H  H25  1  0.59508000  0.84346000  0.24671000  1.0
  H  H26  1  0.01020000  0.96339000  0.89385000  1.0
  H  H27  1  0.98980000  0.03661000  0.39385000  1.0
  C  C28  1  0.95015000  0.27965000  0.65821000  1.0
  C  C29  1  0.04984000  0.72035000  0.15821000  1.0
  C  C30  1  0.65084000  0.36340000  0.86208000  1.0
  C  C31  1  0.34916000  0.63660000  0.36207000  1.0
  C  C32  1  0.85314000  0.46527000  0.79465000  1.0
  C  C33  1  0.14686000  0.53473000  0.29466000  1.0
  C  C34  1  0.79163000  0.43237000  0.42504000  1.0
  C  C35  1  0.20836000  0.56763000  0.92505000  1.0
  C  C36  1  0.76229000  0.24109000  0.50676000  1.0
  C  C37  1  0.23771000  0.75891000  0.00677000  1.0
  C  C38  1  0.01710000  0.21956000  0.00906000  1.0
  C  C39  1  0.98290000  0.78044000  0.50906000  1.0
  C  C40  1  0.26233000  0.06425000  0.21959000  1.0
  C  C41  1  0.73767000  0.93576000  0.71959000  1.0
  C  C42  1  0.26036000  0.25684000  0.13243000  1.0
  C  C43  1  0.73964000  0.74316000  0.63243000  1.0
  C  C44  1  0.30127000  0.13506000  0.79917000  1.0
  C  C45  1  0.69874000  0.86494000  0.29917000  1.0
  C  C46  1  0.10276000  0.03418000  0.86998000  1.0
  C  C47  1  0.89724000  0.96582000  0.36998000  1.0
  N  N48  1  0.63711000  0.44223000  0.16541000  1.0
  N  N49  1  0.36290000  0.55776000  0.66541000  1.0
  N  N50  1  0.68620000  0.97236000  0.00149000  1.0
  N  N51  1  0.31380000  0.02764000  0.50149000  1.0
  N  N52  1  0.84260000  0.34207000  0.74404000  1.0
  N  N53  1  0.15739000  0.65793000  0.24404000  1.0
  N  N54  1  0.71334000  0.27557000  0.78602000  1.0
  N  N55  1  0.28665000  0.72444000  0.28602000  1.0
  N  N56  1  0.73348000  0.48157000  0.87040000  1.0
  N  N57  1  0.26652000  0.51843000  0.37040000  1.0
  N  N58  1  0.86290000  0.31785000  0.56133000  1.0
  N  N59  1  0.13709000  0.68215000  0.06133000  1.0
  N  N60  1  0.88316000  0.44072000  0.51068000  1.0
  N  N61  1  0.11684000  0.55928000  0.01068000  1.0
  N  N62  1  0.71616000  0.31061000  0.41931000  1.0
  N  N63  1  0.28384000  0.68939000  0.91931000  1.0
  N  N64  1  0.13317000  0.18526000  0.09714000  1.0
  N  N65  1  0.86683000  0.81474000  0.59714000  1.0
  N  N66  1  0.13415000  0.06099000  0.15104000  1.0
  N  N67  1  0.86585000  0.93902000  0.65104000  1.0
  N  N68  1  0.34332000  0.18296000  0.21083000  1.0
  N  N69  1  0.65668000  0.81704000  0.71083000  1.0
  N  N70  1  0.10803000  0.16213000  0.91641000  1.0
  N  N71  1  0.89198000  0.83787000  0.41641000  1.0
  N  N72  1  0.23585000  0.22821000  0.87196000  1.0
  N  N73  1  0.76415000  0.77179000  0.37196000  1.0
  N  N74  1  0.22381000  0.01386000  0.79501000  1.0
  N  N75  1  0.77620000  0.98614000  0.29501000  1.0
  O  O76  1  0.52188000  0.49587000  0.09939000  1.0
  O  O77  1  0.47812000  0.50411000  0.59939000  1.0
  O  O78  1  0.78341000  0.49017000  0.16517000  1.0
  O  O79  1  0.21658000  0.50985000  0.66517000  1.0
  O  O80  1  0.81420000  0.87076000  0.97658000  1.0
  O  O81  1  0.18580000  0.12924000  0.47658000  1.0
  O  O82  1  0.54437000  0.93102000  0.02954000  1.0
  O  O83  1  0.45563000  0.06899000  0.52953000  1.0
