# generated using pymatgen
data_NaZnP2H5(CO3)2
_symmetry_space_group_name_H-M   'P 1'
_cell_length_a   5.28988000
_cell_length_b   8.57316000
_cell_length_c   16.11430000
_cell_angle_alpha   90.00000000
_cell_angle_beta   89.99990000
_cell_angle_gamma   90.97300000
_symmetry_Int_Tables_number   1
_chemical_formula_structural   NaZnP2H5(CO3)2
_chemical_formula_sum   'Na4 Zn4 P8 H20 C8 O24'
_cell_volume   730.69404467
_cell_formula_units_Z   4
loop_
 _symmetry_equiv_pos_site_id
 _symmetry_equiv_pos_as_xyz
  1  'x, y, z'
loop_
 _atom_site_type_symbol
 _atom_site_label
 _atom_site_symmetry_multiplicity
 _atom_site_fract_x
 _atom_site_fract_y
 _atom_site_fract_z
 _atom_site_occupancy
  Na  Na0  1  0.42144000  0.67568000  0.85109000  1.0
  Na  Na1  1  0.07856000  0.82433000  0.35109000  1.0
  Na  Na2  1  0.57856000  0.32432000  0.14891000  1.0
  Na  Na3  1  0.92144000  0.17568000  0.64891000  1.0
  Zn  Zn4  1  0.91346000  0.89003000  0.81210000  1.0
  Zn  Zn5  1  0.58653000  0.60997000  0.31210000  1.0
  Zn  Zn6  1  0.08654000  0.10997000  0.18790000  1.0
  Zn  Zn7  1  0.41346000  0.39003000  0.68790000  1.0
  P  P8  1  0.88864000  0.71942000  0.97976000  1.0
  P  P9  1  0.61136000  0.78059000  0.47976000  1.0
  P  P10  1  0.11139000  0.28058000  0.02024000  1.0
  P  P11  1  0.38860000  0.21942000  0.52024000  1.0
  P  P12  1  0.57686000  0.92399000  0.20953000  1.0
  P  P13  1  0.92314000  0.57600000  0.70952000  1.0
  P  P14  1  0.42314000  0.07601000  0.79047000  1.0
  P  P15  1  0.07686000  0.42399000  0.29047000  1.0
  H  H16  1  0.74752000  0.47468000  0.98721000  1.0
  H  H17  1  0.75248000  0.02532000  0.48722000  1.0
  H  H18  1  0.25249000  0.52532000  0.01279000  1.0
  H  H19  1  0.24752000  0.97468000  0.51279000  1.0
  H  H20  1  0.88652000  0.66794000  0.12575000  1.0
  H  H21  1  0.61349000  0.83205000  0.62576000  1.0
  H  H22  1  0.11348000  0.33206000  0.87425000  1.0
  H  H23  1  0.38651000  0.16795000  0.37425000  1.0
  H  H24  1  0.99310000  0.85749000  0.09999000  1.0
  H  H25  1  0.50691000  0.64251000  0.59999000  1.0
  H  H26  1  0.00690000  0.14251000  0.90001000  1.0
  H  H27  1  0.49309000  0.35749000  0.40002000  1.0
  H  H28  1  0.52355000  0.92243000  0.06265000  1.0
  H  H29  1  0.97643000  0.57756000  0.56265000  1.0
  H  H30  1  0.47644000  0.07757000  0.93735000  1.0
  H  H31  1  0.02354000  0.42243000  0.43735000  1.0
  H  H32  1  0.43587000  0.74041000  0.10581000  1.0
  H  H33  1  0.06414000  0.75958000  0.60580000  1.0
  H  H34  1  0.56413000  0.25959000  0.89419000  1.0
  H  H35  1  0.93586000  0.24041000  0.39419000  1.0
  C  C36  1  0.84291000  0.77026000  0.08742000  1.0
  C  C37  1  0.65709000  0.72973000  0.58742000  1.0
  C  C38  1  0.15709000  0.22974000  0.91258000  1.0
  C  C39  1  0.34291000  0.27027000  0.41258000  1.0
  C  C40  1  0.58063000  0.83369000  0.10782000  1.0
  C  C41  1  0.91936000  0.66630000  0.60782000  1.0
  C  C42  1  0.41937000  0.16631000  0.89218000  1.0
  C  C43  1  0.08063000  0.33369000  0.39218000  1.0
  O  O44  1  0.80017000  0.85756000  0.92730000  1.0
  O  O45  1  0.69983000  0.64244000  0.42730000  1.0
  O  O46  1  0.19986000  0.14244000  0.07270000  1.0
  O  O47  1  0.30016000  0.35756000  0.57270000  1.0
  O  O48  1  0.16154000  0.67121000  0.96664000  1.0
  O  O49  1  0.33847000  0.82880000  0.46664000  1.0
  O  O50  1  0.83847000  0.32879000  0.03337000  1.0
  O  O51  1  0.66154000  0.17121000  0.53337000  1.0
  O  O52  1  0.70057000  0.57769000  0.95815000  1.0
  O  O53  1  0.79943000  0.92232000  0.45816000  1.0
  O  O54  1  0.29945000  0.42231000  0.04184000  1.0
  O  O55  1  0.20056000  0.07769000  0.54184000  1.0
  O  O56  1  0.72447000  0.08154000  0.20353000  1.0
  O  O57  1  0.77552000  0.41846000  0.70353000  1.0
  O  O58  1  0.27553000  0.91846000  0.79647000  1.0
  O  O59  1  0.22447000  0.58154000  0.29647000  1.0
  O  O60  1  0.30014000  0.95067000  0.23702000  1.0
  O  O61  1  0.19985000  0.54933000  0.73702000  1.0
  O  O62  1  0.69986000  0.04933000  0.76298000  1.0
  O  O63  1  0.80013000  0.45067000  0.26298000  1.0
  O  O64  1  0.70861000  0.81394000  0.27046000  1.0
  O  O65  1  0.79139000  0.68606000  0.77046000  1.0
  O  O66  1  0.29139000  0.18605000  0.72954000  1.0
  O  O67  1  0.20861000  0.31394000  0.22954000  1.0
