# generated using pymatgen
data_NdH3C2SO5
_symmetry_space_group_name_H-M   'P 1'
_cell_length_a   7.97527000
_cell_length_b   8.32286000
_cell_length_c   9.23557000
_cell_angle_alpha   84.82950000
_cell_angle_beta   89.99970000
_cell_angle_gamma   89.99990000
_symmetry_Int_Tables_number   1
_chemical_formula_structural   NdH3C2SO5
_chemical_formula_sum   'Nd4 H12 C8 S4 O20'
_cell_volume   610.53548278
_cell_formula_units_Z   4
loop_
 _symmetry_equiv_pos_site_id
 _symmetry_equiv_pos_as_xyz
  1  'x, y, z'
loop_
 _atom_site_type_symbol
 _atom_site_label
 _atom_site_symmetry_multiplicity
 _atom_site_fract_x
 _atom_site_fract_y
 _atom_site_fract_z
 _atom_site_occupancy
  Nd  Nd0  1  0.74982000  0.50327000  0.43775000  1.0
  Nd  Nd1  1  0.24982000  0.99673000  0.56225000  1.0
  Nd  Nd2  1  0.25018000  0.49674000  0.56225000  1.0
  Nd  Nd3  1  0.75018000  0.00327000  0.43775000  1.0
  H  H4  1  0.43531000  0.68932000  0.13503000  1.0
  H  H5  1  0.93531000  0.81067000  0.86497000  1.0
  H  H6  1  0.56468000  0.31067000  0.86497000  1.0
  H  H7  1  0.06469000  0.18933000  0.13503000  1.0
  H  H8  1  0.62166000  0.66674000  0.03558000  1.0
  H  H9  1  0.12166000  0.83326000  0.96442000  1.0
  H  H10  1  0.37834000  0.33326000  0.96442000  1.0
  H  H11  1  0.87834000  0.16674000  0.03558000  1.0
  H  H12  1  0.49413000  0.84313000  0.99422000  1.0
  H  H13  1  0.99413000  0.65686000  0.00577000  1.0
  H  H14  1  0.50587000  0.15686000  0.00577000  1.0
  H  H15  1  0.00587000  0.34314000  0.99422000  1.0
  C  C16  1  0.63750000  0.83739000  0.19136000  1.0
  C  C17  1  0.13750000  0.66261000  0.80864000  1.0
  C  C18  1  0.36250000  0.16261000  0.80864000  1.0
  C  C19  1  0.86250000  0.33739000  0.19136000  1.0
  C  C20  1  0.53998000  0.75599000  0.08093000  1.0
  C  C21  1  0.03998000  0.74401000  0.91907000  1.0
  C  C22  1  0.46002000  0.24401000  0.91907000  1.0
  C  C23  1  0.96002000  0.25599000  0.08093000  1.0
  S  S24  1  0.38236000  0.26913000  0.31373000  1.0
  S  S25  1  0.88236000  0.23087000  0.68627000  1.0
  S  S26  1  0.61764000  0.73087000  0.68627000  1.0
  S  S27  1  0.11765000  0.76913000  0.31373000  1.0
  O  O28  1  0.46937000  0.41418000  0.37906000  1.0
  O  O29  1  0.96937000  0.08582000  0.62094000  1.0
  O  O30  1  0.53064000  0.58582000  0.62094000  1.0
  O  O31  1  0.03064000  0.91418000  0.37906000  1.0
  O  O32  1  0.21224000  0.26349000  0.39428000  1.0
  O  O33  1  0.71224000  0.23651000  0.60572000  1.0
  O  O34  1  0.78776000  0.73651000  0.60572000  1.0
  O  O35  1  0.28777000  0.76349000  0.39429000  1.0
  O  O36  1  0.46851000  0.11492000  0.38804000  1.0
  O  O37  1  0.96851000  0.38507000  0.61196000  1.0
  O  O38  1  0.53149000  0.88508000  0.61196000  1.0
  O  O39  1  0.03149000  0.61493000  0.38803000  1.0
  O  O40  1  0.67112000  0.75765000  0.31622000  1.0
  O  O41  1  0.17112000  0.74235000  0.68378000  1.0
  O  O42  1  0.32888000  0.24235000  0.68378000  1.0
  O  O43  1  0.82888000  0.25765000  0.31622000  1.0
  O  O44  1  0.68666000  0.98182000  0.17074000  1.0
  O  O45  1  0.18666000  0.51818000  0.82926000  1.0
  O  O46  1  0.31333000  0.01817000  0.82926000  1.0
  O  O47  1  0.81334000  0.48182000  0.17074000  1.0
