# generated using pymatgen
data_CuPH16C12N3O4
_symmetry_space_group_name_H-M   'P 1'
_cell_length_a   9.67748000
_cell_length_b   16.49470000
_cell_length_c   18.04330000
_cell_angle_alpha   89.98170000
_cell_angle_beta   89.99930000
_cell_angle_gamma   89.99960000
_symmetry_Int_Tables_number   1
_chemical_formula_structural   CuPH16C12N3O4
_chemical_formula_sum   'Cu8 P8 H128 C96 N24 O32'
_cell_volume   2880.20003591
_cell_formula_units_Z   8
loop_
 _symmetry_equiv_pos_site_id
 _symmetry_equiv_pos_as_xyz
  1  'x, y, z'
loop_
 _atom_site_type_symbol
 _atom_site_label
 _atom_site_symmetry_multiplicity
 _atom_site_fract_x
 _atom_site_fract_y
 _atom_site_fract_z
 _atom_site_occupancy
  Cu  Cu0  1  0.42090000  0.94085000  0.17263000  1.0
  Cu  Cu1  1  0.57900000  0.55916000  0.67263000  1.0
  Cu  Cu2  1  0.92090000  0.05915000  0.32735000  1.0
  Cu  Cu3  1  0.07901000  0.44084000  0.82737000  1.0
  Cu  Cu4  1  0.57915000  0.05922000  0.82734000  1.0
  Cu  Cu5  1  0.42094000  0.44075000  0.32728000  1.0
  Cu  Cu6  1  0.07915000  0.94078000  0.67266000  1.0
  Cu  Cu7  1  0.92094000  0.55925000  0.17273000  1.0
  P  P8  1  0.17832000  0.97264000  0.26602000  1.0
  P  P9  1  0.82205000  0.52741000  0.76608000  1.0
  P  P10  1  0.67831000  0.02735000  0.23397000  1.0
  P  P11  1  0.32206000  0.47258000  0.73392000  1.0
  P  P12  1  0.82173000  0.02736000  0.73398000  1.0
  P  P13  1  0.17824000  0.47262000  0.23397000  1.0
  P  P14  1  0.32173000  0.97264000  0.76602000  1.0
  P  P15  1  0.67825000  0.52739000  0.26604000  1.0
  H  H16  1  0.30218000  0.80430000  0.22299000  1.0
  H  H17  1  0.69730000  0.69540000  0.72294000  1.0
  H  H18  1  0.80215000  0.19571000  0.27701000  1.0
  H  H19  1  0.19729000  0.30459000  0.77708000  1.0
  H  H20  1  0.69788000  0.19580000  0.77703000  1.0
  H  H21  1  0.30221000  0.30427000  0.27707000  1.0
  H  H22  1  0.19788000  0.80420000  0.72297000  1.0
  H  H23  1  0.80220000  0.69574000  0.22292000  1.0
  H  H24  1  0.12363000  0.79874000  0.19914000  1.0
  H  H25  1  0.87597000  0.70096000  0.69920000  1.0
  H  H26  1  0.62361000  0.20127000  0.30086000  1.0
  H  H27  1  0.37596000  0.29903000  0.80080000  1.0
  H  H28  1  0.87647000  0.20131000  0.80081000  1.0
  H  H29  1  0.12363000  0.29873000  0.30091000  1.0
  H  H30  1  0.37648000  0.79869000  0.69918000  1.0
  H  H31  1  0.62363000  0.70127000  0.19909000  1.0
  H  H32  1  0.21153000  0.68805000  0.12928000  1.0
  H  H33  1  0.78830000  0.81181000  0.62929000  1.0
  H  H34  1  0.71149000  0.31195000  0.37073000  1.0
  H  H35  1  0.28828000  0.18818000  0.87071000  1.0
  H  H36  1  0.78871000  0.31202000  0.87072000  1.0
  H  H37  1  0.21141000  0.18800000  0.37082000  1.0
  H  H38  1  0.28874000  0.68799000  0.62926000  1.0
  H  H39  1  0.71139000  0.81201000  0.12917000  1.0
  H  H40  1  0.36611000  0.73913000  0.10530000  1.0
  H  H41  1  0.63362000  0.76080000  0.60527000  1.0
  H  H42  1  0.86608000  0.26088000  0.39470000  1.0
  H  H43  1  0.13361000  0.23921000  0.89475000  1.0
  H  H44  1  0.63408000  0.26096000  0.89472000  1.0
  H  H45  1  0.36607000  0.23901000  0.39477000  1.0
  H  H46  1  0.13410000  0.73904000  0.60528000  1.0
  H  H47  1  0.86607000  0.76099000  0.10523000  1.0
  H  H48  1  0.07229000  0.78242000  0.05252000  1.0
  H  H49  1  0.92734000  0.71748000  0.55248000  1.0
  H  H50  1  0.57227000  0.21757000  0.44748000  1.0
  H  H51  1  0.42733000  0.28251000  0.94752000  1.0
  H  H52  1  0.92788000  0.21757000  0.94748000  1.0
  H  H53  1  0.07234000  0.28241000  0.44756000  1.0
  H  H54  1  0.42790000  0.78244000  0.55251000  1.0
  H  H55  1  0.57234000  0.71759000  0.05243000  1.0
  H  H56  1  0.21712000  0.76254000  0.99479000  1.0
  H  H57  1  0.78250000  0.73746000  0.49477000  1.0
  H  H58  1  0.71711000  0.23744000  0.50521000  1.0
  H  H59  1  0.28251000  0.26253000  0.00524000  1.0
  H  H60  1  0.78304000  0.23749000  0.00522000  1.0
  H  H61  1  0.21713000  0.26241000  0.50528000  1.0
  H  H62  1  0.28306000  0.76253000  0.49477000  1.0
  H  H63  1  0.71713000  0.73758000  0.99470000  1.0
  H  H64  1  0.15504000  0.91961000  0.03298000  1.0
  H  H65  1  0.84458000  0.58033000  0.53289000  1.0
  H  H66  1  0.65502000  0.08039000  0.46701000  1.0
  H  H67  1  0.34457000  0.41966000  0.96711000  1.0
  H  H68  1  0.84496000  0.08040000  0.96702000  1.0
  H  H69  1  0.15528000  0.41952000  0.46706000  1.0
  H  H70  1  0.34497000  0.91961000  0.53298000  1.0
  H  H71  1  0.65528000  0.58047000  0.03294000  1.0
  H  H72  1  0.62767000  0.85813000  0.84707000  1.0
  H  H73  1  0.37177000  0.64164000  0.34716000  1.0
  H  H74  1  0.12763000  0.14187000  0.65293000  1.0
  H  H75  1  0.87175000  0.35834000  0.15283000  1.0
  H  H76  1  0.37238000  0.14191000  0.15292000  1.0
  H  H77  1  0.62817000  0.35801000  0.65277000  1.0
  H  H78  1  0.87238000  0.85812000  0.34709000  1.0
  H  H79  1  0.12818000  0.64197000  0.84723000  1.0
  H  H80  1  0.87652000  0.87457000  0.88359000  1.0
  H  H81  1  0.12294000  0.62537000  0.38379000  1.0
  H  H82  1  0.37649000  0.12544000  0.61640000  1.0
  H  H83  1  0.62291000  0.37463000  0.11621000  1.0
  H  H84  1  0.12351000  0.12551000  0.11639000  1.0
  H  H85  1  0.87703000  0.37441000  0.61617000  1.0
  H  H86  1  0.62351000  0.87451000  0.38362000  1.0
  H  H87  1  0.37704000  0.62557000  0.88384000  1.0
  H  H88  1  0.93943000  0.92613000  0.00758000  1.0
  H  H89  1  0.06016000  0.57380000  0.50784000  1.0
  H  H90  1  0.43940000  0.07388000  0.49242000  1.0
  H  H91  1  0.56015000  0.42620000  0.99217000  1.0
  H  H92  1  0.06063000  0.07402000  0.99238000  1.0
  H  H93  1  0.93970000  0.42607000  0.49216000  1.0
  H  H94  1  0.56064000  0.92599000  0.50764000  1.0
  H  H95  1  0.43972000  0.57393000  0.00785000  1.0
  H  H96  1  0.76047000  0.94960000  0.10481000  1.0
  H  H97  1  0.23911000  0.55031000  0.60504000  1.0
  H  H98  1  0.26044000  0.05040000  0.39518000  1.0
  H  H99  1  0.73910000  0.44970000  0.89498000  1.0
  H  H100  1  0.23963000  0.05061000  0.89514000  1.0
  H  H101  1  0.76071000  0.44948000  0.39498000  1.0
  H  H102  1  0.73964000  0.94939000  0.60488000  1.0
  H  H103  1  0.26071000  0.55053000  0.10505000  1.0
  H  H104  1  0.02159000  0.91255000  0.17314000  1.0
  H  H105  1  0.97811000  0.58705000  0.67267000  1.0
  H  H106  1  0.52157000  0.08744000  0.32685000  1.0
  H  H107  1  0.47811000  0.41294000  0.82733000  1.0
  H  H108  1  0.97847000  0.08751000  0.82681000  1.0
  H  H109  1  0.02165000  0.41251000  0.32693000  1.0
  H  H110  1  0.47848000  0.91250000  0.67318000  1.0
  H  H111  1  0.52164000  0.58749000  0.17308000  1.0
  H  H112  1  0.11567000  0.99794000  0.13846000  1.0
  H  H113  1  0.88332000  0.50182000  0.63843000  1.0
  H  H114  1  0.61566000  0.00207000  0.36154000  1.0
  H  H115  1  0.38333000  0.49818000  0.86157000  1.0
  H  H116  1  0.88444000  0.00213000  0.86155000  1.0
  H  H117  1  0.11576000  0.49791000  0.36152000  1.0
  H  H118  1  0.38443000  0.99788000  0.63845000  1.0
  H  H119  1  0.61576000  0.50209000  0.13849000  1.0
  H  H120  1  0.36235000  0.88015000  0.90669000  1.0
  H  H121  1  0.63705000  0.61968000  0.40670000  1.0
  H  H122  1  0.86231000  0.11985000  0.59330000  1.0
  H  H123  1  0.13703000  0.38032000  0.09331000  1.0
  H  H124  1  0.63773000  0.11991000  0.09327000  1.0
  H  H125  1  0.36305000  0.38004000  0.59332000  1.0
  H  H126  1  0.13773000  0.88010000  0.40673000  1.0
  H  H127  1  0.86307000  0.61994000  0.90669000  1.0
  H  H128  1  0.58366000  0.75850000  0.29707000  1.0
  H  H129  1  0.41664000  0.74174000  0.79726000  1.0
  H  H130  1  0.08364000  0.24150000  0.20294000  1.0
  H  H131  1  0.91667000  0.25825000  0.70273000  1.0
  H  H132  1  0.41666000  0.24171000  0.70296000  1.0
  H  H133  1  0.58360000  0.25848000  0.20287000  1.0
  H  H134  1  0.91667000  0.75829000  0.79704000  1.0
  H  H135  1  0.08359000  0.74153000  0.29713000  1.0
  H  H136  1  0.56920000  0.84766000  0.26686000  1.0
  H  H137  1  0.43144000  0.65249000  0.76729000  1.0
  H  H138  1  0.06920000  0.15234000  0.23315000  1.0
  H  H139  1  0.93148000  0.34750000  0.73271000  1.0
  H  H140  1  0.43066000  0.15252000  0.73320000  1.0
  H  H141  1  0.56923000  0.34762000  0.23308000  1.0
  H  H142  1  0.93068000  0.84747000  0.76679000  1.0
  H  H143  1  0.06924000  0.65239000  0.26692000  1.0
  C  C144  1  0.22839000  0.80749000  0.17690000  1.0
  C  C145  1  0.77123000  0.69232000  0.67689000  1.0
  C  C146  1  0.72836000  0.19251000  0.32309000  1.0
  C  C147  1  0.27123000  0.30767000  0.82311000  1.0
  C  C148  1  0.77173000  0.19258000  0.82308000  1.0
  C  C149  1  0.22840000  0.30744000  0.32315000  1.0
  C  C150  1  0.27174000  0.80743000  0.67691000  1.0
  C  C151  1  0.72839000  0.69257000  0.17685000  1.0
  C  C152  1  0.25488000  0.74728000  0.11529000  1.0
  C  C153  1  0.74485000  0.75263000  0.61527000  1.0
  C  C154  1  0.75485000  0.25272000  0.38471000  1.0
  C  C155  1  0.24484000  0.24736000  0.88474000  1.0
  C  C156  1  0.74530000  0.25280000  0.88471000  1.0
  C  C157  1  0.25486000  0.24719000  0.38478000  1.0
  C  C158  1  0.24532000  0.74721000  0.61528000  1.0
  C  C159  1  0.75484000  0.75281000  0.11521000  1.0
  C  C160  1  0.18537000  0.78741000  0.04847000  1.0
  C  C161  1  0.81428000  0.71253000  0.54845000  1.0
  C  C162  1  0.68535000  0.21258000  0.45152000  1.0
  C  C163  1  0.31427000  0.28746000  0.95156000  1.0
  C  C164  1  0.81479000  0.21262000  0.95152000  1.0
  C  C165  1  0.18543000  0.28734000  0.45158000  1.0
  C  C166  1  0.31481000  0.78739000  0.54848000  1.0
  C  C167  1  0.68542000  0.71267000  0.04841000  1.0
  C  C168  1  0.22812000  0.87675000  0.05815000  1.0
  C  C169  1  0.77153000  0.62318000  0.55809000  1.0
  C  C170  1  0.72811000  0.12325000  0.44184000  1.0
  C  C171  1  0.27152000  0.37681000  0.94192000  1.0
  C  C172  1  0.77196000  0.12330000  0.94183000  1.0
  C  C173  1  0.22829000  0.37665000  0.44188000  1.0
  C  C174  1  0.27197000  0.87671000  0.55817000  1.0
  C  C175  1  0.72830000  0.62335000  0.05812000  1.0
  C  C176  1  0.37088000  0.89114000  0.02803000  1.0
  C  C177  1  0.62873000  0.60876000  0.52802000  1.0
  C  C178  1  0.87087000  0.10886000  0.47196000  1.0
  C  C179  1  0.12872000  0.39124000  0.97198000  1.0
  C  C180  1  0.62917000  0.10896000  0.97193000  1.0
  C  C181  1  0.37116000  0.39098000  0.47190000  1.0
  C  C182  1  0.12918000  0.89105000  0.52807000  1.0
  C  C183  1  0.87116000  0.60902000  0.02810000  1.0
  C  C184  1  0.55822000  0.88947000  0.95797000  1.0
  C  C185  1  0.44130000  0.61027000  0.45801000  1.0
  C  C186  1  0.05819000  0.11053000  0.54203000  1.0
  C  C187  1  0.94128000  0.38973000  0.04199000  1.0
  C  C188  1  0.44183000  0.11063000  0.04201000  1.0
  C  C189  1  0.55862000  0.38933000  0.54190000  1.0
  C  C190  1  0.94184000  0.88939000  0.45800000  1.0
  C  C191  1  0.05862000  0.61065000  0.95810000  1.0
  C  C192  1  0.65712000  0.87711000  0.90266000  1.0
  C  C193  1  0.34235000  0.62267000  0.40274000  1.0
  C  C194  1  0.15710000  0.12290000  0.59733000  1.0
  C  C195  1  0.84234000  0.37733000  0.09726000  1.0
  C  C196  1  0.34291000  0.12297000  0.09733000  1.0
  C  C197  1  0.65760000  0.37699000  0.59718000  1.0
  C  C198  1  0.84290000  0.87704000  0.40268000  1.0
  C  C199  1  0.15761000  0.62299000  0.90283000  1.0
  C  C200  1  0.79470000  0.88834000  0.92322000  1.0
  C  C201  1  0.20480000  0.61150000  0.42337000  1.0
  C  C202  1  0.29468000  0.11167000  0.57676000  1.0
  C  C203  1  0.70478000  0.38849000  0.07663000  1.0
  C  C204  1  0.20533000  0.11172000  0.07677000  1.0
  C  C205  1  0.79516000  0.38823000  0.57659000  1.0
  C  C206  1  0.70532000  0.88828000  0.42325000  1.0
  C  C207  1  0.29518000  0.61175000  0.92342000  1.0
  C  C208  1  0.83072000  0.91596000  0.99463000  1.0
  C  C209  1  0.16886000  0.58390000  0.49482000  1.0
  C  C210  1  0.33070000  0.08404000  0.50536000  1.0
  C  C211  1  0.66884000  0.41609000  0.00518000  1.0
  C  C212  1  0.16933000  0.08417000  0.00534000  1.0
  C  C213  1  0.83102000  0.41586000  0.50515000  1.0
  C  C214  1  0.66932000  0.91584000  0.49468000  1.0
  C  C215  1  0.33103000  0.58415000  0.99486000  1.0
  C  C216  1  0.73221000  0.92963000  0.04938000  1.0
  C  C217  1  0.26740000  0.57018000  0.54955000  1.0
  C  C218  1  0.23219000  0.07037000  0.45060000  1.0
  C  C219  1  0.76739000  0.42981000  0.95045000  1.0
  C  C220  1  0.26785000  0.07052000  0.95058000  1.0
  C  C221  1  0.73244000  0.42954000  0.45042000  1.0
  C  C222  1  0.76785000  0.92948000  0.54944000  1.0
  C  C223  1  0.23245000  0.57045000  0.04959000  1.0
  C  C224  1  0.59468000  0.91289000  0.03088000  1.0
  C  C225  1  0.40493000  0.58685000  0.53095000  1.0
  C  C226  1  0.09465000  0.08712000  0.46911000  1.0
  C  C227  1  0.90493000  0.41315000  0.96905000  1.0
  C  C228  1  0.40539000  0.08724000  0.96909000  1.0
  C  C229  1  0.59494000  0.41278000  0.46896000  1.0
  C  C230  1  0.90539000  0.91276000  0.53092000  1.0
  C  C231  1  0.09494000  0.58721000  0.03104000  1.0
  C  C232  1  0.12304000  0.94277000  0.17186000  1.0
  C  C233  1  0.87645000  0.55704000  0.67172000  1.0
  C  C234  1  0.62303000  0.05722000  0.32813000  1.0
  C  C235  1  0.37645000  0.44295000  0.82828000  1.0
  C  C236  1  0.87702000  0.05728000  0.82812000  1.0
  C  C237  1  0.12312000  0.44273000  0.32816000  1.0
  C  C238  1  0.37704000  0.94274000  0.67187000  1.0
  C  C239  1  0.62312000  0.55728000  0.17184000  1.0
  N  N240  1  0.23223000  0.88999000  0.14093000  1.0
  N  N241  1  0.76747000  0.60988000  0.64086000  1.0
  N  N242  1  0.73222000  0.11001000  0.35905000  1.0
  N  N243  1  0.26746000  0.39011000  0.85914000  1.0
  N  N244  1  0.76786000  0.11007000  0.85904000  1.0
  N  N245  1  0.23231000  0.38994000  0.35909000  1.0
  N  N246  1  0.26786000  0.88994000  0.64096000  1.0
  N  N247  1  0.73231000  0.61007000  0.14090000  1.0
  N  N248  1  0.47464000  0.91204000  0.07320000  1.0
  N  N249  1  0.52504000  0.58779000  0.57325000  1.0
  N  N250  1  0.97462000  0.08795000  0.42679000  1.0
  N  N251  1  0.02504000  0.41221000  0.92676000  1.0
  N  N252  1  0.52541000  0.08810000  0.92676000  1.0
  N  N253  1  0.47483000  0.41192000  0.42668000  1.0
  N  N254  1  0.02542000  0.91191000  0.57325000  1.0
  N  N255  1  0.97483000  0.58808000  0.07333000  1.0
  N  N256  1  0.41601000  0.87777000  0.95789000  1.0
  N  N257  1  0.58345000  0.62203000  0.45790000  1.0
  N  N258  1  0.91599000  0.12222000  0.54210000  1.0
  N  N259  1  0.08344000  0.37795000  0.04210000  1.0
  N  N260  1  0.58404000  0.12231000  0.04208000  1.0
  N  N261  1  0.41644000  0.37758000  0.54202000  1.0
  N  N262  1  0.08405000  0.87770000  0.45792000  1.0
  N  N263  1  0.91645000  0.62240000  0.95798000  1.0
  O  O264  1  0.14839000  0.90322000  0.31869000  1.0
  O  O265  1  0.85455000  0.59650000  0.81868000  1.0
  O  O266  1  0.64838000  0.09678000  0.18130000  1.0
  O  O267  1  0.35455000  0.40350000  0.68131000  1.0
  O  O268  1  0.85163000  0.09679000  0.68130000  1.0
  O  O269  1  0.14800000  0.40328000  0.18128000  1.0
  O  O270  1  0.35162000  0.90321000  0.81869000  1.0
  O  O271  1  0.64806000  0.59673000  0.31872000  1.0
  O  O272  1  0.10581000  0.05409000  0.28518000  1.0
  O  O273  1  0.89424000  0.44562000  0.78443000  1.0
  O  O274  1  0.60581000  0.94591000  0.21480000  1.0
  O  O275  1  0.39424000  0.55438000  0.71558000  1.0
  O  O276  1  0.89420000  0.94592000  0.71479000  1.0
  O  O277  1  0.10586000  0.55414000  0.21487000  1.0
  O  O278  1  0.39420000  0.05409000  0.78521000  1.0
  O  O279  1  0.60587000  0.44587000  0.28513000  1.0
  O  O280  1  0.33397000  0.99274000  0.25515000  1.0
  O  O281  1  0.66561000  0.50886000  0.75628000  1.0
  O  O282  1  0.83396000  0.00726000  0.24485000  1.0
  O  O283  1  0.16562000  0.49113000  0.74373000  1.0
  O  O284  1  0.66608000  0.00726000  0.74486000  1.0
  O  O285  1  0.33395000  0.49260000  0.24473000  1.0
  O  O286  1  0.16608000  0.99274000  0.75514000  1.0
  O  O287  1  0.83397000  0.50740000  0.25527000  1.0
  O  O288  1  0.51764000  0.80226000  0.28935000  1.0
  O  O289  1  0.48280000  0.69803000  0.78969000  1.0
  O  O290  1  0.01763000  0.19774000  0.21066000  1.0
  O  O291  1  0.98283000  0.30196000  0.71030000  1.0
  O  O292  1  0.48245000  0.19785000  0.71075000  1.0
  O  O293  1  0.51760000  0.30225000  0.21061000  1.0
  O  O294  1  0.98248000  0.80214000  0.78924000  1.0
  O  O295  1  0.01761000  0.69776000  0.28939000  1.0
