# generated using pymatgen
data_Na2H16C12S4O7
_symmetry_space_group_name_H-M   'P 1'
_cell_length_a   6.42478000
_cell_length_b   10.95780000
_cell_length_c   13.71694975
_cell_angle_alpha   103.13023191
_cell_angle_beta   103.54166062
_cell_angle_gamma   90.01250000
_symmetry_Int_Tables_number   1
_chemical_formula_structural   Na2H16C12S4O7
_chemical_formula_sum   'Na4 H32 C24 S8 O14'
_cell_volume   912.84594659
_cell_formula_units_Z   2
loop_
 _symmetry_equiv_pos_site_id
 _symmetry_equiv_pos_as_xyz
  1  'x, y, z'
loop_
 _atom_site_type_symbol
 _atom_site_label
 _atom_site_symmetry_multiplicity
 _atom_site_fract_x
 _atom_site_fract_y
 _atom_site_fract_z
 _atom_site_occupancy
  Na  Na0  1  0.24649000  0.56021000  0.98109000  1.0
  Na  Na1  1  0.26545000  0.93976000  0.01899000  1.0
  Na  Na2  1  0.75351000  0.43979000  0.01891000  1.0
  Na  Na3  1  0.73455000  0.06024000  0.98101000  1.0
  H  H4  1  0.57516000  0.53825000  0.25086000  1.0
  H  H5  1  0.32382000  0.96171000  0.74874000  1.0
  H  H6  1  0.42484000  0.46175000  0.74914000  1.0
  H  H7  1  0.67618000  0.03830000  0.25126000  1.0
  H  H8  1  0.45264000  0.51602000  0.40566000  1.0
  H  H9  1  0.04643000  0.98347000  0.59384000  1.0
  H  H10  1  0.54736000  0.48398000  0.59434000  1.0
  H  H11  1  0.95357000  0.01653000  0.40616000  1.0
  H  H12  1  0.35009000  0.70549000  0.52149000  1.0
  H  H13  1  0.82830000  0.79377000  0.47825000  1.0
  H  H14  1  0.64991000  0.29451000  0.47851000  1.0
  H  H15  1  0.17170000  0.20623000  0.52175000  1.0
  H  H16  1  0.35155000  0.91254000  0.47670000  1.0
  H  H17  1  0.87492000  0.58686000  0.52329000  1.0
  H  H18  1  0.64845000  0.08746000  0.52330000  1.0
  H  H19  1  0.12508000  0.41314000  0.47671000  1.0
  H  H20  1  0.47260000  0.93393000  0.32103000  1.0
  H  H21  1  0.15183000  0.56591000  0.67905000  1.0
  H  H22  1  0.52740000  0.06607000  0.67897000  1.0
  H  H23  1  0.84816000  0.43409000  0.32095000  1.0
  H  H24  1  0.17228000  0.46855000  0.16388000  1.0
  H  H25  1  0.00854000  0.03139000  0.83619000  1.0
  H  H26  1  0.82772000  0.53145000  0.83612000  1.0
  H  H27  1  0.99146000  0.96861000  0.16381000  1.0
  H  H28  1  0.07638000  0.60250000  0.16923000  1.0
  H  H29  1  0.90709000  0.89747000  0.83088000  1.0
  H  H30  1  0.92362000  0.39750000  0.83077000  1.0
  H  H31  1  0.09291000  0.10253000  0.16912000  1.0
  H  H32  1  0.99419000  0.76120000  0.06095000  1.0
  H  H33  1  0.93325000  0.73873000  0.93920000  1.0
  H  H34  1  0.00582000  0.23880000  0.93905000  1.0
  H  H35  1  0.06675000  0.26126000  0.06080000  1.0
  C  C36  1  0.53815000  0.73764000  0.28024000  1.0
  C  C37  1  0.25768000  0.76230000  0.71959000  1.0
  C  C38  1  0.46185000  0.26236000  0.71976000  1.0
  C  C39  1  0.74232000  0.23771000  0.28041000  1.0
  C  C40  1  0.53140000  0.61986000  0.30259000  1.0
  C  C41  1  0.22848000  0.87997000  0.69710000  1.0
  C  C42  1  0.46860000  0.38014000  0.69741000  1.0
  C  C43  1  0.77152000  0.12003000  0.30290000  1.0
  C  C44  1  0.46165000  0.60856000  0.38935000  1.0
  C  C45  1  0.07188000  0.89099000  0.61028000  1.0
  C  C46  1  0.53835000  0.39144000  0.61065000  1.0
  C  C47  1  0.92812000  0.10901000  0.38972000  1.0
  C  C48  1  0.40088000  0.71409000  0.45292000  1.0
  C  C49  1  0.94768000  0.78531000  0.54682000  1.0
  C  C50  1  0.59912000  0.28591000  0.54708000  1.0
  C  C51  1  0.05231000  0.21469000  0.45317000  1.0
  C  C52  1  0.40405000  0.83096000  0.42833000  1.0
  C  C53  1  0.97567000  0.66854000  0.57156000  1.0
  C  C54  1  0.59595000  0.16904000  0.57167000  1.0
  C  C55  1  0.02433000  0.33145000  0.42845000  1.0
  C  C56  1  0.47239000  0.84362000  0.34158000  1.0
  C  C57  1  0.13089000  0.65614000  0.65836000  1.0
  C  C58  1  0.52761000  0.15638000  0.65842000  1.0
  C  C59  1  0.86910000  0.34387000  0.34164000  1.0
  S  S60  1  0.95044000  0.79228000  0.22693000  1.0
  S  S61  1  0.72337000  0.70791000  0.77316000  1.0
  S  S62  1  0.04957000  0.20772000  0.77307000  1.0
  S  S63  1  0.27662000  0.29210000  0.22684000  1.0
  S  S64  1  0.63546000  0.75305000  0.17148000  1.0
  S  S65  1  0.46360000  0.74706000  0.82846000  1.0
  S  S66  1  0.36453000  0.24695000  0.82851000  1.0
  S  S67  1  0.53640000  0.25294000  0.17154000  1.0
  O  O68  1  0.52723000  0.85826000  0.13630000  1.0
  O  O69  1  0.39047000  0.64186000  0.86366000  1.0
  O  O70  1  0.47277000  0.14174000  0.86370000  1.0
  O  O71  1  0.60953000  0.35814000  0.13634000  1.0
  O  O72  1  0.59142000  0.63092000  0.09649000  1.0
  O  O73  1  0.49429000  0.86921000  0.90342000  1.0
  O  O74  1  0.40859000  0.36908000  0.90352000  1.0
  O  O75  1  0.50571000  0.13079000  0.09658000  1.0
  O  O76  1  0.09946000  0.52449000  0.12120000  1.0
  O  O77  1  0.97836000  0.97546000  0.87888000  1.0
  O  O78  1  0.90054000  0.47551000  0.87880000  1.0
  O  O79  1  0.02164000  0.02454000  0.12112000  1.0
  O  O80  1  0.05543000  0.74993000  0.00006000  1.0
  O  O81  1  0.94457000  0.25007000  0.99994000  1.0
