# generated using pymatgen
data_CuH6C6IN2O
_symmetry_space_group_name_H-M   'P 1'
_cell_length_a   4.05780000
_cell_length_b   13.33430000
_cell_length_c   14.85710000
_cell_angle_alpha   105.56000000
_cell_angle_beta   90.00000000
_cell_angle_gamma   90.00000000
_symmetry_Int_Tables_number   1
_chemical_formula_structural   CuH6C6IN2O
_chemical_formula_sum   'Cu4 H24 C24 I4 N8 O4'
_cell_volume   774.42442326
_cell_formula_units_Z   4
loop_
 _symmetry_equiv_pos_site_id
 _symmetry_equiv_pos_as_xyz
  1  'x, y, z'
loop_
 _atom_site_type_symbol
 _atom_site_label
 _atom_site_symmetry_multiplicity
 _atom_site_fract_x
 _atom_site_fract_y
 _atom_site_fract_z
 _atom_site_occupancy
  Cu  Cu0  1  0.86536000  0.53616000  0.80756000  1.0
  Cu  Cu1  1  0.63464000  0.53616000  0.30756000  1.0
  Cu  Cu2  1  0.13464000  0.46384000  0.19244000  1.0
  Cu  Cu3  1  0.36536000  0.46384000  0.69244000  1.0
  H  H4  1  0.48446000  0.97772000  0.29020000  1.0
  H  H5  1  0.01555000  0.97772000  0.79021000  1.0
  H  H6  1  0.51555000  0.02228000  0.70980000  1.0
  H  H7  1  0.98445000  0.02228000  0.20980000  1.0
  H  H8  1  0.11889000  0.63931000  0.99893000  1.0
  H  H9  1  0.38108000  0.63932000  0.49892000  1.0
  H  H10  1  0.88110000  0.36068000  0.00107000  1.0
  H  H11  1  0.61891000  0.36068000  0.50107000  1.0
  H  H12  1  0.81252000  0.96111000  0.06278000  1.0
  H  H13  1  0.68748000  0.96111000  0.56279000  1.0
  H  H14  1  0.18749000  0.03889000  0.93722000  1.0
  H  H15  1  0.31251000  0.03889000  0.43722000  1.0
  H  H16  1  0.55180000  0.91921000  0.90292000  1.0
  H  H17  1  0.94821000  0.91921000  0.40293000  1.0
  H  H18  1  0.44822000  0.08079000  0.09708000  1.0
  H  H19  1  0.05178000  0.08079000  0.59708000  1.0
  H  H20  1  0.58716000  0.73841000  0.80075000  1.0
  H  H21  1  0.91283000  0.73841000  0.30076000  1.0
  H  H22  1  0.41285000  0.26160000  0.19925000  1.0
  H  H23  1  0.08716000  0.26160000  0.69924000  1.0
  H  H24  1  0.26113000  0.74918000  0.14999000  1.0
  H  H25  1  0.23886000  0.74918000  0.64999000  1.0
  H  H26  1  0.73889000  0.25082000  0.85001000  1.0
  H  H27  1  0.76113000  0.25082000  0.35001000  1.0
  C  C28  1  0.99114000  0.70359000  0.98119000  1.0
  C  C29  1  0.50883000  0.70359000  0.48119000  1.0
  C  C30  1  0.00885000  0.29641000  0.01881000  1.0
  C  C31  1  0.49116000  0.29641000  0.51880000  1.0
  C  C32  1  0.98329000  0.80286000  0.04435000  1.0
  C  C33  1  0.51670000  0.80286000  0.54435000  1.0
  C  C34  1  0.01671000  0.19714000  0.95565000  1.0
  C  C35  1  0.48330000  0.19714000  0.45565000  1.0
  C  C36  1  0.82230000  0.88278000  0.01618000  1.0
  C  C37  1  0.67769000  0.88278000  0.51618000  1.0
  C  C38  1  0.17770000  0.11722000  0.98382000  1.0
  C  C39  1  0.32229000  0.11722000  0.48382000  1.0
  C  C40  1  0.67798000  0.86014000  0.92837000  1.0
  C  C41  1  0.82203000  0.86015000  0.42837000  1.0
  C  C42  1  0.32202000  0.13986000  0.07163000  1.0
  C  C43  1  0.17797000  0.13986000  0.57163000  1.0
  C  C44  1  0.69651000  0.75908000  0.87028000  1.0
  C  C45  1  0.80349000  0.75909000  0.37028000  1.0
  C  C46  1  0.30350000  0.24092000  0.12972000  1.0
  C  C47  1  0.19650000  0.24092000  0.62972000  1.0
  C  C48  1  0.15506000  0.81768000  0.13298000  1.0
  C  C49  1  0.34495000  0.81768000  0.63298000  1.0
  C  C50  1  0.84495000  0.18232000  0.86702000  1.0
  C  C51  1  0.65506000  0.18232000  0.36702000  1.0
  I  I52  1  0.86144000  0.56218000  0.63916000  1.0
  I  I53  1  0.63856000  0.56218000  0.13916000  1.0
  I  I54  1  0.13855000  0.43782000  0.36084000  1.0
  I  I55  1  0.36145000  0.43782000  0.86084000  1.0
  N  N56  1  0.85222000  0.68188000  0.89589000  1.0
  N  N57  1  0.64777000  0.68188000  0.39589000  1.0
  N  N58  1  0.14779000  0.31812000  0.10412000  1.0
  N  N59  1  0.35222000  0.31812000  0.60411000  1.0
  N  N60  1  0.20229000  0.90907000  0.18859000  1.0
  N  N61  1  0.29771000  0.90907000  0.68859000  1.0
  N  N62  1  0.79772000  0.09093000  0.81141000  1.0
  N  N63  1  0.70230000  0.09093000  0.31141000  1.0
  O  O64  1  0.37808000  0.90614000  0.26829000  1.0
  O  O65  1  0.12193000  0.90614000  0.76829000  1.0
  O  O66  1  0.62192000  0.09386000  0.73171000  1.0
  O  O67  1  0.87807000  0.09386000  0.23171000  1.0
