# generated using pymatgen
data_CoH9C8O3
_symmetry_space_group_name_H-M   'P 1'
_cell_length_a   6.77591000
_cell_length_b   15.16170000
_cell_length_c   15.16390000
_cell_angle_alpha   117.83000000
_cell_angle_beta   98.53140000
_cell_angle_gamma   98.58070000
_symmetry_Int_Tables_number   1
_chemical_formula_structural   CoH9C8O3
_chemical_formula_sum   'Co6 H54 C48 O18'
_cell_volume   1319.23099878
_cell_formula_units_Z   6
loop_
 _symmetry_equiv_pos_site_id
 _symmetry_equiv_pos_as_xyz
  1  'x, y, z'
loop_
 _atom_site_type_symbol
 _atom_site_label
 _atom_site_symmetry_multiplicity
 _atom_site_fract_x
 _atom_site_fract_y
 _atom_site_fract_z
 _atom_site_occupancy
  Co  Co0  1  0.87562000  0.67545000  0.40642000  1.0
  Co  Co1  1  0.20014000  0.73079000  0.32447000  1.0
  Co  Co2  1  0.46907000  0.59357000  0.26908000  1.0
  Co  Co3  1  0.12439000  0.32453000  0.59356000  1.0
  Co  Co4  1  0.79990000  0.26921000  0.67553000  1.0
  Co  Co5  1  0.53094000  0.40641000  0.73090000  1.0
  H  H6  1  0.18448000  0.53509000  0.55896000  1.0
  H  H7  1  0.64947000  0.02382000  0.46503000  1.0
  H  H8  1  0.62564000  0.44109000  0.97631000  1.0
  H  H9  1  0.81553000  0.46492000  0.44104000  1.0
  H  H10  1  0.35056000  0.97614000  0.53495000  1.0
  H  H11  1  0.37439000  0.55891000  0.02369000  1.0
  H  H12  1  0.87476000  0.86463000  0.59853000  1.0
  H  H13  1  0.01055000  0.73386000  0.13536000  1.0
  H  H14  1  0.27695000  0.40178000  0.26622000  1.0
  H  H15  1  0.12524000  0.13540000  0.40152000  1.0
  H  H16  1  0.98942000  0.26618000  0.86459000  1.0
  H  H17  1  0.72304000  0.59818000  0.73377000  1.0
  H  H18  1  0.62487000  0.76693000  0.54788000  1.0
  H  H19  1  0.85848000  0.78089000  0.23321000  1.0
  H  H20  1  0.07769000  0.45246000  0.21924000  1.0
  H  H21  1  0.37513000  0.23310000  0.45218000  1.0
  H  H22  1  0.14145000  0.21913000  0.76672000  1.0
  H  H23  1  0.92230000  0.54750000  0.78075000  1.0
  H  H24  1  0.77213000  0.67544000  0.62598000  1.0
  H  H25  1  0.09757000  0.95046000  0.32468000  1.0
  H  H26  1  0.14663000  0.37410000  0.04955000  1.0
  H  H27  1  0.22786000  0.32459000  0.37409000  1.0
  H  H28  1  0.90237000  0.04956000  0.67529000  1.0
  H  H29  1  0.85335000  0.62585000  0.95044000  1.0
  H  H30  1  0.07661000  0.78539000  0.77400000  1.0
  H  H31  1  0.29176000  0.98866000  0.21466000  1.0
  H  H32  1  0.30285000  0.22599000  0.01143000  1.0
  H  H33  1  0.92342000  0.21463000  0.22606000  1.0
  H  H34  1  0.70828000  0.01139000  0.78535000  1.0
  H  H35  1  0.69713000  0.77396000  0.98854000  1.0
  H  H36  1  0.15388000  0.71033000  0.66317000  1.0
  H  H37  1  0.44430000  0.95287000  0.28953000  1.0
  H  H38  1  0.49100000  0.33667000  0.04702000  1.0
  H  H39  1  0.84612000  0.28972000  0.33687000  1.0
  H  H40  1  0.55568000  0.04715000  0.71046000  1.0
  H  H41  1  0.50900000  0.66329000  0.95299000  1.0
  H  H42  1  0.38001000  0.88777000  0.75659000  1.0
  H  H43  1  0.49275000  0.86897000  0.11204000  1.0
  H  H44  1  0.62369000  0.24336000  0.13107000  1.0
  H  H45  1  0.61997000  0.11228000  0.24346000  1.0
  H  H46  1  0.50728000  0.13107000  0.88796000  1.0
  H  H47  1  0.37627000  0.75658000  0.86891000  1.0
  H  H48  1  0.16549000  0.94100000  0.75002000  1.0
  H  H49  1  0.22498000  0.80921000  0.05896000  1.0
  H  H50  1  0.41570000  0.24996000  0.19088000  1.0
  H  H51  1  0.83448000  0.05905000  0.25005000  1.0
  H  H52  1  0.77505000  0.19085000  0.94103000  1.0
  H  H53  1  0.58423000  0.74997000  0.80908000  1.0
  H  H54  1  0.23796000  0.86295000  0.63572000  1.0
  H  H55  1  0.37544000  0.77281000  0.13679000  1.0
  H  H56  1  0.60247000  0.36427000  0.22715000  1.0
  H  H57  1  0.76198000  0.13709000  0.36433000  1.0
  H  H58  1  0.62454000  0.22722000  0.86319000  1.0
  H  H59  1  0.39749000  0.63565000  0.77284000  1.0
  C  C60  1  0.25383000  0.61135000  0.43811000  1.0
  C  C61  1  0.64242000  0.82669000  0.38865000  1.0
  C  C62  1  0.81573000  0.56194000  0.17330000  1.0
  C  C63  1  0.74619000  0.38866000  0.56189000  1.0
  C  C64  1  0.35762000  0.17329000  0.61133000  1.0
  C  C65  1  0.18430000  0.43806000  0.82669000  1.0
  C  C66  1  0.56364000  0.53292000  0.43232000  1.0
  C  C67  1  0.03065000  0.89937000  0.46701000  1.0
  C  C68  1  0.13129000  0.56769000  0.10056000  1.0
  C  C69  1  0.43637000  0.46708000  0.56768000  1.0
  C  C70  1  0.96937000  0.10060000  0.53297000  1.0
  C  C71  1  0.86873000  0.43231000  0.89943000  1.0
  C  C72  1  0.32439000  0.52065000  0.53373000  1.0
  C  C73  1  0.80380000  0.01307000  0.47944000  1.0
  C  C74  1  0.79071000  0.46632000  0.98697000  1.0
  C  C75  1  0.67563000  0.47935000  0.46627000  1.0
  C  C76  1  0.19622000  0.98690000  0.52054000  1.0
  C  C77  1  0.20933000  0.53368000  0.01302000  1.0
  C  C78  1  0.38253000  0.55383000  0.46735000  1.0
  C  C79  1  0.82870000  0.91347000  0.44622000  1.0
  C  C80  1  0.91524000  0.53275000  0.08650000  1.0
  C  C81  1  0.61747000  0.44618000  0.53266000  1.0
  C  C82  1  0.17132000  0.08649000  0.55375000  1.0
  C  C83  1  0.08478000  0.46727000  0.91350000  1.0
  C  C84  1  0.78701000  0.79299000  0.58889000  1.0
  C  C85  1  0.99446000  0.79582000  0.20702000  1.0
  C  C86  1  0.19872000  0.41135000  0.20424000  1.0
  C  C87  1  0.21298000  0.20704000  0.41119000  1.0
  C  C88  1  0.00549000  0.20422000  0.79292000  1.0
  C  C89  1  0.80126000  0.58860000  0.79574000  1.0
  C  C90  1  0.86942000  0.74484000  0.63476000  1.0
  C  C91  1  0.12518000  0.88984000  0.25517000  1.0
  C  C92  1  0.23509000  0.36534000  0.11016000  1.0
  C  C93  1  0.13057000  0.25520000  0.36532000  1.0
  C  C94  1  0.87478000  0.11019000  0.74479000  1.0
  C  C95  1  0.76491000  0.63462000  0.88983000  1.0
  C  C96  1  0.08515000  0.77634000  0.69810000  1.0
  C  C97  1  0.30941000  0.92179000  0.22363000  1.0
  C  C98  1  0.38736000  0.30188000  0.07821000  1.0
  C  C99  1  0.91485000  0.22370000  0.30195000  1.0
  C  C100  1  0.69059000  0.07824000  0.77636000  1.0
  C  C101  1  0.61264000  0.69808000  0.92178000  1.0
  C  C102  1  0.22444000  0.87244000  0.71083000  1.0
  C  C103  1  0.35252000  0.83851000  0.12743000  1.0
  C  C104  1  0.51390000  0.28916000  0.16154000  1.0
  C  C105  1  0.77552000  0.12761000  0.28923000  1.0
  C  C106  1  0.64749000  0.16154000  0.87256000  1.0
  C  C107  1  0.48608000  0.71078000  0.83844000  1.0
  O  O108  1  0.32264000  0.65292000  0.38764000  1.0
  O  O109  1  0.66977000  0.73463000  0.34700000  1.0
  O  O110  1  0.93508000  0.61212000  0.26532000  1.0
  O  O111  1  0.67736000  0.34707000  0.61235000  1.0
  O  O112  1  0.33026000  0.26534000  0.65300000  1.0
  O  O113  1  0.06495000  0.38788000  0.73467000  1.0
  O  O114  1  0.63306000  0.56110000  0.36844000  1.0
  O  O115  1  0.07189000  0.80731000  0.43878000  1.0
  O  O116  1  0.26453000  0.63162000  0.19256000  1.0
  O  O117  1  0.36695000  0.43889000  0.63155000  1.0
  O  O118  1  0.92813000  0.19266000  0.56120000  1.0
  O  O119  1  0.73549000  0.36839000  0.80743000  1.0
  O  O120  1  0.08576000  0.62054000  0.46460000  1.0
  O  O121  1  0.46518000  0.84394000  0.37946000  1.0
  O  O122  1  0.62122000  0.53561000  0.15605000  1.0
  O  O123  1  0.91427000  0.37946000  0.53540000  1.0
  O  O124  1  0.53485000  0.15604000  0.62053000  1.0
  O  O125  1  0.37881000  0.46436000  0.84394000  1.0
