# generated using pymatgen
data_KCoH12C18(NO3)3
_symmetry_space_group_name_H-M   'P 1'
_cell_length_a   10.34860000
_cell_length_b   10.35111020
_cell_length_c   13.99776947
_cell_angle_alpha   68.31119931
_cell_angle_beta   68.31914981
_cell_angle_gamma   60.02585646
_symmetry_Int_Tables_number   1
_chemical_formula_structural   KCoH12C18(NO3)3
_chemical_formula_sum   'K2 Co2 H24 C36 N6 O18'
_cell_volume   1174.69268927
_cell_formula_units_Z   2
loop_
 _symmetry_equiv_pos_site_id
 _symmetry_equiv_pos_as_xyz
  1  'x, y, z'
loop_
 _atom_site_type_symbol
 _atom_site_label
 _atom_site_symmetry_multiplicity
 _atom_site_fract_x
 _atom_site_fract_y
 _atom_site_fract_z
 _atom_site_occupancy
  K  K0  1  0.41317000  0.41274000  0.76224000  1.0
  K  K1  1  0.91192000  0.91279000  0.26222000  1.0
  Co  Co2  1  0.50084000  0.50471000  0.48978000  1.0
  Co  Co3  1  0.00460000  0.00474000  0.98979000  1.0
  H  H4  1  0.28258000  0.76877000  0.73789000  1.0
  H  H5  1  0.76845000  0.21100000  0.73794000  1.0
  H  H6  1  0.21068000  0.28220000  0.73815000  1.0
  H  H7  1  0.26907000  0.78225000  0.23814000  1.0
  H  H8  1  0.71076000  0.26872000  0.23788000  1.0
  H  H9  1  0.78258000  0.71104000  0.23793000  1.0
  H  H10  1  0.62449000  0.97517000  0.45773000  1.0
  H  H11  1  0.97489000  0.94301000  0.45766000  1.0
  H  H12  1  0.94312000  0.62407000  0.45787000  1.0
  H  H13  1  0.47505000  0.12413000  0.95784000  1.0
  H  H14  1  0.44261000  0.47515000  0.95767000  1.0
  H  H15  1  0.12434000  0.44304000  0.95770000  1.0
  H  H16  1  0.47866000  0.08632000  0.61863000  1.0
  H  H17  1  0.08570000  0.81654000  0.61885000  1.0
  H  H18  1  0.81644000  0.47877000  0.61874000  1.0
  H  H19  1  0.58618000  0.97882000  0.11875000  1.0
  H  H20  1  0.31648000  0.58616000  0.11861000  1.0
  H  H21  1  0.97877000  0.31658000  0.11883000  1.0
  H  H22  1  0.29973000  0.97183000  0.76119000  1.0
  H  H23  1  0.97163000  0.96747000  0.76124000  1.0
  H  H24  1  0.96685000  0.30001000  0.76155000  1.0
  H  H25  1  0.47166000  0.80007000  0.26156000  1.0
  H  H26  1  0.46732000  0.47180000  0.26116000  1.0
  H  H27  1  0.79962000  0.46751000  0.26124000  1.0
  C  C28  1  0.42301000  0.75665000  0.58826000  1.0
  C  C29  1  0.75578000  0.23217000  0.58843000  1.0
  C  C30  1  0.23249000  0.42246000  0.58856000  1.0
  C  C31  1  0.25651000  0.92256000  0.08858000  1.0
  C  C32  1  0.73204000  0.25667000  0.08821000  1.0
  C  C33  1  0.92359000  0.73223000  0.08843000  1.0
  C  C34  1  0.52873000  0.81401000  0.50719000  1.0
  C  C35  1  0.81407000  0.15041000  0.50710000  1.0
  C  C36  1  0.15049000  0.52828000  0.50743000  1.0
  C  C37  1  0.31387000  0.02832000  0.00743000  1.0
  C  C38  1  0.65006000  0.31400000  0.00713000  1.0
  C  C39  1  0.02844000  0.65041000  0.00715000  1.0
  C  C40  1  0.54575000  0.93113000  0.52051000  1.0
  C  C41  1  0.93087000  0.00297000  0.52044000  1.0
  C  C42  1  0.00295000  0.54538000  0.52072000  1.0
  C  C43  1  0.43106000  0.04543000  0.02071000  1.0
  C  C44  1  0.50261000  0.43107000  0.02046000  1.0
  C  C45  1  0.04567000  0.50299000  0.02048000  1.0
  C  C46  1  0.46549000  0.99336000  0.61018000  1.0
  C  C47  1  0.99294000  0.93116000  0.61030000  1.0
  C  C48  1  0.93105000  0.46546000  0.61036000  1.0
  C  C49  1  0.49325000  0.96552000  0.11036000  1.0
  C  C50  1  0.43101000  0.49324000  0.11015000  1.0
  C  C51  1  0.96548000  0.43120000  0.11030000  1.0
  C  C52  1  0.36803000  0.93332000  0.68813000  1.0
  C  C53  1  0.93311000  0.01072000  0.68813000  1.0
  C  C54  1  0.01044000  0.36802000  0.68842000  1.0
  C  C55  1  0.43321000  0.86810000  0.18842000  1.0
  C  C56  1  0.51054000  0.43324000  0.18811000  1.0
  C  C57  1  0.86796000  0.51076000  0.18813000  1.0
  C  C58  1  0.61942000  0.75214000  0.40970000  1.0
  C  C59  1  0.75274000  0.21968000  0.40924000  1.0
  C  C60  1  0.21871000  0.61868000  0.40948000  1.0
  C  C61  1  0.25312000  0.11867000  0.90952000  1.0
  C  C62  1  0.71876000  0.25214000  0.90963000  1.0
  C  C63  1  0.11831000  0.71964000  0.90926000  1.0
  N  N64  1  0.35109000  0.81946000  0.67613000  1.0
  N  N65  1  0.81923000  0.15355000  0.67618000  1.0
  N  N66  1  0.15330000  0.35075000  0.67644000  1.0
  N  N67  1  0.31956000  0.85084000  0.17646000  1.0
  N  N68  1  0.65332000  0.31943000  0.17611000  1.0
  N  N69  1  0.85101000  0.65361000  0.17616000  1.0
  O  O70  1  0.38753000  0.65481000  0.58907000  1.0
  O  O71  1  0.65294000  0.36778000  0.58956000  1.0
  O  O72  1  0.36915000  0.38615000  0.58931000  1.0
  O  O73  1  0.15533000  0.88630000  0.08936000  1.0
  O  O74  1  0.86852000  0.15488000  0.08903000  1.0
  O  O75  1  0.88955000  0.86792000  0.08951000  1.0
  O  O76  1  0.61639000  0.63609000  0.39955000  1.0
  O  O77  1  0.64100000  0.35183000  0.39679000  1.0
  O  O78  1  0.35092000  0.61200000  0.39651000  1.0
  O  O79  1  0.14057000  0.11188000  0.89661000  1.0
  O  O80  1  0.84787000  0.13598000  0.89956000  1.0
  O  O81  1  0.11042000  0.85180000  0.89678000  1.0
  O  O82  1  0.70012000  0.81831000  0.33789000  1.0
  O  O83  1  0.81595000  0.14269000  0.33888000  1.0
  O  O84  1  0.14183000  0.70192000  0.33910000  1.0
  O  O85  1  0.31706000  0.20197000  0.83911000  1.0
  O  O86  1  0.64387000  0.31834000  0.83772000  1.0
  O  O87  1  0.20231000  0.64266000  0.83890000  1.0
