# generated using pymatgen
data_Ni2H44W(C19N8)2
_symmetry_space_group_name_H-M   'P 1'
_cell_length_a   12.64190000
_cell_length_b   13.81380000
_cell_length_c   16.37670000
_cell_angle_alpha   105.18300000
_cell_angle_beta   102.16700000
_cell_angle_gamma   114.51500000
_symmetry_Int_Tables_number   1
_chemical_formula_structural   Ni2H44W(C19N8)2
_chemical_formula_sum   'Ni4 H88 W2 C76 N32'
_cell_volume   2339.20557660
_cell_formula_units_Z   2
loop_
 _symmetry_equiv_pos_site_id
 _symmetry_equiv_pos_as_xyz
  1  'x, y, z'
loop_
 _atom_site_type_symbol
 _atom_site_label
 _atom_site_symmetry_multiplicity
 _atom_site_fract_x
 _atom_site_fract_y
 _atom_site_fract_z
 _atom_site_occupancy
  Ni  Ni0  1  0.38901000  0.46336000  0.92252000  1.0
  Ni  Ni1  1  0.96633000  0.54090000  0.07740000  1.0
  Ni  Ni2  1  0.88092000  0.98350000  0.53411000  1.0
  Ni  Ni3  1  0.84690000  0.44935000  0.46582000  1.0
  H  H4  1  0.41460000  0.36974000  0.03407000  1.0
  H  H5  1  0.88013000  0.33553000  0.96585000  1.0
  H  H6  1  0.67306000  0.87794000  0.40572000  1.0
  H  H7  1  0.76758000  0.47216000  0.59434000  1.0
  H  H8  1  0.51409000  0.84810000  0.90296000  1.0
  H  H9  1  0.11140000  0.94573000  0.09788000  1.0
  H  H10  1  0.61464000  0.81608000  0.79164000  1.0
  H  H11  1  0.32330000  0.02450000  0.20879000  1.0
  H  H12  1  0.60622000  0.62555000  0.72865000  1.0
  H  H13  1  0.37753000  0.89677000  0.27155000  1.0
  H  H14  1  0.49151000  0.30139000  0.67963000  1.0
  H  H15  1  0.31106000  0.62127000  0.32030000  1.0
  H  H16  1  0.60264000  0.44583000  0.70526000  1.0
  H  H17  1  0.39700000  0.74027000  0.29499000  1.0
  H  H18  1  0.44542000  0.38803000  0.63360000  1.0
  H  H19  1  0.31124000  0.75402000  0.36653000  1.0
  H  H20  1  0.27566000  0.74667000  0.00039000  1.0
  H  H21  1  0.77526000  0.74660000  0.00017000  1.0
  H  H22  1  0.41413000  0.84757000  0.99360000  1.0
  H  H23  1  0.92053000  0.85452000  0.00710000  1.0
  H  H24  1  0.42044000  0.81276000  0.09173000  1.0
  H  H25  1  0.82882000  0.72164000  0.90886000  1.0
  H  H26  1  0.35380000  0.66008000  0.12164000  1.0
  H  H27  1  0.73264000  0.53883000  0.87843000  1.0
  H  H28  1  0.20859000  0.55547000  0.03241000  1.0
  H  H29  1  0.67627000  0.52334000  0.96746000  1.0
  H  H30  1  0.26523000  0.48417000  0.14708000  1.0
  H  H31  1  0.61835000  0.33749000  0.85266000  1.0
  H  H32  1  0.40698000  0.51273000  0.13579000  1.0
  H  H33  1  0.77144000  0.37719000  0.86421000  1.0
  H  H34  1  0.22379000  0.30054000  0.06110000  1.0
  H  H35  1  0.66228000  0.23941000  0.93842000  1.0
  H  H36  1  0.16244000  0.33759000  0.97329000  1.0
  H  H37  1  0.68858000  0.36419000  0.02633000  1.0
  H  H38  1  0.26809000  0.17043000  0.95844000  1.0
  H  H39  1  0.80877000  0.21200000  0.04152000  1.0
  H  H40  1  0.20058000  0.19974000  0.86712000  1.0
  H  H41  1  0.83288000  0.33291000  0.13281000  1.0
  H  H42  1  0.36848000  0.13208000  0.85938000  1.0
  H  H43  1  0.00815000  0.27245000  0.14039000  1.0
  H  H44  1  0.47842000  0.27466000  0.93481000  1.0
  H  H45  1  0.04274000  0.33949000  0.06491000  1.0
  H  H46  1  0.43856000  0.22510000  0.76335000  1.0
  H  H47  1  0.17459000  0.46137000  0.23629000  1.0
  H  H48  1  0.28920000  0.21042000  0.75001000  1.0
  H  H49  1  0.03876000  0.46022000  0.24983000  1.0
  H  H50  1  0.14679000  0.94446000  0.78214000  1.0
  H  H51  1  0.86482000  0.16203000  0.21792000  1.0
  H  H52  1  0.31144000  0.96948000  0.71584000  1.0
  H  H53  1  0.09587000  0.25369000  0.28405000  1.0
  H  H54  1  0.30073000  0.01816000  0.58005000  1.0
  H  H55  1  0.22090000  0.43858000  0.41958000  1.0
  H  H56  1  0.00203000  0.95055000  0.83093000  1.0
  H  H57  1  0.67144000  0.11925000  0.16916000  1.0
  H  H58  1  0.83642000  0.86990000  0.78123000  1.0
  H  H59  1  0.55552000  0.08831000  0.21887000  1.0
  H  H60  1  0.91382000  0.02370000  0.82799000  1.0
  H  H61  1  0.58599000  0.19512000  0.17192000  1.0
  H  H62  1  0.28197000  0.09392000  0.48197000  1.0
  H  H63  1  0.29992000  0.61287000  0.51711000  1.0
  H  H64  1  0.21605000  0.17537000  0.44901000  1.0
  H  H65  1  0.26650000  0.72703000  0.55023000  1.0
  H  H66  1  0.15672000  0.02995000  0.37521000  1.0
  H  H67  1  0.28199000  0.65576000  0.62408000  1.0
  H  H68  1  0.73589000  0.01093000  0.69206000  1.0
  H  H69  1  0.54390000  0.31866000  0.30811000  1.0
  H  H70  1  0.68591000  0.86618000  0.68065000  1.0
  H  H71  1  0.50548000  0.18534000  0.31953000  1.0
  H  H72  1  0.59635000  0.79752000  0.50992000  1.0
  H  H73  1  0.58666000  0.28753000  0.49021000  1.0
  H  H74  1  0.52787000  0.86469000  0.56985000  1.0
  H  H75  1  0.45821000  0.29469000  0.43035000  1.0
  H  H76  1  0.67254000  0.05325000  0.55380000  1.0
  H  H77  1  0.61886000  0.49937000  0.44641000  1.0
  H  H78  1  0.54125000  0.93967000  0.45782000  1.0
  H  H79  1  0.58364000  0.48177000  0.54246000  1.0
  H  H80  1  0.64754000  0.02137000  0.36227000  1.0
  H  H81  1  0.78546000  0.65904000  0.63793000  1.0
  H  H82  1  0.78623000  0.12861000  0.45730000  1.0
  H  H83  1  0.82909000  0.67130000  0.54291000  1.0
  H  H84  1  0.79579000  0.05368000  0.29453000  1.0
  H  H85  1  0.00142000  0.75914000  0.70564000  1.0
  H  H86  1  0.77470000  0.92834000  0.31019000  1.0
  H  H87  1  0.96472000  0.61813000  0.68994000  1.0
  H  H88  1  0.99299000  0.06254000  0.34064000  1.0
  H  H89  1  0.15245000  0.72165000  0.65948000  1.0
  H  H90  1  0.99481000  0.17333000  0.42815000  1.0
  H  H91  1  0.06707000  0.74545000  0.57223000  1.0
  W  W92  1  0.68761000  0.61524000  0.24628000  1.0
  W  W93  1  0.94125000  0.36868000  0.75363000  1.0
  C  C94  1  0.60604000  0.57640000  0.10657000  1.0
  C  C95  1  0.99921000  0.46940000  0.89337000  1.0
  C  C96  1  0.77509000  0.74550000  0.37954000  1.0
  C  C97  1  0.89535000  0.36569000  0.62033000  1.0
  C  C98  1  0.93103000  0.22313000  0.66082000  1.0
  C  C99  1  0.77000000  0.56224000  0.33902000  1.0
  C  C100  1  0.11515000  0.37582000  0.80353000  1.0
  C  C101  1  0.81177000  0.57269000  0.19651000  1.0
  C  C102  1  0.59786000  0.71816000  0.24075000  1.0
  C  C103  1  0.85740000  0.47742000  0.75928000  1.0
  C  C104  1  0.58090000  0.42883000  0.17673000  1.0
  C  C105  1  0.90399000  0.25171000  0.82312000  1.0
  C  C106  1  0.82965000  0.76541000  0.23821000  1.0
  C  C107  1  0.09147000  0.52672000  0.76149000  1.0
  C  C108  1  0.53953000  0.55463000  0.29936000  1.0
  C  C109  1  0.74007000  0.25513000  0.70063000  1.0
  C  C110  1  0.45265000  0.67680000  0.90463000  1.0
  C  C111  1  0.04801000  0.77250000  0.09584000  1.0
  C  C112  1  0.51114000  0.76572000  0.87629000  1.0
  C  C113  1  0.13496000  0.88980000  0.12430000  1.0
  C  C114  1  0.56653000  0.74665000  0.81284000  1.0
  C  C115  1  0.25380000  0.93392000  0.18758000  1.0
  C  C116  1  0.56153000  0.64043000  0.77697000  1.0
  C  C117  1  0.28449000  0.86341000  0.22332000  1.0
  C  C118  1  0.49918000  0.55407000  0.80653000  1.0
  C  C119  1  0.19248000  0.74752000  0.19367000  1.0
  C  C120  1  0.47682000  0.43341000  0.77541000  1.0
  C  C121  1  0.20104000  0.65785000  0.22464000  1.0
  C  C122  1  0.50421000  0.38828000  0.69388000  1.0
  C  C123  1  0.30980000  0.69408000  0.30619000  1.0
  C  C124  1  0.39449000  0.67909000  0.97462000  1.0
  C  C125  1  0.91991000  0.70485000  0.02573000  1.0
  C  C126  1  0.37614000  0.77790000  0.01731000  1.0
  C  C127  1  0.85887000  0.76109000  0.98327000  1.0
  C  C128  1  0.30610000  0.57676000  0.06287000  1.0
  C  C129  1  0.74345000  0.51418000  0.93714000  1.0
  C  C130  1  0.31027000  0.48508000  0.09693000  1.0
  C  C131  1  0.71344000  0.38839000  0.90295000  1.0
  C  C132  1  0.24855000  0.36134000  0.02672000  1.0
  C  C133  1  0.72146000  0.33460000  0.97299000  1.0
  C  C134  1  0.28843000  0.22778000  0.92092000  1.0
  C  C135  1  0.86683000  0.30691000  0.07900000  1.0
  C  C136  1  0.38541000  0.22113000  0.88077000  1.0
  C  C137  1  0.00388000  0.34016000  0.11901000  1.0
  C  C138  1  0.38592000  0.25487000  0.79879000  1.0
  C  C139  1  0.08659000  0.45588000  0.20099000  1.0
  C  C140  1  0.03769000  0.97107000  0.67746000  1.0
  C  C141  1  0.86042000  0.29353000  0.32249000  1.0
  C  C142  1  0.13966000  0.96286000  0.72113000  1.0
  C  C143  1  0.91875000  0.24158000  0.27884000  1.0
  C  C144  1  0.23234000  0.97748000  0.68389000  1.0
  C  C145  1  0.04871000  0.29368000  0.31598000  1.0
  C  C146  1  0.22618000  0.00409000  0.60688000  1.0
  C  C147  1  0.11950000  0.39753000  0.39281000  1.0
  C  C148  1  0.12402000  0.01498000  0.56789000  1.0
  C  C149  1  0.05631000  0.44743000  0.43180000  1.0
  C  C150  1  0.92422000  0.95110000  0.70016000  1.0
  C  C151  1  0.72427000  0.25077000  0.29986000  1.0
  C  C152  1  0.91977000  0.94832000  0.79008000  1.0
  C  C153  1  0.62996000  0.15788000  0.20998000  1.0
  C  C154  1  0.09892000  0.04732000  0.48902000  1.0
  C  C155  1  0.10999000  0.55870000  0.51061000  1.0
  C  C156  1  0.19463000  0.08885000  0.44709000  1.0
  C  C157  1  0.24755000  0.64257000  0.55221000  1.0
  C  C158  1  0.71751000  0.92625000  0.64658000  1.0
  C  C159  1  0.57109000  0.27952000  0.35357000  1.0
  C  C160  1  0.61352000  0.88151000  0.55532000  1.0
  C  C161  1  0.55839000  0.32609000  0.44485000  1.0
  C  C162  1  0.63286000  0.96392000  0.50564000  1.0
  C  C163  1  0.62736000  0.45820000  0.49456000  1.0
  C  C164  1  0.73831000  0.03930000  0.40661000  1.0
  C  C165  1  0.83190000  0.63265000  0.59356000  1.0
  C  C166  1  0.81262000  0.02104000  0.34737000  1.0
  C  C167  1  0.96545000  0.67365000  0.65278000  1.0
  C  C168  1  0.95395000  0.07880000  0.39350000  1.0
  C  C169  1  0.06063000  0.68531000  0.60663000  1.0
  N  N170  1  0.56011000  0.54951000  0.02788000  1.0
  N  N171  1  0.03193000  0.52125000  0.97205000  1.0
  N  N172  1  0.82083000  0.81835000  0.45281000  1.0
  N  N173  1  0.86810000  0.36550000  0.54714000  1.0
  N  N174  1  0.92633000  0.14453000  0.60739000  1.0
  N  N175  1  0.81842000  0.53678000  0.39234000  1.0
  N  N176  1  0.21081000  0.38074000  0.83413000  1.0
  N  N177  1  0.87669000  0.54687000  0.16580000  1.0
  N  N178  1  0.55181000  0.77684000  0.24153000  1.0
  N  N179  1  0.81068000  0.53541000  0.75848000  1.0
  N  N180  1  0.52445000  0.32764000  0.13677000  1.0
  N  N181  1  0.88716000  0.19015000  0.86277000  1.0
  N  N182  1  0.90724000  0.84644000  0.23362000  1.0
  N  N183  1  0.17368000  0.61228000  0.76600000  1.0
  N  N184  1  0.46156000  0.52392000  0.33038000  1.0
  N  N185  1  0.63101000  0.19372000  0.66975000  1.0
  N  N186  1  0.44867000  0.57588000  0.86834000  1.0
  N  N187  1  0.08023000  0.70764000  0.13183000  1.0
  N  N188  1  0.36266000  0.58959000  0.99554000  1.0
  N  N189  1  0.86722000  0.59436000  0.00460000  1.0
  N  N190  1  0.33483000  0.34695000  0.98306000  1.0
  N  N191  1  0.85130000  0.36384000  0.01680000  1.0
  N  N192  1  0.43206000  0.37784000  0.82373000  1.0
  N  N193  1  0.10798000  0.55399000  0.17616000  1.0
  N  N194  1  0.03533000  0.99778000  0.60430000  1.0
  N  N195  1  0.93119000  0.39360000  0.39552000  1.0
  N  N196  1  0.83387000  0.94025000  0.63670000  1.0
  N  N197  1  0.69730000  0.30339000  0.36331000  1.0
  N  N198  1  0.71512000  0.96011000  0.45455000  1.0
  N  N199  1  0.76074000  0.50550000  0.54554000  1.0
  N  N200  1  0.99052000  0.03918000  0.46244000  1.0
  N  N201  1  0.02819000  0.57681000  0.53748000  1.0
