# generated using pymatgen
data_Na2CuH20C10N2O11
_symmetry_space_group_name_H-M   'P 1'
_cell_length_a   7.97020000
_cell_length_b   9.17821657
_cell_length_c   12.61890000
_cell_angle_alpha   84.58949301
_cell_angle_beta   89.99990000
_cell_angle_gamma   64.26643292
_symmetry_Int_Tables_number   1
_chemical_formula_structural   Na2CuH20C10N2O11
_chemical_formula_sum   'Na4 Cu2 H40 C20 N4 O22'
_cell_volume   826.98225158
_cell_formula_units_Z   2
loop_
 _symmetry_equiv_pos_site_id
 _symmetry_equiv_pos_as_xyz
  1  'x, y, z'
loop_
 _atom_site_type_symbol
 _atom_site_label
 _atom_site_symmetry_multiplicity
 _atom_site_fract_x
 _atom_site_fract_y
 _atom_site_fract_z
 _atom_site_occupancy
  Na  Na0  1  0.63911000  0.93865000  0.63488000  1.0
  Na  Na1  1  0.57779000  0.06129000  0.86516000  1.0
  Na  Na2  1  0.36089000  0.06135000  0.36512000  1.0
  Na  Na3  1  0.42220000  0.93871000  0.13484000  1.0
  Cu  Cu4  1  0.00000000  0.50000000  0.50000000  1.0
  Cu  Cu5  1  0.50000000  0.50000000  0.00000000  1.0
  H  H6  1  0.19826000  0.80083000  0.40203000  1.0
  H  H7  1  0.99924000  0.19944000  0.09806000  1.0
  H  H8  1  0.80174000  0.19917000  0.59797000  1.0
  H  H9  1  0.00076000  0.80056000  0.90194000  1.0
  H  H10  1  0.31057000  0.61182000  0.48315000  1.0
  H  H11  1  0.92238000  0.38844000  0.01688000  1.0
  H  H12  1  0.68943000  0.38818000  0.51686000  1.0
  H  H13  1  0.07762000  0.61156000  0.98312000  1.0
  H  H14  1  0.92483000  0.77926000  0.25130000  1.0
  H  H15  1  0.70431000  0.22077000  0.24872000  1.0
  H  H16  1  0.07518000  0.22074000  0.74870000  1.0
  H  H17  1  0.29568000  0.77923000  0.75128000  1.0
  H  H18  1  0.86910000  0.87913000  0.36784000  1.0
  H  H19  1  0.74839000  0.12092000  0.13217000  1.0
  H  H20  1  0.13091000  0.12086000  0.63216000  1.0
  H  H21  1  0.25161000  0.87908000  0.86783000  1.0
  H  H22  1  0.25177000  0.60354000  0.25953000  1.0
  H  H23  1  0.85511000  0.39677000  0.24054000  1.0
  H  H24  1  0.74822000  0.39646000  0.74047000  1.0
  H  H25  1  0.14489000  0.60323000  0.75946000  1.0
  H  H26  1  0.13176000  0.47722000  0.27219000  1.0
  H  H27  1  0.60880000  0.52291000  0.22782000  1.0
  H  H28  1  0.86824000  0.52278000  0.72781000  1.0
  H  H29  1  0.39120000  0.47709000  0.77218000  1.0
  H  H30  1  0.32524000  0.43326000  0.36021000  1.0
  H  H31  1  0.75827000  0.56701000  0.13987000  1.0
  H  H32  1  0.67476000  0.56674000  0.63979000  1.0
  H  H33  1  0.24173000  0.43299000  0.86013000  1.0
  H  H34  1  0.96401000  0.94387000  0.70297000  1.0
  H  H35  1  0.90782000  0.05621000  0.79707000  1.0
  H  H36  1  0.03599000  0.05613000  0.29703000  1.0
  H  H37  1  0.09218000  0.94379000  0.20293000  1.0
  H  H38  1  0.33108000  0.85665000  0.55718000  1.0
  H  H39  1  0.18776000  0.14341000  0.94291000  1.0
  H  H40  1  0.66892000  0.14335000  0.44282000  1.0
  H  H41  1  0.81222000  0.85660000  0.05709000  1.0
  H  H42  1  0.52012000  0.76281000  0.49750000  1.0
  H  H43  1  0.28296000  0.23730000  0.00254000  1.0
  H  H44  1  0.47989000  0.23719000  0.50250000  1.0
  H  H45  1  0.71705000  0.76269000  0.99746000  1.0
  C  C46  1  0.06774000  0.78359000  0.55081000  1.0
  C  C47  1  0.85154000  0.21646000  0.94932000  1.0
  C  C48  1  0.93226000  0.21641000  0.44919000  1.0
  C  C49  1  0.14846000  0.78353000  0.05068000  1.0
  C  C50  1  0.17424000  0.70873000  0.45388000  1.0
  C  C51  1  0.88309000  0.29148000  0.04620000  1.0
  C  C52  1  0.82576000  0.29127000  0.54612000  1.0
  C  C53  1  0.11691000  0.70852000  0.95380000  1.0
  C  C54  1  0.90437000  0.76197000  0.33677000  1.0
  C  C55  1  0.66654000  0.23807000  0.16326000  1.0
  C  C56  1  0.09563000  0.23803000  0.66323000  1.0
  C  C57  1  0.33345000  0.76193000  0.83674000  1.0
  C  C58  1  0.73584000  0.72732000  0.35286000  1.0
  C  C59  1  0.46330000  0.27274000  0.14723000  1.0
  C  C60  1  0.26415000  0.27269000  0.64714000  1.0
  C  C61  1  0.53669000  0.72727000  0.85276000  1.0
  C  C62  1  0.20448000  0.53180000  0.31624000  1.0
  C  C63  1  0.73611000  0.46845000  0.18380000  1.0
  C  C64  1  0.79552000  0.46820000  0.68376000  1.0
  C  C65  1  0.26390000  0.53154000  0.81620000  1.0
  N  N66  1  0.07827000  0.63566000  0.39250000  1.0
  N  N67  1  0.71397000  0.36448000  0.10754000  1.0
  N  N68  1  0.92175000  0.36433000  0.60750000  1.0
  N  N69  1  0.28602000  0.63552000  0.89246000  1.0
  O  O70  1  0.92759000  0.76045000  0.57645000  1.0
  O  O71  1  0.68830000  0.23938000  0.92372000  1.0
  O  O72  1  0.07240000  0.23956000  0.42355000  1.0
  O  O73  1  0.31170000  0.76062000  0.07628000  1.0
  O  O74  1  0.13206000  0.86406000  0.60157000  1.0
  O  O75  1  0.99625000  0.13600000  0.89852000  1.0
  O  O76  1  0.86794000  0.13594000  0.39843000  1.0
  O  O77  1  0.00374000  0.86400000  0.10148000  1.0
  O  O78  1  0.58828000  0.81521000  0.29931000  1.0
  O  O79  1  0.40364000  0.18487000  0.20076000  1.0
  O  O80  1  0.41173000  0.18480000  0.70069000  1.0
  O  O81  1  0.59635000  0.81514000  0.79924000  1.0
  O  O82  1  0.74997000  0.61235000  0.42528000  1.0
  O  O83  1  0.36241000  0.38778000  0.07489000  1.0
  O  O84  1  0.25003000  0.38765000  0.57471000  1.0
  O  O85  1  0.63758000  0.61223000  0.92511000  1.0
  O  O86  1  0.86064000  0.00007000  0.74999000  1.0
  O  O87  1  0.13937000  0.99993000  0.25001000  1.0
  O  O88  1  0.44680000  0.86261000  0.53045000  1.0
  O  O89  1  0.30945000  0.13744000  0.96968000  1.0
  O  O90  1  0.55320000  0.13739000  0.46955000  1.0
  O  O91  1  0.69055000  0.86256000  0.03032000  1.0
