# generated using pymatgen
data_CuH16C18S2(NCl)2
_symmetry_space_group_name_H-M   'P 1'
_cell_length_a   8.72373000
_cell_length_b   11.01380000
_cell_length_c   12.08430000
_cell_angle_alpha   97.05720000
_cell_angle_beta   103.04100000
_cell_angle_gamma   111.97000000
_symmetry_Int_Tables_number   1
_chemical_formula_structural   CuH16C18S2(NCl)2
_chemical_formula_sum   'Cu2 H32 C36 S4 N4 Cl4'
_cell_volume   1021.00703273
_cell_formula_units_Z   2
loop_
 _symmetry_equiv_pos_site_id
 _symmetry_equiv_pos_as_xyz
  1  'x, y, z'
loop_
 _atom_site_type_symbol
 _atom_site_label
 _atom_site_symmetry_multiplicity
 _atom_site_fract_x
 _atom_site_fract_y
 _atom_site_fract_z
 _atom_site_occupancy
  Cu  Cu0  1  0.50000000  0.00000000  0.50000000  1.0
  Cu  Cu1  1  0.50000000  0.50000000  0.00000000  1.0
  H  H2  1  0.72270000  0.32234000  0.48171000  1.0
  H  H3  1  0.27730000  0.67766000  0.51828000  1.0
  H  H4  1  0.63638000  0.39275000  0.64817000  1.0
  H  H5  1  0.36362000  0.60725000  0.35183000  1.0
  H  H6  1  0.67923000  0.63404000  0.70710000  1.0
  H  H7  1  0.32078000  0.36596000  0.29290000  1.0
  H  H8  1  0.78611000  0.79161000  0.58300000  1.0
  H  H9  1  0.21389000  0.20840000  0.41700000  1.0
  H  H10  1  0.80326000  0.81102000  0.38907000  1.0
  H  H11  1  0.19674000  0.18898000  0.61093000  1.0
  H  H12  1  0.84875000  0.69586000  0.29859000  1.0
  H  H13  1  0.15125000  0.30414000  0.70140000  1.0
  H  H14  1  0.89470000  0.89763000  0.24434000  1.0
  H  H15  1  0.10530000  0.10237000  0.75566000  1.0
  H  H16  1  0.99545000  0.03535000  0.10685000  1.0
  H  H17  1  0.00456000  0.96466000  0.89315000  1.0
  H  H18  1  0.31608000  0.16065000  0.13772000  1.0
  H  H19  1  0.68393000  0.83935000  0.86228000  1.0
  H  H20  1  0.52071000  0.13838000  0.30841000  1.0
  H  H21  1  0.47930000  0.86162000  0.69160000  1.0
  H  H22  1  0.87837000  0.37828000  0.34363000  1.0
  H  H23  1  0.12162000  0.62172000  0.65637000  1.0
  H  H24  1  0.95805000  0.54217000  0.31539000  1.0
  H  H25  1  0.04194000  0.45783000  0.68461000  1.0
  H  H26  1  0.91336000  0.30422000  0.16866000  1.0
  H  H27  1  0.08664000  0.69579000  0.83134000  1.0
  H  H28  1  0.99217000  0.25990000  0.98594000  1.0
  H  H29  1  0.00783000  0.74010000  0.01406000  1.0
  H  H30  1  0.83879000  0.30360000  0.80265000  1.0
  H  H31  1  0.16120000  0.69639000  0.19734000  1.0
  H  H32  1  0.63221000  0.40950000  0.81547000  1.0
  H  H33  1  0.36779000  0.59050000  0.18453000  1.0
  C  C34  1  0.81683000  0.64771000  0.46351000  1.0
  C  C35  1  0.18316000  0.35229000  0.53649000  1.0
  C  C36  1  0.80281000  0.51507000  0.43582000  1.0
  C  C37  1  0.19718000  0.48493000  0.56417000  1.0
  C  C38  1  0.73724000  0.42587000  0.50380000  1.0
  C  C39  1  0.26276000  0.57413000  0.49620000  1.0
  C  C40  1  0.69176000  0.46720000  0.60036000  1.0
  C  C41  1  0.30824000  0.53280000  0.39963000  1.0
  C  C42  1  0.71332000  0.60007000  0.63131000  1.0
  C  C43  1  0.28668000  0.39993000  0.36869000  1.0
  C  C44  1  0.77441000  0.68891000  0.56238000  1.0
  C  C45  1  0.22558000  0.31109000  0.43762000  1.0
  C  C46  1  0.87300000  0.74597000  0.38905000  1.0
  C  C47  1  0.12700000  0.25403000  0.61094000  1.0
  C  C48  1  0.15528000  0.94517000  0.35078000  1.0
  C  C49  1  0.84473000  0.05483000  0.64922000  1.0
  C  C50  1  0.03235000  0.95213000  0.25712000  1.0
  C  C51  1  0.96765000  0.04787000  0.74288000  1.0
  C  C52  1  0.08998000  0.02942000  0.17998000  1.0
  C  C53  1  0.91003000  0.97059000  0.82003000  1.0
  C  C54  1  0.26727000  0.09867000  0.19647000  1.0
  C  C55  1  0.73273000  0.90134000  0.80354000  1.0
  C  C56  1  0.38111000  0.08780000  0.29150000  1.0
  C  C57  1  0.61889000  0.91220000  0.70850000  1.0
  C  C58  1  0.84799000  0.46485000  0.33184000  1.0
  C  C59  1  0.15200000  0.53515000  0.66816000  1.0
  C  C60  1  0.73428000  0.38324000  0.08794000  1.0
  C  C61  1  0.26572000  0.61676000  0.91206000  1.0
  C  C62  1  0.85474000  0.32756000  0.08924000  1.0
  C  C63  1  0.14526000  0.67245000  0.91076000  1.0
  C  C64  1  0.89605000  0.30065000  0.98685000  1.0
  C  C65  1  0.10395000  0.69935000  0.01314000  1.0
  C  C66  1  0.81472000  0.32755000  0.88541000  1.0
  C  C67  1  0.18528000  0.67245000  0.11459000  1.0
  C  C68  1  0.69858000  0.38482000  0.89104000  1.0
  C  C69  1  0.30141000  0.61518000  0.10897000  1.0
  S  S70  1  0.10451000  0.85073000  0.45400000  1.0
  S  S71  1  0.89548000  0.14926000  0.54600000  1.0
  S  S72  1  0.65676000  0.41383000  0.20576000  1.0
  S  S73  1  0.34324000  0.58617000  0.79424000  1.0
  N  N74  1  0.32682000  0.01359000  0.36693000  1.0
  N  N75  1  0.67318000  0.98641000  0.63307000  1.0
  N  N76  1  0.66221000  0.41403000  0.99039000  1.0
  N  N77  1  0.33779000  0.58597000  0.00960000  1.0
  Cl  Cl78  1  0.45282000  0.13706000  0.63052000  1.0
  Cl  Cl79  1  0.54718000  0.86294000  0.36948000  1.0
  Cl  Cl80  1  0.71367000  0.70865000  0.02863000  1.0
  Cl  Cl81  1  0.28633000  0.29135000  0.97137000  1.0
