# generated using pymatgen
data_Cu2P2H43C23NCl2
_symmetry_space_group_name_H-M   'P 1'
_cell_length_a   14.48560000
_cell_length_b   14.51690000
_cell_length_c   15.39710000
_cell_angle_alpha   90.00010000
_cell_angle_beta   90.00000000
_cell_angle_gamma   89.99990000
_symmetry_Int_Tables_number   1
_chemical_formula_structural   Cu2P2H43C23NCl2
_chemical_formula_sum   'Cu8 P8 H172 C92 N4 Cl8'
_cell_volume   3237.79467283
_cell_formula_units_Z   4
loop_
 _symmetry_equiv_pos_site_id
 _symmetry_equiv_pos_as_xyz
  1  'x, y, z'
loop_
 _atom_site_type_symbol
 _atom_site_label
 _atom_site_symmetry_multiplicity
 _atom_site_fract_x
 _atom_site_fract_y
 _atom_site_fract_z
 _atom_site_occupancy
  Cu  Cu0  1  0.38240000  0.60711000  0.61982000  1.0
  Cu  Cu1  1  0.61760000  0.89289000  0.11982000  1.0
  Cu  Cu2  1  0.11760000  0.10711000  0.38018000  1.0
  Cu  Cu3  1  0.88240000  0.39289000  0.88018000  1.0
  Cu  Cu4  1  0.25373000  0.74018000  0.59941000  1.0
  Cu  Cu5  1  0.74627000  0.75982000  0.09941000  1.0
  Cu  Cu6  1  0.24627000  0.24018000  0.40059000  1.0
  Cu  Cu7  1  0.75373000  0.25982000  0.90059000  1.0
  P  P8  1  0.49801000  0.61152000  0.71091000  1.0
  P  P9  1  0.50199000  0.88848000  0.21091000  1.0
  P  P10  1  0.00199000  0.11152000  0.28909000  1.0
  P  P11  1  0.99801000  0.38848000  0.78909000  1.0
  P  P12  1  0.28803000  0.38322000  0.39694000  1.0
  P  P13  1  0.71197000  0.11678000  0.89694000  1.0
  P  P14  1  0.21197000  0.88322000  0.60306000  1.0
  P  P15  1  0.78803000  0.61678000  0.10306000  1.0
  H  H16  1  0.52798000  0.31398000  0.73167000  1.0
  H  H17  1  0.47202000  0.18602000  0.23167000  1.0
  H  H18  1  0.97202000  0.81398000  0.26833000  1.0
  H  H19  1  0.02798000  0.68602000  0.76833000  1.0
  H  H20  1  0.40150000  0.20785000  0.68032000  1.0
  H  H21  1  0.59850000  0.29216000  0.18032000  1.0
  H  H22  1  0.09850000  0.70784000  0.31968000  1.0
  H  H23  1  0.90150000  0.79216000  0.81968000  1.0
  H  H24  1  0.28497000  0.26754000  0.57434000  1.0
  H  H25  1  0.71503000  0.23247000  0.07434000  1.0
  H  H26  1  0.21502000  0.76754000  0.42566000  1.0
  H  H27  1  0.78497000  0.73246000  0.92566000  1.0
  H  H28  1  0.59569000  0.50620000  0.63414000  1.0
  H  H29  1  0.40431000  0.99380000  0.13414000  1.0
  H  H30  1  0.90431000  0.00620000  0.36586000  1.0
  H  H31  1  0.09569000  0.49380000  0.86586000  1.0
  H  H32  1  0.58794000  0.46796000  0.74260000  1.0
  H  H33  1  0.41206000  0.03204000  0.24260000  1.0
  H  H34  1  0.91206000  0.96796000  0.25740000  1.0
  H  H35  1  0.08794000  0.53204000  0.75740000  1.0
  H  H36  1  0.66162000  0.73916000  0.56771000  1.0
  H  H37  1  0.33838000  0.76084000  0.06771000  1.0
  H  H38  1  0.83838000  0.23916000  0.43229000  1.0
  H  H39  1  0.16162000  0.26084000  0.93229000  1.0
  H  H40  1  0.53931000  0.72447000  0.55956000  1.0
  H  H41  1  0.46069000  0.77553000  0.05956000  1.0
  H  H42  1  0.96069000  0.22447000  0.44044000  1.0
  H  H43  1  0.03931000  0.27553000  0.94044000  1.0
  H  H44  1  0.61355000  0.62761000  0.55553000  1.0
  H  H45  1  0.38645000  0.87239000  0.05553000  1.0
  H  H46  1  0.88645000  0.12761000  0.44447000  1.0
  H  H47  1  0.11355000  0.37239000  0.94447000  1.0
  H  H48  1  0.58832000  0.78767000  0.79361000  1.0
  H  H49  1  0.41168000  0.71233000  0.29361000  1.0
  H  H50  1  0.91168000  0.28767000  0.20639000  1.0
  H  H51  1  0.08832000  0.21233000  0.70639000  1.0
  H  H52  1  0.51264000  0.81077000  0.70460000  1.0
  H  H53  1  0.48736000  0.68924000  0.20460000  1.0
  H  H54  1  0.98736000  0.31076000  0.29540000  1.0
  H  H55  1  0.01264000  0.18924000  0.79540000  1.0
  H  H56  1  0.63274000  0.83307000  0.69516000  1.0
  H  H57  1  0.36726000  0.66694000  0.19516000  1.0
  H  H58  1  0.86726000  0.33307000  0.30484000  1.0
  H  H59  1  0.13274000  0.16693000  0.80485000  1.0
  H  H60  1  0.74753000  0.70059000  0.70030000  1.0
  H  H61  1  0.25247000  0.79941000  0.20030000  1.0
  H  H62  1  0.75247000  0.20059000  0.29970000  1.0
  H  H63  1  0.24753000  0.29941000  0.79970000  1.0
  H  H64  1  0.70997000  0.58484000  0.69268000  1.0
  H  H65  1  0.29003000  0.91516000  0.19268000  1.0
  H  H66  1  0.79003000  0.08484000  0.30732000  1.0
  H  H67  1  0.20997000  0.41516000  0.80732000  1.0
  H  H68  1  0.69443000  0.64694000  0.79059000  1.0
  H  H69  1  0.30556000  0.85306000  0.29059000  1.0
  H  H70  1  0.80557000  0.14693000  0.20941000  1.0
  H  H71  1  0.19444000  0.35306000  0.70941000  1.0
  H  H72  1  0.44105000  0.45759000  0.83174000  1.0
  H  H73  1  0.55895000  0.04241000  0.33174000  1.0
  H  H74  1  0.05895000  0.95759000  0.16826000  1.0
  H  H75  1  0.94105000  0.54241000  0.66826000  1.0
  H  H76  1  0.34605000  0.52590000  0.79520000  1.0
  H  H77  1  0.65394000  0.97410000  0.29520000  1.0
  H  H78  1  0.15394000  0.02590000  0.20480000  1.0
  H  H79  1  0.84605000  0.47410000  0.70480000  1.0
  H  H80  1  0.37653000  0.52374000  0.90723000  1.0
  H  H81  1  0.62347000  0.97626000  0.40723000  1.0
  H  H82  1  0.12347000  0.02374000  0.09277000  1.0
  H  H83  1  0.87653000  0.47626000  0.59277000  1.0
  H  H84  1  0.52553000  0.58529000  0.95714000  1.0
  H  H85  1  0.47447000  0.91471000  0.45714000  1.0
  H  H86  1  0.97447000  0.08529000  0.04286000  1.0
  H  H87  1  0.02553000  0.41471000  0.54286000  1.0
  H  H88  1  0.59419000  0.65863000  0.89284000  1.0
  H  H89  1  0.40581000  0.84137000  0.39284000  1.0
  H  H90  1  0.90581000  0.15863000  0.10716000  1.0
  H  H91  1  0.09419000  0.34137000  0.60716000  1.0
  H  H92  1  0.59463000  0.53682000  0.87363000  1.0
  H  H93  1  0.40537000  0.96318000  0.37363000  1.0
  H  H94  1  0.90537000  0.03682000  0.12637000  1.0
  H  H95  1  0.09463000  0.46318000  0.62637000  1.0
  H  H96  1  0.35181000  0.69978000  0.81204000  1.0
  H  H97  1  0.64819000  0.80022000  0.31204000  1.0
  H  H98  1  0.14819000  0.19978000  0.18796000  1.0
  H  H99  1  0.85181000  0.30022000  0.68796000  1.0
  H  H100  1  0.45366000  0.75659000  0.84993000  1.0
  H  H101  1  0.54634000  0.74341000  0.34993000  1.0
  H  H102  1  0.04634000  0.25658000  0.15007000  1.0
  H  H103  1  0.95366000  0.24341000  0.65007000  1.0
  H  H104  1  0.38893000  0.68670000  0.92158000  1.0
  H  H105  1  0.61107000  0.81330000  0.42157000  1.0
  H  H106  1  0.11107000  0.18670000  0.07843000  1.0
  H  H107  1  0.88893000  0.31330000  0.57843000  1.0
  H  H108  1  0.29381000  0.51604000  0.49676000  1.0
  H  H109  1  0.70619000  0.98396000  0.99676000  1.0
  H  H110  1  0.20619000  0.01604000  0.50324000  1.0
  H  H111  1  0.79381000  0.48396000  0.00324000  1.0
  H  H112  1  0.21002000  0.43203000  0.52541000  1.0
  H  H113  1  0.78998000  0.06797000  0.02541000  1.0
  H  H114  1  0.28998000  0.93203000  0.47459000  1.0
  H  H115  1  0.71002000  0.56797000  0.97459000  1.0
  H  H116  1  0.11808000  0.50363000  0.43926000  1.0
  H  H117  1  0.88192000  0.99637000  0.93926000  1.0
  H  H118  1  0.38192000  0.00363000  0.56074000  1.0
  H  H119  1  0.61808000  0.49637000  0.06074000  1.0
  H  H120  1  0.09397000  0.38747000  0.40862000  1.0
  H  H121  1  0.90603000  0.11253000  0.90862000  1.0
  H  H122  1  0.40603000  0.88747000  0.59138000  1.0
  H  H123  1  0.59397000  0.61253000  0.09138000  1.0
  H  H124  1  0.05675000  0.48034000  0.34193000  1.0
  H  H125  1  0.94325000  0.01966000  0.84193000  1.0
  H  H126  1  0.44325000  0.98034000  0.65807000  1.0
  H  H127  1  0.55675000  0.51966000  0.15807000  1.0
  H  H128  1  0.12534000  0.43236000  0.21219000  1.0
  H  H129  1  0.87466000  0.06764000  0.71219000  1.0
  H  H130  1  0.37466000  0.93236000  0.78781000  1.0
  H  H131  1  0.62534000  0.56764000  0.28781000  1.0
  H  H132  1  0.16087000  0.32794000  0.26239000  1.0
  H  H133  1  0.83913000  0.17206000  0.76238000  1.0
  H  H134  1  0.33913000  0.82794000  0.73762000  1.0
  H  H135  1  0.66087000  0.67206000  0.23762000  1.0
  H  H136  1  0.24157000  0.39497000  0.20313000  1.0
  H  H137  1  0.75843000  0.10502000  0.70313000  1.0
  H  H138  1  0.25843000  0.89498000  0.79687000  1.0
  H  H139  1  0.74157000  0.60503000  0.29687000  1.0
  H  H140  1  0.17636000  0.58618000  0.27522000  1.0
  H  H141  1  0.82365000  0.91382000  0.77522000  1.0
  H  H142  1  0.32365000  0.08618000  0.72478000  1.0
  H  H143  1  0.67635000  0.41382000  0.22478000  1.0
  H  H144  1  0.29302000  0.55252000  0.26580000  1.0
  H  H145  1  0.70698000  0.94748000  0.76580000  1.0
  H  H146  1  0.20698000  0.05252000  0.73420000  1.0
  H  H147  1  0.79302000  0.44748000  0.23420000  1.0
  H  H148  1  0.25021000  0.59139000  0.36752000  1.0
  H  H149  1  0.74979000  0.90861000  0.86753000  1.0
  H  H150  1  0.24979000  0.09139000  0.63247000  1.0
  H  H151  1  0.75021000  0.40861000  0.13247000  1.0
  H  H152  1  0.38136000  0.44347000  0.22371000  1.0
  H  H153  1  0.61864000  0.05653000  0.72371000  1.0
  H  H154  1  0.11864000  0.94347000  0.77629000  1.0
  H  H155  1  0.88136000  0.55653000  0.27629000  1.0
  H  H156  1  0.38147000  0.32190000  0.24049000  1.0
  H  H157  1  0.61853000  0.17810000  0.74049000  1.0
  H  H158  1  0.11853000  0.82190000  0.75951000  1.0
  H  H159  1  0.88147000  0.67810000  0.25951000  1.0
  H  H160  1  0.48698000  0.38460000  0.23919000  1.0
  H  H161  1  0.51302000  0.11540000  0.73919000  1.0
  H  H162  1  0.01302000  0.88460000  0.76081000  1.0
  H  H163  1  0.98698000  0.61540000  0.26081000  1.0
  H  H164  1  0.45293000  0.50767000  0.45219000  1.0
  H  H165  1  0.54707000  0.99233000  0.95219000  1.0
  H  H166  1  0.04707000  0.00767000  0.54781000  1.0
  H  H167  1  0.95293000  0.49233000  0.04781000  1.0
  H  H168  1  0.41353000  0.55346000  0.35253000  1.0
  H  H169  1  0.58647000  0.94654000  0.85253000  1.0
  H  H170  1  0.08647000  0.05346000  0.64747000  1.0
  H  H171  1  0.91353000  0.44654000  0.14747000  1.0
  H  H172  1  0.52287000  0.49901000  0.35816000  1.0
  H  H173  1  0.47713000  0.00099000  0.85816000  1.0
  H  H174  1  0.97713000  0.99901000  0.64184000  1.0
  H  H175  1  0.02287000  0.50099000  0.14184000  1.0
  H  H176  1  0.54036000  0.33041000  0.37573000  1.0
  H  H177  1  0.45964000  0.16958000  0.87573000  1.0
  H  H178  1  0.95964000  0.83042000  0.62427000  1.0
  H  H179  1  0.04036000  0.66959000  0.12427000  1.0
  H  H180  1  0.44223000  0.25687000  0.38677000  1.0
  H  H181  1  0.55777000  0.24313000  0.88676000  1.0
  H  H182  1  0.05777000  0.75687000  0.61324000  1.0
  H  H183  1  0.94223000  0.74313000  0.11323000  1.0
  H  H184  1  0.47305000  0.33357000  0.47199000  1.0
  H  H185  1  0.52695000  0.16643000  0.97199000  1.0
  H  H186  1  0.02695000  0.83357000  0.52801000  1.0
  H  H187  1  0.97305000  0.66643000  0.02801000  1.0
  C  C188  1  0.47456000  0.42909000  0.65930000  1.0
  C  C189  1  0.52544000  0.07091000  0.15930000  1.0
  C  C190  1  0.02544000  0.92909000  0.34070000  1.0
  C  C191  1  0.97456000  0.57091000  0.84070000  1.0
  C  C192  1  0.47458000  0.33760000  0.68708000  1.0
  C  C193  1  0.52542000  0.16240000  0.18708000  1.0
  C  C194  1  0.02542000  0.83760000  0.31292000  1.0
  C  C195  1  0.97458000  0.66240000  0.81292000  1.0
  C  C196  1  0.40486000  0.27899000  0.65794000  1.0
  C  C197  1  0.59514000  0.22101000  0.15795000  1.0
  C  C198  1  0.09514000  0.77899000  0.34206000  1.0
  C  C199  1  0.90486000  0.72101000  0.84206000  1.0
  C  C200  1  0.33976000  0.31183000  0.59926000  1.0
  C  C201  1  0.66024000  0.18817000  0.09926000  1.0
  C  C202  1  0.16024000  0.81183000  0.40074000  1.0
  C  C203  1  0.83975000  0.68817000  0.90074000  1.0
  C  C204  1  0.34553000  0.40347000  0.57141000  1.0
  C  C205  1  0.65446000  0.09653000  0.07141000  1.0
  C  C206  1  0.15446000  0.90347000  0.42859000  1.0
  C  C207  1  0.84553000  0.59653000  0.92859000  1.0
  C  C208  1  0.54729000  0.49588000  0.68846000  1.0
  C  C209  1  0.45271000  0.00413000  0.18847000  1.0
  C  C210  1  0.95271000  0.99588000  0.31154000  1.0
  C  C211  1  0.04729000  0.50413000  0.81154000  1.0
  C  C212  1  0.59960000  0.68868000  0.68619000  1.0
  C  C213  1  0.40040000  0.81133000  0.18619000  1.0
  C  C214  1  0.90040000  0.18868000  0.31381000  1.0
  C  C215  1  0.09960000  0.31133000  0.81381000  1.0
  C  C216  1  0.60300000  0.69507000  0.58645000  1.0
  C  C217  1  0.39700000  0.80493000  0.08645000  1.0
  C  C218  1  0.89700000  0.19507000  0.41355000  1.0
  C  C219  1  0.10300000  0.30493000  0.91355000  1.0
  C  C220  1  0.58142000  0.78530000  0.72265000  1.0
  C  C221  1  0.41858000  0.71470000  0.22265000  1.0
  C  C222  1  0.91858000  0.28529000  0.27735000  1.0
  C  C223  1  0.08142000  0.21471000  0.77735000  1.0
  C  C224  1  0.69240000  0.65253000  0.71976000  1.0
  C  C225  1  0.30760000  0.84747000  0.21976000  1.0
  C  C226  1  0.80760000  0.15253000  0.28024000  1.0
  C  C227  1  0.19240000  0.34747000  0.78024000  1.0
  C  C228  1  0.46862000  0.60694000  0.83007000  1.0
  C  C229  1  0.53138000  0.89306000  0.33007000  1.0
  C  C230  1  0.03138000  0.10693000  0.16993000  1.0
  C  C231  1  0.96862000  0.39306000  0.66993000  1.0
  C  C232  1  0.40448000  0.52309000  0.84068000  1.0
  C  C233  1  0.59552000  0.97691000  0.34068000  1.0
  C  C234  1  0.09552000  0.02308000  0.15932000  1.0
  C  C235  1  0.90448000  0.47691000  0.65932000  1.0
  C  C236  1  0.55140000  0.59635000  0.89073000  1.0
  C  C237  1  0.44860000  0.90365000  0.39073000  1.0
  C  C238  1  0.94860000  0.09635000  0.10927000  1.0
  C  C239  1  0.05140000  0.40365000  0.60927000  1.0
  C  C240  1  0.41280000  0.69319000  0.85396000  1.0
  C  C241  1  0.58720000  0.80680000  0.35396000  1.0
  C  C242  1  0.08720000  0.19320000  0.14604000  1.0
  C  C243  1  0.91280000  0.30680000  0.64604000  1.0
  C  C244  1  0.28159000  0.44177000  0.50412000  1.0
  C  C245  1  0.71841000  0.05823000  0.00412000  1.0
  C  C246  1  0.21841000  0.94177000  0.49588000  1.0
  C  C247  1  0.78159000  0.55823000  0.99588000  1.0
  C  C248  1  0.20282000  0.45268000  0.33074000  1.0
  C  C249  1  0.79719000  0.04732000  0.83074000  1.0
  C  C250  1  0.29719000  0.95268000  0.66926000  1.0
  C  C251  1  0.70281000  0.54732000  0.16926000  1.0
  C  C252  1  0.11309000  0.45606000  0.38410000  1.0
  C  C253  1  0.88691000  0.04394000  0.88410000  1.0
  C  C254  1  0.38691000  0.95606000  0.61590000  1.0
  C  C255  1  0.61309000  0.54394000  0.11590000  1.0
  C  C256  1  0.18232000  0.39869000  0.24720000  1.0
  C  C257  1  0.81768000  0.10131000  0.74720000  1.0
  C  C258  1  0.31768000  0.89869000  0.75280000  1.0
  C  C259  1  0.68232000  0.60131000  0.25280000  1.0
  C  C260  1  0.23321000  0.55100000  0.30935000  1.0
  C  C261  1  0.76679000  0.94900000  0.80935000  1.0
  C  C262  1  0.26679000  0.05100000  0.69064000  1.0
  C  C263  1  0.73321000  0.44900000  0.19065000  1.0
  C  C264  1  0.41067000  0.40181000  0.35832000  1.0
  C  C265  1  0.58933000  0.09819000  0.85832000  1.0
  C  C266  1  0.08933000  0.90181000  0.64168000  1.0
  C  C267  1  0.91067000  0.59819000  0.14168000  1.0
  C  C268  1  0.41422000  0.38709000  0.25969000  1.0
  C  C269  1  0.58578000  0.11290000  0.75969000  1.0
  C  C270  1  0.08578000  0.88709000  0.74031000  1.0
  C  C271  1  0.91422000  0.61291000  0.24031000  1.0
  C  C272  1  0.45119000  0.49599000  0.38187000  1.0
  C  C273  1  0.54881000  0.00401000  0.88187000  1.0
  C  C274  1  0.04881000  0.99599000  0.61813000  1.0
  C  C275  1  0.95119000  0.50401000  0.11813000  1.0
  C  C276  1  0.46940000  0.32590000  0.40123000  1.0
  C  C277  1  0.53061000  0.17410000  0.90122000  1.0
  C  C278  1  0.03061000  0.82590000  0.59877000  1.0
  C  C279  1  0.96939000  0.67410000  0.09877000  1.0
  N  N280  1  0.40956000  0.46173000  0.60392000  1.0
  N  N281  1  0.59044000  0.03827000  0.10392000  1.0
  N  N282  1  0.09044000  0.96173000  0.39607000  1.0
  N  N283  1  0.90956000  0.53827000  0.89608000  1.0
  Cl  Cl284  1  0.22250000  0.60745000  0.66845000  1.0
  Cl  Cl285  1  0.77750000  0.89255000  0.16845000  1.0
  Cl  Cl286  1  0.27750000  0.10745000  0.33155000  1.0
  Cl  Cl287  1  0.72250000  0.39255000  0.83155000  1.0
  Cl  Cl288  1  0.35852000  0.69017000  0.49266000  1.0
  Cl  Cl289  1  0.64148000  0.80983000  0.99267000  1.0
  Cl  Cl290  1  0.14148000  0.19017000  0.50733000  1.0
  Cl  Cl291  1  0.85852000  0.30983000  0.00733000  1.0
