# generated using pymatgen
data_CuH28C20S4(N5O2)2
_symmetry_space_group_name_H-M   'P 1'
_cell_length_a   8.69404000
_cell_length_b   9.70085000
_cell_length_c   9.83194000
_cell_angle_alpha   63.12830000
_cell_angle_beta   73.48160000
_cell_angle_gamma   64.29060000
_symmetry_Int_Tables_number   1
_chemical_formula_structural   CuH28C20S4(N5O2)2
_chemical_formula_sum   'Cu1 H28 C20 S4 N10 O4'
_cell_volume   662.42943040
_cell_formula_units_Z   1
loop_
 _symmetry_equiv_pos_site_id
 _symmetry_equiv_pos_as_xyz
  1  'x, y, z'
loop_
 _atom_site_type_symbol
 _atom_site_label
 _atom_site_symmetry_multiplicity
 _atom_site_fract_x
 _atom_site_fract_y
 _atom_site_fract_z
 _atom_site_occupancy
  Cu  Cu0  1  0.00000000  0.00000000  0.00000000  1.0
  H  H1  1  0.21719000  0.75327000  0.86906000  1.0
  H  H2  1  0.78281000  0.24673000  0.13094000  1.0
  H  H3  1  0.11863000  0.67213000  0.04939000  1.0
  H  H4  1  0.88137000  0.32787000  0.95060000  1.0
  H  H5  1  0.08741000  0.04359000  0.19761000  1.0
  H  H6  1  0.91259000  0.95641000  0.80239000  1.0
  H  H7  1  0.17165000  0.14377000  0.02431000  1.0
  H  H8  1  0.82835000  0.85623000  0.97569000  1.0
  H  H9  1  0.26682000  0.93864000  0.11521000  1.0
  H  H10  1  0.73318000  0.06136000  0.88479000  1.0
  H  H11  1  0.40998000  0.05735000  0.37818000  1.0
  H  H12  1  0.59002000  0.94264000  0.62182000  1.0
  H  H13  1  0.19893000  0.14631000  0.32882000  1.0
  H  H14  1  0.80108000  0.85368000  0.67118000  1.0
  H  H15  1  0.33499000  0.84042000  0.37336000  1.0
  H  H16  1  0.66502000  0.15957000  0.62664000  1.0
  H  H17  1  0.14893000  0.87883000  0.50460000  1.0
  H  H18  1  0.85108000  0.12116000  0.49540000  1.0
  H  H19  1  0.35536000  0.79216000  0.56480000  1.0
  H  H20  1  0.64465000  0.20784000  0.43520000  1.0
  H  H21  1  0.22677000  0.34960000  0.05966000  1.0
  H  H22  1  0.77323000  0.65040000  0.94034000  1.0
  H  H23  1  0.49352000  0.25372000  0.17364000  1.0
  H  H24  1  0.50648000  0.74629000  0.82636000  1.0
  H  H25  1  0.23447000  0.60655000  0.28001000  1.0
  H  H26  1  0.76552000  0.39346000  0.71998000  1.0
  H  H27  1  0.50211000  0.48518000  0.60665000  1.0
  H  H28  1  0.49788000  0.51482000  0.39335000  1.0
  C  C29  1  0.34803000  0.42248000  0.82534000  1.0
  C  C30  1  0.65196000  0.57752000  0.17467000  1.0
  C  C31  1  0.13183000  0.25716000  0.72601000  1.0
  C  C32  1  0.86816000  0.74285000  0.27399000  1.0
  C  C33  1  0.27925000  0.05491000  0.42285000  1.0
  C  C34  1  0.72076000  0.94508000  0.57715000  1.0
  C  C35  1  0.27886000  0.88268000  0.46889000  1.0
  C  C36  1  0.72115000  0.11732000  0.53111000  1.0
  C  C37  1  0.21568000  0.11365000  0.55231000  1.0
  C  C38  1  0.78433000  0.88634000  0.44769000  1.0
  C  C39  1  0.34630000  0.35460000  0.98571000  1.0
  C  C40  1  0.65369000  0.64541000  0.01430000  1.0
  C  C41  1  0.49505000  0.30188000  0.04946000  1.0
  C  C42  1  0.50495000  0.69813000  0.95054000  1.0
  C  C43  1  0.35278000  0.68023000  0.04479000  1.0
  C  C44  1  0.64722000  0.31977000  0.95521000  1.0
  C  C45  1  0.35167000  0.61737000  0.20535000  1.0
  C  C46  1  0.64832000  0.38263000  0.79465000  1.0
  C  C47  1  0.49993000  0.43396000  0.73067000  1.0
  C  C48  1  0.50006000  0.56605000  0.26933000  1.0
  S  S49  1  0.22874000  0.29464000  0.53498000  1.0
  S  S50  1  0.77127000  0.70536000  0.46502000  1.0
  S  S51  1  0.15560000  0.50418000  0.74331000  1.0
  S  S52  1  0.84440000  0.49582000  0.25668000  1.0
  N  N53  1  0.20616000  0.72805000  0.98288000  1.0
  N  N54  1  0.79384000  0.27196000  0.01712000  1.0
  N  N55  1  0.08904000  0.35142000  0.80677000  1.0
  N  N56  1  0.91095000  0.64858000  0.19323000  1.0
  N  N57  1  0.09925000  0.11645000  0.78461000  1.0
  N  N58  1  0.90075000  0.88355000  0.21539000  1.0
  N  N59  1  0.14532000  0.03744000  0.68592000  1.0
  N  N60  1  0.85469000  0.96256000  0.31408000  1.0
  N  N61  1  0.15206000  0.03502000  0.09527000  1.0
  N  N62  1  0.84795000  0.96498000  0.90473000  1.0
  O  O63  1  0.03062000  0.62402000  0.80830000  1.0
  O  O64  1  0.96937000  0.37598000  0.19171000  1.0
  O  O65  1  0.19708000  0.56383000  0.57696000  1.0
  O  O66  1  0.80292000  0.43617000  0.42305000  1.0
