# generated using pymatgen
data_GdCdH7C5SN2O11
_symmetry_space_group_name_H-M   'P 1'
_cell_length_a   8.57789000
_cell_length_b   10.54440000
_cell_length_c   13.83760000
_cell_angle_alpha   89.99990000
_cell_angle_beta   101.88300000
_cell_angle_gamma   90.00000000
_symmetry_Int_Tables_number   1
_chemical_formula_structural   GdCdH7C5SN2O11
_chemical_formula_sum   'Gd4 Cd4 H28 C20 S4 N8 O44'
_cell_volume   1224.77149476
_cell_formula_units_Z   4
loop_
 _symmetry_equiv_pos_site_id
 _symmetry_equiv_pos_as_xyz
  1  'x, y, z'
loop_
 _atom_site_type_symbol
 _atom_site_label
 _atom_site_symmetry_multiplicity
 _atom_site_fract_x
 _atom_site_fract_y
 _atom_site_fract_z
 _atom_site_occupancy
  Gd  Gd0  1  0.93344000  0.89501000  0.10942000  1.0
  Gd  Gd1  1  0.06656000  0.39501000  0.39058000  1.0
  Gd  Gd2  1  0.06656000  0.10499000  0.89058000  1.0
  Gd  Gd3  1  0.93344000  0.60499000  0.60942000  1.0
  Cd  Cd4  1  0.62244000  0.48483000  0.13414000  1.0
  Cd  Cd5  1  0.37756000  0.98483000  0.36586000  1.0
  Cd  Cd6  1  0.37756000  0.51517000  0.86586000  1.0
  Cd  Cd7  1  0.62244000  0.01517000  0.63413000  1.0
  H  H8  1  0.62789000  0.26127000  0.33756000  1.0
  H  H9  1  0.37211000  0.76127000  0.16244000  1.0
  H  H10  1  0.37211000  0.73874000  0.66244000  1.0
  H  H11  1  0.62789000  0.23873000  0.83756000  1.0
  H  H12  1  0.99953000  0.89808000  0.33564000  1.0
  H  H13  1  0.00047000  0.39808000  0.16436000  1.0
  H  H14  1  0.00047000  0.10192000  0.66436000  1.0
  H  H15  1  0.99953000  0.60192000  0.83564000  1.0
  H  H16  1  0.81127000  0.91099000  0.30442000  1.0
  H  H17  1  0.18873000  0.41099000  0.19558000  1.0
  H  H18  1  0.18873000  0.08900000  0.69558000  1.0
  H  H19  1  0.81127000  0.58900000  0.80442000  1.0
  H  H20  1  0.01655000  0.63298000  0.16851000  1.0
  H  H21  1  0.98345000  0.13298000  0.33149000  1.0
  H  H22  1  0.98345000  0.36702000  0.83149000  1.0
  H  H23  1  0.01655000  0.86702000  0.66851000  1.0
  H  H24  1  0.05288000  0.68818000  0.27476000  1.0
  H  H25  1  0.94712000  0.18818000  0.22524000  1.0
  H  H26  1  0.94712000  0.31182000  0.72524000  1.0
  H  H27  1  0.05288000  0.81182000  0.77476000  1.0
  H  H28  1  0.55855000  0.88636000  0.07116000  1.0
  H  H29  1  0.44145000  0.38636000  0.42884000  1.0
  H  H30  1  0.44145000  0.11364000  0.92884000  1.0
  H  H31  1  0.55855000  0.61364000  0.57116000  1.0
  H  H32  1  0.62460000  0.02652000  0.08292000  1.0
  H  H33  1  0.37540000  0.52652000  0.41708000  1.0
  H  H34  1  0.37540000  0.97348000  0.91708000  1.0
  H  H35  1  0.62460000  0.47348000  0.58292000  1.0
  C  C36  1  0.53188000  0.24386000  0.27447000  1.0
  C  C37  1  0.46812000  0.74385000  0.22553000  1.0
  C  C38  1  0.46812000  0.75615000  0.72553000  1.0
  C  C39  1  0.53188000  0.25615000  0.77447000  1.0
  C  C40  1  0.33300000  0.15386000  0.17588000  1.0
  C  C41  1  0.66700000  0.65386000  0.32412000  1.0
  C  C42  1  0.66701000  0.84614000  0.82412000  1.0
  C  C43  1  0.33300000  0.34614000  0.67588000  1.0
  C  C44  1  0.37643000  0.26304000  0.12958000  1.0
  C  C45  1  0.62356000  0.76304000  0.37042000  1.0
  C  C46  1  0.62357000  0.73696000  0.87042000  1.0
  C  C47  1  0.37643000  0.23696000  0.62958000  1.0
  C  C48  1  0.21336000  0.05575000  0.14552000  1.0
  C  C49  1  0.78664000  0.55575000  0.35448000  1.0
  C  C50  1  0.78664000  0.94426000  0.85448000  1.0
  C  C51  1  0.21336000  0.44425000  0.64552000  1.0
  C  C52  1  0.31664000  0.32400000  0.03271000  1.0
  C  C53  1  0.68336000  0.82399000  0.46729000  1.0
  C  C54  1  0.68336000  0.67601000  0.96729000  1.0
  C  C55  1  0.31664000  0.17601000  0.53271000  1.0
  S  S56  1  0.79616000  0.21930000  0.04370000  1.0
  S  S57  1  0.20384000  0.71930000  0.45630000  1.0
  S  S58  1  0.20384000  0.78070000  0.95630000  1.0
  S  S59  1  0.79616000  0.28070000  0.54370000  1.0
  N  N60  1  0.50198000  0.31765000  0.19359000  1.0
  N  N61  1  0.49802000  0.81765000  0.30642000  1.0
  N  N62  1  0.49803000  0.68235000  0.80641000  1.0
  N  N63  1  0.50198000  0.18235000  0.69358000  1.0
  N  N64  1  0.43081000  0.14523000  0.26790000  1.0
  N  N65  1  0.56919000  0.64523000  0.23210000  1.0
  N  N66  1  0.56919000  0.85477000  0.73210000  1.0
  N  N67  1  0.43081000  0.35477000  0.76790000  1.0
  O  O68  1  0.18119000  0.97940000  0.21103000  1.0
  O  O69  1  0.81881000  0.47940000  0.28897000  1.0
  O  O70  1  0.81881000  0.02061000  0.78897000  1.0
  O  O71  1  0.18119000  0.52061000  0.71103000  1.0
  O  O72  1  0.13878000  0.04311000  0.05616000  1.0
  O  O73  1  0.86122000  0.54311000  0.44384000  1.0
  O  O74  1  0.86122000  0.95689000  0.94384000  1.0
  O  O75  1  0.13878000  0.45689000  0.55616000  1.0
  O  O76  1  0.20994000  0.27416000  0.96751000  1.0
  O  O77  1  0.79006000  0.77416000  0.53249000  1.0
  O  O78  1  0.79007000  0.72584000  0.03249000  1.0
  O  O79  1  0.20993000  0.22584000  0.46751000  1.0
  O  O80  1  0.37989000  0.43120000  0.01913000  1.0
  O  O81  1  0.62012000  0.93120000  0.48087000  1.0
  O  O82  1  0.62012000  0.56880000  0.98087000  1.0
  O  O83  1  0.37989000  0.06880000  0.51913000  1.0
  O  O84  1  0.62568000  0.18560000  0.01409000  1.0
  O  O85  1  0.37433000  0.68560000  0.48591000  1.0
  O  O86  1  0.37432000  0.81440000  0.98591000  1.0
  O  O87  1  0.62568000  0.31440000  0.51409000  1.0
  O  O88  1  0.81886000  0.34577000  0.09376000  1.0
  O  O89  1  0.18114000  0.84577000  0.40624000  1.0
  O  O90  1  0.18114000  0.65423000  0.90624000  1.0
  O  O91  1  0.81886000  0.15423000  0.59376000  1.0
  O  O92  1  0.87631000  0.12285000  0.11832000  1.0
  O  O93  1  0.12368000  0.62285000  0.38168000  1.0
  O  O94  1  0.12368000  0.87715000  0.88168000  1.0
  O  O95  1  0.87631000  0.37715000  0.61832000  1.0
  O  O96  1  0.87325000  0.22181000  0.95725000  1.0
  O  O97  1  0.12675000  0.72181000  0.54275000  1.0
  O  O98  1  0.12675000  0.77819000  0.04275000  1.0
  O  O99  1  0.87325000  0.27818000  0.45725000  1.0
  O  O100  1  0.91073000  0.93770000  0.28686000  1.0
  O  O101  1  0.08927000  0.43770000  0.21314000  1.0
  O  O102  1  0.08927000  0.06230000  0.71314000  1.0
  O  O103  1  0.91073000  0.56230000  0.78686000  1.0
  O  O104  1  0.00210000  0.70973000  0.20512000  1.0
  O  O105  1  0.99790000  0.20973000  0.29488000  1.0
  O  O106  1  0.99790000  0.29027000  0.79488000  1.0
  O  O107  1  0.00210000  0.79027000  0.70512000  1.0
  O  O108  1  0.64835000  0.93839000  0.10525000  1.0
  O  O109  1  0.35165000  0.43839000  0.39474000  1.0
  O  O110  1  0.35165000  0.06161000  0.89475000  1.0
  O  O111  1  0.64835000  0.56160000  0.60525000  1.0
