# generated using pymatgen
data_ZnH10C14N2O5
_symmetry_space_group_name_H-M   'P 1'
_cell_length_a   6.09956000
_cell_length_b   7.37868000
_cell_length_c   14.53910000
_cell_angle_alpha   93.46700000
_cell_angle_beta   91.01170000
_cell_angle_gamma   92.47240000
_symmetry_Int_Tables_number   1
_chemical_formula_structural   ZnH10C14N2O5
_chemical_formula_sum   'Zn2 H20 C28 N4 O10'
_cell_volume   652.41655762
_cell_formula_units_Z   2
loop_
 _symmetry_equiv_pos_site_id
 _symmetry_equiv_pos_as_xyz
  1  'x, y, z'
loop_
 _atom_site_type_symbol
 _atom_site_label
 _atom_site_symmetry_multiplicity
 _atom_site_fract_x
 _atom_site_fract_y
 _atom_site_fract_z
 _atom_site_occupancy
  Zn  Zn0  1  0.30876000  0.24790000  0.99778000  1.0
  Zn  Zn1  1  0.69130000  0.75216000  0.00222000  1.0
  H  H2  1  0.90203000  0.34016000  0.96590000  1.0
  H  H3  1  0.88590000  0.15064000  0.01223000  1.0
  H  H4  1  0.09799000  0.65991000  0.03415000  1.0
  H  H5  1  0.11414000  0.84943000  0.98784000  1.0
  H  H6  1  0.00467000  0.44214000  0.17677000  1.0
  H  H7  1  0.02949000  0.04921000  0.82338000  1.0
  H  H8  1  0.99544000  0.55781000  0.82318000  1.0
  H  H9  1  0.97040000  0.95080000  0.17661000  1.0
  H  H10  1  0.86490000  0.41035000  0.33607000  1.0
  H  H11  1  0.88357000  0.08594000  0.66369000  1.0
  H  H12  1  0.13514000  0.58956000  0.66387000  1.0
  H  H13  1  0.11638000  0.91402000  0.33629000  1.0
  H  H14  1  0.48492000  0.63026000  0.44895000  1.0
  H  H15  1  0.47698000  0.87489000  0.55178000  1.0
  H  H16  1  0.51502000  0.36972000  0.55105000  1.0
  H  H17  1  0.52300000  0.12508000  0.44824000  1.0
  H  H18  1  0.61811000  0.67465000  0.28984000  1.0
  H  H19  1  0.61585000  0.82623000  0.71098000  1.0
  H  H20  1  0.38192000  0.32535000  0.71019000  1.0
  H  H21  1  0.38410000  0.17379000  0.28905000  1.0
  C  C22  1  0.40004000  0.58567000  0.12906000  1.0
  C  C23  1  0.41110000  0.90544000  0.87154000  1.0
  C  C24  1  0.60009000  0.41435000  0.87094000  1.0
  C  C25  1  0.58882000  0.09463000  0.12847000  1.0
  C  C26  1  0.31888000  0.56255000  0.22384000  1.0
  C  C27  1  0.32949000  0.93231000  0.77644000  1.0
  C  C28  1  0.68121000  0.43746000  0.77614000  1.0
  C  C29  1  0.67045000  0.06770000  0.22359000  1.0
  C  C30  1  0.10681000  0.48663000  0.23685000  1.0
  C  C31  1  0.12346000  0.00709000  0.76329000  1.0
  C  C32  1  0.89328000  0.51331000  0.76311000  1.0
  C  C33  1  0.87646000  0.99290000  0.23671000  1.0
  C  C34  1  0.02858000  0.46875000  0.32498000  1.0
  C  C35  1  0.04241000  0.02811000  0.67504000  1.0
  C  C36  1  0.97146000  0.53117000  0.67497000  1.0
  C  C37  1  0.95751000  0.97185000  0.32496000  1.0
  C  C38  1  0.16486000  0.52370000  0.40179000  1.0
  C  C39  1  0.16926000  0.97662000  0.59849000  1.0
  C  C40  1  0.83513000  0.47621000  0.59817000  1.0
  C  C41  1  0.83070000  0.02335000  0.40152000  1.0
  C  C42  1  0.37935000  0.59375000  0.38895000  1.0
  C  C43  1  0.37845000  0.90848000  0.61161000  1.0
  C  C44  1  0.62063000  0.40621000  0.61104000  1.0
  C  C45  1  0.62152000  0.09150000  0.38840000  1.0
  C  C46  1  0.45414000  0.61659000  0.30054000  1.0
  C  C47  1  0.45632000  0.88308000  0.70007000  1.0
  C  C48  1  0.54591000  0.38340000  0.69946000  1.0
  C  C49  1  0.54363000  0.11693000  0.29994000  1.0
  N  N50  1  0.10259000  0.50878000  0.49428000  1.0
  N  N51  1  0.10245000  0.99334000  0.50603000  1.0
  N  N52  1  0.89737000  0.49113000  0.50569000  1.0
  N  N53  1  0.89753000  0.00664000  0.49397000  1.0
  O  O54  1  0.28402000  0.52112000  0.05916000  1.0
  O  O55  1  0.30161000  0.96385000  0.94051000  1.0
  O  O56  1  0.71613000  0.47899000  0.94081000  1.0
  O  O57  1  0.69829000  0.03625000  0.05949000  1.0
  O  O58  1  0.58186000  0.67513000  0.12172000  1.0
  O  O59  1  0.58763000  0.81988000  0.87997000  1.0
  O  O60  1  0.41828000  0.32490000  0.87830000  1.0
  O  O61  1  0.41226000  0.18016000  0.12007000  1.0
  O  O62  1  0.98609000  0.22978000  0.97641000  1.0
  O  O63  1  0.01395000  0.77030000  0.02367000  1.0
