# generated using pymatgen
data_CuH8C6N2Cl
_symmetry_space_group_name_H-M   'P 1'
_cell_length_a   6.56387000
_cell_length_b   11.12422940
_cell_length_c   11.30199717
_cell_angle_alpha   70.66064484
_cell_angle_beta   73.29237988
_cell_angle_gamma   72.85800353
_symmetry_Int_Tables_number   1
_chemical_formula_structural   CuH8C6N2Cl
_chemical_formula_sum   'Cu4 H32 C24 N8 Cl4'
_cell_volume   727.40537115
_cell_formula_units_Z   4
loop_
 _symmetry_equiv_pos_site_id
 _symmetry_equiv_pos_as_xyz
  1  'x, y, z'
loop_
 _atom_site_type_symbol
 _atom_site_label
 _atom_site_symmetry_multiplicity
 _atom_site_fract_x
 _atom_site_fract_y
 _atom_site_fract_z
 _atom_site_occupancy
  Cu  Cu0  1  0.26668000  0.58200000  0.07864000  1.0
  Cu  Cu1  1  0.92765000  0.91760000  0.42132000  1.0
  Cu  Cu2  1  0.73332000  0.41800000  0.92135000  1.0
  Cu  Cu3  1  0.07236000  0.08241000  0.57869000  1.0
  H  H4  1  0.91977000  0.21015000  0.34960000  1.0
  H  H5  1  0.47987000  0.28932000  0.14893000  1.0
  H  H6  1  0.08021000  0.78985000  0.65042000  1.0
  H  H7  1  0.52010000  0.71067000  0.85107000  1.0
  H  H8  1  0.98814000  0.40148000  0.15701000  1.0
  H  H9  1  0.54684000  0.09726000  0.34126000  1.0
  H  H10  1  0.01188000  0.59850000  0.84299000  1.0
  H  H11  1  0.45314000  0.90273000  0.65874000  1.0
  H  H12  1  0.29511000  0.63863000  0.28405000  1.0
  H  H13  1  0.22018000  0.86199000  0.21677000  1.0
  H  H14  1  0.70488000  0.36139000  0.71594000  1.0
  H  H15  1  0.77982000  0.13803000  0.78326000  1.0
  H  H16  1  0.51307000  0.51243000  0.33526000  1.0
  H  H17  1  0.36170000  0.98885000  0.16430000  1.0
  H  H18  1  0.48695000  0.48758000  0.66472000  1.0
  H  H19  1  0.63830000  0.01117000  0.83568000  1.0
  H  H20  1  0.28696000  0.56606000  0.45203000  1.0
  H  H21  1  0.30499000  0.93385000  0.04852000  1.0
  H  H22  1  0.71307000  0.43395000  0.54796000  1.0
  H  H23  1  0.69500000  0.06612000  0.95149000  1.0
  H  H24  1  0.22923000  0.22767000  0.64675000  1.0
  H  H25  1  0.10486000  0.27351000  0.85436000  1.0
  H  H26  1  0.77081000  0.77233000  0.35324000  1.0
  H  H27  1  0.89511000  0.72647000  0.14564000  1.0
  H  H28  1  0.21216000  0.39819000  0.61830000  1.0
  H  H29  1  0.22732000  0.10265000  0.88175000  1.0
  H  H30  1  0.78786000  0.60181000  0.38170000  1.0
  H  H31  1  0.77269000  0.89733000  0.11827000  1.0
  H  H32  1  0.45504000  0.29635000  0.55412000  1.0
  H  H33  1  0.30667000  0.20234000  0.94756000  1.0
  H  H34  1  0.54498000  0.70367000  0.44587000  1.0
  H  H35  1  0.69331000  0.79767000  0.05244000  1.0
  C  C36  1  0.22415000  0.44965000  0.35327000  1.0
  C  C37  1  0.02768000  0.05029000  0.14678000  1.0
  C  C38  1  0.77586000  0.55034000  0.64673000  1.0
  C  C39  1  0.97230000  0.94970000  0.85323000  1.0
  C  C40  1  0.19230000  0.34033000  0.45857000  1.0
  C  C41  1  0.99164000  0.15994000  0.04158000  1.0
  C  C42  1  0.80773000  0.65968000  0.54143000  1.0
  C  C43  1  0.00835000  0.84006000  0.95842000  1.0
  C  C44  1  0.01065000  0.27839000  0.34812000  1.0
  C  C45  1  0.63749000  0.22110000  0.15081000  1.0
  C  C46  1  0.98936000  0.72161000  0.65189000  1.0
  C  C47  1  0.36249000  0.77889000  0.84920000  1.0
  C  C48  1  0.04699000  0.38303000  0.24359000  1.0
  C  C49  1  0.67394000  0.11607000  0.25522000  1.0
  C  C50  1  0.95301000  0.61696000  0.75642000  1.0
  C  C51  1  0.32604000  0.88392000  0.74478000  1.0
  C  C52  1  0.33479000  0.54701000  0.35754000  1.0
  C  C53  1  0.24039000  0.95336000  0.14280000  1.0
  C  C54  1  0.66521000  0.45299000  0.64245000  1.0
  C  C55  1  0.75961000  0.04664000  0.85721000  1.0
  C  C56  1  0.27601000  0.31516000  0.57592000  1.0
  C  C57  1  0.16751000  0.18516000  0.92483000  1.0
  C  C58  1  0.72400000  0.68486000  0.42407000  1.0
  C  C59  1  0.83248000  0.81483000  0.07517000  1.0
  N  N60  1  0.15820000  0.46853000  0.24369000  1.0
  N  N61  1  0.87096000  0.03080000  0.25575000  1.0
  N  N62  1  0.84182000  0.53147000  0.75630000  1.0
  N  N63  1  0.12904000  0.96920000  0.74425000  1.0
  N  N64  1  0.08714000  0.25379000  0.45502000  1.0
  N  N65  1  0.79634000  0.24634000  0.04454000  1.0
  N  N66  1  0.91286000  0.74622000  0.54498000  1.0
  N  N67  1  0.20364000  0.75365000  0.95546000  1.0
  Cl  Cl68  1  0.65817000  0.55742000  0.06131000  1.0
  Cl  Cl69  1  0.27658000  0.94234000  0.43971000  1.0
  Cl  Cl70  1  0.34183000  0.44257000  0.93868000  1.0
  Cl  Cl71  1  0.72342000  0.05767000  0.56030000  1.0
