# generated using pymatgen
data_Zn3H31C30Br(ClO3)4
_symmetry_space_group_name_H-M   'P 1'
_cell_length_a   18.77850000
_cell_length_b   18.78910000
_cell_length_c   18.81260000
_cell_angle_alpha   109.20600000
_cell_angle_beta   109.60600000
_cell_angle_gamma   109.45700000
_symmetry_Int_Tables_number   1
_chemical_formula_structural   Zn3H31C30Br(ClO3)4
_chemical_formula_sum   'Zn6 H62 C60 Br2 Cl8 O24'
_cell_volume   5118.73552948
_cell_formula_units_Z   2
loop_
 _symmetry_equiv_pos_site_id
 _symmetry_equiv_pos_as_xyz
  1  'x, y, z'
loop_
 _atom_site_type_symbol
 _atom_site_label
 _atom_site_symmetry_multiplicity
 _atom_site_fract_x
 _atom_site_fract_y
 _atom_site_fract_z
 _atom_site_occupancy
  Zn  Zn0  1  0.05885000  0.00317000  0.56244000  1.0
  Zn  Zn1  1  0.94115000  0.99683000  0.43757000  1.0
  Zn  Zn2  1  0.49783000  0.55729000  0.55813000  1.0
  Zn  Zn3  1  0.50217000  0.44271000  0.44187000  1.0
  Zn  Zn4  1  0.93938000  0.43979000  0.99776000  1.0
  Zn  Zn5  1  0.06062000  0.56020000  0.00224000  1.0
  H  H6  1  0.79701000  0.58954000  0.90499000  1.0
  H  H7  1  0.20287000  0.41035000  0.09500000  1.0
  H  H8  1  0.09939000  0.19866000  0.40126000  1.0
  H  H9  1  0.90060000  0.80141000  0.59882000  1.0
  H  H10  1  0.12870000  0.27081000  0.50692000  1.0
  H  H11  1  0.87135000  0.72924000  0.49319000  1.0
  H  H12  1  0.24233000  0.38144000  0.51546000  1.0
  H  H13  1  0.75772000  0.61861000  0.48464000  1.0
  H  H14  1  0.20624000  0.31146000  0.40590000  1.0
  H  H15  1  0.79376000  0.68862000  0.59418000  1.0
  H  H16  1  0.16016000  0.10379000  0.37537000  1.0
  H  H17  1  0.83977000  0.89623000  0.62459000  1.0
  H  H18  1  0.26569000  0.20798000  0.37151000  1.0
  H  H19  1  0.73423000  0.79205000  0.62844000  1.0
  H  H20  1  0.13477000  0.25260000  0.78856000  1.0
  H  H21  1  0.86521000  0.74736000  0.21146000  1.0
  H  H22  1  0.05992000  0.16678000  0.78881000  1.0
  H  H23  1  0.94002000  0.83318000  0.21118000  1.0
  H  H24  1  0.04061000  0.26233000  0.88669000  1.0
  H  H25  1  0.95935000  0.73765000  0.11331000  1.0
  H  H26  1  0.12374000  0.34967000  0.89466000  1.0
  H  H27  1  0.87625000  0.65030000  0.10535000  1.0
  H  H28  1  0.69123000  0.59205000  0.79735000  1.0
  H  H29  1  0.30864000  0.40782000  0.20264000  1.0
  H  H30  1  0.08568000  0.29774000  0.67983000  1.0
  H  H31  1  0.91437000  0.70226000  0.32022000  1.0
  H  H32  1  0.09471000  0.39685000  0.79497000  1.0
  H  H33  1  0.90531000  0.60315000  0.20506000  1.0
  H  H34  1  0.86069000  0.13536000  0.61272000  1.0
  H  H35  1  0.13932000  0.86468000  0.38726000  1.0
  H  H36  1  0.89333000  0.09816000  0.68568000  1.0
  H  H37  1  0.10662000  0.90183000  0.31427000  1.0
  H  H38  1  0.89280000  0.20450000  0.79149000  1.0
  H  H39  1  0.10717000  0.79549000  0.20848000  1.0
  H  H40  1  0.79179000  0.38967000  0.70341000  1.0
  H  H41  1  0.20834000  0.61044000  0.29659000  1.0
  H  H42  1  0.67861000  0.38549000  0.59827000  1.0
  H  H43  1  0.32151000  0.61460000  0.40172000  1.0
  H  H44  1  0.61838000  0.48400000  0.76311000  1.0
  H  H45  1  0.38153000  0.51582000  0.23679000  1.0
  H  H46  1  0.72652000  0.36201000  0.74960000  1.0
  H  H47  1  0.27355000  0.63797000  0.25032000  1.0
  H  H48  1  0.72664000  0.47813000  0.86396000  1.0
  H  H49  1  0.27330000  0.52171000  0.13596000  1.0
  H  H50  1  0.78084000  0.62406000  0.72678000  1.0
  H  H51  1  0.21912000  0.37600000  0.27332000  1.0
  H  H52  1  0.77884000  0.53834000  0.64850000  1.0
  H  H53  1  0.22121000  0.46181000  0.35161000  1.0
  H  H54  1  0.89390000  0.55044000  0.76080000  1.0
  H  H55  1  0.10615000  0.44971000  0.23931000  1.0
  H  H56  1  0.89135000  0.63141000  0.83893000  1.0
  H  H57  1  0.10861000  0.36866000  0.16119000  1.0
  H  H58  1  0.29386000  0.21818000  0.62068000  1.0
  H  H59  1  0.70616000  0.78176000  0.37927000  1.0
  H  H60  1  0.24911000  0.28694000  0.63733000  1.0
  H  H61  1  0.75096000  0.71303000  0.36270000  1.0
  H  H62  1  0.36103000  0.38984000  0.63684000  1.0
  H  H63  1  0.63904000  0.61012000  0.36318000  1.0
  H  H64  1  0.40180000  0.31796000  0.61382000  1.0
  H  H65  1  0.59821000  0.68196000  0.38611000  1.0
  H  H66  1  0.34787000  0.21328000  0.45702000  1.0
  H  H67  1  0.65206000  0.78669000  0.54287000  1.0
  C  C68  1  0.00285000  0.11948000  0.62228000  1.0
  C  C69  1  0.99715000  0.88052000  0.37772000  1.0
  C  C70  1  0.15485000  0.24374000  0.46763000  1.0
  C  C71  1  0.84517000  0.75630000  0.53244000  1.0
  C  C72  1  0.19066000  0.19221000  0.50313000  1.0
  C  C73  1  0.80935000  0.80780000  0.49688000  1.0
  C  C74  1  0.31069000  0.30988000  0.49980000  1.0
  C  C75  1  0.68930000  0.69012000  0.50019000  1.0
  C  C76  1  0.28879000  0.21872000  0.43805000  1.0
  C  C77  1  0.71115000  0.78128000  0.56189000  1.0
  C  C78  1  0.22716000  0.31677000  0.47043000  1.0
  C  C79  1  0.77286000  0.68328000  0.52963000  1.0
  C  C80  1  0.06937000  0.22387000  0.78081000  1.0
  C  C81  1  0.93060000  0.77611000  0.21919000  1.0
  C  C82  1  0.06121000  0.28886000  0.84848000  1.0
  C  C83  1  0.93876000  0.71112000  0.15152000  1.0
  C  C84  1  0.02130000  0.27321000  0.67476000  1.0
  C  C85  1  0.97874000  0.72680000  0.32526000  1.0
  C  C86  1  0.90921000  0.15626000  0.67845000  1.0
  C  C87  1  0.09077000  0.84374000  0.32152000  1.0
  C  C88  1  0.00045000  0.19245000  0.68782000  1.0
  C  C89  1  0.99955000  0.80755000  0.31218000  1.0
  C  C90  1  0.11975000  0.12206000  0.50293000  1.0
  C  C91  1  0.88025000  0.87794000  0.49707000  1.0
  C  C92  1  0.99272000  0.31136000  0.80264000  1.0
  C  C93  1  0.00728000  0.68864000  0.19735000  1.0
  C  C94  1  0.02610000  0.34665000  0.75029000  1.0
  C  C95  1  0.97392000  0.65336000  0.24973000  1.0
  C  C96  1  0.90533000  0.22544000  0.74695000  1.0
  C  C97  1  0.09466000  0.77456000  0.25303000  1.0
  C  C98  1  0.81176000  0.50084000  0.81013000  1.0
  C  C99  1  0.18824000  0.49917000  0.18988000  1.0
  C  C100  1  0.61704000  0.49761000  0.62029000  1.0
  C  C101  1  0.38296000  0.50240000  0.37973000  1.0
  C  C102  1  0.38050000  0.38063000  0.50014000  1.0
  C  C103  1  0.61949000  0.61939000  0.49988000  1.0
  C  C104  1  0.11858000  0.50013000  0.12002000  1.0
  C  C105  1  0.88143000  0.49988000  0.87999000  1.0
  C  C106  1  0.99569000  0.37977000  0.87733000  1.0
  C  C107  1  0.00431000  0.62022000  0.12267000  1.0
  C  C108  1  0.67845000  0.40638000  0.65983000  1.0
  C  C109  1  0.32162000  0.59365000  0.34014000  1.0
  C  C110  1  0.77611000  0.56007000  0.70892000  1.0
  C  C111  1  0.22389000  0.44002000  0.29117000  1.0
  C  C112  1  0.75504000  0.52544000  0.84553000  1.0
  C  C113  1  0.24489000  0.47445000  0.15443000  1.0
  C  C114  1  0.85059000  0.56542000  0.78246000  1.0
  C  C115  1  0.14941000  0.43466000  0.21762000  1.0
  C  C116  1  0.75286000  0.40867000  0.72982000  1.0
  C  C117  1  0.24720000  0.59136000  0.27015000  1.0
  C  C118  1  0.68585000  0.49637000  0.69092000  1.0
  C  C119  1  0.31415000  0.50363000  0.30907000  1.0
  C  C120  1  0.68311000  0.52666000  0.77592000  1.0
  C  C121  1  0.31681000  0.47322000  0.22405000  1.0
  C  C122  1  0.27039000  0.25531000  0.59487000  1.0
  C  C123  1  0.72965000  0.74466000  0.40512000  1.0
  C  C124  1  0.34260000  0.32339000  0.59277000  1.0
  C  C125  1  0.65743000  0.67658000  0.40721000  1.0
  C  C126  1  0.21832000  0.14873000  0.44005000  1.0
  C  C127  1  0.78163000  0.85128000  0.55989000  1.0
  Br  Br128  1  0.97699000  0.41525000  0.71499000  1.0
  Br  Br129  1  0.02304000  0.58476000  0.28502000  1.0
  Cl  Cl130  1  0.81301000  0.23714000  0.69606000  1.0
  Cl  Cl131  1  0.18700000  0.76289000  0.30393000  1.0
  Cl  Cl132  1  0.94858000  0.24777000  0.56847000  1.0
  Cl  Cl133  1  0.05150000  0.75227000  0.43154000  1.0
  Cl  Cl134  1  0.57268000  0.32458000  0.63151000  1.0
  Cl  Cl135  1  0.42740000  0.67535000  0.36837000  1.0
  Cl  Cl136  1  0.25679000  0.07979000  0.46744000  1.0
  Cl  Cl137  1  0.74314000  0.92017000  0.53244000  1.0
  O  O138  1  0.05772000  0.09726000  0.65377000  1.0
  O  O139  1  0.94229000  0.90275000  0.34622000  1.0
  O  O140  1  0.14582000  0.55423000  0.09538000  1.0
  O  O141  1  0.85418000  0.44577000  0.90462000  1.0
  O  O142  1  0.94412000  0.35183000  0.90383000  1.0
  O  O143  1  0.05588000  0.64817000  0.09617000  1.0
  O  O144  1  0.05361000  0.45843000  0.91070000  1.0
  O  O145  1  0.94638000  0.54157000  0.08930000  1.0
  O  O146  1  0.94880000  0.08468000  0.54192000  1.0
  O  O147  1  0.05119000  0.91531000  0.45808000  1.0
  O  O148  1  0.14424000  0.10112000  0.56085000  1.0
  O  O149  1  0.85576000  0.89887000  0.43914000  1.0
  O  O150  1  0.04084000  0.08879000  0.44407000  1.0
  O  O151  1  0.95917000  0.91122000  0.55594000  1.0
  O  O152  1  0.58930000  0.54909000  0.64508000  1.0
  O  O153  1  0.41070000  0.45089000  0.35492000  1.0
  O  O154  1  0.59510000  0.44970000  0.54182000  1.0
  O  O155  1  0.40490000  0.55030000  0.45817000  1.0
  O  O156  1  0.40539000  0.45890000  0.55248000  1.0
  O  O157  1  0.59460000  0.54109000  0.44751000  1.0
  O  O158  1  0.40851000  0.35744000  0.44839000  1.0
  O  O159  1  0.59149000  0.64256000  0.55160000  1.0
  O  O160  1  0.03870000  0.44702000  0.09041000  1.0
  O  O161  1  0.96131000  0.55299000  0.90959000  1.0
