# generated using pymatgen
data_CdH15C17NO6
_symmetry_space_group_name_H-M   'P 1'
_cell_length_a   7.70164000
_cell_length_b   10.26320000
_cell_length_c   11.53700000
_cell_angle_alpha   63.62210000
_cell_angle_beta   82.36990000
_cell_angle_gamma   72.54790000
_symmetry_Int_Tables_number   1
_chemical_formula_structural   CdH15C17NO6
_chemical_formula_sum   'Cd2 H30 C34 N2 O12'
_cell_volume   779.37063250
_cell_formula_units_Z   2
loop_
 _symmetry_equiv_pos_site_id
 _symmetry_equiv_pos_as_xyz
  1  'x, y, z'
loop_
 _atom_site_type_symbol
 _atom_site_label
 _atom_site_symmetry_multiplicity
 _atom_site_fract_x
 _atom_site_fract_y
 _atom_site_fract_z
 _atom_site_occupancy
  Cd  Cd0  1  0.24979000  0.14402000  0.71224000  1.0
  Cd  Cd1  1  0.75022000  0.85598000  0.28776000  1.0
  H  H2  1  0.32147000  0.04735000  0.48343000  1.0
  H  H3  1  0.17861000  0.46823000  0.48422000  1.0
  H  H4  1  0.67853000  0.95264000  0.51657000  1.0
  H  H5  1  0.82139000  0.53177000  0.51578000  1.0
  H  H6  1  0.33469000  0.15659000  0.24376000  1.0
  H  H7  1  0.16565000  0.59937000  0.24448000  1.0
  H  H8  1  0.66531000  0.84340000  0.75624000  1.0
  H  H9  1  0.83435000  0.40063000  0.75552000  1.0
  H  H10  1  0.21901000  0.26865000  0.05731000  1.0
  H  H11  1  0.28072000  0.67439000  0.05768000  1.0
  H  H12  1  0.78099000  0.73135000  0.94269000  1.0
  H  H13  1  0.71928000  0.32560000  0.94232000  1.0
  H  H14  1  0.24938000  0.65040000  0.70033000  1.0
  H  H15  1  0.75062000  0.34960000  0.29967000  1.0
  H  H16  1  0.90973000  0.06992000  0.59147000  1.0
  H  H17  1  0.59003000  0.33807000  0.59165000  1.0
  H  H18  1  0.09026000  0.93008000  0.40853000  1.0
  H  H19  1  0.40997000  0.66193000  0.40835000  1.0
  H  H20  1  0.90242000  0.26619000  0.51184000  1.0
  H  H21  1  0.59696000  0.22165000  0.51182000  1.0
  H  H22  1  0.09758000  0.73381000  0.48816000  1.0
  H  H23  1  0.40304000  0.77836000  0.48818000  1.0
  H  H24  1  0.90390000  0.06786000  0.90805000  1.0
  H  H25  1  0.59626000  0.02376000  0.90804000  1.0
  H  H26  1  0.09610000  0.93213000  0.09195000  1.0
  H  H27  1  0.40373000  0.97624000  0.09196000  1.0
  H  H28  1  0.90850000  0.95170000  0.82823000  1.0
  H  H29  1  0.59147000  0.21970000  0.82828000  1.0
  H  H30  1  0.09149000  0.04830000  0.17177000  1.0
  H  H31  1  0.40853000  0.78030000  0.17172000  1.0
  C  C32  1  0.29106000  0.16901000  0.42511000  1.0
  C  C33  1  0.20911000  0.40523000  0.42553000  1.0
  C  C34  1  0.70894000  0.83098000  0.57489000  1.0
  C  C35  1  0.79089000  0.59477000  0.57447000  1.0
  C  C36  1  0.29404000  0.23218000  0.29111000  1.0
  C  C37  1  0.20622000  0.47646000  0.29156000  1.0
  C  C38  1  0.70596000  0.76781000  0.70889000  1.0
  C  C39  1  0.79378000  0.52354000  0.70844000  1.0
  C  C40  1  0.24998000  0.39001000  0.22020000  1.0
  C  C41  1  0.75002000  0.60998000  0.77980000  1.0
  C  C42  1  0.24965000  0.46147000  0.07771000  1.0
  C  C43  1  0.75036000  0.53853000  0.92229000  1.0
  C  C44  1  0.23467000  0.38275000  0.00816000  1.0
  C  C45  1  0.26483000  0.60962000  0.00837000  1.0
  C  C46  1  0.76533000  0.61725000  0.99184000  1.0
  C  C47  1  0.73517000  0.39038000  0.99163000  1.0
  C  C48  1  0.23624000  0.44934000  0.87302000  1.0
  C  C49  1  0.26315000  0.67828000  0.87326000  1.0
  C  C50  1  0.76376000  0.55066000  0.12698000  1.0
  C  C51  1  0.73685000  0.32172000  0.12674000  1.0
  C  C52  1  0.24951000  0.59768000  0.80555000  1.0
  C  C53  1  0.75049000  0.40232000  0.19445000  1.0
  C  C54  1  0.22680000  0.36046000  0.80144000  1.0
  C  C55  1  0.27271000  0.83863000  0.80175000  1.0
  C  C56  1  0.77320000  0.63954000  0.19856000  1.0
  C  C57  1  0.72729000  0.16137000  0.19825000  1.0
  C  C58  1  0.85250000  0.18023000  0.59508000  1.0
  C  C59  1  0.64717000  0.22423000  0.59510000  1.0
  C  C60  1  0.14750000  0.81978000  0.40492000  1.0
  C  C61  1  0.35283000  0.77578000  0.40490000  1.0
  C  C62  1  0.85282000  0.06568000  0.82482000  1.0
  C  C63  1  0.64716000  0.10915000  0.82482000  1.0
  C  C64  1  0.14717000  0.93432000  0.17518000  1.0
  C  C65  1  0.35284000  0.89085000  0.17518000  1.0
  N  N66  1  0.25022000  0.25365000  0.49207000  1.0
  N  N67  1  0.74978000  0.74635000  0.50793000  1.0
  O  O68  1  0.19343000  0.23139000  0.86791000  1.0
  O  O69  1  0.30618000  0.90119000  0.86830000  1.0
  O  O70  1  0.80657000  0.76862000  0.13208000  1.0
  O  O71  1  0.69382000  0.09881000  0.13171000  1.0
  O  O72  1  0.25706000  0.41250000  0.68079000  1.0
  O  O73  1  0.24255000  0.90727000  0.68109000  1.0
  O  O74  1  0.74295000  0.58751000  0.31921000  1.0
  O  O75  1  0.75745000  0.09272000  0.31891000  1.0
  O  O76  1  0.91899000  0.17340000  0.70986000  1.0
  O  O77  1  0.58078000  0.11636000  0.70985000  1.0
  O  O78  1  0.08101000  0.82661000  0.29014000  1.0
  O  O79  1  0.41921000  0.88365000  0.29015000  1.0
