# generated using pymatgen
data_ZnH14C21(N2O3)2
_symmetry_space_group_name_H-M   'P 1'
_cell_length_a   8.92432000
_cell_length_b   9.26672000
_cell_length_c   12.05650000
_cell_angle_alpha   69.96100000
_cell_angle_beta   89.94970000
_cell_angle_gamma   81.63560000
_symmetry_Int_Tables_number   1
_chemical_formula_structural   ZnH14C21(N2O3)2
_chemical_formula_sum   'Zn2 H28 C42 N8 O12'
_cell_volume   925.44923251
_cell_formula_units_Z   2
loop_
 _symmetry_equiv_pos_site_id
 _symmetry_equiv_pos_as_xyz
  1  'x, y, z'
loop_
 _atom_site_type_symbol
 _atom_site_label
 _atom_site_symmetry_multiplicity
 _atom_site_fract_x
 _atom_site_fract_y
 _atom_site_fract_z
 _atom_site_occupancy
  Zn  Zn0  1  0.74396000  0.06348000  0.01510000  1.0
  Zn  Zn1  1  0.25604000  0.93652000  0.98490000  1.0
  H  H2  1  0.63634000  0.11834000  0.44748000  1.0
  H  H3  1  0.36365000  0.88166000  0.55252000  1.0
  H  H4  1  0.26909000  0.47680000  0.25574000  1.0
  H  H5  1  0.73091000  0.52320000  0.74426000  1.0
  H  H6  1  0.21641000  0.54040000  0.43595000  1.0
  H  H7  1  0.78360000  0.45961000  0.56404000  1.0
  H  H8  1  0.36780000  0.39637000  0.62129000  1.0
  H  H9  1  0.63220000  0.60364000  0.37871000  1.0
  H  H10  1  0.88036000  0.92439000  0.83096000  1.0
  H  H11  1  0.11963000  0.07561000  0.16904000  1.0
  H  H12  1  0.51467000  0.28547000  0.78452000  1.0
  H  H13  1  0.48533000  0.71454000  0.21548000  1.0
  H  H14  1  0.43300000  0.31041000  0.95415000  1.0
  H  H15  1  0.56700000  0.68959000  0.04585000  1.0
  H  H16  1  0.67155000  0.04446000  0.27815000  1.0
  H  H17  1  0.32845000  0.95554000  0.72185000  1.0
  H  H18  1  0.83279000  0.60746000  0.02959000  1.0
  H  H19  1  0.16721000  0.39254000  0.97041000  1.0
  H  H20  1  0.96341000  0.14173000  0.27359000  1.0
  H  H21  1  0.03658000  0.85827000  0.72640000  1.0
  H  H22  1  0.95546000  0.53067000  0.39195000  1.0
  H  H23  1  0.04454000  0.46933000  0.60805000  1.0
  H  H24  1  0.06088000  0.22278000  0.62793000  1.0
  H  H25  1  0.93912000  0.77722000  0.37207000  1.0
  H  H26  1  0.77070000  0.99832000  0.61987000  1.0
  H  H27  1  0.22930000  0.00168000  0.38013000  1.0
  H  H28  1  0.33242000  0.43400000  0.09988000  1.0
  H  H29  1  0.66758000  0.56600000  0.90012000  1.0
  C  C30  1  0.51328000  0.24660000  0.54790000  1.0
  C  C31  1  0.48672000  0.75341000  0.45210000  1.0
  C  C32  1  0.54341000  0.20980000  0.44577000  1.0
  C  C33  1  0.45659000  0.79020000  0.55423000  1.0
  C  C34  1  0.45571000  0.29106000  0.33967000  1.0
  C  C35  1  0.54429000  0.70895000  0.66033000  1.0
  C  C36  1  0.33764000  0.41070000  0.33687000  1.0
  C  C37  1  0.66236000  0.58930000  0.66313000  1.0
  C  C38  1  0.30701000  0.44659000  0.43867000  1.0
  C  C39  1  0.69299000  0.55341000  0.56133000  1.0
  C  C40  1  0.39273000  0.36535000  0.54319000  1.0
  C  C41  1  0.60727000  0.63465000  0.45681000  1.0
  C  C42  1  0.78252000  0.01144000  0.79037000  1.0
  C  C43  1  0.21748000  0.98856000  0.20963000  1.0
  C  C44  1  0.59330000  0.19916000  0.76362000  1.0
  C  C45  1  0.40670000  0.80084000  0.23638000  1.0
  C  C46  1  0.60448000  0.17039000  0.65827000  1.0
  C  C47  1  0.39552000  0.82962000  0.34173000  1.0
  C  C48  1  0.47099000  0.26854000  0.04640000  1.0
  C  C49  1  0.52901000  0.73146000  0.95360000  1.0
  C  C50  1  0.59038000  0.13472000  0.21643000  1.0
  C  C51  1  0.40962000  0.86528000  0.78357000  1.0
  C  C52  1  0.48838000  0.25156000  0.23417000  1.0
  C  C53  1  0.51163000  0.74844000  0.76583000  1.0
  C  C54  1  0.88785000  0.58840000  0.20808000  1.0
  C  C55  1  0.11215000  0.41160000  0.79192000  1.0
  C  C56  1  0.86902000  0.52793000  0.11819000  1.0
  C  C57  1  0.13098000  0.47207000  0.88181000  1.0
  C  C58  1  0.89540000  0.36816000  0.14062000  1.0
  C  C59  1  0.10461000  0.63184000  0.85938000  1.0
  C  C60  1  0.94780000  0.26688000  0.25401000  1.0
  C  C61  1  0.05220000  0.73312000  0.74599000  1.0
  C  C62  1  0.97328000  0.32586000  0.34337000  1.0
  C  C63  1  0.02672000  0.67414000  0.65663000  1.0
  C  C64  1  0.93933000  0.48628000  0.32098000  1.0
  C  C65  1  0.06067000  0.51372000  0.67902000  1.0
  C  C66  1  0.84844000  0.76109000  0.17962000  1.0
  C  C67  1  0.15156000  0.23891000  0.82038000  1.0
  C  C68  1  0.85848000  0.30657000  0.04543000  1.0
  C  C69  1  0.14152000  0.69343000  0.95457000  1.0
  C  C70  1  0.04172000  0.21987000  0.46156000  1.0
  C  C71  1  0.95828000  0.78013000  0.53844000  1.0
  N  N72  1  0.72606000  0.05102000  0.67834000  1.0
  N  N73  1  0.27394000  0.94898000  0.32166000  1.0
  N  N74  1  0.70388000  0.09985000  0.84446000  1.0
  N  N75  1  0.29612000  0.90015000  0.15554000  1.0
  N  N76  1  0.41422000  0.33392000  0.12438000  1.0
  N  N77  1  0.58578000  0.66608000  0.87562000  1.0
  N  N78  1  0.57773000  0.14678000  0.09915000  1.0
  N  N79  1  0.42227000  0.85322000  0.90085000  1.0
  O  O80  1  0.86324000  0.82631000  0.25455000  1.0
  O  O81  1  0.13676000  0.17369000  0.74545000  1.0
  O  O82  1  0.79425000  0.83591000  0.07334000  1.0
  O  O83  1  0.20574000  0.16409000  0.92666000  1.0
  O  O84  1  0.78182000  0.39449000  0.95312000  1.0
  O  O85  1  0.21818000  0.60551000  0.04688000  1.0
  O  O86  1  0.90342000  0.16020000  0.06776000  1.0
  O  O87  1  0.09658000  0.83980000  0.93224000  1.0
  O  O88  1  0.99807000  0.27321000  0.54706000  1.0
  O  O89  1  0.00193000  0.72679000  0.45294000  1.0
  O  O90  1  0.13099000  0.09836000  0.47609000  1.0
  O  O91  1  0.86901000  0.90163000  0.52391000  1.0
