# generated using pymatgen
data_CdH20C29N4O7
_symmetry_space_group_name_H-M   'P 1'
_cell_length_a   14.57180000
_cell_length_b   14.95460000
_cell_length_c   14.95460000
_cell_angle_alpha   94.81480000
_cell_angle_beta   106.13300000
_cell_angle_gamma   106.13400000
_symmetry_Int_Tables_number   1
_chemical_formula_structural   CdH20C29N4O7
_chemical_formula_sum   'Cd4 H80 C116 N16 O28'
_cell_volume   2960.99514657
_cell_formula_units_Z   4
loop_
 _symmetry_equiv_pos_site_id
 _symmetry_equiv_pos_as_xyz
  1  'x, y, z'
loop_
 _atom_site_type_symbol
 _atom_site_label
 _atom_site_symmetry_multiplicity
 _atom_site_fract_x
 _atom_site_fract_y
 _atom_site_fract_z
 _atom_site_occupancy
  Cd  Cd0  1  0.60570000  0.61586000  0.26962000  1.0
  Cd  Cd1  1  0.89430000  0.73037000  0.38414000  1.0
  Cd  Cd2  1  0.39430000  0.38414000  0.73037000  1.0
  Cd  Cd3  1  0.10570000  0.26963000  0.61586000  1.0
  H  H4  1  0.62248000  0.38266000  0.69548000  1.0
  H  H5  1  0.87752000  0.30452000  0.61734000  1.0
  H  H6  1  0.37752000  0.61734000  0.30452000  1.0
  H  H7  1  0.12248000  0.69548000  0.38266000  1.0
  H  H8  1  0.63261000  0.73191000  0.47707000  1.0
  H  H9  1  0.86739000  0.52293000  0.26810000  1.0
  H  H10  1  0.36739000  0.26809000  0.52293000  1.0
  H  H11  1  0.13261000  0.47707000  0.73191000  1.0
  H  H12  1  0.62471000  0.02756000  0.91324000  1.0
  H  H13  1  0.87529000  0.08676000  0.97244000  1.0
  H  H14  1  0.37529000  0.97244000  0.08676000  1.0
  H  H15  1  0.12471000  0.91324000  0.02756000  1.0
  H  H16  1  0.58795000  0.20123000  0.32083000  1.0
  H  H17  1  0.91205000  0.67917000  0.79877000  1.0
  H  H18  1  0.41205000  0.79877000  0.67917000  1.0
  H  H19  1  0.08794000  0.32083000  0.20123000  1.0
  H  H20  1  0.63565000  0.54500000  0.68245000  1.0
  H  H21  1  0.86436000  0.31756000  0.45500000  1.0
  H  H22  1  0.36435000  0.45500000  0.31755000  1.0
  H  H23  1  0.13565000  0.68245000  0.54500000  1.0
  H  H24  1  0.64225000  0.70614000  0.64290000  1.0
  H  H25  1  0.85775000  0.35710000  0.29386000  1.0
  H  H26  1  0.35776000  0.29386000  0.35710000  1.0
  H  H27  1  0.14225000  0.64290000  0.70614000  1.0
  H  H28  1  0.58352000  0.41625000  0.14468000  1.0
  H  H29  1  0.91647000  0.85532000  0.58375000  1.0
  H  H30  1  0.41647000  0.58375000  0.85532000  1.0
  H  H31  1  0.08353000  0.14468000  0.41625000  1.0
  H  H32  1  0.61648000  0.28551000  0.78754000  1.0
  H  H33  1  0.88352000  0.21246000  0.71449000  1.0
  H  H34  1  0.38352000  0.71449000  0.21246000  1.0
  H  H35  1  0.11648000  0.78754000  0.28551000  1.0
  H  H36  1  0.57318000  0.24726000  0.16154000  1.0
  H  H37  1  0.92682000  0.83846000  0.75274000  1.0
  H  H38  1  0.42682000  0.75274000  0.83846000  1.0
  H  H39  1  0.07317000  0.16154000  0.24725000  1.0
  H  H40  1  0.62281000  0.08321000  0.56801000  1.0
  H  H41  1  0.87719000  0.43199000  0.91679000  1.0
  H  H42  1  0.37719000  0.91679000  0.43199000  1.0
  H  H43  1  0.12281000  0.56801000  0.08321000  1.0
  H  H44  1  0.37045000  0.45481000  0.95575000  1.0
  H  H45  1  0.12955000  0.04425000  0.54519000  1.0
  H  H46  1  0.62955000  0.54519000  0.04425000  1.0
  H  H47  1  0.87045000  0.95575000  0.45481000  1.0
  H  H48  1  0.23636000  0.47283000  0.17725000  1.0
  H  H49  1  0.26364000  0.82275000  0.52717000  1.0
  H  H50  1  0.76364000  0.52717000  0.82275000  1.0
  H  H51  1  0.73636000  0.17725000  0.47283000  1.0
  H  H52  1  0.62102000  0.84398000  0.57587000  1.0
  H  H53  1  0.87898000  0.42413000  0.15601000  1.0
  H  H54  1  0.37898000  0.15601000  0.42413000  1.0
  H  H55  1  0.12102000  0.57587000  0.84399000  1.0
  H  H56  1  0.68787000  0.96151000  0.56679000  1.0
  H  H57  1  0.81213000  0.43321000  0.03849000  1.0
  H  H58  1  0.31213000  0.03849000  0.43321000  1.0
  H  H59  1  0.18787000  0.56679000  0.96151000  1.0
  H  H60  1  0.55260000  0.92084000  0.52981000  1.0
  H  H61  1  0.94740000  0.47019000  0.07916000  1.0
  H  H62  1  0.44740000  0.07916000  0.47018000  1.0
  H  H63  1  0.05260000  0.52981000  0.92084000  1.0
  H  H64  1  0.61076000  0.25105000  0.02157000  1.0
  H  H65  1  0.88924000  0.97843000  0.74895000  1.0
  H  H66  1  0.38924000  0.74895000  0.97843000  1.0
  H  H67  1  0.11076000  0.02157000  0.25105000  1.0
  H  H68  1  0.67185000  0.31245000  0.94582000  1.0
  H  H69  1  0.82815000  0.05418000  0.68755000  1.0
  H  H70  1  0.32816000  0.68755000  0.05418000  1.0
  H  H71  1  0.17185000  0.94582000  0.31245000  1.0
  H  H72  1  0.53720000  0.26000000  0.90593000  1.0
  H  H73  1  0.96280000  0.09407000  0.74000000  1.0
  H  H74  1  0.46281000  0.74000000  0.09407000  1.0
  H  H75  1  0.03720000  0.90593000  0.26000000  1.0
  H  H76  1  0.07274000  0.36629000  0.07043000  1.0
  H  H77  1  0.42726000  0.92957000  0.63371000  1.0
  H  H78  1  0.92726000  0.63371000  0.92957000  1.0
  H  H79  1  0.57274000  0.07043000  0.36629000  1.0
  H  H80  1  0.05824000  0.30112000  0.90539000  1.0
  H  H81  1  0.44176000  0.09461000  0.69888000  1.0
  H  H82  1  0.94176000  0.69888000  0.09461000  1.0
  H  H83  1  0.55824000  0.90539000  0.30112000  1.0
  C  C84  1  0.60493000  0.34127000  0.38778000  1.0
  C  C85  1  0.89507000  0.61222000  0.65873000  1.0
  C  C86  1  0.39507000  0.65873000  0.61222000  1.0
  C  C87  1  0.10493000  0.38778000  0.34127000  1.0
  C  C88  1  0.62115000  0.39317000  0.55356000  1.0
  C  C89  1  0.87885000  0.44644000  0.60683000  1.0
  C  C90  1  0.37885000  0.60683000  0.44644000  1.0
  C  C91  1  0.12115000  0.55356000  0.39317000  1.0
  C  C92  1  0.62471000  0.48700000  0.54061000  1.0
  C  C93  1  0.87530000  0.45939000  0.51300000  1.0
  C  C94  1  0.37529000  0.51300000  0.45939000  1.0
  C  C95  1  0.12471000  0.54061000  0.48700000  1.0
  C  C96  1  0.60833000  0.43459000  0.37150000  1.0
  C  C97  1  0.89167000  0.62851000  0.56541000  1.0
  C  C98  1  0.39167000  0.56541000  0.62850000  1.0
  C  C99  1  0.10833000  0.37149000  0.43459000  1.0
  C  C100  1  0.61906000  0.25860000  0.60616000  1.0
  C  C101  1  0.88094000  0.39385000  0.74140000  1.0
  C  C102  1  0.38094000  0.74140000  0.39384000  1.0
  C  C103  1  0.11906000  0.60615000  0.25860000  1.0
  C  C104  1  0.62379000  0.03473000  0.70063000  1.0
  C  C105  1  0.87621000  0.29937000  0.96527000  1.0
  C  C106  1  0.37621000  0.96527000  0.29937000  1.0
  C  C107  1  0.12379000  0.70063000  0.03473000  1.0
  C  C108  1  0.61884000  0.50776000  0.44806000  1.0
  C  C109  1  0.88116000  0.55194000  0.49224000  1.0
  C  C110  1  0.38116000  0.49224000  0.55194000  1.0
  C  C111  1  0.11884000  0.44806000  0.50776000  1.0
  C  C112  1  0.61292000  0.32241000  0.48129000  1.0
  C  C113  1  0.88708000  0.51871000  0.67759000  1.0
  C  C114  1  0.38708000  0.67759000  0.51870000  1.0
  C  C115  1  0.11292000  0.48129000  0.32241000  1.0
  C  C116  1  0.62105000  0.19159000  0.67109000  1.0
  C  C117  1  0.87895000  0.32891000  0.80841000  1.0
  C  C118  1  0.37896000  0.80841000  0.32891000  1.0
  C  C119  1  0.12104000  0.67109000  0.19159000  1.0
  C  C120  1  0.41391000  0.53031000  0.14055000  1.0
  C  C121  1  0.08609000  0.85945000  0.46969000  1.0
  C  C122  1  0.58609000  0.46969000  0.85945000  1.0
  C  C123  1  0.91391000  0.14055000  0.53031000  1.0
  C  C124  1  0.63010000  0.66310000  0.49710000  1.0
  C  C125  1  0.86990000  0.50290000  0.33690000  1.0
  C  C126  1  0.36990000  0.33690000  0.50290000  1.0
  C  C127  1  0.13010000  0.49710000  0.66310000  1.0
  C  C128  1  0.59215000  0.27324000  0.31039000  1.0
  C  C129  1  0.90785000  0.68961000  0.72676000  1.0
  C  C130  1  0.40785000  0.72676000  0.68961000  1.0
  C  C131  1  0.09215000  0.31039000  0.27324000  1.0
  C  C132  1  0.63305000  0.55990000  0.61174000  1.0
  C  C133  1  0.86695000  0.38826000  0.44010000  1.0
  C  C134  1  0.36695000  0.44010000  0.38826000  1.0
  C  C135  1  0.13305000  0.61174000  0.55990000  1.0
  C  C136  1  0.63604000  0.64838000  0.58975000  1.0
  C  C137  1  0.86396000  0.41025000  0.35162000  1.0
  C  C138  1  0.36396000  0.35162000  0.41025000  1.0
  C  C139  1  0.13604000  0.58975000  0.64838000  1.0
  C  C140  1  0.58948000  0.39267000  0.21257000  1.0
  C  C141  1  0.91052000  0.78743000  0.60733000  1.0
  C  C142  1  0.41052000  0.60733000  0.78743000  1.0
  C  C143  1  0.08948000  0.21257000  0.39267000  1.0
  C  C144  1  0.62169000  0.15041000  0.82364000  1.0
  C  C145  1  0.87831000  0.17636000  0.84959000  1.0
  C  C146  1  0.37831000  0.84959000  0.17636000  1.0
  C  C147  1  0.12169000  0.82364000  0.15040000  1.0
  C  C148  1  0.62047000  0.21648000  0.76353000  1.0
  C  C149  1  0.87953000  0.23648000  0.78352000  1.0
  C  C150  1  0.37953000  0.78352000  0.23647000  1.0
  C  C151  1  0.12047000  0.76353000  0.21648000  1.0
  C  C152  1  0.58425000  0.29896000  0.22256000  1.0
  C  C153  1  0.91575000  0.77744000  0.70104000  1.0
  C  C154  1  0.41575000  0.70104000  0.77744000  1.0
  C  C155  1  0.08425000  0.22256000  0.29896000  1.0
  C  C156  1  0.62265000  0.10079000  0.63998000  1.0
  C  C157  1  0.87735000  0.36002000  0.89921000  1.0
  C  C158  1  0.37735000  0.89921000  0.36002000  1.0
  C  C159  1  0.12265000  0.63998000  0.10079000  1.0
  C  C160  1  0.62365000  0.05941000  0.79354000  1.0
  C  C161  1  0.87635000  0.20646000  0.94059000  1.0
  C  C162  1  0.37635000  0.94059000  0.20646000  1.0
  C  C163  1  0.12365000  0.79354000  0.05941000  1.0
  C  C164  1  0.31459000  0.46859000  0.07414000  1.0
  C  C165  1  0.18541000  0.92587000  0.53141000  1.0
  C  C166  1  0.68541000  0.53141000  0.92587000  1.0
  C  C167  1  0.81459000  0.07413000  0.46859000  1.0
  C  C168  1  0.30527000  0.43461000  0.98074000  1.0
  C  C169  1  0.19474000  0.01926000  0.56539000  1.0
  C  C170  1  0.69473000  0.56539000  0.01926000  1.0
  C  C171  1  0.80526000  0.98074000  0.43461000  1.0
  C  C172  1  0.23043000  0.44364000  0.10594000  1.0
  C  C173  1  0.26957000  0.89406000  0.55636000  1.0
  C  C174  1  0.76957000  0.55636000  0.89406000  1.0
  C  C175  1  0.73043000  0.10594000  0.44364000  1.0
  C  C176  1  0.62132000  0.91741000  0.58145000  1.0
  C  C177  1  0.87867000  0.41856000  0.08259000  1.0
  C  C178  1  0.37867000  0.08259000  0.41855000  1.0
  C  C179  1  0.12133000  0.58145000  0.91741000  1.0
  C  C180  1  0.60886000  0.25265000  0.94810000  1.0
  C  C181  1  0.89114000  0.05191000  0.74735000  1.0
  C  C182  1  0.39114000  0.74735000  0.05191000  1.0
  C  C183  1  0.10886000  0.94809000  0.25265000  1.0
  C  C184  1  0.21232000  0.37453000  0.92040000  1.0
  C  C185  1  0.28768000  0.07960000  0.62547000  1.0
  C  C186  1  0.78768000  0.62547000  0.07960000  1.0
  C  C187  1  0.71232000  0.92040000  0.37453000  1.0
  C  C188  1  0.13830000  0.38357000  0.04588000  1.0
  C  C189  1  0.36170000  0.95412000  0.61643000  1.0
  C  C190  1  0.86170000  0.61643000  0.95412000  1.0
  C  C191  1  0.63830000  0.04588000  0.38357000  1.0
  C  C192  1  0.12945000  0.34793000  0.95371000  1.0
  C  C193  1  0.37055000  0.04629000  0.65206000  1.0
  C  C194  1  0.87055000  0.65206000  0.04629000  1.0
  C  C195  1  0.62945000  0.95371000  0.34793000  1.0
  C  C196  1  0.19821000  0.34333000  0.81831000  1.0
  C  C197  1  0.30179000  0.18169000  0.65667000  1.0
  C  C198  1  0.80179000  0.65667000  0.18169000  1.0
  C  C199  1  0.69820000  0.81831000  0.34333000  1.0
  N  N200  1  0.62156000  0.59520000  0.42895000  1.0
  N  N201  1  0.87845000  0.57105000  0.40481000  1.0
  N  N202  1  0.37845000  0.40480000  0.57105000  1.0
  N  N203  1  0.12155000  0.42895000  0.59519000  1.0
  N  N204  1  0.60083000  0.45760000  0.28479000  1.0
  N  N205  1  0.89917000  0.71521000  0.54240000  1.0
  N  N206  1  0.39917000  0.54240000  0.71521000  1.0
  N  N207  1  0.10083000  0.28479000  0.45760000  1.0
  N  N208  1  0.62491000  0.35128000  0.63206000  1.0
  N  N209  1  0.87509000  0.36794000  0.64872000  1.0
  N  N210  1  0.37509000  0.64872000  0.36794000  1.0
  N  N211  1  0.12491000  0.63206000  0.35128000  1.0
  N  N212  1  0.61203000  0.23962000  0.51472000  1.0
  N  N213  1  0.88797000  0.48528000  0.76038000  1.0
  N  N214  1  0.38797000  0.76038000  0.48528000  1.0
  N  N215  1  0.11203000  0.51472000  0.23962000  1.0
  O  O216  1  0.41870000  0.56079000  0.22551000  1.0
  O  O217  1  0.08130000  0.77449000  0.43921000  1.0
  O  O218  1  0.58130000  0.43921000  0.77449000  1.0
  O  O219  1  0.91870000  0.22551000  0.56079000  1.0
  O  O220  1  0.49122000  0.54903000  0.11345000  1.0
  O  O221  1  0.00878000  0.88655000  0.45097000  1.0
  O  O222  1  0.50878000  0.45097000  0.88655000  1.0
  O  O223  1  0.99122000  0.11345000  0.54903000  1.0
  O  O224  1  0.62403000  0.99521000  0.85317000  1.0
  O  O225  1  0.87597000  0.14684000  0.00479000  1.0
  O  O226  1  0.37597000  0.00479000  0.14683000  1.0
  O  O227  1  0.12403000  0.85316000  0.99521000  1.0
  O  O228  1  0.62360000  0.94439000  0.67640000  1.0
  O  O229  1  0.87640000  0.32360000  0.05561000  1.0
  O  O230  1  0.37640000  0.05561000  0.32360000  1.0
  O  O231  1  0.12360000  0.67640000  0.94439000  1.0
  O  O232  1  0.61974000  0.16466000  0.91483000  1.0
  O  O233  1  0.88026000  0.08517000  0.83534000  1.0
  O  O234  1  0.38026000  0.83534000  0.08517000  1.0
  O  O235  1  0.11974000  0.91483000  0.16466000  1.0
  O  O236  1  0.26322000  0.38863000  0.78301000  1.0
  O  O237  1  0.23677000  0.21699000  0.61137000  1.0
  O  O238  1  0.73677000  0.61137000  0.21699000  1.0
  O  O239  1  0.76323000  0.78301000  0.38863000  1.0
  O  O240  1  0.11792000  0.27701000  0.77015000  1.0
  O  O241  1  0.38208000  0.22985000  0.72299000  1.0
  O  O242  1  0.88208000  0.72299000  0.22985000  1.0
  O  O243  1  0.61792000  0.77015000  0.27701000  1.0
