# generated using pymatgen
data_MnH7C8NO6
_symmetry_space_group_name_H-M   'P 1'
_cell_length_a   7.98787000
_cell_length_b   10.23270000
_cell_length_c   10.57580000
_cell_angle_alpha   89.99410000
_cell_angle_beta   93.96580000
_cell_angle_gamma   89.99960000
_symmetry_Int_Tables_number   1
_chemical_formula_structural   MnH7C8NO6
_chemical_formula_sum   'Mn4 H28 C32 N4 O24'
_cell_volume   862.36931755
_cell_formula_units_Z   4
loop_
 _symmetry_equiv_pos_site_id
 _symmetry_equiv_pos_as_xyz
  1  'x, y, z'
loop_
 _atom_site_type_symbol
 _atom_site_label
 _atom_site_symmetry_multiplicity
 _atom_site_fract_x
 _atom_site_fract_y
 _atom_site_fract_z
 _atom_site_occupancy
  Mn  Mn0  1  0.91151000  0.17460000  0.14041000  1.0
  Mn  Mn1  1  0.08868000  0.67464000  0.35945000  1.0
  Mn  Mn2  1  0.08842000  0.82548000  0.85950000  1.0
  Mn  Mn3  1  0.91125000  0.32531000  0.64044000  1.0
  H  H4  1  0.48805000  0.97344000  0.87050000  1.0
  H  H5  1  0.51140000  0.47323000  0.62919000  1.0
  H  H6  1  0.51176000  0.02665000  0.12944000  1.0
  H  H7  1  0.48838000  0.52672000  0.37076000  1.0
  H  H8  1  0.57693000  0.12812000  0.83930000  1.0
  H  H9  1  0.42263000  0.62797000  0.66022000  1.0
  H  H10  1  0.42299000  0.87192000  0.16057000  1.0
  H  H11  1  0.57720000  0.37201000  0.33966000  1.0
  H  H12  1  0.52914000  0.80014000  0.74147000  1.0
  H  H13  1  0.47049000  0.30012000  0.75846000  1.0
  H  H14  1  0.47067000  0.19985000  0.25856000  1.0
  H  H15  1  0.52926000  0.69991000  0.24154000  1.0
  H  H16  1  0.59201000  0.71597000  0.52610000  1.0
  H  H17  1  0.40795000  0.21611000  0.97399000  1.0
  H  H18  1  0.40789000  0.28389000  0.47397000  1.0
  H  H19  1  0.59194000  0.78400000  0.02605000  1.0
  H  H20  1  0.74049000  0.86460000  0.38269000  1.0
  H  H21  1  0.25973000  0.36487000  0.11739000  1.0
  H  H22  1  0.25961000  0.13516000  0.61742000  1.0
  H  H23  1  0.74038000  0.63536000  0.88270000  1.0
  H  H24  1  0.02822000  0.29458000  0.34734000  1.0
  H  H25  1  0.97251000  0.79479000  0.15264000  1.0
  H  H26  1  0.97231000  0.70506000  0.65265000  1.0
  H  H27  1  0.02805000  0.20558000  0.84734000  1.0
  H  H28  1  0.08193000  0.40397000  0.24811000  1.0
  H  H29  1  0.91821000  0.90392000  0.25187000  1.0
  H  H30  1  0.91788000  0.59591000  0.75183000  1.0
  H  H31  1  0.08161000  0.09620000  0.74807000  1.0
  C  C32  1  0.75268000  0.99522000  0.93045000  1.0
  C  C33  1  0.24678000  0.49510000  0.56944000  1.0
  C  C34  1  0.24707000  0.00476000  0.06954000  1.0
  C  C35  1  0.75296000  0.50491000  0.43053000  1.0
  C  C36  1  0.59965000  0.02300000  0.83819000  1.0
  C  C37  1  0.39993000  0.52287000  0.66154000  1.0
  C  C38  1  0.40022000  0.97703000  0.16174000  1.0
  C  C39  1  0.59988000  0.47711000  0.33839000  1.0
  C  C40  1  0.58984000  0.85941000  0.67223000  1.0
  C  C41  1  0.40993000  0.35946000  0.82770000  1.0
  C  C42  1  0.41004000  0.14051000  0.32779000  1.0
  C  C43  1  0.58993000  0.64062000  0.17231000  1.0
  C  C44  1  0.62492000  0.81506000  0.55449000  1.0
  C  C45  1  0.37505000  0.31518000  0.94553000  1.0
  C  C46  1  0.37504000  0.18481000  0.44557000  1.0
  C  C47  1  0.62488000  0.68494000  0.05452000  1.0
  C  C48  1  0.70740000  0.89909000  0.47504000  1.0
  C  C49  1  0.29276000  0.39930000  0.02498000  1.0
  C  C50  1  0.29267000  0.10072000  0.52503000  1.0
  C  C51  1  0.70731000  0.60089000  0.97509000  1.0
  C  C52  1  0.75009000  0.02602000  0.51114000  1.0
  C  C53  1  0.25019000  0.52624000  0.98879000  1.0
  C  C54  1  0.25009000  0.97376000  0.48891000  1.0
  C  C55  1  0.74998000  0.47397000  0.01127000  1.0
  C  C56  1  0.69972000  0.07485000  0.63028000  1.0
  C  C57  1  0.30031000  0.57499000  0.86954000  1.0
  C  C58  1  0.30036000  0.92502000  0.36971000  1.0
  C  C59  1  0.69974000  0.42514000  0.13045000  1.0
  C  C60  1  0.84743000  0.10847000  0.42503000  1.0
  C  C61  1  0.15316000  0.60881000  0.07496000  1.0
  C  C62  1  0.15292000  0.89119000  0.57503000  1.0
  C  C63  1  0.84721000  0.39151000  0.92513000  1.0
  N  N64  1  0.62596000  0.98364000  0.70860000  1.0
  N  N65  1  0.37379000  0.48365000  0.79121000  1.0
  N  N66  1  0.37397000  0.01630000  0.29137000  1.0
  N  N67  1  0.62609000  0.51641000  0.20876000  1.0
  O  O68  1  0.87206000  0.93032000  0.89052000  1.0
  O  O69  1  0.12710000  0.43086000  0.60976000  1.0
  O  O70  1  0.12744000  0.06917000  0.10972000  1.0
  O  O71  1  0.87239000  0.56959000  0.39040000  1.0
  O  O72  1  0.74244000  0.04046000  0.04150000  1.0
  O  O73  1  0.25717000  0.53971000  0.45813000  1.0
  O  O74  1  0.25742000  0.95997000  0.95833000  1.0
  O  O75  1  0.74266000  0.45993000  0.54172000  1.0
  O  O76  1  0.06959000  0.30930000  0.26208000  1.0
  O  O77  1  0.93062000  0.80927000  0.23779000  1.0
  O  O78  1  0.93046000  0.69057000  0.73780000  1.0
  O  O79  1  0.06942000  0.19087000  0.76207000  1.0
  O  O80  1  0.71124000  0.19144000  0.66989000  1.0
  O  O81  1  0.28875000  0.69153000  0.82980000  1.0
  O  O82  1  0.28884000  0.80846000  0.33002000  1.0
  O  O83  1  0.71132000  0.30857000  0.17014000  1.0
  O  O84  1  0.91627000  0.21465000  0.46545000  1.0
  O  O85  1  0.08490000  0.71528000  0.03470000  1.0
  O  O86  1  0.08494000  0.78462000  0.53482000  1.0
  O  O87  1  0.91629000  0.28542000  0.96560000  1.0
  O  O88  1  0.86107000  0.06618000  0.31242000  1.0
  O  O89  1  0.13912000  0.56636000  0.18747000  1.0
  O  O90  1  0.13853000  0.93375000  0.68746000  1.0
  O  O91  1  0.86054000  0.43369000  0.81245000  1.0
