# generated using pymatgen
data_AlH5C11ClO5F
_symmetry_space_group_name_H-M   'P 1'
_cell_length_a   6.68262000
_cell_length_b   11.09920000
_cell_length_c   15.24924291
_cell_angle_alpha   91.26840345
_cell_angle_beta   100.61800418
_cell_angle_gamma   106.36780000
_symmetry_Int_Tables_number   1
_chemical_formula_structural   AlH5C11ClO5F
_chemical_formula_sum   'Al2 H10 C22 Cl2 O10 F2'
_cell_volume   1063.34753468
_cell_formula_units_Z   2
loop_
 _symmetry_equiv_pos_site_id
 _symmetry_equiv_pos_as_xyz
  1  'x, y, z'
loop_
 _atom_site_type_symbol
 _atom_site_label
 _atom_site_symmetry_multiplicity
 _atom_site_fract_x
 _atom_site_fract_y
 _atom_site_fract_z
 _atom_site_occupancy
  Al  Al0  1  0.00000000  0.50000000  0.50000000  1.0
  Al  Al1  1  0.50000000  0.50000000  0.50000000  1.0
  H  H2  1  0.33416000  0.58396000  0.60509000  1.0
  H  H3  1  0.66584000  0.41604000  0.39491000  1.0
  H  H4  1  0.75341000  0.12299000  0.44398000  1.0
  H  H5  1  0.24658000  0.87700000  0.55602000  1.0
  H  H6  1  0.33439000  0.46360000  0.05353000  1.0
  H  H7  1  0.66560000  0.53641000  0.94647000  1.0
  H  H8  1  0.15263000  0.45388000  0.76030000  1.0
  H  H9  1  0.25405000  0.45738000  0.92305000  1.0
  H  H10  1  0.84737000  0.54612000  0.23970000  1.0
  H  H11  1  0.74595000  0.54263000  0.07695000  1.0
  C  C12  1  0.80704000  0.49148000  0.66044000  1.0
  C  C13  1  0.86069000  0.72677000  0.49995000  1.0
  C  C14  1  0.19296000  0.50852000  0.33956000  1.0
  C  C15  1  0.13931000  0.27323000  0.50005000  1.0
  C  C16  1  0.92471000  0.86715000  0.49727000  1.0
  C  C17  1  0.07528000  0.13284000  0.50273000  1.0
  C  C18  1  0.78521000  0.93748000  0.46444000  1.0
  C  C19  1  0.21477000  0.06252000  0.53556000  1.0
  C  C20  1  0.86152000  0.06828000  0.46806000  1.0
  C  C21  1  0.13847000  0.93171000  0.53194000  1.0
  C  C22  1  0.14532000  0.50944000  0.24017000  1.0
  C  C23  1  0.85468000  0.49056000  0.75983000  1.0
  C  C24  1  0.27732000  0.48756000  0.18392000  1.0
  C  C25  1  0.22308000  0.48375000  0.09142000  1.0
  C  C26  1  0.72268000  0.51245000  0.81608000  1.0
  C  C27  1  0.77690000  0.51626000  0.90857000  1.0
  C  C28  1  0.04671000  0.47087000  0.80235000  1.0
  C  C29  1  0.10299000  0.47345000  0.89471000  1.0
  C  C30  1  0.95327000  0.52913000  0.19764000  1.0
  C  C31  1  0.89700000  0.52656000  0.10529000  1.0
  C  C32  1  0.03001000  0.50289000  0.04944000  1.0
  C  C33  1  0.96998000  0.49712000  0.95056000  1.0
  Cl  Cl34  1  0.52099000  0.86860000  0.41597000  1.0
  Cl  Cl35  1  0.47899000  0.13139000  0.58403000  1.0
  O  O36  1  0.96502000  0.50488000  0.62193000  1.0
  O  O37  1  0.67461000  0.67289000  0.51230000  1.0
  O  O38  1  0.38327000  0.51980000  0.37835000  1.0
  O  O39  1  0.99626000  0.32615000  0.50716000  1.0
  O  O40  1  0.03498000  0.49512000  0.37807000  1.0
  O  O41  1  0.32539000  0.32710000  0.48770000  1.0
  O  O42  1  0.61673000  0.48020000  0.62165000  1.0
  O  O43  1  0.00374000  0.67385000  0.49284000  1.0
  O  O44  1  0.29298000  0.55382000  0.54235000  1.0
  O  O45  1  0.70702000  0.44618000  0.45765000  1.0
  F  F46  1  0.46501000  0.46484000  0.21834000  1.0
  F  F47  1  0.53499000  0.53516000  0.78166000  1.0
