# generated using pymatgen
data_CuH11C17SN4O5
_symmetry_space_group_name_H-M   'P 1'
_cell_length_a   8.84739000
_cell_length_b   10.55370000
_cell_length_c   10.85510000
_cell_angle_alpha   78.58130000
_cell_angle_beta   75.36080000
_cell_angle_gamma   67.26110000
_symmetry_Int_Tables_number   1
_chemical_formula_structural   CuH11C17SN4O5
_chemical_formula_sum   'Cu2 H22 C34 S2 N8 O10'
_cell_volume   898.71427392
_cell_formula_units_Z   2
loop_
 _symmetry_equiv_pos_site_id
 _symmetry_equiv_pos_as_xyz
  1  'x, y, z'
loop_
 _atom_site_type_symbol
 _atom_site_label
 _atom_site_symmetry_multiplicity
 _atom_site_fract_x
 _atom_site_fract_y
 _atom_site_fract_z
 _atom_site_occupancy
  Cu  Cu0  1  0.49999000  0.50000000  0.00001000  1.0
  Cu  Cu1  1  0.50000000  0.00000000  0.00000000  1.0
  H  H2  1  0.21544000  0.43739000  0.21423000  1.0
  H  H3  1  0.78460000  0.56263000  0.78576000  1.0
  H  H4  1  0.34787000  0.31973000  0.12786000  1.0
  H  H5  1  0.65215000  0.68029000  0.87213000  1.0
  H  H6  1  0.40543000  0.63614000  0.23969000  1.0
  H  H7  1  0.59456000  0.36385000  0.76031000  1.0
  H  H8  1  0.53135000  0.60432000  0.43141000  1.0
  H  H9  1  0.46863000  0.39567000  0.56860000  1.0
  H  H10  1  0.97787000  0.30555000  0.23969000  1.0
  H  H11  1  0.02212000  0.69446000  0.76032000  1.0
  H  H12  1  0.83549000  0.35515000  0.05566000  1.0
  H  H13  1  0.16450000  0.64485000  0.94435000  1.0
  H  H14  1  0.97456000  0.39208000  0.87299000  1.0
  H  H15  1  0.02544000  0.60792000  0.12702000  1.0
  H  H16  1  0.18557000  0.26657000  0.01221000  1.0
  H  H17  1  0.81443000  0.73342000  0.98780000  1.0
  H  H18  1  0.28753000  0.11449000  0.58929000  1.0
  H  H19  1  0.71246000  0.88551000  0.41070000  1.0
  H  H20  1  0.48679000  0.00370000  0.73912000  1.0
  H  H21  1  0.51321000  0.99631000  0.26087000  1.0
  H  H22  1  0.13698000  0.86989000  0.81165000  1.0
  H  H23  1  0.86302000  0.13010000  0.18836000  1.0
  C  C24  1  0.53095000  0.56329000  0.24519000  1.0
  C  C25  1  0.46904000  0.43671000  0.75481000  1.0
  C  C26  1  0.60131000  0.54457000  0.35118000  1.0
  C  C27  1  0.39868000  0.45543000  0.64883000  1.0
  C  C28  1  0.76146000  0.44528000  0.35481000  1.0
  C  C29  1  0.23853000  0.55472000  0.64519000  1.0
  C  C30  1  0.84934000  0.37742000  0.24561000  1.0
  C  C31  1  0.15065000  0.62258000  0.75439000  1.0
  C  C32  1  0.77175000  0.40497000  0.14227000  1.0
  C  C33  1  0.22824000  0.59504000  0.85773000  1.0
  C  C34  1  0.83451000  0.41471000  0.46842000  1.0
  C  C35  1  0.16548000  0.58530000  0.53158000  1.0
  C  C36  1  0.99070000  0.32977000  0.63576000  1.0
  C  C37  1  0.00929000  0.67024000  0.36424000  1.0
  C  C38  1  0.11056000  0.26070000  0.72060000  1.0
  C  C39  1  0.88944000  0.73930000  0.27940000  1.0
  C  C40  1  0.08483000  0.30483000  0.84053000  1.0
  C  C41  1  0.91517000  0.69517000  0.15947000  1.0
  C  C42  1  0.20182000  0.23494000  0.91844000  1.0
  C  C43  1  0.79819000  0.76506000  0.08156000  1.0
  C  C44  1  0.25839000  0.15108000  0.68262000  1.0
  C  C45  1  0.74161000  0.84893000  0.31737000  1.0
  C  C46  1  0.37014000  0.08809000  0.76501000  1.0
  C  C47  1  0.62986000  0.91192000  0.23499000  1.0
  C  C48  1  0.33627000  0.79608000  0.98042000  1.0
  C  C49  1  0.66373000  0.20392000  0.01958000  1.0
  C  C50  1  0.16656000  0.90868000  0.99087000  1.0
  C  C51  1  0.83345000  0.09132000  0.00913000  1.0
  C  C52  1  0.08840000  0.98484000  0.09633000  1.0
  C  C53  1  0.91160000  0.01516000  0.90367000  1.0
  C  C54  1  0.17772000  0.98594000  0.19673000  1.0
  C  C55  1  0.82228000  0.01405000  0.80328000  1.0
  C  C56  1  0.07780000  0.92637000  0.89534000  1.0
  C  C57  1  0.92220000  0.07362000  0.10467000  1.0
  S  S58  1  0.99560000  0.26309000  0.50129000  1.0
  S  S59  1  0.00438000  0.73691000  0.49872000  1.0
  N  N60  1  0.61287000  0.49163000  0.14349000  1.0
  N  N61  1  0.38713000  0.50838000  0.85651000  1.0
  N  N62  1  0.78264000  0.50108000  0.55651000  1.0
  N  N63  1  0.21735000  0.49892000  0.44349000  1.0
  N  N64  1  0.87161000  0.45309000  0.65057000  1.0
  N  N65  1  0.12838000  0.54691000  0.34944000  1.0
  N  N66  1  0.34096000  0.12698000  0.88245000  1.0
  N  N67  1  0.65904000  0.87303000  0.11755000  1.0
  O  O68  1  0.32956000  0.68173000  0.04629000  1.0
  O  O69  1  0.67046000  0.31827000  0.95371000  1.0
  O  O70  1  0.46319000  0.81351000  0.90768000  1.0
  O  O71  1  0.53681000  0.18649000  0.09230000  1.0
  O  O72  1  0.32566000  0.99332000  0.15725000  1.0
  O  O73  1  0.67433000  0.00669000  0.84275000  1.0
  O  O74  1  0.10513000  0.98732000  0.31128000  1.0
  O  O75  1  0.89488000  0.01267000  0.68872000  1.0
  O  O76  1  0.24333000  0.40191000  0.13055000  1.0
  O  O77  1  0.75671000  0.59812000  0.86944000  1.0
