# generated using pymatgen
data_YH13C21(N3O10)2
_symmetry_space_group_name_H-M   'P 1'
_cell_length_a   9.21888000
_cell_length_b   11.55450000
_cell_length_c   13.71460000
_cell_angle_alpha   107.68900000
_cell_angle_beta   90.55220000
_cell_angle_gamma   93.42420000
_symmetry_Int_Tables_number   1
_chemical_formula_structural   YH13C21(N3O10)2
_chemical_formula_sum   'Y2 H26 C42 N12 O40'
_cell_volume   1388.72477757
_cell_formula_units_Z   2
loop_
 _symmetry_equiv_pos_site_id
 _symmetry_equiv_pos_as_xyz
  1  'x, y, z'
loop_
 _atom_site_type_symbol
 _atom_site_label
 _atom_site_symmetry_multiplicity
 _atom_site_fract_x
 _atom_site_fract_y
 _atom_site_fract_z
 _atom_site_occupancy
  Y  Y0  1  0.26776000  0.98853000  0.00624000  1.0
  Y  Y1  1  0.73224000  0.01147000  0.99376000  1.0
  H  H2  1  0.76796000  0.23640000  0.22211000  1.0
  H  H3  1  0.23204000  0.76360000  0.77789000  1.0
  H  H4  1  0.25806000  0.30857000  0.05395000  1.0
  H  H5  1  0.74194000  0.69143000  0.94605000  1.0
  H  H6  1  0.22685000  0.34316000  0.26077000  1.0
  H  H7  1  0.77315000  0.65684000  0.73923000  1.0
  H  H8  1  0.91846000  0.58543000  0.43410000  1.0
  H  H9  1  0.08154000  0.41458000  0.56590000  1.0
  H  H10  1  0.70745000  0.44046000  0.11724000  1.0
  H  H11  1  0.29255000  0.55954000  0.88276000  1.0
  H  H12  1  0.37191000  0.69620000  0.17027000  1.0
  H  H13  1  0.62809000  0.30380000  0.82973000  1.0
  H  H14  1  0.71232000  0.87422000  0.69077000  1.0
  H  H15  1  0.28768000  0.12578000  0.30923000  1.0
  H  H16  1  0.26601000  0.95137000  0.65361000  1.0
  H  H17  1  0.73399000  0.04863000  0.34639000  1.0
  H  H18  1  0.51954000  0.79885000  0.38780000  1.0
  H  H19  1  0.48045000  0.20115000  0.61220000  1.0
  H  H20  1  0.06469000  0.12412000  0.90749000  1.0
  H  H21  1  0.93532000  0.87588000  0.09251000  1.0
  H  H22  1  0.13897000  0.78901000  0.09653000  1.0
  H  H23  1  0.86103000  0.21099000  0.90347000  1.0
  H  H24  1  0.22490000  0.14246000  0.87131000  1.0
  H  H25  1  0.77510000  0.85754000  0.12869000  1.0
  H  H26  1  0.16755000  0.91071000  0.18365000  1.0
  H  H27  1  0.83245000  0.08929000  0.81635000  1.0
  C  C28  1  0.03283000  0.16457000  0.14838000  1.0
  C  C29  1  0.96716000  0.83543000  0.85162000  1.0
  C  C30  1  0.85698000  0.30228000  0.25806000  1.0
  C  C31  1  0.14302000  0.69772000  0.74194000  1.0
  C  C32  1  0.53494000  0.23282000  0.04891000  1.0
  C  C33  1  0.46505000  0.76717000  0.95109000  1.0
  C  C34  1  0.00069000  0.27791000  0.23187000  1.0
  C  C35  1  0.99931000  0.72209000  0.76813000  1.0
  C  C36  1  0.48746000  0.36092000  0.08417000  1.0
  C  C37  1  0.51254000  0.63908000  0.91583000  1.0
  C  C38  1  0.34035000  0.38373000  0.08187000  1.0
  C  C39  1  0.65965000  0.61627000  0.91813000  1.0
  C  C40  1  0.83006000  0.41115000  0.33203000  1.0
  C  C41  1  0.16994000  0.58885000  0.66797000  1.0
  C  C42  1  0.08149000  0.47196000  0.34937000  1.0
  C  C43  1  0.91851000  0.52804000  0.65063000  1.0
  C  C44  1  0.11451000  0.36214000  0.27921000  1.0
  C  C45  1  0.88549000  0.63786000  0.72079000  1.0
  C  C46  1  0.94020000  0.49891000  0.37849000  1.0
  C  C47  1  0.05980000  0.50109000  0.62151000  1.0
  C  C48  1  0.59267000  0.45776000  0.11712000  1.0
  C  C49  1  0.40733000  0.54224000  0.88288000  1.0
  C  C50  1  0.54883000  0.57637000  0.14763000  1.0
  C  C51  1  0.45117000  0.42362000  0.85237000  1.0
  C  C52  1  0.30205000  0.50423000  0.11229000  1.0
  C  C53  1  0.69795000  0.49577000  0.88771000  1.0
  C  C54  1  0.40371000  0.60288000  0.14646000  1.0
  C  C55  1  0.59630000  0.39712000  0.85354000  1.0
  C  C56  1  0.48218000  0.96435000  0.79998000  1.0
  C  C57  1  0.51782000  0.03565000  0.20002000  1.0
  C  C58  1  0.48853000  0.91857000  0.68487000  1.0
  C  C59  1  0.51147000  0.08143000  0.31513000  1.0
  C  C60  1  0.61903000  0.87500000  0.64174000  1.0
  C  C61  1  0.38097000  0.12500000  0.35826000  1.0
  C  C62  1  0.36861000  0.91826000  0.62152000  1.0
  C  C63  1  0.63139000  0.08174000  0.37848000  1.0
  C  C64  1  0.38320000  0.87653000  0.51553000  1.0
  C  C65  1  0.61680000  0.12347000  0.48447000  1.0
  C  C66  1  0.62719000  0.83127000  0.53574000  1.0
  C  C67  1  0.37281000  0.16873000  0.46426000  1.0
  C  C68  1  0.51091000  0.83146000  0.47041000  1.0
  C  C69  1  0.48909000  0.16855000  0.52959000  1.0
  N  N70  1  0.67871000  0.43443000  0.36275000  1.0
  N  N71  1  0.32129000  0.56557000  0.63725000  1.0
  N  N72  1  0.20019000  0.56462000  0.39353000  1.0
  N  N73  1  0.79981000  0.43538000  0.60647000  1.0
  N  N74  1  0.14758000  0.52890000  0.10661000  1.0
  N  N75  1  0.85242000  0.47110000  0.89338000  1.0
  N  N76  1  0.66175000  0.67718000  0.17502000  1.0
  N  N77  1  0.33825000  0.32282000  0.82498000  1.0
  N  N78  1  0.26063000  0.88379000  0.44787000  1.0
  N  N79  1  0.73937000  0.11621000  0.55213000  1.0
  N  N80  1  0.76460000  0.78442000  0.49091000  1.0
  N  N81  1  0.23540000  0.21558000  0.50909000  1.0
  O  O82  1  0.92990000  0.11021000  0.08673000  1.0
  O  O83  1  0.07010000  0.88979000  0.91327000  1.0
  O  O84  1  0.16240000  0.13198000  0.14284000  1.0
  O  O85  1  0.83759000  0.86801000  0.85715000  1.0
  O  O86  1  0.31815000  0.55349000  0.35016000  1.0
  O  O87  1  0.68186000  0.44651000  0.64984000  1.0
  O  O88  1  0.58106000  0.36033000  0.31388000  1.0
  O  O89  1  0.41895000  0.63967000  0.68612000  1.0
  O  O90  1  0.17412000  0.64889000  0.47108000  1.0
  O  O91  1  0.82588000  0.35111000  0.52892000  1.0
  O  O92  1  0.16879000  0.13260000  0.92900000  1.0
  O  O93  1  0.83121000  0.86740000  0.07100000  1.0
  O  O94  1  0.66971000  0.21880000  0.03671000  1.0
  O  O95  1  0.33029000  0.78120000  0.96329000  1.0
  O  O96  1  0.43840000  0.14613000  0.03354000  1.0
  O  O97  1  0.56160000  0.85387000  0.96646000  1.0
  O  O98  1  0.12320000  0.87625000  0.11505000  1.0
  O  O99  1  0.87680000  0.12374000  0.88495000  1.0
  O  O100  1  0.65855000  0.52603000  0.43535000  1.0
  O  O101  1  0.34145000  0.47397000  0.56465000  1.0
  O  O102  1  0.36131000  0.95070000  0.83987000  1.0
  O  O103  1  0.63869000  0.04930000  0.16013000  1.0
  O  O104  1  0.05708000  0.44098000  0.08196000  1.0
  O  O105  1  0.94292000  0.55902000  0.91804000  1.0
  O  O106  1  0.78987000  0.65185000  0.17358000  1.0
  O  O107  1  0.21013000  0.34814000  0.82642000  1.0
  O  O108  1  0.62109000  0.78281000  0.19393000  1.0
  O  O109  1  0.37891000  0.21719000  0.80606000  1.0
  O  O110  1  0.11711000  0.63693000  0.12785000  1.0
  O  O111  1  0.88289000  0.36307000  0.87215000  1.0
  O  O112  1  0.15261000  0.93421000  0.48867000  1.0
  O  O113  1  0.84739000  0.06579000  0.51133000  1.0
  O  O114  1  0.86031000  0.77101000  0.55000000  1.0
  O  O115  1  0.13968000  0.22899000  0.45000000  1.0
  O  O116  1  0.27507000  0.84136000  0.35376000  1.0
  O  O117  1  0.72493000  0.15864000  0.64624000  1.0
  O  O118  1  0.77597000  0.76010000  0.39705000  1.0
  O  O119  1  0.22403000  0.23990000  0.60295000  1.0
  O  O120  1  0.60047000  0.01169000  0.84736000  1.0
  O  O121  1  0.39953000  0.98831000  0.15265000  1.0
