# generated using pymatgen
data_CsH4C7SO6
_symmetry_space_group_name_H-M   'P 1'
_cell_length_a   7.68027000
_cell_length_b   9.62073000
_cell_length_c   13.79590000
_cell_angle_alpha   86.23400000
_cell_angle_beta   89.99920000
_cell_angle_gamma   89.99960000
_symmetry_Int_Tables_number   1
_chemical_formula_structural   CsH4C7SO6
_chemical_formula_sum   'Cs4 H16 C28 S4 O24'
_cell_volume   1017.17512629
_cell_formula_units_Z   4
loop_
 _symmetry_equiv_pos_site_id
 _symmetry_equiv_pos_as_xyz
  1  'x, y, z'
loop_
 _atom_site_type_symbol
 _atom_site_label
 _atom_site_symmetry_multiplicity
 _atom_site_fract_x
 _atom_site_fract_y
 _atom_site_fract_z
 _atom_site_occupancy
  Cs  Cs0  1  0.17871000  0.03006000  0.13881000  1.0
  Cs  Cs1  1  0.67872000  0.96993000  0.36120000  1.0
  Cs  Cs2  1  0.82126000  0.96989000  0.86120000  1.0
  Cs  Cs3  1  0.32128000  0.03008000  0.63881000  1.0
  H  H4  1  0.78241000  0.58101000  0.01174000  1.0
  H  H5  1  0.28245000  0.41904000  0.48824000  1.0
  H  H6  1  0.21756000  0.41900000  0.98825000  1.0
  H  H7  1  0.71754000  0.58098000  0.51176000  1.0
  H  H8  1  0.45277000  0.34493000  0.28926000  1.0
  H  H9  1  0.95273000  0.65506000  0.21074000  1.0
  H  H10  1  0.54729000  0.65505000  0.71075000  1.0
  H  H11  1  0.04730000  0.34493000  0.78925000  1.0
  H  H12  1  0.44885000  0.60704000  0.26265000  1.0
  H  H13  1  0.94885000  0.39294000  0.23737000  1.0
  H  H14  1  0.55120000  0.39293000  0.73738000  1.0
  H  H15  1  0.05120000  0.60705000  0.76262000  1.0
  H  H16  1  0.74506000  0.14672000  0.09598000  1.0
  H  H17  1  0.24503000  0.85331000  0.40400000  1.0
  H  H18  1  0.25495000  0.85328000  0.90400000  1.0
  H  H19  1  0.75495000  0.14670000  0.59600000  1.0
  C  C20  1  0.61540000  0.60832000  0.13675000  1.0
  C  C21  1  0.11542000  0.39169000  0.36325000  1.0
  C  C22  1  0.38460000  0.39167000  0.86326000  1.0
  C  C23  1  0.88459000  0.60831000  0.63675000  1.0
  C  C24  1  0.70938000  0.52955000  0.07149000  1.0
  C  C25  1  0.20941000  0.47048000  0.42849000  1.0
  C  C26  1  0.29061000  0.47045000  0.92850000  1.0
  C  C27  1  0.79059000  0.52953000  0.57151000  1.0
  C  C28  1  0.71122000  0.38620000  0.08323000  1.0
  C  C29  1  0.21121000  0.61383000  0.41675000  1.0
  C  C30  1  0.28878000  0.61380000  0.91676000  1.0
  C  C31  1  0.78877000  0.38618000  0.58325000  1.0
  C  C32  1  0.61641000  0.31554000  0.16414000  1.0
  C  C33  1  0.11638000  0.68448000  0.33585000  1.0
  C  C34  1  0.38362000  0.68446000  0.83586000  1.0
  C  C35  1  0.88361000  0.31553000  0.66415000  1.0
  C  C36  1  0.51924000  0.39964000  0.22839000  1.0
  C  C37  1  0.01921000  0.60036000  0.27160000  1.0
  C  C38  1  0.48080000  0.60035000  0.77161000  1.0
  C  C39  1  0.98080000  0.39963000  0.72839000  1.0
  C  C40  1  0.52033000  0.54238000  0.21443000  1.0
  C  C41  1  0.02033000  0.45762000  0.28557000  1.0
  C  C42  1  0.47970000  0.45760000  0.78559000  1.0
  C  C43  1  0.97970000  0.54238000  0.71442000  1.0
  C  C44  1  0.81411000  0.30586000  0.01420000  1.0
  C  C45  1  0.31408000  0.69418000  0.48578000  1.0
  C  C46  1  0.18588000  0.69415000  0.98578000  1.0
  C  C47  1  0.68588000  0.30583000  0.51422000  1.0
  S  S48  1  0.61429000  0.79328000  0.11786000  1.0
  S  S49  1  0.11432000  0.20674000  0.38215000  1.0
  S  S50  1  0.38569000  0.20672000  0.88214000  1.0
  S  S51  1  0.88569000  0.79326000  0.61785000  1.0
  O  O52  1  0.57065000  0.81738000  0.01460000  1.0
  O  O53  1  0.07072000  0.18268000  0.48543000  1.0
  O  O54  1  0.42923000  0.18261000  0.98542000  1.0
  O  O55  1  0.92929000  0.81733000  0.51458000  1.0
  O  O56  1  0.48188000  0.84053000  0.18509000  1.0
  O  O57  1  0.98189000  0.15948000  0.31495000  1.0
  O  O58  1  0.51815000  0.15946000  0.81495000  1.0
  O  O59  1  0.01813000  0.84053000  0.68505000  1.0
  O  O60  1  0.79092000  0.83943000  0.14158000  1.0
  O  O61  1  0.29094000  0.16057000  0.35842000  1.0
  O  O62  1  0.20907000  0.16057000  0.85837000  1.0
  O  O63  1  0.70907000  0.83943000  0.64159000  1.0
  O  O64  1  0.88601000  0.36095000  0.94218000  1.0
  O  O65  1  0.38596000  0.63909000  0.55780000  1.0
  O  O66  1  0.11399000  0.63907000  0.05780000  1.0
  O  O67  1  0.61399000  0.36092000  0.44221000  1.0
  O  O68  1  0.82747000  0.16822000  0.03783000  1.0
  O  O69  1  0.32744000  0.83181000  0.46215000  1.0
  O  O70  1  0.17252000  0.83178000  0.96215000  1.0
  O  O71  1  0.67253000  0.16819000  0.53785000  1.0
  O  O72  1  0.62197000  0.18349000  0.17932000  1.0
  O  O73  1  0.12192000  0.81653000  0.32067000  1.0
  O  O74  1  0.37807000  0.81651000  0.82068000  1.0
  O  O75  1  0.87805000  0.18348000  0.67933000  1.0
