# generated using pymatgen
data_CuH14(C8O3)2
_symmetry_space_group_name_H-M   'P 1'
_cell_length_a   4.86163000
_cell_length_b   9.51150000
_cell_length_c   15.49530000
_cell_angle_alpha   102.88500000
_cell_angle_beta   90.00000000
_cell_angle_gamma   90.00000000
_symmetry_Int_Tables_number   1
_chemical_formula_structural   CuH14(C8O3)2
_chemical_formula_sum   'Cu2 H28 C32 O12'
_cell_volume   698.48190620
_cell_formula_units_Z   2
loop_
 _symmetry_equiv_pos_site_id
 _symmetry_equiv_pos_as_xyz
  1  'x, y, z'
loop_
 _atom_site_type_symbol
 _atom_site_label
 _atom_site_symmetry_multiplicity
 _atom_site_fract_x
 _atom_site_fract_y
 _atom_site_fract_z
 _atom_site_occupancy
  Cu  Cu0  1  0.00000000  0.50000000  0.50000000  1.0
  Cu  Cu1  1  0.50000000  0.00000000  0.50000000  1.0
  H  H2  1  0.74626000  0.83896000  0.62830000  1.0
  H  H3  1  0.24625000  0.66104000  0.37170000  1.0
  H  H4  1  0.25375000  0.16104000  0.37170000  1.0
  H  H5  1  0.75374000  0.33896000  0.62830000  1.0
  H  H6  1  0.63262000  0.93601000  0.77437000  1.0
  H  H7  1  0.13262000  0.56399000  0.22563000  1.0
  H  H8  1  0.36738000  0.06399000  0.22563000  1.0
  H  H9  1  0.86738000  0.43601000  0.77437000  1.0
  H  H10  1  0.70710000  0.96105000  0.93564000  1.0
  H  H11  1  0.20710000  0.53895000  0.06435000  1.0
  H  H12  1  0.29290000  0.03895000  0.06436000  1.0
  H  H13  1  0.79290000  0.46105000  0.93564000  1.0
  H  H14  1  0.05094000  0.80376000  0.98865000  1.0
  H  H15  1  0.55095000  0.69625000  0.01135000  1.0
  H  H16  1  0.94906000  0.19624000  0.01135000  1.0
  H  H17  1  0.44905000  0.30375000  0.98865000  1.0
  H  H18  1  0.31446000  0.62141000  0.87889000  1.0
  H  H19  1  0.81446000  0.87859000  0.12111000  1.0
  H  H20  1  0.68554000  0.37859000  0.12111000  1.0
  H  H21  1  0.18554000  0.12141000  0.87889000  1.0
  H  H22  1  0.23826000  0.59654000  0.71878000  1.0
  H  H23  1  0.73826000  0.90346000  0.28122000  1.0
  H  H24  1  0.76175000  0.40346000  0.28122000  1.0
  H  H25  1  0.26174000  0.09654000  0.71878000  1.0
  H  H26  1  0.57561000  0.63044000  0.57364000  1.0
  H  H27  1  0.07560000  0.86956000  0.42636000  1.0
  H  H28  1  0.42439000  0.36956000  0.42636000  1.0
  H  H29  1  0.92439000  0.13044000  0.57364000  1.0
  C  C30  1  0.15868000  0.77071000  0.59409000  1.0
  C  C31  1  0.65869000  0.72929000  0.40591000  1.0
  C  C32  1  0.84132000  0.22929000  0.40591000  1.0
  C  C33  1  0.34131000  0.27072000  0.59409000  1.0
  C  C34  1  0.88498000  0.75315000  0.63844000  1.0
  C  C35  1  0.38498000  0.74685000  0.36156000  1.0
  C  C36  1  0.11502000  0.24685000  0.36156000  1.0
  C  C37  1  0.61501000  0.25315000  0.63844000  1.0
  C  C38  1  0.92981000  0.76513000  0.73634000  1.0
  C  C39  1  0.42981000  0.73487000  0.26366000  1.0
  C  C40  1  0.07020000  0.23487000  0.26366000  1.0
  C  C41  1  0.57019000  0.26512000  0.73634000  1.0
  C  C42  1  0.78158000  0.86730000  0.79768000  1.0
  C  C43  1  0.28158000  0.63270000  0.20231000  1.0
  C  C44  1  0.21842000  0.13270000  0.20231000  1.0
  C  C45  1  0.71842000  0.36730000  0.79769000  1.0
  C  C46  1  0.82454000  0.88130000  0.88835000  1.0
  C  C47  1  0.32453000  0.61871000  0.11165000  1.0
  C  C48  1  0.17547000  0.11870000  0.11165000  1.0
  C  C49  1  0.67547000  0.38129000  0.88835000  1.0
  C  C50  1  0.01590000  0.79309000  0.91797000  1.0
  C  C51  1  0.51590000  0.70692000  0.08203000  1.0
  C  C52  1  0.98410000  0.20692000  0.08203000  1.0
  C  C53  1  0.48410000  0.29308000  0.91797000  1.0
  C  C54  1  0.16425000  0.69087000  0.85668000  1.0
  C  C55  1  0.66425000  0.80913000  0.14332000  1.0
  C  C56  1  0.83575000  0.30913000  0.14332000  1.0
  C  C57  1  0.33575000  0.19086000  0.85668000  1.0
  C  C58  1  0.12268000  0.67706000  0.76616000  1.0
  C  C59  1  0.62268000  0.82294000  0.23384000  1.0
  C  C60  1  0.87732000  0.32294000  0.23384000  1.0
  C  C61  1  0.37732000  0.17706000  0.76616000  1.0
  O  O62  1  0.26099000  0.65641000  0.54031000  1.0
  O  O63  1  0.76098000  0.84360000  0.45969000  1.0
  O  O64  1  0.73902000  0.34360000  0.45969000  1.0
  O  O65  1  0.23901000  0.15640000  0.54031000  1.0
  O  O66  1  0.76363000  0.61398000  0.59690000  1.0
  O  O67  1  0.26363000  0.88602000  0.40310000  1.0
  O  O68  1  0.23637000  0.38602000  0.40310000  1.0
  O  O69  1  0.73637000  0.11398000  0.59690000  1.0
  O  O70  1  0.28051000  0.88813000  0.61238000  1.0
  O  O71  1  0.78050000  0.61188000  0.38762000  1.0
  O  O72  1  0.71949000  0.11187000  0.38762000  1.0
  O  O73  1  0.21950000  0.38812000  0.61238000  1.0
