# generated using pymatgen
data_HoH4C12(O4F3)2
_symmetry_space_group_name_H-M   'P 1'
_cell_length_a   8.77755000
_cell_length_b   8.77777000
_cell_length_c   11.16550000
_cell_angle_alpha   107.22300000
_cell_angle_beta   110.23500000
_cell_angle_gamma   100.53700000
_symmetry_Int_Tables_number   1
_chemical_formula_structural   HoH4C12(O4F3)2
_chemical_formula_sum   'Ho2 H8 C24 O16 F12'
_cell_volume   730.87965057
_cell_formula_units_Z   2
loop_
 _symmetry_equiv_pos_site_id
 _symmetry_equiv_pos_as_xyz
  1  'x, y, z'
loop_
 _atom_site_type_symbol
 _atom_site_label
 _atom_site_symmetry_multiplicity
 _atom_site_fract_x
 _atom_site_fract_y
 _atom_site_fract_z
 _atom_site_occupancy
  Ho  Ho0  1  0.36875000  0.16113000  0.53004000  1.0
  Ho  Ho1  1  0.63125000  0.83887000  0.46995000  1.0
  H  H2  1  0.53358000  0.53557000  0.63601000  1.0
  H  H3  1  0.89966000  0.89721000  0.36385000  1.0
  H  H4  1  0.46642000  0.46443000  0.36399000  1.0
  H  H5  1  0.10034000  0.10279000  0.63615000  1.0
  H  H6  1  0.49644000  0.50087000  0.75212000  1.0
  H  H7  1  0.74862000  0.74425000  0.24782000  1.0
  H  H8  1  0.50356000  0.49912000  0.24788000  1.0
  H  H9  1  0.25138000  0.25575000  0.75218000  1.0
  C  C10  1  0.37005000  0.86351000  0.23301000  1.0
  C  C11  1  0.62995000  0.13650000  0.76699000  1.0
  C  C12  1  0.23944000  0.86351000  0.10219000  1.0
  C  C13  1  0.76056000  0.13650000  0.89781000  1.0
  C  C14  1  0.07129000  0.75693000  0.03832000  1.0
  C  C15  1  0.71793000  0.03225000  0.96176000  1.0
  C  C16  1  0.92871000  0.24306000  0.96168000  1.0
  C  C17  1  0.28207000  0.96776000  0.03824000  1.0
  C  C18  1  0.95307000  0.74984000  0.91391000  1.0
  C  C19  1  0.83526000  0.03846000  0.08617000  1.0
  C  C20  1  0.04693000  0.25016000  0.08609000  1.0
  C  C21  1  0.16474000  0.96154000  0.91384000  1.0
  C  C22  1  0.99612000  0.84964000  0.84501000  1.0
  C  C23  1  0.00388000  0.15036000  0.15499000  1.0
  C  C24  1  0.87190000  0.83583000  0.70700000  1.0
  C  C25  1  0.12811000  0.16417000  0.29300000  1.0
  C  C26  1  0.73913000  0.23931000  0.50010000  1.0
  C  C27  1  0.26087000  0.76069000  0.49990000  1.0
  C  C28  1  0.87354000  0.37365000  0.49999000  1.0
  C  C29  1  0.12646000  0.62635000  0.50001000  1.0
  C  C30  1  0.86312000  0.39141000  0.37815000  1.0
  C  C31  1  0.01305000  0.48494000  0.62183000  1.0
  C  C32  1  0.13688000  0.60859000  0.62185000  1.0
  C  C33  1  0.98695000  0.51506000  0.37817000  1.0
  O  O34  1  0.38838000  0.96212000  0.35006000  1.0
  O  O35  1  0.61163000  0.03788000  0.64994000  1.0
  O  O36  1  0.45684000  0.76496000  0.22150000  1.0
  O  O37  1  0.54316000  0.23505000  0.77850000  1.0
  O  O38  1  0.91738000  0.92933000  0.64864000  1.0
  O  O39  1  0.27984000  0.26821000  0.35132000  1.0
  O  O40  1  0.08262000  0.07067000  0.35136000  1.0
  O  O41  1  0.72017000  0.73179000  0.64868000  1.0
  O  O42  1  0.62497000  0.28555000  0.53138000  1.0
  O  O43  1  0.75416000  0.09393000  0.46891000  1.0
  O  O44  1  0.37502000  0.71445000  0.46862000  1.0
  O  O45  1  0.24583000  0.90607000  0.53110000  1.0
  O  O46  1  0.44847000  0.46375000  0.65173000  1.0
  O  O47  1  0.81195000  0.79656000  0.34821000  1.0
  O  O48  1  0.55153000  0.53625000  0.34827000  1.0
  O  O49  1  0.18804000  0.20344000  0.65180000  1.0
  F  F50  1  0.01966000  0.65799000  0.09816000  1.0
  F  F51  1  0.55925000  0.92077000  0.90194000  1.0
  F  F52  1  0.98034000  0.34200000  0.90183000  1.0
  F  F53  1  0.44075000  0.07925000  0.09806000  1.0
  F  F54  1  0.79405000  0.64139000  0.86298000  1.0
  F  F55  1  0.77780000  0.93038000  0.13717000  1.0
  F  F56  1  0.20595000  0.35860000  0.13702000  1.0
  F  F57  1  0.22220000  0.06963000  0.86283000  1.0
  F  F58  1  0.72911000  0.28841000  0.25607000  1.0
  F  F59  1  0.03187000  0.47298000  0.74394000  1.0
  F  F60  1  0.27089000  0.71158000  0.74393000  1.0
  F  F61  1  0.96813000  0.52702000  0.25606000  1.0
