# generated using pymatgen
data_Zn4H15C30NO13
_symmetry_space_group_name_H-M   'P 1'
_cell_length_a   10.82430000
_cell_length_b   10.91630000
_cell_length_c   17.96230000
_cell_angle_alpha   72.53280000
_cell_angle_beta   82.77400000
_cell_angle_gamma   82.29440000
_symmetry_Int_Tables_number   1
_chemical_formula_structural   Zn4H15C30NO13
_chemical_formula_sum   'Zn4 H15 C30 N1 O13'
_cell_volume   1998.06775725
_cell_formula_units_Z   1
loop_
 _symmetry_equiv_pos_site_id
 _symmetry_equiv_pos_as_xyz
  1  'x, y, z'
loop_
 _atom_site_type_symbol
 _atom_site_label
 _atom_site_symmetry_multiplicity
 _atom_site_fract_x
 _atom_site_fract_y
 _atom_site_fract_z
 _atom_site_occupancy
  Zn  Zn0  1  0.58269000  0.56431000  0.56515000  1.0
  Zn  Zn1  1  0.61586000  0.40432000  0.44015000  1.0
  Zn  Zn2  1  0.41149000  0.64586000  0.42398000  1.0
  Zn  Zn3  1  0.37568000  0.38322000  0.56873000  1.0
  H  H4  1  0.42084000  0.16749000  0.07903000  1.0
  H  H5  1  0.37697000  0.19510000  0.81453000  1.0
  H  H6  1  0.47970000  0.30883000  0.14868000  1.0
  H  H7  1  0.62245000  0.63703000  0.85640000  1.0
  H  H8  1  0.65172000  0.00746000  0.62950000  1.0
  H  H9  1  0.56486000  0.87098000  0.64994000  1.0
  H  H10  1  0.69618000  0.88634000  0.58005000  1.0
  H  H11  1  0.67530000  0.84286000  0.04501000  1.0
  H  H12  1  0.41328000  0.03361000  0.45250000  1.0
  H  H13  1  0.01851000  0.58374000  0.39247000  1.0
  H  H14  1  0.99530000  0.41059000  0.56381000  1.0
  H  H15  1  0.52036000  0.42576000  0.20388000  1.0
  H  H16  1  0.63002000  0.79476000  0.19042000  1.0
  H  H17  1  0.68289000  0.77733000  0.92493000  1.0
  H  H18  1  0.37987000  0.12732000  0.96034000  1.0
  C  C19  1  0.51686000  0.15819000  0.52717000  1.0
  C  C20  1  0.60086000  0.61347000  0.91943000  1.0
  C  C21  1  0.63638000  0.69199000  0.95790000  1.0
  C  C22  1  0.48311000  0.83221000  0.49540000  1.0
  C  C23  1  0.61340000  0.66504000  0.04064000  1.0
  C  C24  1  0.56488000  0.54616000  0.08460000  1.0
  C  C25  1  0.63845000  0.75269000  0.07985000  1.0
  C  C26  1  0.61497000  0.72612000  0.16001000  1.0
  C  C27  1  0.55156000  0.51712000  0.16711000  1.0
  C  C28  1  0.47360000  0.96802000  0.49480000  1.0
  C  C29  1  0.53302000  0.01461000  0.54063000  1.0
  C  C30  1  0.40569000  0.25812000  0.84469000  1.0
  C  C31  1  0.04509000  0.52585000  0.45014000  1.0
  C  C32  1  0.96376000  0.46187000  0.50617000  1.0
  C  C33  1  0.82732000  0.46763000  0.50065000  1.0
  C  C34  1  0.17580000  0.52654000  0.46722000  1.0
  C  C35  1  0.55134000  0.57391000  0.29112000  1.0
  C  C36  1  0.44496000  0.41542000  0.71244000  1.0
  C  C37  1  0.43904000  0.38060000  0.80001000  1.0
  C  C38  1  0.57354000  0.60580000  0.20416000  1.0
  C  C39  1  0.40890000  0.22085000  0.92496000  1.0
  C  C40  1  0.61646000  0.94142000  0.60351000  1.0
  C  C41  1  0.47384000  0.46608000  0.83707000  1.0
  C  C42  1  0.47668000  0.59843000  0.79202000  1.0
  C  C43  1  0.48873000  0.42542000  0.91931000  1.0
  C  C44  1  0.45028000  0.30153000  0.96332000  1.0
  C  C45  1  0.53803000  0.50195000  0.96012000  1.0
  C  C46  1  0.52879000  0.46268000  0.04347000  1.0
  C  C47  1  0.48468000  0.34102000  0.08497000  1.0
  C  C48  1  0.45087000  0.26186000  0.04642000  1.0
  N  N49  1  0.46785000  0.70806000  0.75721000  1.0
  O  O50  1  0.49422000  0.49713000  0.49992000  1.0
  O  O51  1  0.57667000  0.45585000  0.33024000  1.0
  O  O52  1  0.37250000  0.36418000  0.68220000  1.0
  O  O53  1  0.50879000  0.66653000  0.31994000  1.0
  O  O54  1  0.52721000  0.49015000  0.67592000  1.0
  O  O55  1  0.76030000  0.49598000  0.55809000  1.0
  O  O56  1  0.21030000  0.44898000  0.53165000  1.0
  O  O57  1  0.60687000  0.21757000  0.48536000  1.0
  O  O58  1  0.41284000  0.80639000  0.45072000  1.0
  O  O59  1  0.41863000  0.20582000  0.55947000  1.0
  O  O60  1  0.56028000  0.75102000  0.53892000  1.0
  O  O61  1  0.78879000  0.44424000  0.44259000  1.0
  O  O62  1  0.24163000  0.60649000  0.41589000  1.0
