# generated using pymatgen
data_ZnH16C12(N2Cl)2
_symmetry_space_group_name_H-M   'P 1'
_cell_length_a   8.63229000
_cell_length_b   11.29430000
_cell_length_c   15.80880000
_cell_angle_alpha   90.00000000
_cell_angle_beta   90.00000000
_cell_angle_gamma   103.96800000
_symmetry_Int_Tables_number   1
_chemical_formula_structural   ZnH16C12(N2Cl)2
_chemical_formula_sum   'Zn4 H64 C48 N16 Cl8'
_cell_volume   1495.71472407
_cell_formula_units_Z   4
loop_
 _symmetry_equiv_pos_site_id
 _symmetry_equiv_pos_as_xyz
  1  'x, y, z'
loop_
 _atom_site_type_symbol
 _atom_site_label
 _atom_site_symmetry_multiplicity
 _atom_site_fract_x
 _atom_site_fract_y
 _atom_site_fract_z
 _atom_site_occupancy
  Zn  Zn0  1  0.96468000  0.21854000  0.68040000  1.0
  Zn  Zn1  1  0.53532000  0.28146000  0.18040000  1.0
  Zn  Zn2  1  0.03531000  0.78146000  0.31960000  1.0
  Zn  Zn3  1  0.46468000  0.71854000  0.81960000  1.0
  H  H4  1  0.50533000  0.08462000  0.64504000  1.0
  H  H5  1  0.99467000  0.41538000  0.14504000  1.0
  H  H6  1  0.49467000  0.91538000  0.35496000  1.0
  H  H7  1  0.00533000  0.58462000  0.85496000  1.0
  H  H8  1  0.04628000  0.99040000  0.73219000  1.0
  H  H9  1  0.45372000  0.50960000  0.23219000  1.0
  H  H10  1  0.95371000  0.00960000  0.26781000  1.0
  H  H11  1  0.54628000  0.49040000  0.76781000  1.0
  H  H12  1  0.22167000  0.93509000  0.74227000  1.0
  H  H13  1  0.27833000  0.56491000  0.24227000  1.0
  H  H14  1  0.77833000  0.06491000  0.25773000  1.0
  H  H15  1  0.72166000  0.43509000  0.75773000  1.0
  H  H16  1  0.03681000  0.93988000  0.57615000  1.0
  H  H17  1  0.46320000  0.56012000  0.07615000  1.0
  H  H18  1  0.96320000  0.06012000  0.42385000  1.0
  H  H19  1  0.53680000  0.43988000  0.92385000  1.0
  H  H20  1  0.20231000  0.87588000  0.58882000  1.0
  H  H21  1  0.29770000  0.62412000  0.08882000  1.0
  H  H22  1  0.79770000  0.12412000  0.41118000  1.0
  H  H23  1  0.70230000  0.37588000  0.91118000  1.0
  H  H24  1  0.88523000  0.79086000  0.68425000  1.0
  H  H25  1  0.61478000  0.70913000  0.18425000  1.0
  H  H26  1  0.11478000  0.20914000  0.31575000  1.0
  H  H27  1  0.38522000  0.29087000  0.81575000  1.0
  H  H28  1  0.04660000  0.72050000  0.68917000  1.0
  H  H29  1  0.45341000  0.77950000  0.18917000  1.0
  H  H30  1  0.95341000  0.27950000  0.31083000  1.0
  H  H31  1  0.54659000  0.22050000  0.81083000  1.0
  H  H32  1  0.85384000  0.74198000  0.52806000  1.0
  H  H33  1  0.64617000  0.75802000  0.02806000  1.0
  H  H34  1  0.14617000  0.25803000  0.47193000  1.0
  H  H35  1  0.35384000  0.24198000  0.97194000  1.0
  H  H36  1  0.83624000  0.60762000  0.59004000  1.0
  H  H37  1  0.66377000  0.89237000  0.09004000  1.0
  H  H38  1  0.16376000  0.39238000  0.40995000  1.0
  H  H39  1  0.33624000  0.10762000  0.90996000  1.0
  H  H40  1  0.01387000  0.66943000  0.53328000  1.0
  H  H41  1  0.48614000  0.83057000  0.03328000  1.0
  H  H42  1  0.98613000  0.33057000  0.46671000  1.0
  H  H43  1  0.51387000  0.16944000  0.96672000  1.0
  H  H44  1  0.68040000  0.30229000  0.60576000  1.0
  H  H45  1  0.81960000  0.19771000  0.10576000  1.0
  H  H46  1  0.31960000  0.69771000  0.39424000  1.0
  H  H47  1  0.18040000  0.80229000  0.89424000  1.0
  H  H48  1  0.58082000  0.42187000  0.60095000  1.0
  H  H49  1  0.91918000  0.07813000  0.10095000  1.0
  H  H50  1  0.41917000  0.57813000  0.39905000  1.0
  H  H51  1  0.08083000  0.92187000  0.89905000  1.0
  H  H52  1  0.38655000  0.14401000  0.47941000  1.0
  H  H53  1  0.11345000  0.35598000  0.97941000  1.0
  H  H54  1  0.61344000  0.85599000  0.52059000  1.0
  H  H55  1  0.88655000  0.64401000  0.02059000  1.0
  H  H56  1  0.38877000  0.13724000  0.32384000  1.0
  H  H57  1  0.11122000  0.36276000  0.82384000  1.0
  H  H58  1  0.61122000  0.86276000  0.67616000  1.0
  H  H59  1  0.88877000  0.63724000  0.17616000  1.0
  H  H60  1  0.73385000  0.46531000  0.30909000  1.0
  H  H61  1  0.76614000  0.03469000  0.80909000  1.0
  H  H62  1  0.26614000  0.53470000  0.69091000  1.0
  H  H63  1  0.23386000  0.96531000  0.19091000  1.0
  H  H64  1  0.74860000  0.48516000  0.46467000  1.0
  H  H65  1  0.75140000  0.01484000  0.96468000  1.0
  H  H66  1  0.25139000  0.51485000  0.53533000  1.0
  H  H67  1  0.24860000  0.98515000  0.03532000  1.0
  C  C68  1  0.25111000  0.09779000  0.67114000  1.0
  C  C69  1  0.24889000  0.40221000  0.17114000  1.0
  C  C70  1  0.74889000  0.90222000  0.32886000  1.0
  C  C71  1  0.75110000  0.59778000  0.82886000  1.0
  C  C72  1  0.40975000  0.13200000  0.64674000  1.0
  C  C73  1  0.09025000  0.36800000  0.14674000  1.0
  C  C74  1  0.59024000  0.86800000  0.35326000  1.0
  C  C75  1  0.90975000  0.63200000  0.85326000  1.0
  C  C76  1  0.15197000  0.97694000  0.69804000  1.0
  C  C77  1  0.34804000  0.52306000  0.19804000  1.0
  C  C78  1  0.84803000  0.02306000  0.30196000  1.0
  C  C79  1  0.65196000  0.47694000  0.80196000  1.0
  C  C80  1  0.09716000  0.89256000  0.62184000  1.0
  C  C81  1  0.40285000  0.60744000  0.12184000  1.0
  C  C82  1  0.90285000  0.10744000  0.37815000  1.0
  C  C83  1  0.59715000  0.39256000  0.87815000  1.0
  C  C84  1  0.98448000  0.77167000  0.64698000  1.0
  C  C85  1  0.51553000  0.72833000  0.14698000  1.0
  C  C86  1  0.01553000  0.22833000  0.35301000  1.0
  C  C87  1  0.48447000  0.27167000  0.85301000  1.0
  C  C88  1  0.91833000  0.69346000  0.57046000  1.0
  C  C89  1  0.58168000  0.80654000  0.07047000  1.0
  C  C90  1  0.08168000  0.30654000  0.42953000  1.0
  C  C91  1  0.41832000  0.19346000  0.92953000  1.0
  C  C92  1  0.57318000  0.32740000  0.58153000  1.0
  C  C93  1  0.92682000  0.17260000  0.08153000  1.0
  C  C94  1  0.42681000  0.67261000  0.41847000  1.0
  C  C95  1  0.07318000  0.82739000  0.91847000  1.0
  C  C96  1  0.56668000  0.31668000  0.48633000  1.0
  C  C97  1  0.93332000  0.18332000  0.98633000  1.0
  C  C98  1  0.43332000  0.68333000  0.51367000  1.0
  C  C99  1  0.06668000  0.81667000  0.01367000  1.0
  C  C100  1  0.46586000  0.21805000  0.44506000  1.0
  C  C101  1  0.03415000  0.28195000  0.94507000  1.0
  C  C102  1  0.53414000  0.78195000  0.55494000  1.0
  C  C103  1  0.96585000  0.71805000  0.05494000  1.0
  C  C104  1  0.46554000  0.21373000  0.35737000  1.0
  C  C105  1  0.03446000  0.28627000  0.85737000  1.0
  C  C106  1  0.53445000  0.78627000  0.64263000  1.0
  C  C107  1  0.96554000  0.71373000  0.14263000  1.0
  C  C108  1  0.65806000  0.39633000  0.34906000  1.0
  C  C109  1  0.84193000  0.10367000  0.84907000  1.0
  C  C110  1  0.34193000  0.60367000  0.65093000  1.0
  C  C111  1  0.15807000  0.89633000  0.15093000  1.0
  C  C112  1  0.66562000  0.40668000  0.43671000  1.0
  C  C113  1  0.83438000  0.09332000  0.93671000  1.0
  C  C114  1  0.33437000  0.59333000  0.56329000  1.0
  C  C115  1  0.16563000  0.90668000  0.06329000  1.0
  N  N116  1  0.19104000  0.19838000  0.65975000  1.0
  N  N117  1  0.30896000  0.30162000  0.15975000  1.0
  N  N118  1  0.80896000  0.80162000  0.34025000  1.0
  N  N119  1  0.69104000  0.69838000  0.84025000  1.0
  N  N120  1  0.30143000  0.29139000  0.62990000  1.0
  N  N121  1  0.19858000  0.20861000  0.12990000  1.0
  N  N122  1  0.69857000  0.70862000  0.37010000  1.0
  N  N123  1  0.80143000  0.79139000  0.87010000  1.0
  N  N124  1  0.43374000  0.25042000  0.62226000  1.0
  N  N125  1  0.06626000  0.24958000  0.12226000  1.0
  N  N126  1  0.56626000  0.74958000  0.37774000  1.0
  N  N127  1  0.93374000  0.75042000  0.87774000  1.0
  N  N128  1  0.55896000  0.30175000  0.30987000  1.0
  N  N129  1  0.94104000  0.19825000  0.80987000  1.0
  N  N130  1  0.44104000  0.69825000  0.69013000  1.0
  N  N131  1  0.05896000  0.80175000  0.19013000  1.0
  Cl  Cl132  1  0.96237000  0.41288000  0.65696000  1.0
  Cl  Cl133  1  0.53763000  0.08712000  0.15696000  1.0
  Cl  Cl134  1  0.03763000  0.58712000  0.34304000  1.0
  Cl  Cl135  1  0.46237000  0.91289000  0.84304000  1.0
  Cl  Cl136  1  0.78529000  0.07264000  0.61395000  1.0
  Cl  Cl137  1  0.71471000  0.42737000  0.11395000  1.0
  Cl  Cl138  1  0.21471000  0.92737000  0.38605000  1.0
  Cl  Cl139  1  0.28529000  0.57264000  0.88605000  1.0
