# generated using pymatgen
data_Al3H9C34NO14
_symmetry_space_group_name_H-M   'P 1'
_cell_length_a   12.28730000
_cell_length_b   12.36340000
_cell_length_c   26.97980000
_cell_angle_alpha   82.61620000
_cell_angle_beta   82.60040000
_cell_angle_gamma   64.02230000
_symmetry_Int_Tables_number   1
_chemical_formula_structural   Al3H9C34NO14
_chemical_formula_sum   'Al6 H18 C68 N2 O28'
_cell_volume   3641.82113747
_cell_formula_units_Z   2
loop_
 _symmetry_equiv_pos_site_id
 _symmetry_equiv_pos_as_xyz
  1  'x, y, z'
loop_
 _atom_site_type_symbol
 _atom_site_label
 _atom_site_symmetry_multiplicity
 _atom_site_fract_x
 _atom_site_fract_y
 _atom_site_fract_z
 _atom_site_occupancy
  Al  Al0  1  0.59690000  0.59648000  0.48860000  1.0
  Al  Al1  1  0.57475000  0.34465000  0.50427000  1.0
  Al  Al2  1  0.34346000  0.57443000  0.50245000  1.0
  Al  Al3  1  0.06148000  0.07274000  0.02151000  1.0
  Al  Al4  1  0.31890000  0.08651000  0.00393000  1.0
  Al  Al5  1  0.09217000  0.32027000  0.00559000  1.0
  H  H6  1  0.19247000  0.74628000  0.80337000  1.0
  H  H7  1  0.63450000  0.40321000  0.80886000  1.0
  H  H8  1  0.73122000  0.20500000  0.74809000  1.0
  H  H9  1  0.96299000  0.13343000  0.78415000  1.0
  H  H10  1  0.15026000  0.48092000  0.28558000  1.0
  H  H11  1  0.50956000  0.36985000  0.26380000  1.0
  H  H12  1  0.53336000  0.15945000  0.22292000  1.0
  H  H13  1  0.37273000  0.12740000  0.30307000  1.0
  H  H14  1  0.17300000  0.27088000  0.24480000  1.0
  H  H15  1  0.12292000  0.93375000  0.72456000  1.0
  H  H16  1  0.40660000  0.61114000  0.74288000  1.0
  H  H17  1  0.53073000  0.72206000  0.78448000  1.0
  H  H18  1  0.46013000  0.90978000  0.70551000  1.0
  H  H19  1  0.92120000  0.47439000  0.76330000  1.0
  H  H20  1  0.01774000  0.27689000  0.70302000  1.0
  H  H21  1  0.68932000  0.54684000  0.72728000  1.0
  H  H22  1  0.69953000  0.70543000  0.44530000  1.0
  H  H23  1  0.94369000  0.97869000  0.00381000  1.0
  C  C24  1  0.71487000  0.38710000  0.56407000  1.0
  C  C25  1  0.34086000  0.34953000  0.73207000  1.0
  C  C26  1  0.34959000  0.35920000  0.68176000  1.0
  C  C27  1  0.35860000  0.36805000  0.63570000  1.0
  C  C28  1  0.21338000  0.88504000  0.73814000  1.0
  C  C29  1  0.25242000  0.78149000  0.78109000  1.0
  C  C30  1  0.29975000  0.89521000  0.89751000  1.0
  C  C31  1  0.35283000  0.76660000  0.61016000  1.0
  C  C32  1  0.28247000  0.94740000  0.75988000  1.0
  C  C33  1  0.32200000  0.84164000  0.80446000  1.0
  C  C34  1  0.40217000  0.87176000  0.72753000  1.0
  C  C35  1  0.38309000  0.38986000  0.58271000  1.0
  C  C36  1  0.33231000  0.81132000  0.70449000  1.0
  C  C37  1  0.44053000  0.76809000  0.77050000  1.0
  C  C38  1  0.37135000  0.70689000  0.74871000  1.0
  C  C39  1  0.31259000  0.86621000  0.85493000  1.0
  C  C40  1  0.34068000  0.79035000  0.65355000  1.0
  C  C41  1  0.93287000  0.30470000  0.72694000  1.0
  C  C42  1  0.87846000  0.41512000  0.75946000  1.0
  C  C43  1  0.89394000  0.31656000  0.89882000  1.0
  C  C44  1  0.76140000  0.36065000  0.61237000  1.0
  C  C45  1  0.90171000  0.22485000  0.77081000  1.0
  C  C46  1  0.38326000  0.71708000  0.56220000  1.0
  C  C47  1  0.84818000  0.33517000  0.80474000  1.0
  C  C48  1  0.77353000  0.26467000  0.75200000  1.0
  C  C49  1  0.80381000  0.34469000  0.70672000  1.0
  C  C50  1  0.71907000  0.37522000  0.78459000  1.0
  C  C51  1  0.75024000  0.45512000  0.74061000  1.0
  C  C52  1  0.87102000  0.32734000  0.85533000  1.0
  C  C53  1  0.78214000  0.35143000  0.65608000  1.0
  C  C54  1  0.23490000  0.40824000  0.27190000  1.0
  C  C55  1  0.32440000  0.42670000  0.22812000  1.0
  C  C56  1  0.31652000  0.29398000  0.11019000  1.0
  C  C57  1  0.71594000  0.38705000  0.42234000  1.0
  C  C58  1  0.36174000  0.35279000  0.39867000  1.0
  C  C59  1  0.24817000  0.29210000  0.24985000  1.0
  C  C60  1  0.33785000  0.30825000  0.20468000  1.0
  C  C61  1  0.35902000  0.21234000  0.28109000  1.0
  C  C62  1  0.34566000  0.32953000  0.30451000  1.0
  C  C63  1  0.44825000  0.23007000  0.23749000  1.0
  C  C64  1  0.43572000  0.34592000  0.25956000  1.0
  C  C65  1  0.32839000  0.30046000  0.15376000  1.0
  C  C66  1  0.35341000  0.34117000  0.35527000  1.0
  C  C67  1  0.29825000  0.90378000  0.13690000  1.0
  C  C68  1  0.38527000  0.37975000  0.44511000  1.0
  C  C69  1  0.31125000  0.87605000  0.18173000  1.0
  C  C70  1  0.32412000  0.84710000  0.23088000  1.0
  C  C71  1  0.33475000  0.82236000  0.27631000  1.0
  C  C72  1  0.34772000  0.79306000  0.32546000  1.0
  C  C73  1  0.36013000  0.76480000  0.37039000  1.0
  C  C74  1  0.89802000  0.30914000  0.13763000  1.0
  C  C75  1  0.87036000  0.31981000  0.18264000  1.0
  C  C76  1  0.84282000  0.32991000  0.23200000  1.0
  C  C77  1  0.82026000  0.33740000  0.27766000  1.0
  C  C78  1  0.79335000  0.34771000  0.32702000  1.0
  C  C79  1  0.38741000  0.71380000  0.42067000  1.0
  C  C80  1  0.76683000  0.35868000  0.37208000  1.0
  C  C81  1  0.27157000  0.94828000  0.94473000  1.0
  C  C82  1  0.28193000  0.27808000  0.92640000  1.0
  C  C83  1  0.94440000  0.28630000  0.94641000  1.0
  C  C84  1  0.27151000  0.95095000  0.08625000  1.0
  C  C85  1  0.28823000  0.27337000  0.06341000  1.0
  C  C86  1  0.94949000  0.28071000  0.08741000  1.0
  C  C87  1  0.30931000  0.30805000  0.87445000  1.0
  C  C88  1  0.32137000  0.32416000  0.82860000  1.0
  C  C89  1  0.33291000  0.33929000  0.77836000  1.0
  C  C90  1  0.30762000  0.53691000  0.19942000  1.0
  C  C91  1  0.23461000  0.07218000  0.76730000  1.0
  N  N92  1  0.29470000  0.62611000  0.17493000  1.0
  N  N93  1  0.19275000  0.17453000  0.77424000  1.0
  O  O94  1  0.48834000  0.69448000  0.54174000  1.0
  O  O95  1  0.48397000  0.30563000  0.46424000  1.0
  O  O96  1  0.30937000  0.47904000  0.46293000  1.0
  O  O97  1  0.30611000  0.68686000  0.44720000  1.0
  O  O98  1  0.50373000  0.50407000  0.49821000  1.0
  O  O99  1  0.96220000  0.18402000  0.96845000  1.0
  O  O100  1  0.16672000  0.97404000  0.96605000  1.0
  O  O101  1  0.35534000  0.96941000  0.95998000  1.0
  O  O102  1  0.35448000  0.17568000  0.94576000  1.0
  O  O103  1  0.18441000  0.35383000  0.94798000  1.0
  O  O104  1  0.97244000  0.36477000  0.96214000  1.0
  O  O105  1  0.69480000  0.48936000  0.54162000  1.0
  O  O106  1  0.96682000  0.17910000  0.07518000  1.0
  O  O107  1  0.16788000  0.97260000  0.07399000  1.0
  O  O108  1  0.35516000  0.97146000  0.05828000  1.0
  O  O109  1  0.36106000  0.17559000  0.04367000  1.0
  O  O110  1  0.18868000  0.35106000  0.04607000  1.0
  O  O111  1  0.97744000  0.36027000  0.06047000  1.0
  O  O112  1  0.15887000  0.16100000  0.01016000  1.0
  O  O113  1  0.69237000  0.30500000  0.54817000  1.0
  O  O114  1  0.48181000  0.31309000  0.56229000  1.0
  O  O115  1  0.30745000  0.48733000  0.56117000  1.0
  O  O116  1  0.30185000  0.69521000  0.54522000  1.0
  O  O117  1  0.48921000  0.69571000  0.43402000  1.0
  O  O118  1  0.69580000  0.48993000  0.43428000  1.0
  O  O119  1  0.69110000  0.30620000  0.44982000  1.0
  O  O120  1  0.68121000  0.68117000  0.47965000  1.0
  O  O121  1  0.97438000  0.99094000  0.03280000  1.0
