# generated using pymatgen
data_CuH16C14(BrN4)2
_symmetry_space_group_name_H-M   'P 1'
_cell_length_a   7.13782000
_cell_length_b   8.94155000
_cell_length_c   14.08110000
_cell_angle_alpha   89.99990000
_cell_angle_beta   89.99980000
_cell_angle_gamma   103.17300000
_symmetry_Int_Tables_number   1
_chemical_formula_structural   CuH16C14(BrN4)2
_chemical_formula_sum   'Cu2 H32 C28 Br4 N16'
_cell_volume   875.05245814
_cell_formula_units_Z   2
loop_
 _symmetry_equiv_pos_site_id
 _symmetry_equiv_pos_as_xyz
  1  'x, y, z'
loop_
 _atom_site_type_symbol
 _atom_site_label
 _atom_site_symmetry_multiplicity
 _atom_site_fract_x
 _atom_site_fract_y
 _atom_site_fract_z
 _atom_site_occupancy
  Cu  Cu0  1  0.50000000  0.00000000  0.00000000  1.0
  Cu  Cu1  1  0.50000000  0.50000000  0.50000000  1.0
  H  H2  1  0.56224000  0.36660000  0.96069000  1.0
  H  H3  1  0.43776000  0.13340000  0.46069000  1.0
  H  H4  1  0.43777000  0.63340000  0.03931000  1.0
  H  H5  1  0.56224000  0.86660000  0.53931000  1.0
  H  H6  1  0.08577000  0.30869000  0.82409000  1.0
  H  H7  1  0.91423000  0.19131000  0.32408000  1.0
  H  H8  1  0.91423000  0.69131000  0.17591000  1.0
  H  H9  1  0.08577000  0.80869000  0.67591000  1.0
  H  H10  1  0.85142000  0.82489000  0.99925000  1.0
  H  H11  1  0.14858000  0.67511000  0.49925000  1.0
  H  H12  1  0.14858000  0.17511000  0.00075000  1.0
  H  H13  1  0.85142000  0.32489000  0.50075000  1.0
  H  H14  1  0.53680000  0.59133000  0.75674000  1.0
  H  H15  1  0.46320000  0.90867000  0.25674000  1.0
  H  H16  1  0.46320000  0.40868000  0.24326000  1.0
  H  H17  1  0.53680000  0.09132000  0.74326000  1.0
  H  H18  1  0.97807000  0.59396000  0.79537000  1.0
  H  H19  1  0.02195000  0.90605000  0.29537000  1.0
  H  H20  1  0.02193000  0.40604000  0.20463000  1.0
  H  H21  1  0.97806000  0.09395000  0.70463000  1.0
  H  H22  1  0.02800000  0.62910000  0.91586000  1.0
  H  H23  1  0.97200000  0.87090000  0.41585000  1.0
  H  H24  1  0.97199000  0.37090000  0.08414000  1.0
  H  H25  1  0.02801000  0.12910000  0.58414000  1.0
  H  H26  1  0.88845000  0.05945000  0.88886000  1.0
  H  H27  1  0.11155000  0.44055000  0.38886000  1.0
  H  H28  1  0.11155000  0.94055000  0.11114000  1.0
  H  H29  1  0.88845000  0.55945000  0.61114000  1.0
  H  H30  1  0.38745000  0.80389000  0.82648000  1.0
  H  H31  1  0.61255000  0.69611000  0.32648000  1.0
  H  H32  1  0.61255000  0.19612000  0.17352000  1.0
  H  H33  1  0.38745000  0.30389000  0.67352000  1.0
  C  C34  1  0.68243000  0.32604000  0.93170000  1.0
  C  C35  1  0.31757000  0.17396000  0.43170000  1.0
  C  C36  1  0.31756000  0.67396000  0.06830000  1.0
  C  C37  1  0.68243000  0.82604000  0.56830000  1.0
  C  C38  1  0.84838000  0.40902000  0.88525000  1.0
  C  C39  1  0.15163000  0.09098000  0.38525000  1.0
  C  C40  1  0.15162000  0.59098000  0.11475000  1.0
  C  C41  1  0.84837000  0.90902000  0.61475000  1.0
  C  C42  1  0.95103000  0.29896000  0.86185000  1.0
  C  C43  1  0.04898000  0.20104000  0.36184000  1.0
  C  C44  1  0.04897000  0.70104000  0.13815000  1.0
  C  C45  1  0.95102000  0.79896000  0.63815000  1.0
  C  C46  1  0.75446000  0.78329000  0.94095000  1.0
  C  C47  1  0.24554000  0.71671000  0.44095000  1.0
  C  C48  1  0.24554000  0.21671000  0.05905000  1.0
  C  C49  1  0.75447000  0.28329000  0.55905000  1.0
  C  C50  1  0.75824000  0.66674000  0.87444000  1.0
  C  C51  1  0.24177000  0.83326000  0.37444000  1.0
  C  C52  1  0.24176000  0.33326000  0.12556000  1.0
  C  C53  1  0.75823000  0.16674000  0.62556000  1.0
  C  C54  1  0.59684000  0.66153000  0.81729000  1.0
  C  C55  1  0.40317000  0.83848000  0.31729000  1.0
  C  C56  1  0.40316000  0.33848000  0.18271000  1.0
  C  C57  1  0.59684000  0.16152000  0.68272000  1.0
  C  C58  1  0.91164000  0.57812000  0.86633000  1.0
  C  C59  1  0.08836000  0.92188000  0.36633000  1.0
  C  C60  1  0.08836000  0.42188000  0.13367000  1.0
  C  C61  1  0.91164000  0.07812000  0.63367000  1.0
  Br  Br62  1  0.20807000  0.99103000  0.84498000  1.0
  Br  Br63  1  0.79192000  0.50896000  0.34499000  1.0
  Br  Br64  1  0.79192000  0.00897000  0.15502000  1.0
  Br  Br65  1  0.20808000  0.49103000  0.65502000  1.0
  N  N66  1  0.68433000  0.17579000  0.93650000  1.0
  N  N67  1  0.31567000  0.32421000  0.43650000  1.0
  N  N68  1  0.31567000  0.82421000  0.06350000  1.0
  N  N69  1  0.68433000  0.67579000  0.56350000  1.0
  N  N70  1  0.84851000  0.16226000  0.89355000  1.0
  N  N71  1  0.15149000  0.33774000  0.39355000  1.0
  N  N72  1  0.15149000  0.83774000  0.10645000  1.0
  N  N73  1  0.84851000  0.66226000  0.60645000  1.0
  N  N74  1  0.60334000  0.84609000  0.92480000  1.0
  N  N75  1  0.39666000  0.65391000  0.42480000  1.0
  N  N76  1  0.39666000  0.15391000  0.07520000  1.0
  N  N77  1  0.60334000  0.34609000  0.57520000  1.0
  N  N78  1  0.50887000  0.77025000  0.84982000  1.0
  N  N79  1  0.49113000  0.72975000  0.34982000  1.0
  N  N80  1  0.49113000  0.22975000  0.15018000  1.0
  N  N81  1  0.50887000  0.27025000  0.65018000  1.0
