# generated using pymatgen
data_ZnH11C14S(NO2)2
_symmetry_space_group_name_H-M   'P 1'
_cell_length_a   10.91930000
_cell_length_b   10.96820000
_cell_length_c   14.74420000
_cell_angle_alpha   90.62360000
_cell_angle_beta   90.62640000
_cell_angle_gamma   98.94350000
_symmetry_Int_Tables_number   1
_chemical_formula_structural   ZnH11C14S(NO2)2
_chemical_formula_sum   'Zn4 H44 C56 S4 N8 O16'
_cell_volume   1744.12544056
_cell_formula_units_Z   4
loop_
 _symmetry_equiv_pos_site_id
 _symmetry_equiv_pos_as_xyz
  1  'x, y, z'
loop_
 _atom_site_type_symbol
 _atom_site_label
 _atom_site_symmetry_multiplicity
 _atom_site_fract_x
 _atom_site_fract_y
 _atom_site_fract_z
 _atom_site_occupancy
  Zn  Zn0  1  0.45487000  0.12542000  0.50419000  1.0
  Zn  Zn1  1  0.87434000  0.54433000  0.99591000  1.0
  Zn  Zn2  1  0.54513000  0.87458000  0.49581000  1.0
  Zn  Zn3  1  0.12566000  0.45567000  0.00409000  1.0
  H  H4  1  0.89001000  0.97457000  0.68620000  1.0
  H  H5  1  0.02639000  0.11086000  0.81458000  1.0
  H  H6  1  0.10999000  0.02543000  0.31380000  1.0
  H  H7  1  0.97361000  0.88914000  0.18542000  1.0
  H  H8  1  0.47197000  0.31055000  0.66895000  1.0
  H  H9  1  0.68869000  0.52764000  0.83130000  1.0
  H  H10  1  0.52803000  0.68945000  0.33105000  1.0
  H  H11  1  0.31131000  0.47236000  0.16870000  1.0
  H  H12  1  0.13118000  0.00431000  0.68786000  1.0
  H  H13  1  0.99496000  0.86828000  0.81294000  1.0
  H  H14  1  0.86883000  0.99569000  0.31214000  1.0
  H  H15  1  0.00504000  0.13172000  0.18706000  1.0
  H  H16  1  0.29866000  0.59515000  0.42421000  1.0
  H  H17  1  0.40429000  0.70258000  0.07564000  1.0
  H  H18  1  0.70134000  0.40485000  0.57579000  1.0
  H  H19  1  0.59571000  0.29742000  0.92435000  1.0
  H  H20  1  0.30074000  0.64978000  0.53640000  1.0
  H  H21  1  0.34940000  0.70067000  0.96349000  1.0
  H  H22  1  0.69926000  0.35022000  0.46361000  1.0
  H  H23  1  0.65060000  0.29934000  0.03651000  1.0
  H  H24  1  0.37876000  0.53493000  0.66030000  1.0
  H  H25  1  0.46428000  0.62237000  0.83958000  1.0
  H  H26  1  0.62124000  0.46507000  0.33970000  1.0
  H  H27  1  0.53572000  0.37762000  0.16042000  1.0
  H  H28  1  0.39106000  0.32191000  0.33953000  1.0
  H  H29  1  0.67822000  0.60926000  0.16038000  1.0
  H  H30  1  0.60894000  0.67809000  0.66047000  1.0
  H  H31  1  0.32178000  0.39074000  0.83962000  1.0
  H  H32  1  0.26960000  0.41289000  0.35124000  1.0
  H  H33  1  0.58675000  0.73015000  0.14882000  1.0
  H  H34  1  0.73040000  0.58711000  0.64876000  1.0
  H  H35  1  0.41325000  0.26985000  0.85118000  1.0
  H  H36  1  0.24426000  0.25277000  0.37734000  1.0
  H  H37  1  0.74758000  0.75546000  0.12265000  1.0
  H  H38  1  0.75574000  0.74723000  0.62266000  1.0
  H  H39  1  0.25241000  0.24454000  0.87735000  1.0
  H  H40  1  0.13227000  0.37279000  0.58319000  1.0
  H  H41  1  0.62768000  0.86838000  0.91664000  1.0
  H  H42  1  0.86773000  0.62721000  0.41682000  1.0
  H  H43  1  0.37233000  0.13162000  0.08336000  1.0
  H  H44  1  0.09500000  0.68087000  0.41134000  1.0
  H  H45  1  0.31854000  0.90527000  0.08878000  1.0
  H  H46  1  0.90500000  0.31913000  0.58866000  1.0
  H  H47  1  0.68146000  0.09473000  0.91123000  1.0
  C  C48  1  0.76575000  0.11019000  0.69108000  1.0
  C  C49  1  0.89001000  0.23447000  0.80917000  1.0
  C  C50  1  0.23425000  0.88981000  0.30892000  1.0
  C  C51  1  0.10999000  0.76553000  0.19083000  1.0
  C  C52  1  0.35207000  0.36652000  0.47635000  1.0
  C  C53  1  0.63323000  0.64817000  0.02365000  1.0
  C  C54  1  0.64793000  0.63348000  0.52365000  1.0
  C  C55  1  0.36677000  0.35183000  0.97634000  1.0
  C  C56  1  0.34716000  0.91378000  0.62404000  1.0
  C  C57  1  0.08591000  0.65266000  0.87586000  1.0
  C  C58  1  0.65284000  0.08622000  0.37596000  1.0
  C  C59  1  0.91408000  0.34734000  0.12414000  1.0
  C  C60  1  0.25457000  0.86819000  0.69249000  1.0
  C  C61  1  0.13151000  0.74523000  0.80762000  1.0
  C  C62  1  0.74543000  0.13182000  0.30751000  1.0
  C  C63  1  0.86849000  0.25477000  0.19238000  1.0
  C  C64  1  0.86911000  0.05962000  0.71668000  1.0
  C  C65  1  0.94103000  0.13152000  0.78391000  1.0
  C  C66  1  0.13089000  0.94038000  0.28332000  1.0
  C  C67  1  0.05897000  0.86848000  0.21609000  1.0
  C  C68  1  0.13021000  0.53097000  0.49683000  1.0
  C  C69  1  0.46895000  0.87032000  0.00311000  1.0
  C  C70  1  0.86978000  0.46903000  0.50317000  1.0
  C  C71  1  0.53105000  0.12968000  0.99689000  1.0
  C  C72  1  0.42746000  0.35228000  0.61388000  1.0
  C  C73  1  0.64704000  0.57249000  0.88626000  1.0
  C  C74  1  0.57254000  0.64772000  0.38612000  1.0
  C  C75  1  0.35296000  0.42750000  0.11374000  1.0
  C  C76  1  0.15159000  0.91927000  0.71762000  1.0
  C  C77  1  0.08020000  0.84796000  0.78292000  1.0
  C  C78  1  0.84841000  0.08073000  0.28237000  1.0
  C  C79  1  0.91980000  0.15205000  0.21708000  1.0
  C  C80  1  0.26957000  0.56815000  0.49319000  1.0
  C  C81  1  0.43142000  0.73157000  0.00668000  1.0
  C  C82  1  0.73043000  0.43185000  0.50681000  1.0
  C  C83  1  0.56858000  0.26843000  0.99332000  1.0
  C  C84  1  0.38306000  0.46236000  0.61060000  1.0
  C  C85  1  0.53708000  0.61779000  0.88934000  1.0
  C  C86  1  0.61694000  0.53764000  0.38940000  1.0
  C  C87  1  0.46292000  0.38221000  0.11066000  1.0
  C  C88  1  0.31187000  0.33804000  0.38088000  1.0
  C  C89  1  0.66194000  0.68814000  0.11912000  1.0
  C  C90  1  0.68813000  0.66196000  0.61912000  1.0
  C  C91  1  0.33806000  0.31186000  0.88088000  1.0
  C  C92  1  0.67112000  0.06465000  0.62150000  1.0
  C  C93  1  0.93545000  0.32905000  0.87857000  1.0
  C  C94  1  0.32888000  0.93535000  0.37850000  1.0
  C  C95  1  0.06455000  0.67095000  0.12143000  1.0
  C  C96  1  0.07497000  0.42909000  0.54622000  1.0
  C  C97  1  0.57117000  0.92541000  0.95367000  1.0
  C  C98  1  0.92503000  0.57091000  0.45378000  1.0
  C  C99  1  0.42883000  0.07458000  0.04633000  1.0
  C  C100  1  0.05373000  0.60142000  0.45057000  1.0
  C  C101  1  0.39826000  0.94643000  0.04948000  1.0
  C  C102  1  0.94626000  0.39859000  0.54943000  1.0
  C  C103  1  0.60174000  0.05357000  0.95052000  1.0
  S  S104  1  0.75554000  0.24424000  0.74996000  1.0
  S  S105  1  0.24446000  0.75576000  0.25004000  1.0
  S  S106  1  0.26508000  0.73491000  0.74985000  1.0
  S  S107  1  0.73493000  0.26510000  0.25015000  1.0
  N  N108  1  0.40806000  0.29389000  0.53023000  1.0
  N  N109  1  0.70561000  0.59151000  0.96994000  1.0
  N  N110  1  0.59194000  0.70611000  0.46977000  1.0
  N  N111  1  0.29439000  0.40849000  0.03006000  1.0
  N  N112  1  0.33682000  0.47076000  0.52345000  1.0
  N  N113  1  0.52893000  0.66424000  0.97638000  1.0
  N  N114  1  0.66318000  0.52923000  0.47655000  1.0
  N  N115  1  0.47107000  0.33576000  0.02362000  1.0
  O  O116  1  0.34729000  0.02357000  0.59817000  1.0
  O  O117  1  0.97559000  0.65217000  0.90175000  1.0
  O  O118  1  0.65271000  0.97643000  0.40183000  1.0
  O  O119  1  0.02441000  0.34783000  0.09825000  1.0
  O  O120  1  0.59951000  0.14060000  0.59806000  1.0
  O  O121  1  0.85904000  0.40030000  0.90187000  1.0
  O  O122  1  0.40049000  0.85940000  0.40194000  1.0
  O  O123  1  0.14096000  0.59970000  0.09813000  1.0
  O  O124  1  0.67061000  0.95538000  0.59191000  1.0
  O  O125  1  0.04525000  0.32994000  0.90820000  1.0
  O  O126  1  0.32939000  0.04462000  0.40809000  1.0
  O  O127  1  0.95476000  0.67007000  0.09180000  1.0
  O  O128  1  0.41745000  0.83771000  0.59731000  1.0
  O  O129  1  0.16244000  0.58270000  0.90248000  1.0
  O  O130  1  0.58255000  0.16229000  0.40269000  1.0
  O  O131  1  0.83757000  0.41730000  0.09752000  1.0
