# generated using pymatgen
data_ZnH24(C11N2)4
_symmetry_space_group_name_H-M   'P 1'
_cell_length_a   9.03851000
_cell_length_b   19.28890000
_cell_length_c   19.28880000
_cell_angle_alpha   117.60700000
_cell_angle_beta   98.98570000
_cell_angle_gamma   98.99080000
_symmetry_Int_Tables_number   1
_chemical_formula_structural   ZnH24(C11N2)4
_chemical_formula_sum   'Zn3 H72 C132 N24'
_cell_volume   2841.20894287
_cell_formula_units_Z   3
loop_
 _symmetry_equiv_pos_site_id
 _symmetry_equiv_pos_as_xyz
  1  'x, y, z'
loop_
 _atom_site_type_symbol
 _atom_site_label
 _atom_site_symmetry_multiplicity
 _atom_site_fract_x
 _atom_site_fract_y
 _atom_site_fract_z
 _atom_site_occupancy
  Zn  Zn0  1  0.50000000  0.50000000  0.00000000  1.0
  Zn  Zn1  1  0.99999000  0.50000000  0.50000000  1.0
  Zn  Zn2  1  0.50000000  0.00000000  0.50000000  1.0
  H  H3  1  0.94239000  0.50416000  0.84872000  1.0
  H  H4  1  0.43824000  0.34458000  0.49583000  1.0
  H  H5  1  0.09372000  0.15130000  0.65542000  1.0
  H  H6  1  0.05761000  0.49584000  0.15127000  1.0
  H  H7  1  0.56176000  0.65542000  0.50417000  1.0
  H  H8  1  0.90628000  0.84870000  0.34458000  1.0
  H  H9  1  0.76299000  0.35087000  0.76470000  1.0
  H  H10  1  0.41222000  0.41382000  0.64914000  1.0
  H  H11  1  0.99828000  0.23531000  0.58616000  1.0
  H  H12  1  0.23702000  0.64913000  0.23530000  1.0
  H  H13  1  0.58778000  0.58618000  0.35086000  1.0
  H  H14  1  0.00172000  0.76469000  0.41384000  1.0
  H  H15  1  0.25469000  0.18904000  0.78538000  1.0
  H  H16  1  0.06559000  0.59631000  0.81096000  1.0
  H  H17  1  0.46926000  0.21461000  0.40368000  1.0
  H  H18  1  0.74531000  0.81096000  0.21462000  1.0
  H  H19  1  0.93441000  0.40369000  0.18904000  1.0
  H  H20  1  0.53074000  0.78539000  0.59632000  1.0
  H  H21  1  0.06040000  0.22561000  0.88090000  1.0
  H  H22  1  0.83481000  0.65530000  0.77440000  1.0
  H  H23  1  0.17949000  0.11909000  0.34472000  1.0
  H  H24  1  0.93960000  0.77439000  0.11910000  1.0
  H  H25  1  0.16519000  0.34470000  0.22560000  1.0
  H  H26  1  0.82051000  0.88091000  0.65528000  1.0
  H  H27  1  0.33720000  0.27269000  0.68352000  1.0
  H  H28  1  0.06439000  0.41079000  0.72730000  1.0
  H  H29  1  0.65366000  0.31648000  0.58918000  1.0
  H  H30  1  0.66280000  0.72731000  0.31648000  1.0
  H  H31  1  0.93561000  0.58921000  0.27270000  1.0
  H  H32  1  0.34633000  0.68352000  0.41082000  1.0
  H  H33  1  0.32173000  0.14228000  0.55888000  1.0
  H  H34  1  0.17946000  0.41659000  0.85773000  1.0
  H  H35  1  0.76285000  0.44111000  0.58339000  1.0
  H  H36  1  0.67827000  0.85772000  0.44112000  1.0
  H  H37  1  0.82054000  0.58341000  0.14227000  1.0
  H  H38  1  0.23715000  0.55889000  0.41661000  1.0
  H  H39  1  0.64578000  0.08589000  0.68704000  1.0
  H  H40  1  0.55987000  0.60116000  0.91409000  1.0
  H  H41  1  0.95869000  0.31294000  0.39883000  1.0
  H  H42  1  0.35422000  0.91411000  0.31296000  1.0
  H  H43  1  0.44013000  0.39884000  0.08591000  1.0
  H  H44  1  0.04131000  0.68706000  0.60117000  1.0
  H  H45  1  0.67532000  0.21338000  0.81676000  1.0
  H  H46  1  0.46186000  0.60333000  0.78658000  1.0
  H  H47  1  0.85856000  0.18324000  0.39664000  1.0
  H  H48  1  0.32468000  0.78662000  0.18324000  1.0
  H  H49  1  0.53814000  0.39667000  0.21342000  1.0
  H  H50  1  0.14144000  0.81676000  0.60336000  1.0
  H  H51  1  0.88378000  0.73242000  0.95858000  1.0
  H  H52  1  0.15127000  0.22618000  0.26758000  1.0
  H  H53  1  0.92515000  0.04142000  0.77384000  1.0
  H  H54  1  0.11622000  0.26758000  0.04142000  1.0
  H  H55  1  0.84873000  0.77382000  0.73242000  1.0
  H  H56  1  0.07485000  0.95858000  0.22616000  1.0
  H  H57  1  0.12992000  0.80314000  0.95026000  1.0
  H  H58  1  0.32669000  0.14713000  0.19687000  1.0
  H  H59  1  0.17961000  0.04973000  0.85286000  1.0
  H  H60  1  0.87008000  0.19686000  0.04974000  1.0
  H  H61  1  0.67331000  0.85287000  0.80313000  1.0
  H  H62  1  0.82039000  0.95027000  0.14714000  1.0
  H  H63  1  0.36864000  0.65222000  0.00857000  1.0
  H  H64  1  0.71642000  0.35634000  0.34773000  1.0
  H  H65  1  0.36007000  0.99142000  0.64365000  1.0
  H  H66  1  0.63136000  0.34778000  0.99143000  1.0
  H  H67  1  0.28358000  0.64366000  0.65227000  1.0
  H  H68  1  0.63993000  0.00858000  0.35635000  1.0
  H  H69  1  0.12274000  0.57921000  0.01200000  1.0
  H  H70  1  0.54361000  0.43277000  0.42081000  1.0
  H  H71  1  0.11077000  0.98802000  0.56721000  1.0
  H  H72  1  0.87726000  0.42079000  0.98800000  1.0
  H  H73  1  0.45639000  0.56723000  0.57919000  1.0
  H  H74  1  0.88923000  0.01198000  0.43279000  1.0
  C  C75  1  0.78587000  0.52159000  0.93294000  1.0
  C  C76  1  0.26427000  0.41139000  0.47845000  1.0
  C  C77  1  0.85300000  0.06707000  0.58863000  1.0
  C  C78  1  0.21413000  0.47841000  0.06706000  1.0
  C  C79  1  0.73572000  0.58861000  0.52155000  1.0
  C  C80  1  0.14700000  0.93293000  0.41137000  1.0
  C  C81  1  0.84576000  0.47815000  0.86371000  1.0
  C  C82  1  0.36769000  0.38560000  0.52187000  1.0
  C  C83  1  0.98214000  0.13628000  0.61439000  1.0
  C  C84  1  0.15424000  0.52185000  0.13628000  1.0
  C  C85  1  0.63231000  0.61440000  0.47813000  1.0
  C  C86  1  0.01786000  0.86372000  0.38562000  1.0
  C  C87  1  0.75367000  0.40038000  0.82057000  1.0
  C  C88  1  0.35346000  0.42022000  0.59965000  1.0
  C  C89  1  0.93312000  0.17942000  0.57977000  1.0
  C  C90  1  0.24633000  0.59962000  0.17943000  1.0
  C  C91  1  0.64655000  0.57978000  0.40035000  1.0
  C  C92  1  0.06688000  0.82058000  0.42023000  1.0
  C  C93  1  0.63712000  0.39589000  0.86332000  1.0
  C  C94  1  0.24128000  0.46741000  0.60414000  1.0
  C  C95  1  0.77377000  0.13668000  0.53258000  1.0
  C  C96  1  0.36288000  0.60411000  0.13668000  1.0
  C  C97  1  0.75872000  0.53259000  0.39586000  1.0
  C  C98  1  0.22623000  0.86332000  0.46742000  1.0
  C  C99  1  0.51390000  0.32720000  0.83618000  1.0
  C  C100  1  0.18663000  0.50892000  0.67279000  1.0
  C  C101  1  0.67765000  0.16380000  0.49103000  1.0
  C  C102  1  0.48610000  0.67280000  0.16382000  1.0
  C  C103  1  0.81337000  0.49108000  0.32721000  1.0
  C  C104  1  0.32235000  0.83620000  0.50897000  1.0
  C  C105  1  0.39088000  0.31971000  0.87118000  1.0
  C  C106  1  0.07106000  0.55138000  0.68027000  1.0
  C  C107  1  0.51962000  0.12881000  0.44856000  1.0
  C  C108  1  0.60912000  0.68029000  0.12882000  1.0
  C  C109  1  0.92894000  0.44862000  0.31973000  1.0
  C  C110  1  0.48038000  0.87119000  0.55144000  1.0
  C  C111  1  0.26580000  0.24694000  0.83835000  1.0
  C  C112  1  0.01873000  0.59132000  0.75304000  1.0
  C  C113  1  0.42738000  0.16166000  0.40864000  1.0
  C  C114  1  0.73420000  0.75306000  0.16165000  1.0
  C  C115  1  0.98127000  0.40868000  0.24696000  1.0
  C  C116  1  0.57262000  0.83834000  0.59136000  1.0
  C  C117  1  0.16746000  0.26529000  0.88756000  1.0
  C  C118  1  0.90214000  0.62227000  0.73471000  1.0
  C  C119  1  0.27983000  0.11242000  0.37775000  1.0
  C  C120  1  0.83254000  0.73471000  0.11244000  1.0
  C  C121  1  0.09786000  0.37773000  0.26529000  1.0
  C  C122  1  0.72017000  0.88758000  0.62225000  1.0
  C  C123  1  0.23163000  0.34939000  0.95075000  1.0
  C  C124  1  0.88227000  0.60137000  0.65063000  1.0
  C  C125  1  0.28083000  0.04924000  0.39867000  1.0
  C  C126  1  0.76837000  0.65061000  0.04925000  1.0
  C  C127  1  0.11773000  0.39863000  0.34937000  1.0
  C  C128  1  0.71918000  0.95076000  0.60134000  1.0
  C  C129  1  0.84014000  0.60583000  0.98903000  1.0
  C  C130  1  0.23428000  0.38321000  0.39420000  1.0
  C  C131  1  0.85117000  0.01100000  0.61680000  1.0
  C  C132  1  0.15986000  0.39417000  0.01097000  1.0
  C  C133  1  0.76572000  0.61679000  0.60580000  1.0
  C  C134  1  0.14883000  0.98900000  0.38321000  1.0
  C  C135  1  0.50838000  0.25324000  0.75998000  1.0
  C  C136  1  0.25503000  0.50669000  0.74675000  1.0
  C  C137  1  0.74836000  0.24001000  0.49327000  1.0
  C  C138  1  0.49162000  0.74676000  0.24002000  1.0
  C  C139  1  0.74497000  0.49331000  0.25325000  1.0
  C  C140  1  0.25164000  0.75999000  0.50673000  1.0
  C  C141  1  0.40839000  0.23285000  0.68633000  1.0
  C  C142  1  0.17543000  0.45342000  0.76713000  1.0
  C  C143  1  0.72205000  0.31367000  0.54653000  1.0
  C  C144  1  0.59161000  0.76715000  0.31367000  1.0
  C  C145  1  0.82457000  0.54658000  0.23287000  1.0
  C  C146  1  0.27795000  0.68633000  0.45347000  1.0
  C  C147  1  0.39936000  0.16054000  0.61719000  1.0
  C  C148  1  0.23880000  0.45664000  0.83946000  1.0
  C  C149  1  0.78215000  0.38279000  0.54333000  1.0
  C  C150  1  0.60064000  0.83946000  0.38280000  1.0
  C  C151  1  0.76120000  0.54336000  0.16054000  1.0
  C  C152  1  0.21785000  0.61721000  0.45667000  1.0
  C  C153  1  0.58067000  0.12938000  0.68856000  1.0
  C  C154  1  0.45124000  0.55919000  0.87061000  1.0
  C  C155  1  0.89203000  0.31142000  0.44079000  1.0
  C  C156  1  0.41933000  0.87062000  0.31144000  1.0
  C  C157  1  0.54876000  0.44081000  0.12939000  1.0
  C  C158  1  0.10797000  0.68858000  0.55921000  1.0
  C  C159  1  0.59737000  0.20030000  0.76054000  1.0
  C  C160  1  0.39699000  0.56020000  0.79967000  1.0
  C  C161  1  0.83680000  0.23945000  0.43976000  1.0
  C  C162  1  0.40263000  0.79970000  0.23945000  1.0
  C  C163  1  0.60301000  0.43980000  0.20033000  1.0
  C  C164  1  0.16320000  0.76055000  0.56024000  1.0
  C  C165  1  0.98578000  0.65038000  0.98519000  1.0
  C  C166  1  0.33539000  0.33481000  0.34967000  1.0
  C  C167  1  0.00057000  0.01481000  0.66517000  1.0
  C  C168  1  0.01422000  0.34962000  0.01480000  1.0
  C  C169  1  0.66461000  0.66519000  0.65033000  1.0
  C  C170  1  0.99944000  0.98519000  0.33483000  1.0
  C  C171  1  0.99030000  0.71468000  0.96907000  1.0
  C  C172  1  0.27554000  0.25441000  0.28533000  1.0
  C  C173  1  0.02116000  0.03091000  0.74560000  1.0
  C  C174  1  0.00970000  0.28532000  0.03093000  1.0
  C  C175  1  0.72445000  0.74559000  0.71467000  1.0
  C  C176  1  0.97884000  0.96909000  0.25440000  1.0
  C  C177  1  0.12798000  0.75490000  0.96493000  1.0
  C  C178  1  0.37298000  0.21004000  0.24511000  1.0
  C  C179  1  0.16298000  0.03506000  0.78995000  1.0
  C  C180  1  0.87202000  0.24510000  0.03507000  1.0
  C  C181  1  0.62702000  0.78996000  0.75489000  1.0
  C  C182  1  0.83702000  0.96494000  0.21005000  1.0
  C  C183  1  0.26540000  0.73214000  0.97869000  1.0
  C  C184  1  0.53317000  0.24654000  0.26786000  1.0
  C  C185  1  0.28666000  0.02132000  0.75344000  1.0
  C  C186  1  0.73460000  0.26786000  0.02130000  1.0
  C  C187  1  0.46683000  0.75346000  0.73214000  1.0
  C  C188  1  0.71334000  0.97868000  0.24656000  1.0
  C  C189  1  0.26233000  0.66912000  0.99659000  1.0
  C  C190  1  0.59321000  0.32746000  0.33085000  1.0
  C  C191  1  0.26575000  0.00340000  0.67253000  1.0
  C  C192  1  0.73767000  0.33088000  0.00341000  1.0
  C  C193  1  0.40679000  0.67254000  0.66915000  1.0
  C  C194  1  0.73426000  0.99660000  0.32747000  1.0
  C  C195  1  0.12375000  0.62831000  0.99867000  1.0
  C  C196  1  0.49549000  0.37033000  0.37173000  1.0
  C  C197  1  0.12509000  0.00134000  0.62964000  1.0
  C  C198  1  0.87625000  0.37169000  0.00133000  1.0
  C  C199  1  0.50451000  0.62967000  0.62827000  1.0
  C  C200  1  0.87491000  0.99866000  0.37036000  1.0
  C  C201  1  0.40890000  0.76936000  0.97281000  1.0
  C  C202  1  0.63944000  0.20341000  0.23067000  1.0
  C  C203  1  0.43605000  0.02723000  0.79656000  1.0
  C  C204  1  0.59110000  0.23064000  0.02719000  1.0
  C  C205  1  0.36056000  0.79659000  0.76933000  1.0
  C  C206  1  0.56395000  0.97277000  0.20344000  1.0
  N  N207  1  0.66172000  0.46955000  0.93167000  1.0
  N  N208  1  0.19216000  0.46212000  0.53049000  1.0
  N  N209  1  0.73006000  0.06834000  0.53790000  1.0
  N  N210  1  0.33828000  0.53045000  0.06833000  1.0
  N  N211  1  0.80784000  0.53788000  0.46951000  1.0
  N  N212  1  0.26994000  0.93167000  0.46210000  1.0
  N  N213  1  0.36855000  0.37999000  0.93993000  1.0
  N  N214  1  0.98853000  0.55991000  0.62001000  1.0
  N  N215  1  0.42855000  0.06006000  0.44008000  1.0
  N  N216  1  0.63145000  0.62001000  0.06007000  1.0
  N  N217  1  0.01147000  0.44009000  0.37999000  1.0
  N  N218  1  0.57145000  0.93994000  0.55992000  1.0
  N  N219  1  0.48326000  0.10935000  0.61818000  1.0
  N  N220  1  0.37389000  0.50882000  0.89064000  1.0
  N  N221  1  0.86503000  0.38181000  0.49115000  1.0
  N  N222  1  0.51674000  0.89065000  0.38182000  1.0
  N  N223  1  0.62611000  0.49118000  0.10936000  1.0
  N  N224  1  0.13496000  0.61819000  0.50885000  1.0
  N  N225  1  0.52895000  0.79564000  0.96694000  1.0
  N  N226  1  0.73322000  0.17127000  0.20438000  1.0
  N  N227  1  0.56196000  0.03306000  0.82870000  1.0
  N  N228  1  0.47105000  0.20436000  0.03306000  1.0
  N  N229  1  0.26678000  0.82873000  0.79562000  1.0
  N  N230  1  0.43804000  0.96694000  0.17130000  1.0
