# generated using pymatgen
data_ZnH16C17(NO)4
_symmetry_space_group_name_H-M   'P 1'
_cell_length_a   9.01858000
_cell_length_b   10.34060000
_cell_length_c   11.16960000
_cell_angle_alpha   82.81790000
_cell_angle_beta   87.27300000
_cell_angle_gamma   75.91410000
_symmetry_Int_Tables_number   1
_chemical_formula_structural   ZnH16C17(NO)4
_chemical_formula_sum   'Zn2 H32 C34 N8 O8'
_cell_volume   1002.24249226
_cell_formula_units_Z   2
loop_
 _symmetry_equiv_pos_site_id
 _symmetry_equiv_pos_as_xyz
  1  'x, y, z'
loop_
 _atom_site_type_symbol
 _atom_site_label
 _atom_site_symmetry_multiplicity
 _atom_site_fract_x
 _atom_site_fract_y
 _atom_site_fract_z
 _atom_site_occupancy
  Zn  Zn0  1  0.12440000  0.39568000  0.18884000  1.0
  Zn  Zn1  1  0.87560000  0.60432000  0.81116000  1.0
  H  H2  1  0.75176000  0.19384000  0.10951000  1.0
  H  H3  1  0.24823000  0.80616000  0.89050000  1.0
  H  H4  1  0.17049000  0.90177000  0.19962000  1.0
  H  H5  1  0.82951000  0.09824000  0.80038000  1.0
  H  H6  1  0.77823000  0.77244000  0.10356000  1.0
  H  H7  1  0.22178000  0.22756000  0.89644000  1.0
  H  H8  1  0.62829000  0.00952000  0.07561000  1.0
  H  H9  1  0.37171000  0.99048000  0.92439000  1.0
  H  H10  1  0.19864000  0.57060000  0.94648000  1.0
  H  H11  1  0.80136000  0.42940000  0.05352000  1.0
  H  H12  1  0.43694000  0.19104000  0.11018000  1.0
  H  H13  1  0.56306000  0.80896000  0.88982000  1.0
  H  H14  1  0.60001000  0.26663000  0.90115000  1.0
  H  H15  1  0.39999000  0.73336000  0.09885000  1.0
  H  H16  1  0.57020000  0.51156000  0.78365000  1.0
  H  H17  1  0.42980000  0.48843000  0.21635000  1.0
  H  H18  1  0.38206000  0.61923000  0.78221000  1.0
  H  H19  1  0.61794000  0.38077000  0.21779000  1.0
  H  H20  1  0.47074000  0.34892000  0.67763000  1.0
  H  H21  1  0.52926000  0.65108000  0.32237000  1.0
  H  H22  1  0.46847000  0.50478000  0.59156000  1.0
  H  H23  1  0.53153000  0.49522000  0.40844000  1.0
  H  H24  1  0.18534000  0.44125000  0.72986000  1.0
  H  H25  1  0.81466000  0.55875000  0.27014000  1.0
  H  H26  1  0.18945000  0.58587000  0.62867000  1.0
  H  H27  1  0.81055000  0.41413000  0.37133000  1.0
  H  H28  1  0.19706000  0.56418000  0.39739000  1.0
  H  H29  1  0.80294000  0.43582000  0.60261000  1.0
  H  H30  1  0.21741000  0.21359000  0.64439000  1.0
  H  H31  1  0.78259000  0.78641000  0.35561000  1.0
  H  H32  1  0.17598000  0.16019000  0.40977000  1.0
  H  H33  1  0.82402000  0.83981000  0.59023000  1.0
  C  C34  1  0.81528000  0.08926000  0.12313000  1.0
  C  C35  1  0.18472000  0.91075000  0.87687000  1.0
  C  C36  1  0.96861000  0.05899000  0.15759000  1.0
  C  C37  1  0.03139000  0.94101000  0.84241000  1.0
  C  C38  1  0.05130000  0.92507000  0.17328000  1.0
  C  C39  1  0.94870000  0.07493000  0.82673000  1.0
  C  C40  1  0.98299000  0.82160000  0.15509000  1.0
  C  C41  1  0.01701000  0.17841000  0.84492000  1.0
  C  C42  1  0.82996000  0.85304000  0.12013000  1.0
  C  C43  1  0.17004000  0.14696000  0.87987000  1.0
  C  C44  1  0.74660000  0.98641000  0.10435000  1.0
  C  C45  1  0.25339000  0.01359000  0.89565000  1.0
  C  C46  1  0.07474000  0.67885000  0.17413000  1.0
  C  C47  1  0.92526000  0.32115000  0.82588000  1.0
  C  C48  1  0.04867000  0.16582000  0.17637000  1.0
  C  C49  1  0.95133000  0.83418000  0.82363000  1.0
  C  C50  1  0.28557000  0.47758000  0.96577000  1.0
  C  C51  1  0.71443000  0.52242000  0.03423000  1.0
  C  C52  1  0.41424000  0.28054000  0.04558000  1.0
  C  C53  1  0.58576000  0.71946000  0.95442000  1.0
  C  C54  1  0.49295000  0.31456000  0.94288000  1.0
  C  C55  1  0.50705000  0.68544000  0.05712000  1.0
  C  C56  1  0.44796000  0.51492000  0.78171000  1.0
  C  C57  1  0.55204000  0.48507000  0.21829000  1.0
  C  C58  1  0.41488000  0.45673000  0.66964000  1.0
  C  C59  1  0.58512000  0.54327000  0.33036000  1.0
  C  C60  1  0.24389000  0.47859000  0.64919000  1.0
  C  C61  1  0.75611000  0.52141000  0.35081000  1.0
  C  C62  1  0.19599000  0.46162000  0.43253000  1.0
  C  C63  1  0.80401000  0.53838000  0.56747000  1.0
  C  C64  1  0.20745000  0.27642000  0.55848000  1.0
  C  C65  1  0.79255000  0.72358000  0.44152000  1.0
  C  C66  1  0.18532000  0.25159000  0.44357000  1.0
  C  C67  1  0.81468000  0.74841000  0.55643000  1.0
  N  N68  1  0.28575000  0.38313000  0.05877000  1.0
  N  N69  1  0.71425000  0.61687000  0.94123000  1.0
  N  N70  1  0.40943000  0.43934000  0.89361000  1.0
  N  N71  1  0.59057000  0.56066000  0.10639000  1.0
  N  N72  1  0.21361000  0.40965000  0.54985000  1.0
  N  N73  1  0.78639000  0.59035000  0.45015000  1.0
  N  N74  1  0.17834000  0.36797000  0.36576000  1.0
  N  N75  1  0.82166000  0.63203000  0.63424000  1.0
  O  O76  1  0.00329000  0.58767000  0.15816000  1.0
  O  O77  1  0.99671000  0.41234000  0.84184000  1.0
  O  O78  1  0.21170000  0.65434000  0.20543000  1.0
  O  O79  1  0.78830000  0.34566000  0.79457000  1.0
  O  O80  1  0.96808000  0.28973000  0.16615000  1.0
  O  O81  1  0.03192000  0.71027000  0.83385000  1.0
  O  O82  1  0.18799000  0.13433000  0.20158000  1.0
  O  O83  1  0.81201000  0.86567000  0.79841000  1.0
