# generated using pymatgen
data_Mg3H14C12(SO7)2
_symmetry_space_group_name_H-M   'P 1'
_cell_length_a   6.42558000
_cell_length_b   7.93184000
_cell_length_c   19.31100000
_cell_angle_alpha   89.99920000
_cell_angle_beta   90.00000000
_cell_angle_gamma   96.95660000
_symmetry_Int_Tables_number   1
_chemical_formula_structural   Mg3H14C12(SO7)2
_chemical_formula_sum   'Mg6 H28 C24 S4 O28'
_cell_volume   976.97178011
_cell_formula_units_Z   2
loop_
 _symmetry_equiv_pos_site_id
 _symmetry_equiv_pos_as_xyz
  1  'x, y, z'
loop_
 _atom_site_type_symbol
 _atom_site_label
 _atom_site_symmetry_multiplicity
 _atom_site_fract_x
 _atom_site_fract_y
 _atom_site_fract_z
 _atom_site_occupancy
  Mg  Mg0  1  0.99999000  0.00000000  0.50000000  1.0
  Mg  Mg1  1  0.00000000  0.50000000  0.00000000  1.0
  Mg  Mg2  1  0.47291000  0.81020000  0.48279000  1.0
  Mg  Mg3  1  0.52709000  0.68980000  0.98279000  1.0
  Mg  Mg4  1  0.52708000  0.18979000  0.51721000  1.0
  Mg  Mg5  1  0.47292000  0.31021000  0.01721000  1.0
  H  H6  1  0.70691000  0.04605000  0.42204000  1.0
  H  H7  1  0.29310000  0.45395000  0.92204000  1.0
  H  H8  1  0.29308000  0.95393000  0.57796000  1.0
  H  H9  1  0.70691000  0.54606000  0.07796000  1.0
  H  H10  1  0.80342000  0.73376000  0.40994000  1.0
  H  H11  1  0.19657000  0.76625000  0.90995000  1.0
  H  H12  1  0.19656000  0.26623000  0.59005000  1.0
  H  H13  1  0.80343000  0.23375000  0.09005000  1.0
  H  H14  1  0.59399000  0.63400000  0.37903000  1.0
  H  H15  1  0.40600000  0.86602000  0.87903000  1.0
  H  H16  1  0.40599000  0.36599000  0.62098000  1.0
  H  H17  1  0.59400000  0.13397000  0.12097000  1.0
  H  H18  1  0.27277000  0.51420000  0.52596000  1.0
  H  H19  1  0.72723000  0.98579000  0.02596000  1.0
  H  H20  1  0.72721000  0.48578000  0.47404000  1.0
  H  H21  1  0.27278000  0.01422000  0.97405000  1.0
  H  H22  1  0.11440000  0.64993000  0.51542000  1.0
  H  H23  1  0.88560000  0.85007000  0.01542000  1.0
  H  H24  1  0.88559000  0.35007000  0.48458000  1.0
  H  H25  1  0.11441000  0.14994000  0.98458000  1.0
  H  H26  1  0.17219000  0.64171000  0.64630000  1.0
  H  H27  1  0.82784000  0.85832000  0.14630000  1.0
  H  H28  1  0.82781000  0.35828000  0.35370000  1.0
  H  H29  1  0.17219000  0.14172000  0.85370000  1.0
  H  H30  1  0.19387000  0.59766000  0.78233000  1.0
  H  H31  1  0.80615000  0.90237000  0.28233000  1.0
  H  H32  1  0.80613000  0.40233000  0.21767000  1.0
  H  H33  1  0.19386000  0.09765000  0.71766000  1.0
  C  C34  1  0.82334000  0.64072000  0.86278000  1.0
  C  C35  1  0.17664000  0.85928000  0.36278000  1.0
  C  C36  1  0.17666000  0.35926000  0.13722000  1.0
  C  C37  1  0.82335000  0.14072000  0.63722000  1.0
  C  C38  1  0.86801000  0.64592000  0.78777000  1.0
  C  C39  1  0.13201000  0.85409000  0.28777000  1.0
  C  C40  1  0.13197000  0.35407000  0.21223000  1.0
  C  C41  1  0.86802000  0.14592000  0.71223000  1.0
  C  C42  1  0.84492000  0.68049000  0.66100000  1.0
  C  C43  1  0.15509000  0.81951000  0.16100000  1.0
  C  C44  1  0.15507000  0.31951000  0.33901000  1.0
  C  C45  1  0.84492000  0.18051000  0.83900000  1.0
  C  C46  1  0.77886000  0.72609000  0.59082000  1.0
  C  C47  1  0.22116000  0.77390000  0.09082000  1.0
  C  C48  1  0.22113000  0.27390000  0.40918000  1.0
  C  C49  1  0.77886000  0.22610000  0.90918000  1.0
  C  C50  1  0.04257000  0.64752000  0.68221000  1.0
  C  C51  1  0.95743000  0.85248000  0.18221000  1.0
  C  C52  1  0.95742000  0.35243000  0.31779000  1.0
  C  C53  1  0.04259000  0.14756000  0.81779000  1.0
  C  C54  1  0.05497000  0.62608000  0.75449000  1.0
  C  C55  1  0.94504000  0.87395000  0.25449000  1.0
  C  C56  1  0.94504000  0.37394000  0.24551000  1.0
  C  C57  1  0.05497000  0.12604000  0.74551000  1.0
  S  S58  1  0.67602000  0.68507000  0.72992000  1.0
  S  S59  1  0.32398000  0.81492000  0.22992000  1.0
  S  S60  1  0.32397000  0.31492000  0.27008000  1.0
  S  S61  1  0.67603000  0.18508000  0.77008000  1.0
  O  O62  1  0.92445000  0.76304000  0.54608000  1.0
  O  O63  1  0.07556000  0.73696000  0.04609000  1.0
  O  O64  1  0.07554000  0.23696000  0.45392000  1.0
  O  O65  1  0.92447000  0.26306000  0.95391000  1.0
  O  O66  1  0.69705000  0.01723000  0.47098000  1.0
  O  O67  1  0.30295000  0.48278000  0.97098000  1.0
  O  O68  1  0.30294000  0.98276000  0.52902000  1.0
  O  O69  1  0.69706000  0.51724000  0.02902000  1.0
  O  O70  1  0.58610000  0.73417000  0.57922000  1.0
  O  O71  1  0.41392000  0.76584000  0.07922000  1.0
  O  O72  1  0.41389000  0.26583000  0.42078000  1.0
  O  O73  1  0.58611000  0.23418000  0.92078000  1.0
  O  O74  1  0.67170000  0.65777000  0.42200000  1.0
  O  O75  1  0.32830000  0.84224000  0.92200000  1.0
  O  O76  1  0.32829000  0.34222000  0.57801000  1.0
  O  O77  1  0.67170000  0.15776000  0.07800000  1.0
  O  O78  1  0.24042000  0.60731000  0.49514000  1.0
  O  O79  1  0.75959000  0.89269000  0.99514000  1.0
  O  O80  1  0.75957000  0.39269000  0.50486000  1.0
  O  O81  1  0.24042000  0.10732000  0.00486000  1.0
  O  O82  1  0.63706000  0.65216000  0.88207000  1.0
  O  O83  1  0.36291000  0.84784000  0.38207000  1.0
  O  O84  1  0.36294000  0.34784000  0.11794000  1.0
  O  O85  1  0.63707000  0.15216000  0.61793000  1.0
  O  O86  1  0.97751000  0.62464000  0.90364000  1.0
  O  O87  1  0.02250000  0.87540000  0.40364000  1.0
  O  O88  1  0.02249000  0.37537000  0.09636000  1.0
  O  O89  1  0.97750000  0.12460000  0.59636000  1.0
