# generated using pymatgen
data_ZnH15C23(NO3)2
_symmetry_space_group_name_H-M   'P 1'
_cell_length_a   14.68540000
_cell_length_b   16.30130000
_cell_length_c   24.87590000
_cell_angle_alpha   90.00000000
_cell_angle_beta   90.00000000
_cell_angle_gamma   113.23200000
_symmetry_Int_Tables_number   1
_chemical_formula_structural   ZnH15C23(NO3)2
_chemical_formula_sum   'Zn8 H120 C184 N16 O48'
_cell_volume   5472.20359681
_cell_formula_units_Z   8
loop_
 _symmetry_equiv_pos_site_id
 _symmetry_equiv_pos_as_xyz
  1  'x, y, z'
loop_
 _atom_site_type_symbol
 _atom_site_label
 _atom_site_symmetry_multiplicity
 _atom_site_fract_x
 _atom_site_fract_y
 _atom_site_fract_z
 _atom_site_occupancy
  Zn  Zn0  1  0.91400000  0.63562000  0.96772000  1.0
  Zn  Zn1  1  0.58600000  0.86438000  0.46772000  1.0
  Zn  Zn2  1  0.08600000  0.36438000  0.03228000  1.0
  Zn  Zn3  1  0.41400000  0.13562000  0.53228000  1.0
  Zn  Zn4  1  0.07151000  0.85562000  0.97490000  1.0
  Zn  Zn5  1  0.42849000  0.64438000  0.47490000  1.0
  Zn  Zn6  1  0.92849000  0.14438000  0.02510000  1.0
  Zn  Zn7  1  0.57151000  0.35562000  0.52510000  1.0
  H  H8  1  0.72131000  0.19366000  0.96166000  1.0
  H  H9  1  0.77869000  0.30633000  0.46166000  1.0
  H  H10  1  0.27869000  0.80633000  0.03834000  1.0
  H  H11  1  0.22131000  0.69366000  0.53834000  1.0
  H  H12  1  0.28576000  0.30021000  0.96988000  1.0
  H  H13  1  0.21424000  0.19979000  0.46988000  1.0
  H  H14  1  0.71424000  0.69979000  0.03012000  1.0
  H  H15  1  0.78576000  0.80021000  0.53012000  1.0
  H  H16  1  0.69482000  0.51626000  0.95530000  1.0
  H  H17  1  0.80518000  0.98374000  0.45530000  1.0
  H  H18  1  0.30518000  0.48374000  0.04470000  1.0
  H  H19  1  0.19482000  0.01626000  0.54470000  1.0
  H  H20  1  0.59397000  0.35253000  0.95383000  1.0
  H  H21  1  0.90603000  0.14747000  0.45383000  1.0
  H  H22  1  0.40603000  0.64747000  0.04617000  1.0
  H  H23  1  0.09397000  0.85253000  0.54617000  1.0
  H  H24  1  0.95803000  0.47814000  0.95266000  1.0
  H  H25  1  0.54197000  0.02186000  0.45266000  1.0
  H  H26  1  0.04197000  0.52186000  0.04734000  1.0
  H  H27  1  0.45803000  0.97814000  0.54734000  1.0
  H  H28  1  0.86944000  0.31426000  0.95339000  1.0
  H  H29  1  0.63056000  0.18574000  0.45340000  1.0
  H  H30  1  0.13056000  0.68574000  0.04660000  1.0
  H  H31  1  0.36944000  0.81426000  0.54661000  1.0
  H  H32  1  0.62562000  0.12931000  0.04737000  1.0
  H  H33  1  0.87438000  0.37069000  0.54737000  1.0
  H  H34  1  0.37438000  0.87069000  0.95263000  1.0
  H  H35  1  0.12562000  0.62931000  0.45263000  1.0
  H  H36  1  0.44284000  0.02070000  0.90877000  1.0
  H  H37  1  0.05716000  0.47930000  0.40877000  1.0
  H  H38  1  0.55716000  0.97930000  0.09123000  1.0
  H  H39  1  0.94284000  0.52070000  0.59123000  1.0
  H  H40  1  0.38253000  0.41412000  0.92852000  1.0
  H  H41  1  0.11747000  0.08588000  0.42852000  1.0
  H  H42  1  0.61747000  0.58588000  0.07148000  1.0
  H  H43  1  0.88253000  0.91412000  0.57148000  1.0
  H  H44  1  0.53867000  0.42022000  0.07605000  1.0
  H  H45  1  0.96133000  0.07978000  0.57605000  1.0
  H  H46  1  0.46133000  0.57978000  0.92395000  1.0
  H  H47  1  0.03867000  0.92022000  0.42395000  1.0
  H  H48  1  0.38131000  0.12989000  0.01572000  1.0
  H  H49  1  0.11869000  0.37011000  0.51572000  1.0
  H  H50  1  0.61869000  0.87011000  0.98428000  1.0
  H  H51  1  0.88131000  0.62989000  0.48428000  1.0
  H  H52  1  0.14310000  0.18489000  0.94382000  1.0
  H  H53  1  0.35690000  0.31511000  0.44382000  1.0
  H  H54  1  0.85690000  0.81512000  0.05618000  1.0
  H  H55  1  0.64310000  0.68489000  0.55618000  1.0
  H  H56  1  0.04726000  0.02152000  0.93723000  1.0
  H  H57  1  0.45274000  0.47848000  0.43723000  1.0
  H  H58  1  0.95274000  0.97848000  0.06277000  1.0
  H  H59  1  0.54726000  0.52152000  0.56277000  1.0
  H  H60  1  0.27532000  0.96837000  0.00557000  1.0
  H  H61  1  0.22468000  0.53163000  0.50557000  1.0
  H  H62  1  0.72468000  0.03163000  0.99443000  1.0
  H  H63  1  0.77532000  0.46837000  0.49443000  1.0
  H  H64  1  0.89068000  0.95066000  0.88784000  1.0
  H  H65  1  0.60932000  0.54934000  0.38784000  1.0
  H  H66  1  0.10932000  0.04934000  0.11216000  1.0
  H  H67  1  0.39068000  0.45066000  0.61216000  1.0
  H  H68  1  0.69616000  0.67290000  0.88369000  1.0
  H  H69  1  0.80384000  0.82710000  0.38369000  1.0
  H  H70  1  0.30383000  0.32710000  0.11631000  1.0
  H  H71  1  0.19616000  0.17290000  0.61631000  1.0
  H  H72  1  0.76712000  0.98833000  0.83483000  1.0
  H  H73  1  0.73287000  0.51167000  0.33483000  1.0
  H  H74  1  0.23288000  0.01167000  0.16518000  1.0
  H  H75  1  0.26713000  0.48833000  0.66517000  1.0
  H  H76  1  0.57099000  0.71093000  0.83175000  1.0
  H  H77  1  0.92901000  0.78907000  0.33175000  1.0
  H  H78  1  0.42901000  0.28907000  0.16825000  1.0
  H  H79  1  0.07099000  0.21093000  0.66825000  1.0
  H  H80  1  0.47507000  0.89169000  0.73164000  1.0
  H  H81  1  0.02493000  0.60831000  0.23164000  1.0
  H  H82  1  0.52493000  0.10831000  0.26836000  1.0
  H  H83  1  0.97507000  0.39169000  0.76836000  1.0
  H  H84  1  0.74032000  0.84014000  0.74481000  1.0
  H  H85  1  0.75968000  0.65986000  0.24481000  1.0
  H  H86  1  0.25968000  0.15986000  0.25519000  1.0
  H  H87  1  0.24032000  0.34014000  0.75519000  1.0
  H  H88  1  0.48368000  0.88309000  0.63151000  1.0
  H  H89  1  0.01632000  0.61691000  0.13151000  1.0
  H  H90  1  0.51632000  0.11691000  0.36849000  1.0
  H  H91  1  0.98368000  0.38309000  0.86849000  1.0
  H  H92  1  0.74865000  0.83310000  0.64511000  1.0
  H  H93  1  0.75135000  0.66690000  0.14511000  1.0
  H  H94  1  0.25135000  0.16690000  0.35489000  1.0
  H  H95  1  0.24865000  0.33310000  0.85489000  1.0
  H  H96  1  0.12739000  0.55090000  0.90563000  1.0
  H  H97  1  0.37261000  0.94910000  0.40563000  1.0
  H  H98  1  0.87261000  0.44910000  0.09437000  1.0
  H  H99  1  0.62739000  0.05090000  0.59437000  1.0
  H  H100  1  0.28647000  0.83115000  0.87553000  1.0
  H  H101  1  0.21353000  0.66885000  0.37553000  1.0
  H  H102  1  0.71354000  0.16885000  0.12447000  1.0
  H  H103  1  0.78646000  0.33115000  0.62447000  1.0
  H  H104  1  0.25487000  0.51780000  0.85336000  1.0
  H  H105  1  0.24513000  0.98220000  0.35335000  1.0
  H  H106  1  0.74513000  0.48220000  0.14665000  1.0
  H  H107  1  0.75487000  0.01780000  0.64664000  1.0
  H  H108  1  0.41675000  0.79824000  0.82483000  1.0
  H  H109  1  0.08326000  0.70176000  0.32483000  1.0
  H  H110  1  0.58325000  0.20176000  0.17517000  1.0
  H  H111  1  0.91675000  0.29824000  0.67517000  1.0
  H  H112  1  0.26424000  0.66071000  0.74861000  1.0
  H  H113  1  0.23576000  0.83929000  0.24861000  1.0
  H  H114  1  0.73576000  0.33929000  0.25139000  1.0
  H  H115  1  0.76424000  0.16071000  0.75139000  1.0
  H  H116  1  0.53858000  0.62339000  0.74074000  1.0
  H  H117  1  0.96142000  0.87661000  0.24074000  1.0
  H  H118  1  0.46142000  0.37661000  0.25926000  1.0
  H  H119  1  0.03858000  0.12339000  0.75926000  1.0
  H  H120  1  0.26171000  0.66926000  0.64865000  1.0
  H  H121  1  0.23829000  0.83074000  0.14865000  1.0
  H  H122  1  0.73829000  0.33074000  0.35135000  1.0
  H  H123  1  0.76171000  0.16926000  0.85135000  1.0
  H  H124  1  0.53600000  0.63408000  0.64049000  1.0
  H  H125  1  0.96400000  0.86592000  0.14049000  1.0
  H  H126  1  0.46400000  0.36592000  0.35951000  1.0
  H  H127  1  0.03600000  0.13408000  0.85951000  1.0
  C  C128  1  0.73042000  0.46896000  0.95381000  1.0
  C  C129  1  0.76958000  0.03104000  0.45381000  1.0
  C  C130  1  0.26958000  0.53104000  0.04619000  1.0
  C  C131  1  0.23042000  0.96896000  0.54619000  1.0
  C  C132  1  0.67417000  0.37785000  0.95319000  1.0
  C  C133  1  0.82583000  0.12215000  0.45319000  1.0
  C  C134  1  0.32583000  0.62215000  0.04681000  1.0
  C  C135  1  0.17417000  0.87785000  0.54681000  1.0
  C  C136  1  0.87731000  0.44791000  0.95293000  1.0
  C  C137  1  0.62269000  0.05208000  0.45293000  1.0
  C  C138  1  0.12269000  0.55209000  0.04707000  1.0
  C  C139  1  0.37731000  0.94791000  0.54707000  1.0
  C  C140  1  0.82738000  0.35625000  0.95299000  1.0
  C  C141  1  0.67262000  0.14375000  0.45299000  1.0
  C  C142  1  0.17262000  0.64375000  0.04701000  1.0
  C  C143  1  0.32738000  0.85625000  0.54701000  1.0
  C  C144  1  0.72296000  0.31886000  0.95371000  1.0
  C  C145  1  0.77704000  0.18114000  0.45371000  1.0
  C  C146  1  0.27704000  0.68114000  0.04629000  1.0
  C  C147  1  0.22296000  0.81886000  0.54629000  1.0
  C  C148  1  0.57497000  0.17543000  0.95008000  1.0
  C  C149  1  0.92502000  0.32457000  0.45008000  1.0
  C  C150  1  0.42503000  0.82457000  0.04992000  1.0
  C  C151  1  0.07498000  0.67543000  0.54992000  1.0
  C  C152  1  0.53973000  0.08409000  0.97484000  1.0
  C  C153  1  0.96027000  0.41591000  0.47484000  1.0
  C  C154  1  0.46027000  0.91591000  0.02516000  1.0
  C  C155  1  0.03973000  0.58409000  0.52516000  1.0
  C  C156  1  0.57118000  0.07225000  0.02652000  1.0
  C  C157  1  0.92882000  0.42775000  0.52652000  1.0
  C  C158  1  0.42882000  0.92775000  0.97348000  1.0
  C  C159  1  0.07118000  0.57225000  0.47348000  1.0
  C  C160  1  0.46794000  0.01107000  0.94861000  1.0
  C  C161  1  0.03206000  0.48893000  0.44861000  1.0
  C  C162  1  0.53206000  0.98893000  0.05139000  1.0
  C  C163  1  0.96794000  0.51107000  0.55139000  1.0
  C  C164  1  0.43381000  0.45131000  0.95994000  1.0
  C  C165  1  0.06619000  0.04869000  0.45994000  1.0
  C  C166  1  0.56619000  0.54869000  0.04006000  1.0
  C  C167  1  0.93381000  0.95131000  0.54006000  1.0
  C  C168  1  0.52191000  0.45608000  0.04310000  1.0
  C  C169  1  0.97809000  0.04392000  0.54310000  1.0
  C  C170  1  0.47809000  0.54392000  0.95690000  1.0
  C  C171  1  0.02191000  0.95608000  0.45690000  1.0
  C  C172  1  0.45512000  0.40666000  0.00330000  1.0
  C  C173  1  0.04488000  0.09334000  0.50330000  1.0
  C  C174  1  0.54488000  0.59334000  0.99670000  1.0
  C  C175  1  0.95512000  0.90666000  0.49670000  1.0
  C  C176  1  0.41397000  0.30711000  0.00838000  1.0
  C  C177  1  0.08603000  0.19289000  0.50838000  1.0
  C  C178  1  0.58603000  0.69289000  0.99162000  1.0
  C  C179  1  0.91397000  0.80711000  0.49162000  1.0
  C  C180  1  0.27194000  0.17141000  0.97973000  1.0
  C  C181  1  0.22806000  0.32859000  0.47973000  1.0
  C  C182  1  0.72806000  0.82859000  0.02027000  1.0
  C  C183  1  0.77194000  0.67141000  0.52027000  1.0
  C  C184  1  0.30875000  0.10852000  0.99740000  1.0
  C  C185  1  0.19125000  0.39148000  0.49740000  1.0
  C  C186  1  0.69125000  0.89148000  0.00260000  1.0
  C  C187  1  0.80875000  0.60852000  0.50260000  1.0
  C  C188  1  0.17637000  0.13927000  0.95693000  1.0
  C  C189  1  0.32363000  0.36073000  0.45693000  1.0
  C  C190  1  0.82363000  0.86073000  0.04307000  1.0
  C  C191  1  0.67637000  0.63927000  0.54307000  1.0
  C  C192  1  0.12235000  0.04827000  0.95332000  1.0
  C  C193  1  0.37765000  0.45173000  0.45332000  1.0
  C  C194  1  0.87765000  0.95173000  0.04668000  1.0
  C  C195  1  0.62235000  0.54827000  0.54668000  1.0
  C  C196  1  0.24983000  0.01881000  0.99163000  1.0
  C  C197  1  0.25017000  0.48119000  0.49163000  1.0
  C  C198  1  0.75017000  0.98119000  0.00837000  1.0
  C  C199  1  0.74983000  0.51881000  0.50837000  1.0
  C  C200  1  0.87518000  0.78590000  0.91840000  1.0
  C  C201  1  0.62482000  0.71410000  0.41840000  1.0
  C  C202  1  0.12482000  0.21410000  0.08160000  1.0
  C  C203  1  0.37518000  0.28590000  0.58160000  1.0
  C  C204  1  0.80106000  0.80926000  0.88824000  1.0
  C  C205  1  0.69894000  0.69074000  0.38824000  1.0
  C  C206  1  0.19894000  0.19074000  0.11176000  1.0
  C  C207  1  0.30106000  0.30926000  0.61176000  1.0
  C  C208  1  0.82077000  0.89844000  0.87542000  1.0
  C  C209  1  0.67923000  0.60156000  0.37542000  1.0
  C  C210  1  0.17923000  0.10156000  0.12458000  1.0
  C  C211  1  0.32077000  0.39844000  0.62458000  1.0
  C  C212  1  0.71080000  0.74169000  0.87287000  1.0
  C  C213  1  0.78920000  0.75831000  0.37287000  1.0
  C  C214  1  0.28920000  0.25831000  0.12713000  1.0
  C  C215  1  0.21080000  0.24169000  0.62713000  1.0
  C  C216  1  0.75229000  0.91976000  0.84623000  1.0
  C  C217  1  0.74771000  0.58024000  0.34622000  1.0
  C  C218  1  0.24771000  0.08024000  0.15378000  1.0
  C  C219  1  0.25229000  0.41976000  0.65377000  1.0
  C  C220  1  0.64157000  0.76232000  0.84402000  1.0
  C  C221  1  0.85843000  0.73768000  0.34402000  1.0
  C  C222  1  0.35843000  0.23768000  0.15598000  1.0
  C  C223  1  0.14157000  0.26232000  0.65598000  1.0
  C  C224  1  0.66424000  0.85111000  0.83025000  1.0
  C  C225  1  0.83576000  0.64889000  0.33025000  1.0
  C  C226  1  0.33576000  0.14889000  0.16975000  1.0
  C  C227  1  0.16424000  0.35111000  0.66975000  1.0
  C  C228  1  0.60720000  0.86691000  0.74390000  1.0
  C  C229  1  0.89280000  0.63309000  0.24390000  1.0
  C  C230  1  0.39280000  0.13310000  0.25610000  1.0
  C  C231  1  0.10720000  0.36691000  0.75610000  1.0
  C  C232  1  0.53485000  0.87927000  0.71215000  1.0
  C  C233  1  0.96515000  0.62073000  0.21215000  1.0
  C  C234  1  0.46515000  0.12073000  0.28785000  1.0
  C  C235  1  0.03485000  0.37927000  0.78785000  1.0
  C  C236  1  0.68459000  0.85013000  0.71997000  1.0
  C  C237  1  0.81541000  0.64987000  0.21997000  1.0
  C  C238  1  0.31541000  0.14987000  0.28003000  1.0
  C  C239  1  0.18459000  0.35013000  0.78003000  1.0
  C  C240  1  0.54002000  0.87454000  0.65661000  1.0
  C  C241  1  0.95998000  0.62546000  0.15661000  1.0
  C  C242  1  0.45998000  0.12546000  0.34339000  1.0
  C  C243  1  0.04002000  0.37454000  0.84339000  1.0
  C  C244  1  0.68889000  0.84609000  0.66422000  1.0
  C  C245  1  0.81111000  0.65391000  0.16422000  1.0
  C  C246  1  0.31111000  0.15391000  0.33578000  1.0
  C  C247  1  0.18889000  0.34609000  0.83578000  1.0
  C  C248  1  0.61730000  0.85836000  0.63179000  1.0
  C  C249  1  0.88270000  0.64164000  0.13179000  1.0
  C  C250  1  0.38271000  0.14164000  0.36821000  1.0
  C  C251  1  0.11730000  0.35836000  0.86821000  1.0
  C  C252  1  0.62472000  0.85611000  0.57221000  1.0
  C  C253  1  0.87528000  0.64389000  0.07221000  1.0
  C  C254  1  0.37528000  0.14389000  0.42779000  1.0
  C  C255  1  0.12472000  0.35611000  0.92779000  1.0
  C  C256  1  0.12101000  0.71276000  0.92235000  1.0
  C  C257  1  0.37899000  0.78724000  0.42235000  1.0
  C  C258  1  0.87899000  0.28724000  0.07765000  1.0
  C  C259  1  0.62101000  0.21276000  0.57765000  1.0
  C  C260  1  0.19943000  0.69315000  0.89364000  1.0
  C  C261  1  0.30057000  0.80685000  0.39364000  1.0
  C  C262  1  0.80057000  0.30685000  0.10636000  1.0
  C  C263  1  0.69943000  0.19315000  0.60636000  1.0
  C  C264  1  0.19088000  0.60484000  0.88813000  1.0
  C  C265  1  0.30912000  0.89516000  0.38813000  1.0
  C  C266  1  0.80912000  0.39516000  0.11187000  1.0
  C  C267  1  0.69088000  0.10484000  0.61187000  1.0
  C  C268  1  0.28130000  0.76295000  0.87126000  1.0
  C  C269  1  0.21870000  0.73705000  0.37126000  1.0
  C  C270  1  0.71870000  0.23705000  0.12874000  1.0
  C  C271  1  0.78130000  0.26295000  0.62874000  1.0
  C  C272  1  0.26177000  0.58614000  0.85941000  1.0
  C  C273  1  0.23823000  0.91386000  0.35941000  1.0
  C  C274  1  0.73823000  0.41386000  0.14060000  1.0
  C  C275  1  0.76177000  0.08614000  0.64059000  1.0
  C  C276  1  0.35285000  0.74505000  0.84270000  1.0
  C  C277  1  0.14715000  0.75495000  0.34270000  1.0
  C  C278  1  0.64715000  0.25495000  0.15730000  1.0
  C  C279  1  0.85285000  0.24505000  0.65730000  1.0
  C  C280  1  0.34070000  0.65625000  0.83623000  1.0
  C  C281  1  0.15930000  0.84375000  0.33623000  1.0
  C  C282  1  0.65930000  0.34375000  0.16377000  1.0
  C  C283  1  0.84070000  0.15625000  0.66377000  1.0
  C  C284  1  0.40210000  0.64196000  0.75034000  1.0
  C  C285  1  0.09790000  0.85804000  0.25034000  1.0
  C  C286  1  0.59790000  0.35804000  0.24966000  1.0
  C  C287  1  0.90210000  0.14196000  0.74966000  1.0
  C  C288  1  0.32365000  0.65491000  0.72489000  1.0
  C  C289  1  0.17635000  0.84509000  0.22488000  1.0
  C  C290  1  0.67635000  0.34509000  0.27511000  1.0
  C  C291  1  0.82365000  0.15491000  0.77511000  1.0
  C  C292  1  0.47834000  0.63343000  0.72011000  1.0
  C  C293  1  0.02166000  0.86657000  0.22011000  1.0
  C  C294  1  0.52166000  0.36657000  0.27989000  1.0
  C  C295  1  0.97834000  0.13343000  0.77989000  1.0
  C  C296  1  0.32253000  0.65981000  0.66906000  1.0
  C  C297  1  0.17747000  0.84019000  0.16905000  1.0
  C  C298  1  0.67747000  0.34019000  0.33095000  1.0
  C  C299  1  0.82252000  0.15981000  0.83094000  1.0
  C  C300  1  0.47645000  0.63920000  0.66447000  1.0
  C  C301  1  0.02355000  0.86080000  0.16447000  1.0
  C  C302  1  0.52355000  0.36080000  0.33553000  1.0
  C  C303  1  0.97645000  0.13920000  0.83553000  1.0
  C  C304  1  0.39864000  0.65228000  0.63815000  1.0
  C  C305  1  0.10136000  0.84772000  0.13815000  1.0
  C  C306  1  0.60136000  0.34772000  0.36185000  1.0
  C  C307  1  0.89864000  0.15228000  0.86185000  1.0
  C  C308  1  0.39497000  0.65593000  0.57851000  1.0
  C  C309  1  0.10503000  0.84407000  0.07851000  1.0
  C  C310  1  0.60503000  0.34407000  0.42149000  1.0
  C  C311  1  0.89497000  0.15593000  0.92149000  1.0
  N  N312  1  0.83055000  0.50466000  0.95371000  1.0
  N  N313  1  0.66945000  0.99534000  0.45371000  1.0
  N  N314  1  0.16945000  0.49534000  0.04629000  1.0
  N  N315  1  0.33055000  0.00466000  0.54629000  1.0
  N  N316  1  0.67491000  0.22713000  0.95827000  1.0
  N  N317  1  0.82509000  0.27287000  0.45828000  1.0
  N  N318  1  0.32509000  0.77287000  0.04172000  1.0
  N  N319  1  0.17491000  0.72713000  0.54173000  1.0
  N  N320  1  0.32360000  0.26288000  0.98363000  1.0
  N  N321  1  0.17641000  0.23712000  0.48363000  1.0
  N  N322  1  0.67641000  0.73712000  0.01637000  1.0
  N  N323  1  0.82359000  0.76288000  0.51637000  1.0
  N  N324  1  0.15790000  0.98780000  0.97023000  1.0
  N  N325  1  0.34210000  0.51220000  0.47023000  1.0
  N  N326  1  0.84210000  0.01220000  0.02977000  1.0
  N  N327  1  0.65790000  0.48780000  0.52977000  1.0
  O  O328  1  0.51828000  0.20177000  0.92599000  1.0
  O  O329  1  0.98172000  0.29823000  0.42599000  1.0
  O  O330  1  0.48172000  0.79823000  0.07401000  1.0
  O  O331  1  0.01828000  0.70177000  0.57401000  1.0
  O  O332  1  0.45977000  0.26989000  0.03330000  1.0
  O  O333  1  0.04023000  0.23011000  0.53330000  1.0
  O  O334  1  0.54023000  0.73011000  0.96670000  1.0
  O  O335  1  0.95977000  0.76989000  0.46670000  1.0
  O  O336  1  0.95524000  0.84987000  0.93220000  1.0
  O  O337  1  0.54476000  0.65013000  0.43220000  1.0
  O  O338  1  0.04476000  0.15013000  0.06780000  1.0
  O  O339  1  0.45524000  0.34987000  0.56780000  1.0
  O  O340  1  0.85208000  0.70316000  0.92801000  1.0
  O  O341  1  0.64792000  0.79684000  0.42801000  1.0
  O  O342  1  0.14792000  0.29684000  0.07199000  1.0
  O  O343  1  0.35208000  0.20316000  0.57199000  1.0
  O  O344  1  0.59710000  0.87171000  0.79877000  1.0
  O  O345  1  0.90290000  0.62829000  0.29877000  1.0
  O  O346  1  0.40290000  0.12829000  0.20123000  1.0
  O  O347  1  0.09710000  0.37171000  0.70123000  1.0
  O  O348  1  0.55259000  0.86268000  0.54489000  1.0
  O  O349  1  0.94741000  0.63732000  0.04489000  1.0
  O  O350  1  0.44741000  0.13732000  0.45511000  1.0
  O  O351  1  0.05260000  0.36268000  0.95511000  1.0
  O  O352  1  0.69881000  0.84976000  0.54986000  1.0
  O  O353  1  0.80119000  0.65024000  0.04986000  1.0
  O  O354  1  0.30119000  0.15024000  0.45014000  1.0
  O  O355  1  0.19881000  0.34976000  0.95014000  1.0
  O  O356  1  0.04059000  0.64671000  0.93298000  1.0
  O  O357  1  0.45941000  0.85329000  0.43298000  1.0
  O  O358  1  0.95941000  0.35329000  0.06702000  1.0
  O  O359  1  0.54059000  0.14671000  0.56702000  1.0
  O  O360  1  0.14108000  0.79437000  0.93387000  1.0
  O  O361  1  0.35892000  0.70563000  0.43388000  1.0
  O  O362  1  0.85892000  0.20563000  0.06612000  1.0
  O  O363  1  0.64108000  0.29437000  0.56613000  1.0
  O  O364  1  0.40866000  0.63591000  0.80545000  1.0
  O  O365  1  0.09134000  0.86409000  0.30545000  1.0
  O  O366  1  0.59134000  0.36409000  0.19455000  1.0
  O  O367  1  0.90866000  0.13591000  0.69455000  1.0
  O  O368  1  0.31885000  0.65629000  0.55493000  1.0
  O  O369  1  0.18115000  0.84371000  0.05493000  1.0
  O  O370  1  0.68115000  0.34371000  0.44507000  1.0
  O  O371  1  0.81885000  0.15629000  0.94507000  1.0
  O  O372  1  0.47121000  0.65681000  0.55196000  1.0
  O  O373  1  0.02879000  0.84319000  0.05196000  1.0
  O  O374  1  0.52879000  0.34319000  0.44804000  1.0
  O  O375  1  0.97121000  0.15681000  0.94804000  1.0
