# generated using pymatgen
data_CuH9C7N3O4
_symmetry_space_group_name_H-M   'P 1'
_cell_length_a   7.37901000
_cell_length_b   9.65776000
_cell_length_c   16.11370000
_cell_angle_alpha   90.00030000
_cell_angle_beta   90.00030000
_cell_angle_gamma   89.99990000
_symmetry_Int_Tables_number   1
_chemical_formula_structural   CuH9C7N3O4
_chemical_formula_sum   'Cu4 H36 C28 N12 O16'
_cell_volume   1148.33811910
_cell_formula_units_Z   4
loop_
 _symmetry_equiv_pos_site_id
 _symmetry_equiv_pos_as_xyz
  1  'x, y, z'
loop_
 _atom_site_type_symbol
 _atom_site_label
 _atom_site_symmetry_multiplicity
 _atom_site_fract_x
 _atom_site_fract_y
 _atom_site_fract_z
 _atom_site_occupancy
  Cu  Cu0  1  0.25140000  0.83941000  0.16524000  1.0
  Cu  Cu1  1  0.74860000  0.66059000  0.66524000  1.0
  Cu  Cu2  1  0.24860000  0.33941000  0.83476000  1.0
  Cu  Cu3  1  0.75140000  0.16059000  0.33476000  1.0
  H  H4  1  0.29184000  0.23111000  0.15231000  1.0
  H  H5  1  0.70816000  0.26888000  0.65231000  1.0
  H  H6  1  0.20816000  0.73111000  0.84768000  1.0
  H  H7  1  0.79184000  0.76889000  0.34768000  1.0
  H  H8  1  0.39980000  0.02068000  0.06507000  1.0
  H  H9  1  0.60020000  0.47932000  0.56507000  1.0
  H  H10  1  0.10019000  0.52067000  0.93492000  1.0
  H  H11  1  0.89981000  0.97933000  0.43492000  1.0
  H  H12  1  0.46214000  0.03287000  0.16466000  1.0
  H  H13  1  0.53786000  0.46713000  0.66466000  1.0
  H  H14  1  0.03786000  0.53287000  0.83533000  1.0
  H  H15  1  0.96214000  0.96713000  0.33533000  1.0
  H  H16  1  0.05586000  0.05563000  0.03714000  1.0
  H  H17  1  0.94414000  0.44437000  0.53714000  1.0
  H  H18  1  0.44414000  0.55563000  0.96286000  1.0
  H  H19  1  0.55586000  0.94437000  0.46286000  1.0
  H  H20  1  0.98321000  0.21651000  0.07812000  1.0
  H  H21  1  0.01679000  0.28349000  0.57813000  1.0
  H  H22  1  0.51678000  0.71651000  0.92188000  1.0
  H  H23  1  0.48322000  0.78350000  0.42187000  1.0
  H  H24  1  0.13316000  0.52120000  0.12533000  1.0
  H  H25  1  0.86683000  0.97880000  0.62534000  1.0
  H  H26  1  0.36684000  0.02119000  0.87467000  1.0
  H  H27  1  0.63316000  0.47880000  0.37467000  1.0
  H  H28  1  0.04101000  0.35778000  0.24436000  1.0
  H  H29  1  0.95899000  0.14222000  0.74437000  1.0
  H  H30  1  0.45899000  0.85777000  0.75564000  1.0
  H  H31  1  0.54101000  0.64223000  0.25564000  1.0
  H  H32  1  0.03207000  0.48511000  0.38267000  1.0
  H  H33  1  0.96794000  0.01489000  0.88267000  1.0
  H  H34  1  0.46793000  0.98509000  0.61733000  1.0
  H  H35  1  0.53207000  0.51490000  0.11733000  1.0
  H  H36  1  0.13698000  0.75641000  0.34609000  1.0
  H  H37  1  0.86302000  0.74360000  0.84609000  1.0
  H  H38  1  0.36302000  0.25640000  0.65391000  1.0
  H  H39  1  0.63698000  0.24360000  0.15391000  1.0
  C  C40  1  0.10289000  0.09522000  0.21229000  1.0
  C  C41  1  0.89712000  0.40478000  0.71229000  1.0
  C  C42  1  0.39711000  0.59521000  0.78771000  1.0
  C  C43  1  0.60289000  0.90479000  0.28771000  1.0
  C  C44  1  0.22124000  0.13336000  0.13825000  1.0
  C  C45  1  0.77876000  0.36664000  0.63825000  1.0
  C  C46  1  0.27876000  0.63335000  0.86175000  1.0
  C  C47  1  0.72124000  0.86665000  0.36175000  1.0
  C  C48  1  0.10394000  0.15564000  0.06138000  1.0
  C  C49  1  0.89606000  0.34436000  0.56138000  1.0
  C  C50  1  0.39605000  0.65563000  0.93861000  1.0
  C  C51  1  0.60395000  0.84437000  0.43862000  1.0
  C  C52  1  0.20399000  0.23507000  0.99277000  1.0
  C  C53  1  0.79601000  0.26492000  0.49277000  1.0
  C  C54  1  0.29601000  0.73506000  0.00723000  1.0
  C  C55  1  0.70399000  0.76493000  0.50723000  1.0
  C  C56  1  0.11769000  0.55092000  0.18977000  1.0
  C  C57  1  0.88232000  0.94908000  0.68977000  1.0
  C  C58  1  0.38232000  0.05092000  0.81023000  1.0
  C  C59  1  0.61768000  0.44908000  0.31023000  1.0
  C  C60  1  0.06936000  0.53491000  0.32487000  1.0
  C  C61  1  0.93065000  0.96509000  0.82487000  1.0
  C  C62  1  0.43064000  0.03490000  0.67513000  1.0
  C  C63  1  0.56936000  0.46509000  0.17513000  1.0
  C  C64  1  0.11894000  0.66822000  0.30549000  1.0
  C  C65  1  0.88106000  0.83178000  0.80549000  1.0
  C  C66  1  0.38106000  0.16821000  0.69451000  1.0
  C  C67  1  0.61894000  0.33179000  0.19451000  1.0
  N  N68  1  0.35337000  0.02098000  0.12472000  1.0
  N  N69  1  0.64663000  0.47902000  0.62472000  1.0
  N  N70  1  0.14663000  0.52098000  0.87528000  1.0
  N  N71  1  0.85337000  0.97902000  0.37528000  1.0
  N  N72  1  0.14846000  0.67692000  0.22080000  1.0
  N  N73  1  0.85153000  0.82308000  0.72080000  1.0
  N  N74  1  0.35154000  0.17692000  0.77920000  1.0
  N  N75  1  0.64846000  0.32308000  0.27920000  1.0
  N  N76  1  0.06930000  0.46321000  0.25103000  1.0
  N  N77  1  0.93070000  0.03679000  0.75104000  1.0
  N  N78  1  0.43070000  0.96320000  0.74897000  1.0
  N  N79  1  0.56930000  0.53680000  0.24897000  1.0
  O  O80  1  0.00449000  0.18718000  0.24419000  1.0
  O  O81  1  0.99551000  0.31282000  0.74419000  1.0
  O  O82  1  0.49552000  0.68716000  0.75581000  1.0
  O  O83  1  0.50448000  0.81284000  0.25581000  1.0
  O  O84  1  0.10642000  0.96898000  0.23798000  1.0
  O  O85  1  0.89359000  0.53102000  0.73798000  1.0
  O  O86  1  0.39359000  0.46898000  0.76202000  1.0
  O  O87  1  0.60641000  0.03102000  0.26202000  1.0
  O  O88  1  0.12426000  0.22812000  0.92118000  1.0
  O  O89  1  0.87574000  0.27188000  0.42118000  1.0
  O  O90  1  0.37573000  0.72813000  0.07882000  1.0
  O  O91  1  0.62425000  0.77186000  0.57882000  1.0
  O  O92  1  0.34625000  0.30050000  0.00790000  1.0
  O  O93  1  0.65375000  0.19949000  0.50789000  1.0
  O  O94  1  0.15375000  0.80051000  0.99211000  1.0
  O  O95  1  0.84625000  0.69950000  0.49211000  1.0
