# generated using pymatgen
data_CuH5C8(NO)2
_symmetry_space_group_name_H-M   'P 1'
_cell_length_a   7.14831000
_cell_length_b   7.67474000
_cell_length_c   12.89340000
_cell_angle_alpha   90.00000000
_cell_angle_beta   101.80500000
_cell_angle_gamma   89.99970000
_symmetry_Int_Tables_number   1
_chemical_formula_structural   CuH5C8(NO)2
_chemical_formula_sum   'Cu4 H20 C32 N8 O8'
_cell_volume   692.38945808
_cell_formula_units_Z   4
loop_
 _symmetry_equiv_pos_site_id
 _symmetry_equiv_pos_as_xyz
  1  'x, y, z'
loop_
 _atom_site_type_symbol
 _atom_site_label
 _atom_site_symmetry_multiplicity
 _atom_site_fract_x
 _atom_site_fract_y
 _atom_site_fract_z
 _atom_site_occupancy
  Cu  Cu0  1  0.55242000  0.03139000  0.09803000  1.0
  Cu  Cu1  1  0.44758000  0.53140000  0.40196000  1.0
  Cu  Cu2  1  0.44756000  0.96860000  0.90196000  1.0
  Cu  Cu3  1  0.55242000  0.46861000  0.59804000  1.0
  H  H4  1  0.16152000  0.43527000  0.78468000  1.0
  H  H5  1  0.83843000  0.93528000  0.71533000  1.0
  H  H6  1  0.83846000  0.56474000  0.21532000  1.0
  H  H7  1  0.16158000  0.06475000  0.28468000  1.0
  H  H8  1  0.00732000  0.72580000  0.75675000  1.0
  H  H9  1  0.99266000  0.22581000  0.74326000  1.0
  H  H10  1  0.99268000  0.27420000  0.24325000  1.0
  H  H11  1  0.00736000  0.77421000  0.25673000  1.0
  H  H12  1  0.01273000  0.92524000  0.91056000  1.0
  H  H13  1  0.98729000  0.42522000  0.58945000  1.0
  H  H14  1  0.98728000  0.07477000  0.08945000  1.0
  H  H15  1  0.01273000  0.57478000  0.41054000  1.0
  H  H16  1  0.16922000  0.82724000  0.09336000  1.0
  H  H17  1  0.83084000  0.32722000  0.40664000  1.0
  H  H18  1  0.83079000  0.17275000  0.90664000  1.0
  H  H19  1  0.16916000  0.67277000  0.59335000  1.0
  H  H20  1  0.47706000  0.30226000  0.22296000  1.0
  H  H21  1  0.52298000  0.80226000  0.27704000  1.0
  H  H22  1  0.52294000  0.69772000  0.77704000  1.0
  H  H23  1  0.47703000  0.19773000  0.72296000  1.0
  C  C24  1  0.15770000  0.52117000  0.85130000  1.0
  C  C25  1  0.84228000  0.02118000  0.64872000  1.0
  C  C26  1  0.84229000  0.47883000  0.14871000  1.0
  C  C27  1  0.15772000  0.97884000  0.35129000  1.0
  C  C28  1  0.07423000  0.68450000  0.83639000  1.0
  C  C29  1  0.92577000  0.18449000  0.66362000  1.0
  C  C30  1  0.92578000  0.31549000  0.16361000  1.0
  C  C31  1  0.07425000  0.81552000  0.33638000  1.0
  C  C32  1  0.07766000  0.79647000  0.92312000  1.0
  C  C33  1  0.92235000  0.29646000  0.57689000  1.0
  C  C34  1  0.92233000  0.20354000  0.07688000  1.0
  C  C35  1  0.07767000  0.70354000  0.42310000  1.0
  C  C36  1  0.16298000  0.74289000  0.02477000  1.0
  C  C37  1  0.83704000  0.24288000  0.47524000  1.0
  C  C38  1  0.83701000  0.25710000  0.97523000  1.0
  C  C39  1  0.16296000  0.75712000  0.52476000  1.0
  C  C40  1  0.24479000  0.57628000  0.04072000  1.0
  C  C41  1  0.75523000  0.07628000  0.45928000  1.0
  C  C42  1  0.75520000  0.42372000  0.95929000  1.0
  C  C43  1  0.24477000  0.92372000  0.54072000  1.0
  C  C44  1  0.24169000  0.46387000  0.95368000  1.0
  C  C45  1  0.75829000  0.96387000  0.54633000  1.0
  C  C46  1  0.75830000  0.53612000  0.04632000  1.0
  C  C47  1  0.24170000  0.03613000  0.45368000  1.0
  C  C48  1  0.32614000  0.29073000  0.97071000  1.0
  C  C49  1  0.67384000  0.79074000  0.52929000  1.0
  C  C50  1  0.67384000  0.70926000  0.02929000  1.0
  C  C51  1  0.32615000  0.20927000  0.47071000  1.0
  C  C52  1  0.33783000  0.51802000  0.14627000  1.0
  C  C53  1  0.66221000  0.01799000  0.35375000  1.0
  C  C54  1  0.66218000  0.48198000  0.85374000  1.0
  C  C55  1  0.33779000  0.98200000  0.64625000  1.0
  N  N56  1  0.40573000  0.23935000  0.06909000  1.0
  N  N57  1  0.59427000  0.73937000  0.43091000  1.0
  N  N58  1  0.59425000  0.76063000  0.93090000  1.0
  N  N59  1  0.40572000  0.26064000  0.56909000  1.0
  N  N60  1  0.40631000  0.35329000  0.15181000  1.0
  N  N61  1  0.59372000  0.85330000  0.34819000  1.0
  N  N62  1  0.59369000  0.64670000  0.84818000  1.0
  N  N63  1  0.40628000  0.14671000  0.65182000  1.0
  O  O64  1  0.32368000  0.18935000  0.89028000  1.0
  O  O65  1  0.67629000  0.68936000  0.60973000  1.0
  O  O66  1  0.67631000  0.81064000  0.10972000  1.0
  O  O67  1  0.32370000  0.31065000  0.39028000  1.0
  O  O68  1  0.35663000  0.61265000  0.22816000  1.0
  O  O69  1  0.64343000  0.11266000  0.27183000  1.0
  O  O70  1  0.64340000  0.38734000  0.77184000  1.0
  O  O71  1  0.35658000  0.88734000  0.72817000  1.0
