# generated using pymatgen
data_ZnH24C25N4O5
_symmetry_space_group_name_H-M   'P 1'
_cell_length_a   9.66094500
_cell_length_b   9.66094000
_cell_length_c   48.08170000
_cell_angle_alpha   90.00000000
_cell_angle_beta   90.00000000
_cell_angle_gamma   119.99994864
_symmetry_Int_Tables_number   1
_chemical_formula_structural   ZnH24C25N4O5
_chemical_formula_sum   'Zn6 H144 C150 N24 O30'
_cell_volume   3886.41940064
_cell_formula_units_Z   6
loop_
 _symmetry_equiv_pos_site_id
 _symmetry_equiv_pos_as_xyz
  1  'x, y, z'
loop_
 _atom_site_type_symbol
 _atom_site_label
 _atom_site_symmetry_multiplicity
 _atom_site_fract_x
 _atom_site_fract_y
 _atom_site_fract_z
 _atom_site_occupancy
  Zn  Zn0  1  0.70118000  0.29882000  0.91667000  1.0
  Zn  Zn1  1  0.70118000  0.40236000  0.25000000  1.0
  Zn  Zn2  1  0.59764000  0.29882000  0.58334000  1.0
  Zn  Zn3  1  0.29882000  0.70118000  0.41667000  1.0
  Zn  Zn4  1  0.29882000  0.59764000  0.75000000  1.0
  Zn  Zn5  1  0.40236000  0.70118000  0.08334000  1.0
  H  H6  1  0.45030000  0.11917000  0.95570000  1.0
  H  H7  1  0.88083000  0.33113000  0.28903000  1.0
  H  H8  1  0.66886000  0.54970000  0.62237000  1.0
  H  H9  1  0.54970000  0.88083000  0.45570000  1.0
  H  H10  1  0.11917000  0.66887000  0.78903000  1.0
  H  H11  1  0.33114000  0.45030000  0.12237000  1.0
  H  H12  1  0.11916000  0.45030000  0.37763000  1.0
  H  H13  1  0.33113000  0.88082000  0.04430000  1.0
  H  H14  1  0.54969000  0.66886000  0.71097000  1.0
  H  H15  1  0.88084000  0.54970000  0.87763000  1.0
  H  H16  1  0.66887000  0.11918000  0.54430000  1.0
  H  H17  1  0.45031000  0.33114000  0.21097000  1.0
  H  H18  1  0.36647000  0.56198000  0.93339000  1.0
  H  H19  1  0.43802000  0.80450000  0.26672000  1.0
  H  H20  1  0.19550000  0.63353000  0.60006000  1.0
  H  H21  1  0.63353000  0.43803000  0.43339000  1.0
  H  H22  1  0.56198000  0.19550000  0.76672000  1.0
  H  H23  1  0.80450000  0.36647000  0.10006000  1.0
  H  H24  1  0.56197000  0.36648000  0.39995000  1.0
  H  H25  1  0.80451000  0.43802000  0.06662000  1.0
  H  H26  1  0.63350000  0.19548000  0.73328000  1.0
  H  H27  1  0.43803000  0.63352000  0.89995000  1.0
  H  H28  1  0.19549000  0.56198000  0.56662000  1.0
  H  H29  1  0.36650000  0.80452000  0.23328000  1.0
  H  H30  1  0.77314000  0.07269000  0.89001000  1.0
  H  H31  1  0.92732000  0.70046000  0.22335000  1.0
  H  H32  1  0.29955000  0.22687000  0.55668000  1.0
  H  H33  1  0.22686000  0.92731000  0.39001000  1.0
  H  H34  1  0.07268000  0.29954000  0.72335000  1.0
  H  H35  1  0.70045000  0.77314000  0.05668000  1.0
  H  H36  1  0.07269000  0.77315000  0.44332000  1.0
  H  H37  1  0.70046000  0.92731000  0.10999000  1.0
  H  H38  1  0.22685000  0.29953000  0.77666000  1.0
  H  H39  1  0.92731000  0.22685000  0.94332000  1.0
  H  H40  1  0.29954000  0.07269000  0.60999000  1.0
  H  H41  1  0.77315000  0.70047000  0.27666000  1.0
  H  H42  1  0.63039000  0.88169000  0.87709000  1.0
  H  H43  1  0.11832000  0.74870000  0.21042000  1.0
  H  H44  1  0.25128000  0.36960000  0.54375000  1.0
  H  H45  1  0.36961000  0.11831000  0.37708000  1.0
  H  H46  1  0.88167000  0.25129000  0.71042000  1.0
  H  H47  1  0.74872000  0.63040000  0.04375000  1.0
  H  H48  1  0.88168000  0.63041000  0.45625000  1.0
  H  H49  1  0.74872000  0.11832000  0.12292000  1.0
  H  H50  1  0.36961000  0.25129000  0.78958000  1.0
  H  H51  1  0.11832000  0.36959000  0.95625000  1.0
  H  H52  1  0.25128000  0.88168000  0.62292000  1.0
  H  H53  1  0.63039000  0.74871000  0.28958000  1.0
  H  H54  1  0.76035000  0.89625000  0.90431000  1.0
  H  H55  1  0.10376000  0.86411000  0.23764000  1.0
  H  H56  1  0.13590000  0.23964000  0.57098000  1.0
  H  H57  1  0.23965000  0.10375000  0.40431000  1.0
  H  H58  1  0.89624000  0.13589000  0.73764000  1.0
  H  H59  1  0.86410000  0.76036000  0.07098000  1.0
  H  H60  1  0.89626000  0.76037000  0.42902000  1.0
  H  H61  1  0.86411000  0.10375000  0.09569000  1.0
  H  H62  1  0.23964000  0.13588000  0.76236000  1.0
  H  H63  1  0.10374000  0.23963000  0.92902000  1.0
  H  H64  1  0.13589000  0.89625000  0.59569000  1.0
  H  H65  1  0.76036000  0.86412000  0.26236000  1.0
  H  H66  1  0.19215000  0.87371000  0.97292000  1.0
  H  H67  1  0.12629000  0.31845000  0.30625000  1.0
  H  H68  1  0.68156000  0.80785000  0.63959000  1.0
  H  H69  1  0.80785000  0.12629000  0.47292000  1.0
  H  H70  1  0.87371000  0.68155000  0.80625000  1.0
  H  H71  1  0.31844000  0.19215000  0.13959000  1.0
  H  H72  1  0.87371000  0.19216000  0.36041000  1.0
  H  H73  1  0.31845000  0.12629000  0.02708000  1.0
  H  H74  1  0.80784000  0.68155000  0.69375000  1.0
  H  H75  1  0.12629000  0.80784000  0.86041000  1.0
  H  H76  1  0.68155000  0.87371000  0.52708000  1.0
  H  H77  1  0.19217000  0.31846000  0.19375000  1.0
  H  H78  1  0.21896000  0.70701000  0.97747000  1.0
  H  H79  1  0.29300000  0.51195000  0.31080000  1.0
  H  H80  1  0.48805000  0.78105000  0.64414000  1.0
  H  H81  1  0.78104000  0.29299000  0.47747000  1.0
  H  H82  1  0.70700000  0.48805000  0.81080000  1.0
  H  H83  1  0.51195000  0.21895000  0.14414000  1.0
  H  H84  1  0.70701000  0.21896000  0.35586000  1.0
  H  H85  1  0.51196000  0.29299000  0.02253000  1.0
  H  H86  1  0.78104000  0.48804000  0.68920000  1.0
  H  H87  1  0.29299000  0.78103000  0.85586000  1.0
  H  H88  1  0.48804000  0.70701000  0.52253000  1.0
  H  H89  1  0.21896000  0.51196000  0.18920000  1.0
  H  H90  1  0.10873000  0.71255000  0.94859000  1.0
  H  H91  1  0.28745000  0.39617000  0.28192000  1.0
  H  H92  1  0.60383000  0.89129000  0.61525000  1.0
  H  H93  1  0.89127000  0.28745000  0.44859000  1.0
  H  H94  1  0.71256000  0.60384000  0.78192000  1.0
  H  H95  1  0.39617000  0.10871000  0.11525000  1.0
  H  H96  1  0.71254000  0.10871000  0.38475000  1.0
  H  H97  1  0.39618000  0.28746000  0.05141000  1.0
  H  H98  1  0.89128000  0.60383000  0.71808000  1.0
  H  H99  1  0.28746000  0.89129000  0.88475000  1.0
  H  H100  1  0.60382000  0.71254000  0.55141000  1.0
  H  H101  1  0.10872000  0.39617000  0.21808000  1.0
  H  H102  1  0.83691000  0.73015000  0.95278000  1.0
  H  H103  1  0.26985000  0.10676000  0.28611000  1.0
  H  H104  1  0.89324000  0.16310000  0.61945000  1.0
  H  H105  1  0.16309000  0.26985000  0.45278000  1.0
  H  H106  1  0.73015000  0.89324000  0.78611000  1.0
  H  H107  1  0.10675000  0.83689000  0.11945000  1.0
  H  H108  1  0.73014000  0.83690000  0.38055000  1.0
  H  H109  1  0.10677000  0.26986000  0.04722000  1.0
  H  H110  1  0.16309000  0.89323000  0.71389000  1.0
  H  H111  1  0.26986000  0.16310000  0.88055000  1.0
  H  H112  1  0.89323000  0.73014000  0.54722000  1.0
  H  H113  1  0.83691000  0.10677000  0.21389000  1.0
  H  H114  1  0.86267000  0.98585000  0.97049000  1.0
  H  H115  1  0.01416000  0.87682000  0.30382000  1.0
  H  H116  1  0.12318000  0.13735000  0.63716000  1.0
  H  H117  1  0.13733000  0.01415000  0.47049000  1.0
  H  H118  1  0.98584000  0.12318000  0.80382000  1.0
  H  H119  1  0.87682000  0.86265000  0.13716000  1.0
  H  H120  1  0.98583000  0.86266000  0.36284000  1.0
  H  H121  1  0.87683000  0.01416000  0.02951000  1.0
  H  H122  1  0.13734000  0.12317000  0.69618000  1.0
  H  H123  1  0.01417000  0.13734000  0.86284000  1.0
  H  H124  1  0.12317000  0.98584000  0.52951000  1.0
  H  H125  1  0.86266000  0.87683000  0.19618000  1.0
  H  H126  1  0.40995000  0.71848000  0.01193000  1.0
  H  H127  1  0.28153000  0.69147000  0.34525000  1.0
  H  H128  1  0.30854000  0.59007000  0.67859000  1.0
  H  H129  1  0.59005000  0.28152000  0.51193000  1.0
  H  H130  1  0.71848000  0.30854000  0.84526000  1.0
  H  H131  1  0.69146000  0.40993000  0.17859000  1.0
  H  H132  1  0.71847000  0.40994000  0.32141000  1.0
  H  H133  1  0.69148000  0.28153000  0.98807000  1.0
  H  H134  1  0.59006000  0.30853000  0.65475000  1.0
  H  H135  1  0.28154000  0.59007000  0.82141000  1.0
  H  H136  1  0.30852000  0.71847000  0.48807000  1.0
  H  H137  1  0.40994000  0.69147000  0.15475000  1.0
  H  H138  1  0.38541000  0.46193000  0.99427000  1.0
  H  H139  1  0.53806000  0.92346000  0.32760000  1.0
  H  H140  1  0.07654000  0.61460000  0.66094000  1.0
  H  H141  1  0.61459000  0.53807000  0.49427000  1.0
  H  H142  1  0.46194000  0.07654000  0.82760000  1.0
  H  H143  1  0.92346000  0.38539000  0.16094000  1.0
  H  H144  1  0.46193000  0.38540000  0.33906000  1.0
  H  H145  1  0.92348000  0.53806000  0.00573000  1.0
  H  H146  1  0.61460000  0.07653000  0.67240000  1.0
  H  H147  1  0.53807000  0.61460000  0.83906000  1.0
  H  H148  1  0.07652000  0.46194000  0.50573000  1.0
  H  H149  1  0.38540000  0.92347000  0.17240000  1.0
  C  C150  1  0.57208000  0.94058000  0.91678000  1.0
  C  C151  1  0.05943000  0.63151000  0.25011000  1.0
  C  C152  1  0.36850000  0.42792000  0.58345000  1.0
  C  C153  1  0.42792000  0.05942000  0.41678000  1.0
  C  C154  1  0.94058000  0.36850000  0.75011000  1.0
  C  C155  1  0.63150000  0.57208000  0.08345000  1.0
  C  C156  1  0.94058000  0.57208000  0.41655000  1.0
  C  C157  1  0.63150000  0.05942000  0.08322000  1.0
  C  C158  1  0.42791000  0.36849000  0.74989000  1.0
  C  C159  1  0.05942000  0.42792000  0.91655000  1.0
  C  C160  1  0.36850000  0.94058000  0.58322000  1.0
  C  C161  1  0.57209000  0.63151000  0.24989000  1.0
  C  C162  1  0.43101000  0.80712000  0.92637000  1.0
  C  C163  1  0.19289000  0.62390000  0.25970000  1.0
  C  C164  1  0.37610000  0.56899000  0.59304000  1.0
  C  C165  1  0.56899000  0.19288000  0.42637000  1.0
  C  C166  1  0.80711000  0.37610000  0.75970000  1.0
  C  C167  1  0.62389000  0.43100000  0.09304000  1.0
  C  C168  1  0.80712000  0.43101000  0.40696000  1.0
  C  C169  1  0.62389000  0.19288000  0.07363000  1.0
  C  C170  1  0.56899000  0.37611000  0.74030000  1.0
  C  C171  1  0.19288000  0.56899000  0.90696000  1.0
  C  C172  1  0.37611000  0.80712000  0.57363000  1.0
  C  C173  1  0.43101000  0.62389000  0.24030000  1.0
  C  C174  1  0.36224000  0.86771000  0.94504000  1.0
  C  C175  1  0.13229000  0.49453000  0.27837000  1.0
  C  C176  1  0.50547000  0.63777000  0.61170000  1.0
  C  C177  1  0.63776000  0.13229000  0.44504000  1.0
  C  C178  1  0.86771000  0.50547000  0.77837000  1.0
  C  C179  1  0.49453000  0.36223000  0.11171000  1.0
  C  C180  1  0.86771000  0.36224000  0.38830000  1.0
  C  C181  1  0.49453000  0.13229000  0.05497000  1.0
  C  C182  1  0.63775000  0.50546000  0.72164000  1.0
  C  C183  1  0.13229000  0.63776000  0.88830000  1.0
  C  C184  1  0.50547000  0.86771000  0.55497000  1.0
  C  C185  1  0.36225000  0.49454000  0.22164000  1.0
  C  C186  1  0.36231000  0.63768000  0.91667000  1.0
  C  C187  1  0.36232000  0.72463000  0.25000000  1.0
  C  C188  1  0.27537000  0.63769000  0.58334000  1.0
  C  C189  1  0.63769000  0.36232000  0.41667000  1.0
  C  C190  1  0.63768000  0.27537000  0.75000000  1.0
  C  C191  1  0.72463000  0.36231000  0.08334000  1.0
  C  C192  1  0.69039000  0.94839000  0.89603000  1.0
  C  C193  1  0.05162000  0.74201000  0.22937000  1.0
  C  C194  1  0.25799000  0.30960000  0.56270000  1.0
  C  C195  1  0.30961000  0.05161000  0.39603000  1.0
  C  C196  1  0.94838000  0.25799000  0.72937000  1.0
  C  C197  1  0.74201000  0.69040000  0.06270000  1.0
  C  C198  1  0.94839000  0.69040000  0.43730000  1.0
  C  C199  1  0.74201000  0.05161000  0.10397000  1.0
  C  C200  1  0.30960000  0.25798000  0.77064000  1.0
  C  C201  1  0.05161000  0.30960000  0.93730000  1.0
  C  C202  1  0.25799000  0.94839000  0.60397000  1.0
  C  C203  1  0.69040000  0.74202000  0.27064000  1.0
  C  C204  1  0.21281000  0.78652000  0.96181000  1.0
  C  C205  1  0.21349000  0.42629000  0.29514000  1.0
  C  C206  1  0.57372000  0.78720000  0.62847000  1.0
  C  C207  1  0.78719000  0.21348000  0.46181000  1.0
  C  C208  1  0.78651000  0.57370000  0.79514000  1.0
  C  C209  1  0.42628000  0.21280000  0.12847000  1.0
  C  C210  1  0.78651000  0.21280000  0.37153000  1.0
  C  C211  1  0.42629000  0.21347000  0.03820000  1.0
  C  C212  1  0.78719000  0.57371000  0.70487000  1.0
  C  C213  1  0.21349000  0.78720000  0.87153000  1.0
  C  C214  1  0.57371000  0.78653000  0.53820000  1.0
  C  C215  1  0.21281000  0.42630000  0.20487000  1.0
  C  C216  1  0.60933000  0.58081000  0.97225000  1.0
  C  C217  1  0.41918000  0.02851000  0.30558000  1.0
  C  C218  1  0.97148000  0.39067000  0.63892000  1.0
  C  C219  1  0.39067000  0.41919000  0.47225000  1.0
  C  C220  1  0.58082000  0.97149000  0.80558000  1.0
  C  C221  1  0.02851000  0.60932000  0.13892000  1.0
  C  C222  1  0.58080000  0.60931000  0.36108000  1.0
  C  C223  1  0.02852000  0.41919000  0.02775000  1.0
  C  C224  1  0.39067000  0.97148000  0.69442000  1.0
  C  C225  1  0.41919000  0.39067000  0.86108000  1.0
  C  C226  1  0.97148000  0.58081000  0.52775000  1.0
  C  C227  1  0.60933000  0.02852000  0.19442000  1.0
  C  C228  1  0.74451000  0.72876000  0.96596000  1.0
  C  C229  1  0.27124000  0.01575000  0.29929000  1.0
  C  C230  1  0.98426000  0.25550000  0.63263000  1.0
  C  C231  1  0.25549000  0.27124000  0.46596000  1.0
  C  C232  1  0.72876000  0.98425000  0.79929000  1.0
  C  C233  1  0.01575000  0.74451000  0.13263000  1.0
  C  C234  1  0.72876000  0.74451000  0.36737000  1.0
  C  C235  1  0.01576000  0.27124000  0.03404000  1.0
  C  C236  1  0.25549000  0.98425000  0.70071000  1.0
  C  C237  1  0.27125000  0.25550000  0.86737000  1.0
  C  C238  1  0.98424000  0.72876000  0.53404000  1.0
  C  C239  1  0.74451000  0.01576000  0.20071000  1.0
  C  C240  1  0.75917000  0.87087000  0.97578000  1.0
  C  C241  1  0.12913000  0.88829000  0.30911000  1.0
  C  C242  1  0.11171000  0.24085000  0.64245000  1.0
  C  C243  1  0.24083000  0.12913000  0.47578000  1.0
  C  C244  1  0.87087000  0.11171000  0.80911000  1.0
  C  C245  1  0.88829000  0.75915000  0.14245000  1.0
  C  C246  1  0.87086000  0.75915000  0.35755000  1.0
  C  C247  1  0.88830000  0.12913000  0.02422000  1.0
  C  C248  1  0.24083000  0.11170000  0.69089000  1.0
  C  C249  1  0.12914000  0.24084000  0.85755000  1.0
  C  C250  1  0.11170000  0.87087000  0.52422000  1.0
  C  C251  1  0.75917000  0.88830000  0.19089000  1.0
  C  C252  1  0.63573000  0.86442000  0.99196000  1.0
  C  C253  1  0.13558000  0.77131000  0.32529000  1.0
  C  C254  1  0.22870000  0.36428000  0.65863000  1.0
  C  C255  1  0.36427000  0.13558000  0.49196000  1.0
  C  C256  1  0.86442000  0.22869000  0.82529000  1.0
  C  C257  1  0.77130000  0.63572000  0.15863000  1.0
  C  C258  1  0.86441000  0.63572000  0.34137000  1.0
  C  C259  1  0.77132000  0.13558000  0.00804000  1.0
  C  C260  1  0.36427000  0.22869000  0.67471000  1.0
  C  C261  1  0.13559000  0.36428000  0.84137000  1.0
  C  C262  1  0.22868000  0.86441000  0.50804000  1.0
  C  C263  1  0.63573000  0.77131000  0.17471000  1.0
  C  C264  1  0.50207000  0.71838000  0.99897000  1.0
  C  C265  1  0.28162000  0.78368000  0.33230000  1.0
  C  C266  1  0.21632000  0.49795000  0.66564000  1.0
  C  C267  1  0.49793000  0.28162000  0.49897000  1.0
  C  C268  1  0.71838000  0.21632000  0.83230000  1.0
  C  C269  1  0.78368000  0.50205000  0.16564000  1.0
  C  C270  1  0.71837000  0.50205000  0.33436000  1.0
  C  C271  1  0.78370000  0.28163000  0.00103000  1.0
  C  C272  1  0.49793000  0.21631000  0.66770000  1.0
  C  C273  1  0.28163000  0.49795000  0.83436000  1.0
  C  C274  1  0.21630000  0.71837000  0.50103000  1.0
  C  C275  1  0.50207000  0.78369000  0.16770000  1.0
  C  C276  1  0.48926000  0.57704000  0.98914000  1.0
  C  C277  1  0.42295000  0.91221000  0.32247000  1.0
  C  C278  1  0.08779000  0.51075000  0.65581000  1.0
  C  C279  1  0.51074000  0.42296000  0.48914000  1.0
  C  C280  1  0.57704000  0.08778000  0.82247000  1.0
  C  C281  1  0.91220000  0.48924000  0.15581000  1.0
  C  C282  1  0.57704000  0.48925000  0.34419000  1.0
  C  C283  1  0.91222000  0.42295000  0.01086000  1.0
  C  C284  1  0.51074000  0.08778000  0.67753000  1.0
  C  C285  1  0.42296000  0.51075000  0.84419000  1.0
  C  C286  1  0.08778000  0.57705000  0.51086000  1.0
  C  C287  1  0.48926000  0.91222000  0.17753000  1.0
  C  C288  1  0.59223000  0.43031000  0.96025000  1.0
  C  C289  1  0.56969000  0.16193000  0.29358000  1.0
  C  C290  1  0.83808000  0.40778000  0.62692000  1.0
  C  C291  1  0.40777000  0.56969000  0.46025000  1.0
  C  C292  1  0.43031000  0.83807000  0.79358000  1.0
  C  C293  1  0.16192000  0.59223000  0.12692000  1.0
  C  C294  1  0.43030000  0.59222000  0.37308000  1.0
  C  C295  1  0.16193000  0.56969000  0.03975000  1.0
  C  C296  1  0.40776000  0.83807000  0.70642000  1.0
  C  C297  1  0.56970000  0.40778000  0.87308000  1.0
  C  C298  1  0.83807000  0.43030000  0.53975000  1.0
  C  C299  1  0.59224000  0.16193000  0.20642000  1.0
  N  N300  1  0.58906000  0.07401000  0.92910000  1.0
  N  N301  1  0.92599000  0.51505000  0.26243000  1.0
  N  N302  1  0.48495000  0.41095000  0.59577000  1.0
  N  N303  1  0.41094000  0.92599000  0.42910000  1.0
  N  N304  1  0.07401000  0.48495000  0.76243000  1.0
  N  N305  1  0.51505000  0.58905000  0.09577000  1.0
  N  N306  1  0.07401000  0.58906000  0.40424000  1.0
  N  N307  1  0.51505000  0.92599000  0.07091000  1.0
  N  N308  1  0.41093000  0.48494000  0.73757000  1.0
  N  N309  1  0.92599000  0.41094000  0.90424000  1.0
  N  N310  1  0.48495000  0.07401000  0.57091000  1.0
  N  N311  1  0.58907000  0.51506000  0.23757000  1.0
  N  N312  1  0.46063000  0.02744000  0.94590000  1.0
  N  N313  1  0.97256000  0.43319000  0.27923000  1.0
  N  N314  1  0.56680000  0.53937000  0.61257000  1.0
  N  N315  1  0.53937000  0.97256000  0.44590000  1.0
  N  N316  1  0.02744000  0.56681000  0.77923000  1.0
  N  N317  1  0.43319000  0.46063000  0.11257000  1.0
  N  N318  1  0.02744000  0.46063000  0.38744000  1.0
  N  N319  1  0.43319000  0.97255000  0.05411000  1.0
  N  N320  1  0.53936000  0.56680000  0.72077000  1.0
  N  N321  1  0.97256000  0.53937000  0.88744000  1.0
  N  N322  1  0.56681000  0.02744000  0.55411000  1.0
  N  N323  1  0.46064000  0.43320000  0.22077000  1.0
  O  O324  1  0.71043000  0.45036000  0.94483000  1.0
  O  O325  1  0.54964000  0.26007000  0.27816000  1.0
  O  O326  1  0.73993000  0.28958000  0.61150000  1.0
  O  O327  1  0.28957000  0.54964000  0.44483000  1.0
  O  O328  1  0.45036000  0.73993000  0.77816000  1.0
  O  O329  1  0.26007000  0.71042000  0.11150000  1.0
  O  O330  1  0.45036000  0.71042000  0.38850000  1.0
  O  O331  1  0.26006000  0.54964000  0.05518000  1.0
  O  O332  1  0.28957000  0.73994000  0.72184000  1.0
  O  O333  1  0.54964000  0.28958000  0.88851000  1.0
  O  O334  1  0.73994000  0.45036000  0.55518000  1.0
  O  O335  1  0.71043000  0.26007000  0.22184000  1.0
  O  O336  1  0.46974000  0.29754000  0.96568000  1.0
  O  O337  1  0.70246000  0.17221000  0.29902000  1.0
  O  O338  1  0.82780000  0.53027000  0.63235000  1.0
  O  O339  1  0.53026000  0.70246000  0.46568000  1.0
  O  O340  1  0.29754000  0.82780000  0.79902000  1.0
  O  O341  1  0.17220000  0.46974000  0.13236000  1.0
  O  O342  1  0.29753000  0.46974000  0.36765000  1.0
  O  O343  1  0.17221000  0.70246000  0.03432000  1.0
  O  O344  1  0.53025000  0.82778000  0.70098000  1.0
  O  O345  1  0.70247000  0.53026000  0.86765000  1.0
  O  O346  1  0.82779000  0.29754000  0.53432000  1.0
  O  O347  1  0.46975000  0.17221000  0.20098000  1.0
  O  O348  1  0.63275000  0.00000000  0.00000000  1.0
  O  O349  1  1.00000000  0.63275000  0.33333333  1.0
  O  O350  1  0.36726000  0.36726000  0.66666667  1.0
  O  O351  1  0.36725000  1.00000000  0.50000000  1.0
  O  O352  1  1.00000000  0.36726000  0.83333000  1.0
  O  O353  1  0.63274000  0.63274000  0.16667000  1.0
