# generated using pymatgen
data_ZnH12C16S(NO2)2
_symmetry_space_group_name_H-M   'P 1'
_cell_length_a   8.57639000
_cell_length_b   13.41540000
_cell_length_c   15.10310000
_cell_angle_alpha   91.50650000
_cell_angle_beta   90.00000000
_cell_angle_gamma   89.99990000
_symmetry_Int_Tables_number   1
_chemical_formula_structural   ZnH12C16S(NO2)2
_chemical_formula_sum   'Zn4 H48 C64 S4 N8 O16'
_cell_volume   1737.09714179
_cell_formula_units_Z   4
loop_
 _symmetry_equiv_pos_site_id
 _symmetry_equiv_pos_as_xyz
  1  'x, y, z'
loop_
 _atom_site_type_symbol
 _atom_site_label
 _atom_site_symmetry_multiplicity
 _atom_site_fract_x
 _atom_site_fract_y
 _atom_site_fract_z
 _atom_site_occupancy
  Zn  Zn0  1  0.77315000  0.75000000  0.25000000  1.0
  Zn  Zn1  1  0.22684000  0.25000000  0.75000000  1.0
  Zn  Zn2  1  0.78921000  0.25000000  0.25000000  1.0
  Zn  Zn3  1  0.21079000  0.75000000  0.75000000  1.0
  H  H4  1  0.60009000  0.70236000  0.42307000  1.0
  H  H5  1  0.60009000  0.79764000  0.07693000  1.0
  H  H6  1  0.39991000  0.29764000  0.57693000  1.0
  H  H7  1  0.39991000  0.20236000  0.92307000  1.0
  H  H8  1  0.90347000  0.02632000  0.24235000  1.0
  H  H9  1  0.90347000  0.47368000  0.25765000  1.0
  H  H10  1  0.09653000  0.97368000  0.75765000  1.0
  H  H11  1  0.09653000  0.52632000  0.74235000  1.0
  H  H12  1  0.17532000  0.18389000  0.49647000  1.0
  H  H13  1  0.17532000  0.31611000  0.00353000  1.0
  H  H14  1  0.82468000  0.81611000  0.50353000  1.0
  H  H15  1  0.82468000  0.68389000  0.99647000  1.0
  H  H16  1  0.39006000  0.78185000  0.51628000  1.0
  H  H17  1  0.39006000  0.71814000  0.98372000  1.0
  H  H18  1  0.60994000  0.21815000  0.48372000  1.0
  H  H19  1  0.60994000  0.28186000  0.01628000  1.0
  H  H20  1  0.40558000  0.03094000  0.33743000  1.0
  H  H21  1  0.40558000  0.46906000  0.16257000  1.0
  H  H22  1  0.59442000  0.96906000  0.66257000  1.0
  H  H23  1  0.59442000  0.53094000  0.83743000  1.0
  H  H24  1  0.06520000  0.91952000  0.33791000  1.0
  H  H25  1  0.06520000  0.58049000  0.16209000  1.0
  H  H26  1  0.93480000  0.08049000  0.66209000  1.0
  H  H27  1  0.93480000  0.41951000  0.83791000  1.0
  H  H28  1  0.87233000  0.49411000  0.42605000  1.0
  H  H29  1  0.87233000  0.00590000  0.07395000  1.0
  H  H30  1  0.12767000  0.50590000  0.57395000  1.0
  H  H31  1  0.12767000  0.99410000  0.92605000  1.0
  H  H32  1  0.11771000  0.65428000  0.47713000  1.0
  H  H33  1  0.11772000  0.84572000  0.02287000  1.0
  H  H34  1  0.88229000  0.34572000  0.52287000  1.0
  H  H35  1  0.88228000  0.15428000  0.97713000  1.0
  H  H36  1  0.64567000  0.43019000  0.50483000  1.0
  H  H37  1  0.64567000  0.06981000  0.99517000  1.0
  H  H38  1  0.35433000  0.56981000  0.49517000  1.0
  H  H39  1  0.35433000  0.93019000  0.00483000  1.0
  H  H40  1  0.41485000  0.47543000  0.35440000  1.0
  H  H41  1  0.41485000  0.02457000  0.14559000  1.0
  H  H42  1  0.58515000  0.52457000  0.64560000  1.0
  H  H43  1  0.58515000  0.97543000  0.85440000  1.0
  H  H44  1  0.61166000  0.94121000  0.25472000  1.0
  H  H45  1  0.61166000  0.55879000  0.24528000  1.0
  H  H46  1  0.38834000  0.05879000  0.74528000  1.0
  H  H47  1  0.38834000  0.44121000  0.75472000  1.0
  H  H48  1  0.00851000  0.28076000  0.39374000  1.0
  H  H49  1  0.00851000  0.21924000  0.10626000  1.0
  H  H50  1  0.99149000  0.71924000  0.60626000  1.0
  H  H51  1  0.99149000  0.78076000  0.89374000  1.0
  C  C52  1  0.55280000  0.77540000  0.40730000  1.0
  C  C53  1  0.55280000  0.72460000  0.09270000  1.0
  C  C54  1  0.44720000  0.22460000  0.59270000  1.0
  C  C55  1  0.44720000  0.27540000  0.90730000  1.0
  C  C56  1  0.96789000  0.05951000  0.29803000  1.0
  C  C57  1  0.96789000  0.44049000  0.20197000  1.0
  C  C58  1  0.03211000  0.94049000  0.70197000  1.0
  C  C59  1  0.03211000  0.55951000  0.79803000  1.0
  C  C60  1  0.13651000  0.04450000  0.42379000  1.0
  C  C61  1  0.13651000  0.45550000  0.07621000  1.0
  C  C62  1  0.86350000  0.95550000  0.57621000  1.0
  C  C63  1  0.86349000  0.54450000  0.92379000  1.0
  C  C64  1  0.11960000  0.14700000  0.43984000  1.0
  C  C65  1  0.11959000  0.35300000  0.06016000  1.0
  C  C66  1  0.88041000  0.85300000  0.56016000  1.0
  C  C67  1  0.88040000  0.64700000  0.93984000  1.0
  C  C68  1  0.61263000  0.37398000  0.33314000  1.0
  C  C69  1  0.61263000  0.12602000  0.16686000  1.0
  C  C70  1  0.38737000  0.62602000  0.66686000  1.0
  C  C71  1  0.38737000  0.87398000  0.83314000  1.0
  C  C72  1  0.43621000  0.81966000  0.45868000  1.0
  C  C73  1  0.43621000  0.68034000  0.04132000  1.0
  C  C74  1  0.56379000  0.18034000  0.54132000  1.0
  C  C75  1  0.56379000  0.31966000  0.95868000  1.0
  C  C76  1  0.37794000  0.91266000  0.43345000  1.0
  C  C77  1  0.37794000  0.58734000  0.06655000  1.0
  C  C78  1  0.62206000  0.08734000  0.56655000  1.0
  C  C79  1  0.62206000  0.41266000  0.93345000  1.0
  C  C80  1  0.44074000  0.95731000  0.35855000  1.0
  C  C81  1  0.44074000  0.54270000  0.14145000  1.0
  C  C82  1  0.55926000  0.04270000  0.64146000  1.0
  C  C83  1  0.55926000  0.45731000  0.85855000  1.0
  C  C84  1  0.05983000  0.99979000  0.35095000  1.0
  C  C85  1  0.05983000  0.50021000  0.14905000  1.0
  C  C86  1  0.94017000  0.00021000  0.64905000  1.0
  C  C87  1  0.94017000  0.49979000  0.85095000  1.0
  C  C88  1  0.96880000  0.52736000  0.46380000  1.0
  C  C89  1  0.96880000  0.97264000  0.03620000  1.0
  C  C90  1  0.03120000  0.47264000  0.53620000  1.0
  C  C91  1  0.03120000  0.02736000  0.96380000  1.0
  C  C92  1  0.02254000  0.61784000  0.44071000  1.0
  C  C93  1  0.02254000  0.88216000  0.05930000  1.0
  C  C94  1  0.97746000  0.38216000  0.55929000  1.0
  C  C95  1  0.97746000  0.11784000  0.94071000  1.0
  C  C96  1  0.54535000  0.46532000  0.47365000  1.0
  C  C97  1  0.54536000  0.03468000  0.02635000  1.0
  C  C98  1  0.45465000  0.53468000  0.52635000  1.0
  C  C99  1  0.45464000  0.96532000  0.97365000  1.0
  C  C100  1  0.51405000  0.44190000  0.38788000  1.0
  C  C101  1  0.51405000  0.05811000  0.11212000  1.0
  C  C102  1  0.48595000  0.55810000  0.61212000  1.0
  C  C103  1  0.48595000  0.94190000  0.88788000  1.0
  C  C104  1  0.55733000  0.90774000  0.31188000  1.0
  C  C105  1  0.55733000  0.59226000  0.18812000  1.0
  C  C106  1  0.44267000  0.09226000  0.68812000  1.0
  C  C107  1  0.44267000  0.40774000  0.81188000  1.0
  C  C108  1  0.94934000  0.67574000  0.37002000  1.0
  C  C109  1  0.94934000  0.82426000  0.12998000  1.0
  C  C110  1  0.05066000  0.32426000  0.62998000  1.0
  C  C111  1  0.05066000  0.17574000  0.87002000  1.0
  C  C112  1  0.02605000  0.20089000  0.38317000  1.0
  C  C113  1  0.02605000  0.29911000  0.11683000  1.0
  C  C114  1  0.97396000  0.79911000  0.61683000  1.0
  C  C115  1  0.97395000  0.70089000  0.88317000  1.0
  S  S116  1  0.23939000  0.97271000  0.50120000  1.0
  S  S117  1  0.23939000  0.52729000  0.99880000  1.0
  S  S118  1  0.76061000  0.02730000  0.49880000  1.0
  S  S119  1  0.76061000  0.47271000  0.00120000  1.0
  N  N120  1  0.95017000  0.15830000  0.31395000  1.0
  N  N121  1  0.95017000  0.34170000  0.18605000  1.0
  N  N122  1  0.04983000  0.84170000  0.68605000  1.0
  N  N123  1  0.04983000  0.65830000  0.81395000  1.0
  N  N124  1  0.61273000  0.81817000  0.33498000  1.0
  N  N125  1  0.61273000  0.68183000  0.16502000  1.0
  N  N126  1  0.38727000  0.18183000  0.66502000  1.0
  N  N127  1  0.38727000  0.31817000  0.83498000  1.0
  O  O128  1  0.72515000  0.32597000  0.36979000  1.0
  O  O129  1  0.72515000  0.17403000  0.13021000  1.0
  O  O130  1  0.27485000  0.67403000  0.63021000  1.0
  O  O131  1  0.27485000  0.82597000  0.86979000  1.0
  O  O132  1  0.84124000  0.63277000  0.32209000  1.0
  O  O133  1  0.84124000  0.86723000  0.17791000  1.0
  O  O134  1  0.15876000  0.36723000  0.67791000  1.0
  O  O135  1  0.15876000  0.13277000  0.82209000  1.0
  O  O136  1  0.58645000  0.36554000  0.25057000  1.0
  O  O137  1  0.58645000  0.13446000  0.24943000  1.0
  O  O138  1  0.41355000  0.63446000  0.74943000  1.0
  O  O139  1  0.41355000  0.86554000  0.75057000  1.0
  O  O140  1  0.98810000  0.76547000  0.36015000  1.0
  O  O141  1  0.98810000  0.73453000  0.13985000  1.0
  O  O142  1  0.01190000  0.23453000  0.63985000  1.0
  O  O143  1  0.01190000  0.26547000  0.86015000  1.0
