# generated using pymatgen
data_NiH36C41N4O5
_symmetry_space_group_name_H-M   'P 1'
_cell_length_a   9.59945000
_cell_length_b   17.36090000
_cell_length_c   24.22320000
_cell_angle_alpha   89.95110000
_cell_angle_beta   89.99960000
_cell_angle_gamma   89.99870000
_symmetry_Int_Tables_number   1
_chemical_formula_structural   NiH36C41N4O5
_chemical_formula_sum   'Ni4 H144 C164 N16 O20'
_cell_volume   4036.91814115
_cell_formula_units_Z   4
loop_
 _symmetry_equiv_pos_site_id
 _symmetry_equiv_pos_as_xyz
  1  'x, y, z'
loop_
 _atom_site_type_symbol
 _atom_site_label
 _atom_site_symmetry_multiplicity
 _atom_site_fract_x
 _atom_site_fract_y
 _atom_site_fract_z
 _atom_site_occupancy
  Ni  Ni0  1  0.65971000  0.24948000  0.62348000  1.0
  Ni  Ni1  1  0.15970000  0.25051000  0.87652000  1.0
  Ni  Ni2  1  0.34029000  0.75051000  0.37652000  1.0
  Ni  Ni3  1  0.84030000  0.74949000  0.12348000  1.0
  H  H4  1  0.97919000  0.22331000  0.61941000  1.0
  H  H5  1  0.47917000  0.27667000  0.88059000  1.0
  H  H6  1  0.02082000  0.77667000  0.38059000  1.0
  H  H7  1  0.52083000  0.72332000  0.11941000  1.0
  H  H8  1  0.16216000  0.21696000  0.54695000  1.0
  H  H9  1  0.66214000  0.28303000  0.95305000  1.0
  H  H10  1  0.83784000  0.78304000  0.45304000  1.0
  H  H11  1  0.33786000  0.71695000  0.04696000  1.0
  H  H12  1  0.84060000  0.27016000  0.42740000  1.0
  H  H13  1  0.34059000  0.22984000  0.07260000  1.0
  H  H14  1  0.15939000  0.72986000  0.57260000  1.0
  H  H15  1  0.65940000  0.77016000  0.92740000  1.0
  H  H16  1  0.67024000  0.27191000  0.50586000  1.0
  H  H17  1  0.17024000  0.22809000  0.99414000  1.0
  H  H18  1  0.32975000  0.72809000  0.49414000  1.0
  H  H19  1  0.82976000  0.77192000  0.00586000  1.0
  H  H20  1  0.22488000  0.14072000  0.46195000  1.0
  H  H21  1  0.72487000  0.35928000  0.03805000  1.0
  H  H22  1  0.77511000  0.85929000  0.53805000  1.0
  H  H23  1  0.27513000  0.64072000  0.96195000  1.0
  H  H24  1  0.39324000  0.14112000  0.38470000  1.0
  H  H25  1  0.89323000  0.35889000  0.11530000  1.0
  H  H26  1  0.60675000  0.85889000  0.61530000  1.0
  H  H27  1  0.10677000  0.64110000  0.88471000  1.0
  H  H28  1  0.20726000  0.34951000  0.32146000  1.0
  H  H29  1  0.70725000  0.15050000  0.17854000  1.0
  H  H30  1  0.79274000  0.65050000  0.67854000  1.0
  H  H31  1  0.29274000  0.84950000  0.82146000  1.0
  H  H32  1  0.03627000  0.34727000  0.39737000  1.0
  H  H33  1  0.53625000  0.15275000  0.10264000  1.0
  H  H34  1  0.96373000  0.65274000  0.60263000  1.0
  H  H35  1  0.46372000  0.84726000  0.89737000  1.0
  H  H36  1  0.84970000  0.81086000  0.24371000  1.0
  H  H37  1  0.34970000  0.68914000  0.25629000  1.0
  H  H38  1  0.15032000  0.18915000  0.75630000  1.0
  H  H39  1  0.65028000  0.31086000  0.74370000  1.0
  H  H40  1  0.74804000  0.92164000  0.29582000  1.0
  H  H41  1  0.24805000  0.57837000  0.20418000  1.0
  H  H42  1  0.25196000  0.07837000  0.70419000  1.0
  H  H43  1  0.75192000  0.42163000  0.79582000  1.0
  H  H44  1  0.54140000  0.98848000  0.14453000  1.0
  H  H45  1  0.04143000  0.51151000  0.35548000  1.0
  H  H46  1  0.45859000  0.01151000  0.85548000  1.0
  H  H47  1  0.95860000  0.48847000  0.64452000  1.0
  H  H48  1  0.64630000  0.87386000  0.10017000  1.0
  H  H49  1  0.14630000  0.62615000  0.39983000  1.0
  H  H50  1  0.35372000  0.12615000  0.89983000  1.0
  H  H51  1  0.85373000  0.37384000  0.60017000  1.0
  H  H52  1  0.37247000  0.01754000  0.21380000  1.0
  H  H53  1  0.87248000  0.48248000  0.28620000  1.0
  H  H54  1  0.62752000  0.98247000  0.78620000  1.0
  H  H55  1  0.12752000  0.51751000  0.71380000  1.0
  H  H56  1  0.27694000  0.14197000  0.24766000  1.0
  H  H57  1  0.77694000  0.35805000  0.25234000  1.0
  H  H58  1  0.72306000  0.85804000  0.75233000  1.0
  H  H59  1  0.22305000  0.64193000  0.74767000  1.0
  H  H60  1  0.67042000  0.19424000  0.32389000  1.0
  H  H61  1  0.17041000  0.30577000  0.17611000  1.0
  H  H62  1  0.32957000  0.80577000  0.67612000  1.0
  H  H63  1  0.82957000  0.69422000  0.82390000  1.0
  H  H64  1  0.76627000  0.06906000  0.29112000  1.0
  H  H65  1  0.26627000  0.43094000  0.20888000  1.0
  H  H66  1  0.23371000  0.93094000  0.70890000  1.0
  H  H67  1  0.73372000  0.56905000  0.79112000  1.0
  H  H68  1  0.73855000  0.59955000  0.08650000  1.0
  H  H69  1  0.23853000  0.90045000  0.41350000  1.0
  H  H70  1  0.26147000  0.40045000  0.91351000  1.0
  H  H71  1  0.76147000  0.09954000  0.58650000  1.0
  H  H72  1  0.62460000  0.48266000  0.12244000  1.0
  H  H73  1  0.12458000  0.01735000  0.37756000  1.0
  H  H74  1  0.37543000  0.51734000  0.87757000  1.0
  H  H75  1  0.87543000  0.98264000  0.62243000  1.0
  H  H76  1  0.63345000  0.59034000  0.28418000  1.0
  H  H77  1  0.13346000  0.90967000  0.21582000  1.0
  H  H78  1  0.36649000  0.40969000  0.71583000  1.0
  H  H79  1  0.86653000  0.09032000  0.78417000  1.0
  H  H80  1  0.74435000  0.70140000  0.24071000  1.0
  H  H81  1  0.24435000  0.79861000  0.25928000  1.0
  H  H82  1  0.25560000  0.29863000  0.75928000  1.0
  H  H83  1  0.75565000  0.20138000  0.74071000  1.0
  H  H84  1  0.56308000  0.38507000  0.15734000  1.0
  H  H85  1  0.06305000  0.11494000  0.34266000  1.0
  H  H86  1  0.43696000  0.61494000  0.84266000  1.0
  H  H87  1  0.93695000  0.88505000  0.65734000  1.0
  H  H88  1  0.47973000  0.26674000  0.20034000  1.0
  H  H89  1  0.97970000  0.23328000  0.29966000  1.0
  H  H90  1  0.52031000  0.73327000  0.79966000  1.0
  H  H91  1  0.02030000  0.76671000  0.70034000  1.0
  H  H92  1  0.45427000  0.38240000  0.35744000  1.0
  H  H93  1  0.95426000  0.11761000  0.14256000  1.0
  H  H94  1  0.54573000  0.61760000  0.64257000  1.0
  H  H95  1  0.04574000  0.88238000  0.85743000  1.0
  H  H96  1  0.53688000  0.50172000  0.31496000  1.0
  H  H97  1  0.03687000  0.99829000  0.18504000  1.0
  H  H98  1  0.46312000  0.49828000  0.68505000  1.0
  H  H99  1  0.96315000  0.00170000  0.81495000  1.0
  H  H100  1  0.32212000  0.39497000  0.49504000  1.0
  H  H101  1  0.82211000  0.10503000  0.00496000  1.0
  H  H102  1  0.67788000  0.60502000  0.50496000  1.0
  H  H103  1  0.17790000  0.89498000  0.99504000  1.0
  H  H104  1  0.50022000  0.38830000  0.47724000  1.0
  H  H105  1  0.00022000  0.11170000  0.02277000  1.0
  H  H106  1  0.49978000  0.61169000  0.52277000  1.0
  H  H107  1  0.99980000  0.88831000  0.97723000  1.0
  H  H108  1  0.37882000  0.49118000  0.56791000  1.0
  H  H109  1  0.87882000  0.00882000  0.93210000  1.0
  H  H110  1  0.62119000  0.50882000  0.43210000  1.0
  H  H111  1  0.12119000  0.99118000  0.06790000  1.0
  H  H112  1  0.68208000  0.46600000  0.53278000  1.0
  H  H113  1  0.18208000  0.03400000  0.96722000  1.0
  H  H114  1  0.31793000  0.53399000  0.46723000  1.0
  H  H115  1  0.81793000  0.96601000  0.03278000  1.0
  H  H116  1  0.62732000  0.52428000  0.58824000  1.0
  H  H117  1  0.12733000  0.97572000  0.91176000  1.0
  H  H118  1  0.37268000  0.47571000  0.41177000  1.0
  H  H119  1  0.87268000  0.02429000  0.08824000  1.0
  H  H120  1  0.41965000  0.97496000  0.59669000  1.0
  H  H121  1  0.91965000  0.52504000  0.90331000  1.0
  H  H122  1  0.58035000  0.02503000  0.40330000  1.0
  H  H123  1  0.08035000  0.47495000  0.09669000  1.0
  H  H124  1  0.59356000  0.98774000  0.57453000  1.0
  H  H125  1  0.09356000  0.51225000  0.92546000  1.0
  H  H126  1  0.40644000  0.01225000  0.42545000  1.0
  H  H127  1  0.90644000  0.48774000  0.07454000  1.0
  H  H128  1  0.33492000  0.06197000  0.52402000  1.0
  H  H129  1  0.83490000  0.43804000  0.97597000  1.0
  H  H130  1  0.66509000  0.93803000  0.47597000  1.0
  H  H131  1  0.16509000  0.56197000  0.02403000  1.0
  H  H132  1  0.50699000  0.13503000  0.46487000  1.0
  H  H133  1  0.00698000  0.36496000  0.03512000  1.0
  H  H134  1  0.49300000  0.86496000  0.53512000  1.0
  H  H135  1  0.99302000  0.63503000  0.96487000  1.0
  H  H136  1  0.64386000  0.08249000  0.49438000  1.0
  H  H137  1  0.14384000  0.41750000  0.00561000  1.0
  H  H138  1  0.35615000  0.91751000  0.50561000  1.0
  H  H139  1  0.85615000  0.58250000  0.99439000  1.0
  H  H140  1  0.44333000  0.29689000  0.66228000  1.0
  H  H141  1  0.94333000  0.20310000  0.83772000  1.0
  H  H142  1  0.55667000  0.70310000  0.33772000  1.0
  H  H143  1  0.05668000  0.79690000  0.16227000  1.0
  H  H144  1  0.43434000  0.20386000  0.65803000  1.0
  H  H145  1  0.93433000  0.29614000  0.84196000  1.0
  H  H146  1  0.56566000  0.79614000  0.34196000  1.0
  H  H147  1  0.06567000  0.70386000  0.15803000  1.0
  C  C148  1  0.95284000  0.23252000  0.57611000  1.0
  C  C149  1  0.45283000  0.26747000  0.92389000  1.0
  C  C150  1  0.04716000  0.76747000  0.42389000  1.0
  C  C151  1  0.54717000  0.73253000  0.07611000  1.0
  C  C152  1  0.05450000  0.22900000  0.53542000  1.0
  C  C153  1  0.55448000  0.27100000  0.96458000  1.0
  C  C154  1  0.94550000  0.77101000  0.46458000  1.0
  C  C155  1  0.44552000  0.72900000  0.03542000  1.0
  C  C156  1  0.01668000  0.24396000  0.48040000  1.0
  C  C157  1  0.51666000  0.25604000  0.01959000  1.0
  C  C158  1  0.98332000  0.75605000  0.51960000  1.0
  C  C159  1  0.48334000  0.74396000  0.98041000  1.0
  C  C160  1  0.87595000  0.25986000  0.46954000  1.0
  C  C161  1  0.37594000  0.24015000  0.03046000  1.0
  C  C162  1  0.12405000  0.74016000  0.53046000  1.0
  C  C163  1  0.62406000  0.75986000  0.96954000  1.0
  C  C164  1  0.78044000  0.26067000  0.51241000  1.0
  C  C165  1  0.28042000  0.23932000  0.98760000  1.0
  C  C166  1  0.21956000  0.73933000  0.48760000  1.0
  C  C167  1  0.71957000  0.76069000  0.01241000  1.0
  C  C168  1  0.11892000  0.24414000  0.43543000  1.0
  C  C169  1  0.61891000  0.25586000  0.06457000  1.0
  C  C170  1  0.88107000  0.75587000  0.56457000  1.0
  C  C171  1  0.38108000  0.74413000  0.93543000  1.0
  C  C172  1  0.22110000  0.18667000  0.43123000  1.0
  C  C173  1  0.72108000  0.31333000  0.06877000  1.0
  C  C174  1  0.77889000  0.81334000  0.56877000  1.0
  C  C175  1  0.27891000  0.68666000  0.93123000  1.0
  C  C176  1  0.31642000  0.18694000  0.38812000  1.0
  C  C177  1  0.81641000  0.31307000  0.11188000  1.0
  C  C178  1  0.68357000  0.81307000  0.61188000  1.0
  C  C179  1  0.18359000  0.68692000  0.88812000  1.0
  C  C180  1  0.31477000  0.24655000  0.34883000  1.0
  C  C181  1  0.81476000  0.25346000  0.15117000  1.0
  C  C182  1  0.68522000  0.75346000  0.65117000  1.0
  C  C183  1  0.18523000  0.74653000  0.84883000  1.0
  C  C184  1  0.21198000  0.30413000  0.35245000  1.0
  C  C185  1  0.71196000  0.19589000  0.14755000  1.0
  C  C186  1  0.78802000  0.69588000  0.64755000  1.0
  C  C187  1  0.28802000  0.80411000  0.85245000  1.0
  C  C188  1  0.11537000  0.30223000  0.39493000  1.0
  C  C189  1  0.61535000  0.19778000  0.10508000  1.0
  C  C190  1  0.88463000  0.69778000  0.60507000  1.0
  C  C191  1  0.38463000  0.80222000  0.89493000  1.0
  C  C192  1  0.77809000  0.85098000  0.22381000  1.0
  C  C193  1  0.27809000  0.64903000  0.27620000  1.0
  C  C194  1  0.22193000  0.14903000  0.77620000  1.0
  C  C195  1  0.72190000  0.35097000  0.72380000  1.0
  C  C196  1  0.72453000  0.91420000  0.25211000  1.0
  C  C197  1  0.22454000  0.58581000  0.24790000  1.0
  C  C198  1  0.27547000  0.08581000  0.74790000  1.0
  C  C199  1  0.77544000  0.41419000  0.75210000  1.0
  C  C200  1  0.63578000  0.96536000  0.22433000  1.0
  C  C201  1  0.13579000  0.53465000  0.27567000  1.0
  C  C202  1  0.36422000  0.03465000  0.77568000  1.0
  C  C203  1  0.86420000  0.46534000  0.72432000  1.0
  C  C204  1  0.60666000  0.94971000  0.16870000  1.0
  C  C205  1  0.10668000  0.55029000  0.33130000  1.0
  C  C206  1  0.39334000  0.05030000  0.83131000  1.0
  C  C207  1  0.89333000  0.44969000  0.66870000  1.0
  C  C208  1  0.66451000  0.88568000  0.14364000  1.0
  C  C209  1  0.16452000  0.61432000  0.35636000  1.0
  C  C210  1  0.33550000  0.11433000  0.85637000  1.0
  C  C211  1  0.83549000  0.38566000  0.64364000  1.0
  C  C212  1  0.57648000  0.03523000  0.24953000  1.0
  C  C213  1  0.07648000  0.46478000  0.25047000  1.0
  C  C214  1  0.42351000  0.96477000  0.75047000  1.0
  C  C215  1  0.92351000  0.53522000  0.74953000  1.0
  C  C216  1  0.43834000  0.05641000  0.23762000  1.0
  C  C217  1  0.93834000  0.44360000  0.26238000  1.0
  C  C218  1  0.56166000  0.94359000  0.76238000  1.0
  C  C219  1  0.06165000  0.55639000  0.73762000  1.0
  C  C220  1  0.38429000  0.12583000  0.25654000  1.0
  C  C221  1  0.88428000  0.37419000  0.24346000  1.0
  C  C222  1  0.61572000  0.87418000  0.74346000  1.0
  C  C223  1  0.11572000  0.62580000  0.75654000  1.0
  C  C224  1  0.46863000  0.17570000  0.28714000  1.0
  C  C225  1  0.96862000  0.32432000  0.21286000  1.0
  C  C226  1  0.53137000  0.82431000  0.71286000  1.0
  C  C227  1  0.03137000  0.67567000  0.78715000  1.0
  C  C228  1  0.60578000  0.15491000  0.29990000  1.0
  C  C229  1  0.10577000  0.34509000  0.20010000  1.0
  C  C230  1  0.39422000  0.84509000  0.70011000  1.0
  C  C231  1  0.89422000  0.65490000  0.79990000  1.0
  C  C232  1  0.65881000  0.08465000  0.28177000  1.0
  C  C233  1  0.15881000  0.41536000  0.21823000  1.0
  C  C234  1  0.34118000  0.91535000  0.71824000  1.0
  C  C235  1  0.84118000  0.58463000  0.78177000  1.0
  C  C236  1  0.71249000  0.59456000  0.13008000  1.0
  C  C237  1  0.21247000  0.90545000  0.36992000  1.0
  C  C238  1  0.28752000  0.40545000  0.86992000  1.0
  C  C239  1  0.78753000  0.09454000  0.63008000  1.0
  C  C240  1  0.64861000  0.52924000  0.15094000  1.0
  C  C241  1  0.14859000  0.97077000  0.34906000  1.0
  C  C242  1  0.35140000  0.47077000  0.84906000  1.0
  C  C243  1  0.85141000  0.02922000  0.65094000  1.0
  C  C244  1  0.61745000  0.52388000  0.20758000  1.0
  C  C245  1  0.11744000  0.97613000  0.29242000  1.0
  C  C246  1  0.38255000  0.47613000  0.79242000  1.0
  C  C247  1  0.88255000  0.02386000  0.70758000  1.0
  C  C248  1  0.65317000  0.58826000  0.23990000  1.0
  C  C249  1  0.15317000  0.91175000  0.26010000  1.0
  C  C250  1  0.34681000  0.41176000  0.76010000  1.0
  C  C251  1  0.84683000  0.08824000  0.73990000  1.0
  C  C252  1  0.71708000  0.65156000  0.21570000  1.0
  C  C253  1  0.21708000  0.84845000  0.28430000  1.0
  C  C254  1  0.28289000  0.34846000  0.78430000  1.0
  C  C255  1  0.78292000  0.15154000  0.71570000  1.0
  C  C256  1  0.55667000  0.45411000  0.23224000  1.0
  C  C257  1  0.05666000  0.04590000  0.26776000  1.0
  C  C258  1  0.44332000  0.54590000  0.76777000  1.0
  C  C259  1  0.94333000  0.95409000  0.73223000  1.0
  C  C260  1  0.53816000  0.38629000  0.20119000  1.0
  C  C261  1  0.03815000  0.11372000  0.29881000  1.0
  C  C262  1  0.46186000  0.61372000  0.79882000  1.0
  C  C263  1  0.96186000  0.88628000  0.70118000  1.0
  C  C264  1  0.49134000  0.31849000  0.22528000  1.0
  C  C265  1  0.99131000  0.18152000  0.27471000  1.0
  C  C266  1  0.50869000  0.68151000  0.77472000  1.0
  C  C267  1  0.00869000  0.81847000  0.72528000  1.0
  C  C268  1  0.45966000  0.31611000  0.28186000  1.0
  C  C269  1  0.95964000  0.18390000  0.21813000  1.0
  C  C270  1  0.54035000  0.68390000  0.71814000  1.0
  C  C271  1  0.04035000  0.81609000  0.78186000  1.0
  C  C272  1  0.47674000  0.38354000  0.31336000  1.0
  C  C273  1  0.97673000  0.11647000  0.18664000  1.0
  C  C274  1  0.52326000  0.61646000  0.68664000  1.0
  C  C275  1  0.02327000  0.88353000  0.81336000  1.0
  C  C276  1  0.52340000  0.45102000  0.28895000  1.0
  C  C277  1  0.02339000  0.04899000  0.21105000  1.0
  C  C278  1  0.47660000  0.54898000  0.71106000  1.0
  C  C279  1  0.97662000  0.95101000  0.78894000  1.0
  C  C280  1  0.48260000  0.38693000  0.58991000  1.0
  C  C281  1  0.98260000  0.11307000  0.91009000  1.0
  C  C282  1  0.51740000  0.61307000  0.41010000  1.0
  C  C283  1  0.01741000  0.88693000  0.08990000  1.0
  C  C284  1  0.41974000  0.42818000  0.49268000  1.0
  C  C285  1  0.91973000  0.07182000  0.00732000  1.0
  C  C286  1  0.58027000  0.57181000  0.50733000  1.0
  C  C287  1  0.08028000  0.92819000  0.99268000  1.0
  C  C288  1  0.46304000  0.45530000  0.55069000  1.0
  C  C289  1  0.96304000  0.04470000  0.94932000  1.0
  C  C290  1  0.53697000  0.54470000  0.44932000  1.0
  C  C291  1  0.03698000  0.95530000  0.05068000  1.0
  C  C292  1  0.59696000  0.50376000  0.54693000  1.0
  C  C293  1  0.09697000  0.99624000  0.95307000  1.0
  C  C294  1  0.40305000  0.49624000  0.45308000  1.0
  C  C295  1  0.90305000  0.00377000  0.04692000  1.0
  C  C296  1  0.46263000  0.12862000  0.57792000  1.0
  C  C297  1  0.96260000  0.37138000  0.92207000  1.0
  C  C298  1  0.53739000  0.87138000  0.42206000  1.0
  C  C299  1  0.03739000  0.62862000  0.07793000  1.0
  C  C300  1  0.48449000  0.98572000  0.56003000  1.0
  C  C301  1  0.98449000  0.51428000  0.93996000  1.0
  C  C302  1  0.51551000  0.01428000  0.43996000  1.0
  C  C303  1  0.01551000  0.48572000  0.06003000  1.0
  C  C304  1  0.44670000  0.06445000  0.53481000  1.0
  C  C305  1  0.94669000  0.43555000  0.96519000  1.0
  C  C306  1  0.55330000  0.93555000  0.46518000  1.0
  C  C307  1  0.05331000  0.56445000  0.03481000  1.0
  C  C308  1  0.53323000  0.07855000  0.48255000  1.0
  C  C309  1  0.03322000  0.42144000  0.01744000  1.0
  C  C310  1  0.46677000  0.92144000  0.51744000  1.0
  C  C311  1  0.96678000  0.57856000  0.98256000  1.0
  N  N312  1  0.81828000  0.24818000  0.56517000  1.0
  N  N313  1  0.31826000  0.25182000  0.93483000  1.0
  N  N314  1  0.18173000  0.75182000  0.43483000  1.0
  N  N315  1  0.68174000  0.74819000  0.06517000  1.0
  N  N316  1  0.74833000  0.83592000  0.17048000  1.0
  N  N317  1  0.24832000  0.66408000  0.32952000  1.0
  N  N318  1  0.25170000  0.16409000  0.82953000  1.0
  N  N319  1  0.75168000  0.33591000  0.67047000  1.0
  N  N320  1  0.74792000  0.65557000  0.16157000  1.0
  N  N321  1  0.24791000  0.84443000  0.33843000  1.0
  N  N322  1  0.25207000  0.34444000  0.83843000  1.0
  N  N323  1  0.75209000  0.15556000  0.66157000  1.0
  N  N324  1  0.41332000  0.24740000  0.30619000  1.0
  N  N325  1  0.91331000  0.25262000  0.19381000  1.0
  N  N326  1  0.58668000  0.75261000  0.69381000  1.0
  N  N327  1  0.08669000  0.74737000  0.80619000  1.0
  O  O328  1  0.57810000  0.33943000  0.57627000  1.0
  O  O329  1  0.07811000  0.16057000  0.92374000  1.0
  O  O330  1  0.42188000  0.66056000  0.42374000  1.0
  O  O331  1  0.92190000  0.83944000  0.07626000  1.0
  O  O332  1  0.40607000  0.38155000  0.63254000  1.0
  O  O333  1  0.90608000  0.11845000  0.86747000  1.0
  O  O334  1  0.59393000  0.61845000  0.36747000  1.0
  O  O335  1  0.09393000  0.88155000  0.13253000  1.0
  O  O336  1  0.56520000  0.17433000  0.56981000  1.0
  O  O337  1  0.06517000  0.32565000  0.93019000  1.0
  O  O338  1  0.43482000  0.82565000  0.43019000  1.0
  O  O339  1  0.93483000  0.67434000  0.06981000  1.0
  O  O340  1  0.37840000  0.13146000  0.61813000  1.0
  O  O341  1  0.87840000  0.36856000  0.88186000  1.0
  O  O342  1  0.62160000  0.86855000  0.38185000  1.0
  O  O343  1  0.12160000  0.63144000  0.11814000  1.0
  O  O344  1  0.48612000  0.24758000  0.67657000  1.0
  O  O345  1  0.98611000  0.25241000  0.82343000  1.0
  O  O346  1  0.51388000  0.75241000  0.32343000  1.0
  O  O347  1  0.01389000  0.74759000  0.17656000  1.0
