# generated using pymatgen
data_AgH4C7N4
_symmetry_space_group_name_H-M   'P 1'
_cell_length_a   6.14425000
_cell_length_b   7.49355000
_cell_length_c   8.04246000
_cell_angle_alpha   88.22220000
_cell_angle_beta   82.77960000
_cell_angle_gamma   78.99250000
_symmetry_Int_Tables_number   1
_chemical_formula_structural   AgH4C7N4
_chemical_formula_sum   'Ag2 H8 C14 N8'
_cell_volume   360.58855734
_cell_formula_units_Z   2
loop_
 _symmetry_equiv_pos_site_id
 _symmetry_equiv_pos_as_xyz
  1  'x, y, z'
loop_
 _atom_site_type_symbol
 _atom_site_label
 _atom_site_symmetry_multiplicity
 _atom_site_fract_x
 _atom_site_fract_y
 _atom_site_fract_z
 _atom_site_occupancy
  Ag  Ag0  1  0.83660000  0.39001000  0.61271000  1.0
  Ag  Ag1  1  0.16340000  0.60999000  0.38729000  1.0
  H  H2  1  0.57047000  0.31645000  0.33859000  1.0
  H  H3  1  0.42952000  0.68355000  0.66141000  1.0
  H  H4  1  0.63109000  0.16790000  0.06209000  1.0
  H  H5  1  0.36891000  0.83211000  0.93791000  1.0
  H  H6  1  0.22127000  0.11528000  0.42795000  1.0
  H  H7  1  0.77873000  0.88472000  0.57205000  1.0
  H  H8  1  0.30746000  0.94635000  0.16109000  1.0
  H  H9  1  0.69253000  0.05365000  0.83891000  1.0
  C  C10  1  0.68025000  0.67721000  0.25409000  1.0
  C  C11  1  0.31975000  0.32279000  0.74590000  1.0
  C  C12  1  0.73218000  0.59346000  0.97250000  1.0
  C  C13  1  0.26783000  0.40653000  0.02750000  1.0
  C  C14  1  0.97730000  0.04373000  0.08297000  1.0
  C  C15  1  0.02270000  0.95627000  0.91703000  1.0
  C  C16  1  0.73212000  0.23511000  0.29246000  1.0
  C  C17  1  0.26788000  0.76489000  0.70755000  1.0
  C  C18  1  0.76780000  0.14919000  0.13848000  1.0
  C  C19  1  0.23219000  0.85081000  0.86152000  1.0
  C  C20  1  0.09463000  0.11979000  0.34369000  1.0
  C  C21  1  0.90537000  0.88021000  0.65631000  1.0
  C  C22  1  0.14102000  0.02704000  0.19270000  1.0
  C  C23  1  0.85897000  0.97296000  0.80730000  1.0
  N  N24  1  0.67606000  0.67011000  0.40177000  1.0
  N  N25  1  0.32394000  0.32989000  0.59824000  1.0
  N  N26  1  0.77401000  0.51006000  0.84683000  1.0
  N  N27  1  0.22600000  0.48994000  0.15317000  1.0
  N  N28  1  0.67561000  0.70558000  0.09513000  1.0
  N  N29  1  0.32439000  0.29442000  0.90488000  1.0
  N  N30  1  0.89385000  0.22368000  0.39335000  1.0
  N  N31  1  0.10616000  0.77632000  0.60665000  1.0
