# generated using pymatgen
data_CdH18C28(NO)4
_symmetry_space_group_name_H-M   'P 1'
_cell_length_a   9.24306000
_cell_length_b   11.42895081
_cell_length_c   13.15910000
_cell_angle_alpha   90.91819612
_cell_angle_beta   109.06500000
_cell_angle_gamma   113.43814607
_symmetry_Int_Tables_number   1
_chemical_formula_structural   CdH18C28(NO)4
_chemical_formula_sum   'Cd2 H36 C56 N8 O8'
_cell_volume   1188.25556107
_cell_formula_units_Z   2
loop_
 _symmetry_equiv_pos_site_id
 _symmetry_equiv_pos_as_xyz
  1  'x, y, z'
loop_
 _atom_site_type_symbol
 _atom_site_label
 _atom_site_symmetry_multiplicity
 _atom_site_fract_x
 _atom_site_fract_y
 _atom_site_fract_z
 _atom_site_occupancy
  Cd  Cd0  1  0.69070000  0.65832000  0.25753000  1.0
  Cd  Cd1  1  0.30929000  0.34167000  0.74247000  1.0
  H  H2  1  0.52132000  0.40166000  0.06557000  1.0
  H  H3  1  0.47868000  0.59834000  0.93443000  1.0
  H  H4  1  0.57550000  0.22032000  0.00415000  1.0
  H  H5  1  0.42450000  0.77967000  0.99585000  1.0
  H  H6  1  0.84102000  0.19962000  0.12222000  1.0
  H  H7  1  0.15899000  0.80038000  0.87778000  1.0
  H  H8  1  0.03426000  0.36117000  0.29181000  1.0
  H  H9  1  0.96575000  0.63884000  0.70819000  1.0
  H  H10  1  0.20628000  0.52336000  0.40492000  1.0
  H  H11  1  0.79374000  0.47666000  0.59508000  1.0
  H  H12  1  0.24069000  0.83155000  0.61884000  1.0
  H  H13  1  0.75931000  0.16845000  0.38116000  1.0
  H  H14  1  0.09700000  0.90607000  0.66764000  1.0
  H  H15  1  0.90301000  0.09395000  0.33235000  1.0
  H  H16  1  0.93345000  0.02525000  0.69169000  1.0
  H  H17  1  0.06657000  0.97478000  0.30829000  1.0
  H  H18  1  0.65959000  0.98566000  0.54321000  1.0
  H  H19  1  0.34042000  0.01436000  0.45677000  1.0
  H  H20  1  0.56425000  0.82955000  0.37043000  1.0
  H  H21  1  0.43575000  0.17044000  0.62957000  1.0
  H  H22  1  0.43688000  0.82043000  0.73156000  1.0
  H  H23  1  0.56311000  0.17957000  0.26844000  1.0
  H  H24  1  0.45091000  0.57631000  0.48374000  1.0
  H  H25  1  0.54911000  0.42370000  0.51627000  1.0
  H  H26  1  0.70850000  0.82477000  0.85354000  1.0
  H  H27  1  0.29150000  0.17524000  0.14647000  1.0
  H  H28  1  0.83016000  0.69343000  0.78904000  1.0
  H  H29  1  0.16986000  0.30659000  0.21097000  1.0
  H  H30  1  0.74651000  0.01276000  0.01722000  1.0
  H  H31  1  0.25348000  0.98724000  0.98278000  1.0
  H  H32  1  0.10863000  0.85156000  0.09987000  1.0
  H  H33  1  0.89135000  0.14845000  0.90014000  1.0
  H  H34  1  0.10342000  0.67304000  0.15724000  1.0
  H  H35  1  0.89657000  0.32694000  0.84274000  1.0
  H  H36  1  0.18087000  0.39180000  0.98760000  1.0
  H  H37  1  0.81911000  0.60817000  0.01237000  1.0
  C  C38  1  0.63303000  0.38821000  0.11297000  1.0
  C  C39  1  0.36698000  0.61179000  0.88703000  1.0
  C  C40  1  0.66461000  0.28700000  0.07978000  1.0
  C  C41  1  0.33539000  0.71299000  0.92022000  1.0
  C  C42  1  0.81069000  0.27678000  0.14491000  1.0
  C  C43  1  0.18931000  0.72322000  0.85510000  1.0
  C  C44  1  0.91962000  0.36727000  0.23951000  1.0
  C  C45  1  0.08039000  0.63274000  0.76049000  1.0
  C  C46  1  0.87920000  0.46613000  0.26685000  1.0
  C  C47  1  0.12080000  0.53387000  0.73316000  1.0
  C  C48  1  0.98848000  0.56593000  0.36664000  1.0
  C  C49  1  0.01153000  0.43408000  0.63335000  1.0
  C  C50  1  0.15271000  0.58343000  0.42920000  1.0
  C  C51  1  0.84730000  0.41657000  0.57080000  1.0
  C  C52  1  0.24727000  0.67852000  0.52343000  1.0
  C  C53  1  0.75274000  0.32148000  0.47657000  1.0
  C  C54  1  0.17171000  0.75457000  0.54849000  1.0
  C  C55  1  0.82829000  0.24543000  0.45151000  1.0
  C  C56  1  0.00708000  0.73160000  0.48272000  1.0
  C  C57  1  0.99292000  0.26840000  0.51728000  1.0
  C  C58  1  0.91804000  0.80707000  0.50472000  1.0
  C  C59  1  0.08196000  0.19293000  0.49528000  1.0
  C  C60  1  0.97938000  0.89153000  0.60264000  1.0
  C  C61  1  0.02062000  0.10848000  0.39736000  1.0
  C  C62  1  0.88726000  0.95750000  0.61704000  1.0
  C  C63  1  0.11275000  0.04252000  0.38294000  1.0
  C  C64  1  0.73562000  0.93678000  0.53402000  1.0
  C  C65  1  0.26438000  0.06322000  0.46597000  1.0
  C  C66  1  0.68248000  0.85212000  0.43840000  1.0
  C  C67  1  0.31752000  0.14788000  0.56160000  1.0
  C  C68  1  0.49529000  0.76836000  0.70162000  1.0
  C  C69  1  0.50471000  0.23164000  0.29839000  1.0
  C  C70  1  0.41622000  0.69430000  0.59660000  1.0
  C  C71  1  0.58380000  0.30571000  0.40340000  1.0
  C  C72  1  0.50233000  0.63065000  0.56602000  1.0
  C  C73  1  0.49768000  0.36936000  0.43399000  1.0
  C  C74  1  0.64668000  0.77061000  0.77093000  1.0
  C  C75  1  0.35333000  0.22940000  0.22908000  1.0
  C  C76  1  0.71579000  0.69822000  0.73407000  1.0
  C  C77  1  0.28424000  0.30180000  0.26594000  1.0
  C  C78  1  0.83264000  0.84432000  0.13621000  1.0
  C  C79  1  0.16734000  0.15566000  0.86380000  1.0
  C  C80  1  0.91992000  0.92535000  0.06636000  1.0
  C  C81  1  0.08006000  0.07465000  0.93365000  1.0
  C  C82  1  0.85900000  0.00923000  0.00987000  1.0
  C  C83  1  0.14099000  0.99077000  0.99014000  1.0
  C  C84  1  0.06185000  0.91676000  0.05581000  1.0
  C  C85  1  0.93812000  0.08324000  0.94419000  1.0
  C  C86  1  0.33491000  0.58271000  0.16458000  1.0
  C  C87  1  0.66505000  0.41726000  0.83542000  1.0
  C  C88  1  0.15976000  0.53666000  0.08133000  1.0
  C  C89  1  0.84022000  0.46331000  0.91865000  1.0
  C  C90  1  0.05760000  0.59768000  0.08785000  1.0
  C  C91  1  0.94238000  0.40229000  0.91213000  1.0
  C  C92  1  0.10061000  0.43822000  0.99311000  1.0
  C  C93  1  0.89937000  0.56175000  0.00687000  1.0
  N  N94  1  0.73686000  0.47449000  0.20410000  1.0
  N  N95  1  0.26315000  0.52551000  0.79590000  1.0
  N  N96  1  0.91913000  0.63834000  0.39468000  1.0
  N  N97  1  0.08089000  0.36166000  0.60533000  1.0
  N  N98  1  0.77222000  0.78985000  0.42441000  1.0
  N  N99  1  0.22778000  0.21014000  0.57559000  1.0
  N  N100  1  0.64767000  0.63113000  0.63256000  1.0
  N  N101  1  0.35235000  0.36889000  0.36745000  1.0
  O  O102  1  0.69994000  0.84841000  0.14066000  1.0
  O  O103  1  0.30004000  0.15157000  0.85935000  1.0
  O  O104  1  0.90052000  0.77422000  0.18902000  1.0
  O  O105  1  0.09951000  0.22579000  0.81099000  1.0
  O  O106  1  0.43209000  0.54026000  0.14023000  1.0
  O  O107  1  0.56791000  0.45975000  0.85977000  1.0
  O  O108  1  0.38141000  0.66030000  0.24996000  1.0
  O  O109  1  0.61852000  0.33965000  0.75004000  1.0
