# generated using pymatgen
data_CaH11C17N2O5
_symmetry_space_group_name_H-M   'P 1'
_cell_length_a   10.01900000
_cell_length_b   11.91950000
_cell_length_c   14.71220000
_cell_angle_alpha   108.43400000
_cell_angle_beta   90.00000000
_cell_angle_gamma   114.85200000
_symmetry_Int_Tables_number   1
_chemical_formula_structural   CaH11C17N2O5
_chemical_formula_sum   'Ca4 H44 C68 N8 O20'
_cell_volume   1494.31702267
_cell_formula_units_Z   4
loop_
 _symmetry_equiv_pos_site_id
 _symmetry_equiv_pos_as_xyz
  1  'x, y, z'
loop_
 _atom_site_type_symbol
 _atom_site_label
 _atom_site_symmetry_multiplicity
 _atom_site_fract_x
 _atom_site_fract_y
 _atom_site_fract_z
 _atom_site_occupancy
  Ca  Ca0  1  0.60170000  0.91558000  0.90933000  1.0
  Ca  Ca1  1  0.68592000  0.08432000  0.59062000  1.0
  Ca  Ca2  1  0.39830000  0.08442000  0.09067000  1.0
  Ca  Ca3  1  0.31408000  0.91568000  0.40938000  1.0
  H  H4  1  0.21898000  0.75058000  0.88404000  1.0
  H  H5  1  0.46777000  0.24938000  0.61595000  1.0
  H  H6  1  0.78102000  0.24942000  0.11596000  1.0
  H  H7  1  0.53223000  0.75062000  0.38405000  1.0
  H  H8  1  0.00659000  0.52552000  0.82653000  1.0
  H  H9  1  0.48048000  0.47443000  0.67353000  1.0
  H  H10  1  0.99341000  0.47448000  0.17347000  1.0
  H  H11  1  0.51952000  0.52557000  0.32647000  1.0
  H  H12  1  0.05753000  0.32959000  0.80391000  1.0
  H  H13  1  0.72742000  0.67040000  0.69618000  1.0
  H  H14  1  0.94247000  0.67041000  0.19609000  1.0
  H  H15  1  0.27258000  0.32960000  0.30382000  1.0
  H  H16  1  0.50281000  0.28757000  0.85990000  1.0
  H  H17  1  0.21469000  0.71236000  0.64031000  1.0
  H  H18  1  0.49719000  0.71243000  0.14010000  1.0
  H  H19  1  0.78531000  0.28764000  0.35969000  1.0
  H  H20  1  0.24191000  0.24629000  0.82108000  1.0
  H  H21  1  0.99509000  0.75368000  0.67904000  1.0
  H  H22  1  0.75809000  0.75371000  0.17892000  1.0
  H  H23  1  0.00491000  0.24632000  0.32096000  1.0
  H  H24  1  0.76883000  0.44556000  0.91900000  1.0
  H  H25  1  0.32270000  0.55445000  0.58133000  1.0
  H  H26  1  0.23118000  0.55444000  0.08100000  1.0
  H  H27  1  0.67731000  0.44555000  0.41867000  1.0
  H  H28  1  0.96641000  0.68325000  0.97941000  1.0
  H  H29  1  0.28276000  0.31684000  0.52082000  1.0
  H  H30  1  0.03359000  0.31675000  0.02059000  1.0
  H  H31  1  0.71724000  0.68316000  0.47918000  1.0
  H  H32  1  0.89439000  0.85893000  0.98374000  1.0
  H  H33  1  0.03502000  0.14103000  0.51628000  1.0
  H  H34  1  0.10561000  0.14107000  0.01626000  1.0
  H  H35  1  0.96498000  0.85897000  0.48372000  1.0
  H  H36  1  0.10905000  0.94162000  0.89917000  1.0
  H  H37  1  0.16777000  0.05849000  0.60090000  1.0
  H  H38  1  0.89095000  0.05838000  0.10083000  1.0
  H  H39  1  0.83223000  0.94151000  0.39910000  1.0
  H  H40  1  0.62708000  0.13151000  0.83379000  1.0
  H  H41  1  0.49560000  0.86849000  0.66628000  1.0
  H  H42  1  0.37292000  0.86849000  0.16621000  1.0
  H  H43  1  0.50440000  0.13151000  0.33372000  1.0
  H  H44  1  0.78175000  0.13697000  0.84123000  1.0
  H  H45  1  0.64479000  0.86300000  0.65890000  1.0
  H  H46  1  0.21825000  0.86303000  0.15877000  1.0
  H  H47  1  0.35521000  0.13700000  0.34110000  1.0
  C  C48  1  0.23909000  0.66447000  0.87269000  1.0
  C  C49  1  0.57399000  0.33547000  0.62727000  1.0
  C  C50  1  0.76091000  0.33553000  0.12731000  1.0
  C  C51  1  0.42601000  0.66453000  0.37273000  1.0
  C  C52  1  0.11916000  0.53739000  0.84155000  1.0
  C  C53  1  0.58118000  0.46256000  0.65847000  1.0
  C  C54  1  0.88084000  0.46261000  0.15845000  1.0
  C  C55  1  0.41882000  0.53744000  0.34154000  1.0
  C  C56  1  0.14738000  0.43009000  0.82901000  1.0
  C  C57  1  0.71671000  0.56986000  0.67103000  1.0
  C  C58  1  0.85262000  0.56991000  0.17099000  1.0
  C  C59  1  0.28329000  0.43014000  0.32897000  1.0
  C  C60  1  0.29576000  0.45154000  0.84961000  1.0
  C  C61  1  0.84361000  0.54838000  0.65040000  1.0
  C  C62  1  0.70424000  0.54846000  0.15039000  1.0
  C  C63  1  0.15639000  0.45162000  0.34960000  1.0
  C  C64  1  0.41015000  0.58356000  0.87989000  1.0
  C  C65  1  0.82595000  0.41634000  0.62006000  1.0
  C  C66  1  0.58985000  0.41644000  0.12011000  1.0
  C  C67  1  0.17405000  0.58366000  0.37994000  1.0
  C  C68  1  0.56266000  0.60825000  0.90338000  1.0
  C  C69  1  0.95378000  0.39165000  0.59657000  1.0
  C  C70  1  0.43734000  0.39175000  0.09662000  1.0
  C  C71  1  0.04622000  0.60835000  0.40343000  1.0
  C  C72  1  0.59375000  0.49978000  0.89645000  1.0
  C  C73  1  0.09336000  0.50013000  0.60366000  1.0
  C  C74  1  0.40625000  0.50022000  0.10355000  1.0
  C  C75  1  0.90664000  0.49987000  0.39634000  1.0
  C  C76  1  0.47562000  0.36872000  0.86552000  1.0
  C  C77  1  0.10632000  0.63121000  0.63464000  1.0
  C  C78  1  0.52438000  0.63127000  0.13448000  1.0
  C  C79  1  0.89368000  0.36879000  0.36536000  1.0
  C  C80  1  0.33222000  0.34570000  0.84295000  1.0
  C  C81  1  0.98593000  0.65424000  0.65714000  1.0
  C  C82  1  0.66778000  0.65430000  0.15705000  1.0
  C  C83  1  0.01407000  0.34576000  0.34286000  1.0
  C  C84  1  0.74267000  0.52704000  0.92280000  1.0
  C  C85  1  0.21506000  0.47293000  0.57739000  1.0
  C  C86  1  0.25733000  0.47296000  0.07720000  1.0
  C  C87  1  0.78494000  0.52707000  0.42261000  1.0
  C  C88  1  0.85071000  0.65630000  0.95515000  1.0
  C  C89  1  0.19392000  0.34369000  0.54498000  1.0
  C  C90  1  0.14929000  0.34370000  0.04485000  1.0
  C  C91  1  0.80608000  0.65631000  0.45502000  1.0
  C  C92  1  0.80970000  0.75677000  0.95862000  1.0
  C  C93  1  0.05239000  0.24317000  0.54136000  1.0
  C  C94  1  0.19031000  0.24323000  0.04138000  1.0
  C  C95  1  0.94761000  0.75683000  0.45864000  1.0
  C  C96  1  0.86619000  0.95547000  0.83339000  1.0
  C  C97  1  0.91073000  0.04443000  0.66644000  1.0
  C  C98  1  0.13381000  0.04453000  0.16661000  1.0
  C  C99  1  0.08927000  0.95557000  0.33356000  1.0
  C  C100  1  0.00880000  0.98332000  0.79204000  1.0
  C  C101  1  0.02551000  0.01659000  0.70785000  1.0
  C  C102  1  0.99120000  0.01668000  0.20796000  1.0
  C  C103  1  0.97449000  0.98341000  0.29215000  1.0
  C  C104  1  0.12236000  0.96822000  0.83410000  1.0
  C  C105  1  0.15430000  0.03181000  0.66592000  1.0
  C  C106  1  0.87763000  0.03178000  0.16589000  1.0
  C  C107  1  0.84570000  0.96819000  0.33408000  1.0
  C  C108  1  0.36028000  0.94933000  0.83311000  1.0
  C  C109  1  0.41105000  0.05074000  0.66705000  1.0
  C  C110  1  0.63972000  0.05067000  0.16689000  1.0
  C  C111  1  0.58894000  0.94926000  0.33295000  1.0
  C  C112  1  0.25112000  0.98290000  0.79204000  1.0
  C  C113  1  0.26829000  0.01712000  0.70804000  1.0
  C  C114  1  0.74887000  0.01710000  0.20796000  1.0
  C  C115  1  0.73171000  0.98288000  0.29196000  1.0
  N  N116  1  0.38061000  0.68807000  0.88988000  1.0
  N  N117  1  0.69187000  0.31184000  0.61002000  1.0
  N  N118  1  0.61940000  0.31193000  0.11012000  1.0
  N  N119  1  0.30813000  0.68816000  0.38998000  1.0
  N  N120  1  0.67077000  0.73466000  0.93282000  1.0
  N  N121  1  0.93552000  0.26523000  0.56707000  1.0
  N  N122  1  0.32923000  0.26534000  0.06718000  1.0
  N  N123  1  0.06448000  0.73477000  0.43293000  1.0
  O  O124  1  0.87249000  0.01021000  0.92360000  1.0
  O  O125  1  0.86233000  0.98974000  0.57623000  1.0
  O  O126  1  0.12751000  0.98979000  0.07640000  1.0
  O  O127  1  0.13767000  0.01026000  0.42377000  1.0
  O  O128  1  0.74384000  0.87482000  0.77553000  1.0
  O  O129  1  0.86900000  0.12505000  0.72431000  1.0
  O  O130  1  0.25616000  0.12518000  0.22447000  1.0
  O  O131  1  0.13100000  0.87495000  0.27569000  1.0
  O  O132  1  0.70008000  0.13231000  0.87941000  1.0
  O  O133  1  0.56778000  0.86760000  0.62066000  1.0
  O  O134  1  0.29992000  0.86769000  0.12059000  1.0
  O  O135  1  0.43222000  0.13239000  0.37934000  1.0
  O  O136  1  0.39003000  0.98512000  0.92526000  1.0
  O  O137  1  0.40506000  0.01500000  0.57491000  1.0
  O  O138  1  0.60997000  0.01488000  0.07474000  1.0
  O  O139  1  0.59494000  0.98500000  0.42509000  1.0
  O  O140  1  0.41576000  0.88161000  0.77623000  1.0
  O  O141  1  0.53425000  0.11848000  0.72395000  1.0
  O  O142  1  0.58424000  0.11838000  0.22377000  1.0
  O  O143  1  0.46575000  0.88152000  0.27605000  1.0
