# generated using pymatgen
data_H12RhC16(NO)4
_symmetry_space_group_name_H-M   'P 1'
_cell_length_a   9.51304000
_cell_length_b   10.24860000
_cell_length_c   10.46990000
_cell_angle_alpha   74.45930000
_cell_angle_beta   64.35790000
_cell_angle_gamma   64.09100000
_symmetry_Int_Tables_number   1
_chemical_formula_structural   H12RhC16(NO)4
_chemical_formula_sum   'H24 Rh2 C32 N8 O8'
_cell_volume   823.82124155
_cell_formula_units_Z   2
loop_
 _symmetry_equiv_pos_site_id
 _symmetry_equiv_pos_as_xyz
  1  'x, y, z'
loop_
 _atom_site_type_symbol
 _atom_site_label
 _atom_site_symmetry_multiplicity
 _atom_site_fract_x
 _atom_site_fract_y
 _atom_site_fract_z
 _atom_site_occupancy
  H  H0  1  0.74790000  0.78453000  0.09441000  1.0
  H  H1  1  0.25209000  0.21547000  0.90560000  1.0
  H  H2  1  0.77668000  0.92460000  0.85729000  1.0
  H  H3  1  0.22332000  0.07540000  0.14272000  1.0
  H  H4  1  0.61557000  0.92621000  0.72140000  1.0
  H  H5  1  0.38442000  0.07380000  0.27861000  1.0
  H  H6  1  0.42295000  0.78890000  0.82633000  1.0
  H  H7  1  0.57705000  0.21111000  0.17367000  1.0
  H  H8  1  0.39131000  0.65216000  0.06696000  1.0
  H  H9  1  0.60868000  0.34784000  0.93304000  1.0
  H  H10  1  0.00678000  0.09061000  0.36916000  1.0
  H  H11  1  0.99322000  0.90940000  0.63083000  1.0
  H  H12  1  0.18018000  0.83379000  0.30368000  1.0
  H  H13  1  0.81983000  0.16622000  0.69632000  1.0
  H  H14  1  0.04794000  0.68839000  0.27489000  1.0
  H  H15  1  0.95207000  0.31160000  0.72511000  1.0
  H  H16  1  0.74153000  0.79033000  0.32173000  1.0
  H  H17  1  0.25847000  0.20967000  0.67827000  1.0
  H  H18  1  0.57034000  0.04553000  0.38752000  1.0
  H  H19  1  0.42966000  0.95447000  0.61247000  1.0
  H  H20  1  0.00571000  0.38640000  0.32040000  1.0
  H  H21  1  0.99430000  0.61360000  0.67960000  1.0
  H  H22  1  0.27291000  0.36515000  0.33439000  1.0
  H  H23  1  0.72710000  0.63486000  0.66561000  1.0
  Rh  Rh24  1  0.62434000  0.50961000  0.49556000  1.0
  Rh  Rh25  1  0.37566000  0.49038000  0.50444000  1.0
  C  C26  1  0.54857000  0.62801000  0.23866000  1.0
  C  C27  1  0.45143000  0.37198000  0.76133000  1.0
  C  C28  1  0.56803000  0.70962000  0.09508000  1.0
  C  C29  1  0.43197000  0.29038000  0.90493000  1.0
  C  C30  1  0.67757000  0.78561000  0.03501000  1.0
  C  C31  1  0.32243000  0.21438000  0.96500000  1.0
  C  C32  1  0.69371000  0.86371000  0.90145000  1.0
  C  C33  1  0.30628000  0.13629000  0.09855000  1.0
  C  C34  1  0.60222000  0.86522000  0.82623000  1.0
  C  C35  1  0.39778000  0.13478000  0.17377000  1.0
  C  C36  1  0.49358000  0.78874000  0.88519000  1.0
  C  C37  1  0.50641000  0.21126000  0.11481000  1.0
  C  C38  1  0.47575000  0.71185000  0.01944000  1.0
  C  C39  1  0.52425000  0.28815000  0.98056000  1.0
  C  C40  1  0.67816000  0.23634000  0.41679000  1.0
  C  C41  1  0.32184000  0.76366000  0.58320000  1.0
  C  C42  1  0.77935000  0.08387000  0.37928000  1.0
  C  C43  1  0.22065000  0.91613000  0.62071000  1.0
  C  C44  1  0.95117000  0.02409000  0.35658000  1.0
  C  C45  1  0.04883000  0.97591000  0.64341000  1.0
  C  C46  1  0.04701000  0.88164000  0.32025000  1.0
  C  C47  1  0.95299000  0.11837000  0.67975000  1.0
  C  C48  1  0.97187000  0.79880000  0.30569000  1.0
  C  C49  1  0.02813000  0.20120000  0.69431000  1.0
  C  C50  1  0.80040000  0.85652000  0.33016000  1.0
  C  C51  1  0.19959000  0.14349000  0.66984000  1.0
  C  C52  1  0.70429000  0.99879000  0.36713000  1.0
  C  C53  1  0.29571000  0.00120000  0.63286000  1.0
  C  C54  1  0.00349000  0.43761000  0.40035000  1.0
  C  C55  1  0.99651000  0.56239000  0.59965000  1.0
  C  C56  1  0.15048000  0.42548000  0.40843000  1.0
  C  C57  1  0.84952000  0.57452000  0.59157000  1.0
  N  N58  1  0.85186000  0.51225000  0.49206000  1.0
  N  N59  1  0.14813000  0.48775000  0.50794000  1.0
  N  N60  1  0.89989000  0.40562000  0.97747000  1.0
  N  N61  1  0.10010000  0.59438000  0.02253000  1.0
  N  N62  1  0.83951000  0.34489000  0.07618000  1.0
  N  N63  1  0.16049000  0.65511000  0.92383000  1.0
  N  N64  1  0.04718000  0.01801000  0.00044000  1.0
  N  N65  1  0.95282000  0.98199000  0.99956000  1.0
  O  O66  1  0.65680000  0.60633000  0.29174000  1.0
  O  O67  1  0.34320000  0.39366000  0.70826000  1.0
  O  O68  1  0.42391000  0.58565000  0.29948000  1.0
  O  O69  1  0.57609000  0.41435000  0.70052000  1.0
  O  O70  1  0.75534000  0.30621000  0.42812000  1.0
  O  O71  1  0.24466000  0.69379000  0.57188000  1.0
  O  O72  1  0.52167000  0.28698000  0.43565000  1.0
  O  O73  1  0.47833000  0.71302000  0.56435000  1.0
