# generated using pymatgen
data_HoH14C12N3O10
_symmetry_space_group_name_H-M   'P 1'
_cell_length_a   7.79959000
_cell_length_b   10.62460000
_cell_length_c   11.76896288
_cell_angle_alpha   103.59931203
_cell_angle_beta   107.43157372
_cell_angle_gamma   108.27020000
_symmetry_Int_Tables_number   1
_chemical_formula_structural   HoH14C12N3O10
_chemical_formula_sum   'Ho2 H28 C24 N6 O20'
_cell_volume   823.23454452
_cell_formula_units_Z   2
loop_
 _symmetry_equiv_pos_site_id
 _symmetry_equiv_pos_as_xyz
  1  'x, y, z'
loop_
 _atom_site_type_symbol
 _atom_site_label
 _atom_site_symmetry_multiplicity
 _atom_site_fract_x
 _atom_site_fract_y
 _atom_site_fract_z
 _atom_site_occupancy
  Ho  Ho0  1  0.26777000  0.04796000  0.50326000  1.0
  Ho  Ho1  1  0.73222000  0.95204000  0.49674000  1.0
  H  H2  1  0.28901000  0.38880000  0.28640000  1.0
  H  H3  1  0.71098000  0.61119000  0.71359000  1.0
  H  H4  1  0.46928000  0.56022000  0.32467000  1.0
  H  H5  1  0.53072000  0.43978000  0.67533000  1.0
  H  H6  1  0.89177000  0.47277000  0.69294000  1.0
  H  H7  1  0.10822000  0.52723000  0.30705000  1.0
  H  H8  1  0.92749000  0.45604000  0.54960000  1.0
  H  H9  1  0.07250000  0.54395000  0.45039000  1.0
  H  H10  1  0.80792000  0.49724000  0.08076000  1.0
  H  H11  1  0.19209000  0.50276000  0.91924000  1.0
  H  H12  1  0.69535000  0.50953000  0.19159000  1.0
  H  H13  1  0.30466000  0.49048000  0.80842000  1.0
  H  H14  1  0.03744000  0.23866000  0.81601000  1.0
  H  H15  1  0.96257000  0.76135000  0.18400000  1.0
  H  H16  1  0.18207000  0.15289000  0.88076000  1.0
  H  H17  1  0.81794000  0.84711000  0.11924000  1.0
  H  H18  1  0.51774000  0.93027000  0.87300000  1.0
  H  H19  1  0.48226000  0.06973000  0.12700000  1.0
  H  H20  1  0.63606000  0.11922000  0.93010000  1.0
  H  H21  1  0.36393000  0.88078000  0.06990000  1.0
  H  H22  1  0.70922000  0.79714000  0.89879000  1.0
  H  H23  1  0.29078000  0.20286000  0.10121000  1.0
  H  H24  1  0.81273000  0.85322000  0.79590000  1.0
  H  H25  1  0.18727000  0.14678000  0.20410000  1.0
  H  H26  1  0.04466000  0.16675000  0.35468000  1.0
  H  H27  1  0.95534000  0.83325000  0.64532000  1.0
  H  H28  1  0.07137000  0.24348000  0.49114000  1.0
  H  H29  1  0.92863000  0.75652000  0.50886000  1.0
  C  C30  1  0.57796000  0.43624000  0.41567000  1.0
  C  C31  1  0.42203000  0.56376000  0.58432000  1.0
  C  C32  1  0.41393000  0.48144000  0.36595000  1.0
  C  C33  1  0.58606000  0.51855000  0.63404000  1.0
  C  C34  1  0.81755000  0.41954000  0.58829000  1.0
  C  C35  1  0.18244000  0.58046000  0.41170000  1.0
  C  C36  1  0.75065000  0.25986000  0.55622000  1.0
  C  C37  1  0.24934000  0.74013000  0.44378000  1.0
  C  C38  1  0.67656000  0.50473000  0.09356000  1.0
  C  C39  1  0.32345000  0.49528000  0.90644000  1.0
  C  C40  1  0.18125000  0.23314000  0.83682000  1.0
  C  C41  1  0.81876000  0.76686000  0.16318000  1.0
  C  C42  1  0.50404000  0.36540000  0.00532000  1.0
  C  C43  1  0.49597000  0.63460000  0.99468000  1.0
  C  C44  1  0.20349000  0.17954000  0.71354000  1.0
  C  C45  1  0.79652000  0.82047000  0.28647000  1.0
  C  C46  1  0.63909000  0.02076000  0.87610000  1.0
  C  C47  1  0.36092000  0.97924000  0.12391000  1.0
  C  C48  1  0.59790000  0.01405000  0.73953000  1.0
  C  C49  1  0.40211000  0.98595000  0.26048000  1.0
  C  C50  1  0.83457000  0.87967000  0.89695000  1.0
  C  C51  1  0.16542000  0.12033000  0.10305000  1.0
  C  C52  1  0.97923000  0.13475000  0.03399000  1.0
  C  C53  1  0.02077000  0.86525000  0.96601000  1.0
  N  N54  1  0.65583000  0.45944000  0.54185000  1.0
  N  N55  1  0.34416000  0.54056000  0.45814000  1.0
  N  N56  1  0.34036000  0.36818000  0.92472000  1.0
  N  N57  1  0.65966000  0.63182000  0.07529000  1.0
  N  N58  1  0.82528000  0.01603000  0.94188000  1.0
  N  N59  1  0.17472000  0.98397000  0.05812000  1.0
  O  O60  1  0.63987000  0.38178000  0.34000000  1.0
  O  O61  1  0.36010000  0.61821000  0.65999000  1.0
  O  O62  1  0.57787000  0.18594000  0.54203000  1.0
  O  O63  1  0.42212000  0.81406000  0.45797000  1.0
  O  O64  1  0.87414000  0.20636000  0.54916000  1.0
  O  O65  1  0.12586000  0.79364000  0.45084000  1.0
  O  O66  1  0.51405000  0.25264000  0.01128000  1.0
  O  O67  1  0.48597000  0.74737000  0.98872000  1.0
  O  O68  1  0.34539000  0.24883000  0.69213000  1.0
  O  O69  1  0.65463000  0.75117000  0.30788000  1.0
  O  O70  1  0.07430000  0.05500000  0.63115000  1.0
  O  O71  1  0.92570000  0.94501000  0.36885000  1.0
  O  O72  1  0.43188000  0.01090000  0.67847000  1.0
  O  O73  1  0.56812000  0.98910000  0.32154000  1.0
  O  O74  1  0.72840000  0.01218000  0.69525000  1.0
  O  O75  1  0.27159000  0.98782000  0.30475000  1.0
  O  O76  1  0.97504000  0.25352000  0.06689000  1.0
  O  O77  1  0.02495000  0.74648000  0.93311000  1.0
  O  O78  1  0.14738000  0.22097000  0.44099000  1.0
  O  O79  1  0.85262000  0.77903000  0.55901000  1.0
