# generated using pymatgen
data_CdH18C22(NO)8
_symmetry_space_group_name_H-M   'P 1'
_cell_length_a   7.79987000
_cell_length_b   8.25563000
_cell_length_c   9.91381000
_cell_angle_alpha   93.52750000
_cell_angle_beta   97.36410000
_cell_angle_gamma   112.67000000
_symmetry_Int_Tables_number   1
_chemical_formula_structural   CdH18C22(NO)8
_chemical_formula_sum   'Cd1 H18 C22 N8 O8'
_cell_volume   579.89071050
_cell_formula_units_Z   1
loop_
 _symmetry_equiv_pos_site_id
 _symmetry_equiv_pos_as_xyz
  1  'x, y, z'
loop_
 _atom_site_type_symbol
 _atom_site_label
 _atom_site_symmetry_multiplicity
 _atom_site_fract_x
 _atom_site_fract_y
 _atom_site_fract_z
 _atom_site_occupancy
  Cd  Cd0  1  0.50000000  0.50000000  0.00000000  1.0
  H  H1  1  0.51788000  0.12665000  0.86321000  1.0
  H  H2  1  0.48212000  0.87335000  0.13679000  1.0
  H  H3  1  0.40916000  0.92723000  0.64035000  1.0
  H  H4  1  0.59084000  0.07277000  0.35965000  1.0
  H  H5  1  0.26346000  0.02075000  0.43751000  1.0
  H  H6  1  0.73654000  0.97925000  0.56249000  1.0
  H  H7  1  0.36131000  0.50383000  0.68703000  1.0
  H  H8  1  0.63869000  0.49617000  0.31297000  1.0
  H  H9  1  0.17384000  0.22623000  0.34572000  1.0
  H  H10  1  0.82616000  0.77377000  0.65428000  1.0
  H  H11  1  0.89958000  0.18205000  0.25761000  1.0
  H  H12  1  0.10042000  0.81795000  0.74239000  1.0
  H  H13  1  0.65542000  0.20084000  0.08182000  1.0
  H  H14  1  0.34458000  0.79916000  0.91818000  1.0
  H  H15  1  0.93315000  0.74634000  0.10480000  1.0
  H  H16  1  0.06685000  0.25365000  0.89520000  1.0
  H  H17  1  0.18146000  0.75129000  0.29038000  1.0
  H  H18  1  0.81854000  0.24870000  0.70962000  1.0
  C  C19  1  0.45612000  0.16429000  0.77213000  1.0
  C  C20  1  0.54388000  0.83571000  0.22787000  1.0
  C  C21  1  0.39598000  0.05395000  0.64819000  1.0
  C  C22  1  0.60402000  0.94605000  0.35181000  1.0
  C  C23  1  0.31491000  0.10556000  0.53512000  1.0
  C  C24  1  0.68509000  0.89444000  0.46487000  1.0
  C  C25  1  0.30031000  0.27017000  0.54668000  1.0
  C  C26  1  0.69969000  0.72983000  0.45331000  1.0
  C  C27  1  0.36721000  0.37469000  0.67445000  1.0
  C  C28  1  0.63279000  0.62531000  0.32555000  1.0
  C  C29  1  0.19088000  0.47180000  0.41864000  1.0
  C  C30  1  0.80912000  0.52820000  0.58136000  1.0
  C  C31  1  0.06032000  0.46709000  0.29165000  1.0
  C  C32  1  0.93968000  0.53291000  0.70835000  1.0
  C  C33  1  0.91410000  0.31046000  0.22742000  1.0
  C  C34  1  0.08590000  0.68954000  0.77258000  1.0
  C  C35  1  0.77680000  0.31956000  0.12769000  1.0
  C  C36  1  0.22320000  0.68044000  0.87231000  1.0
  C  C37  1  0.93014000  0.62355000  0.14116000  1.0
  C  C38  1  0.06986000  0.37645000  0.85884000  1.0
  C  C39  1  0.06963000  0.62604000  0.24457000  1.0
  C  C40  1  0.93037000  0.37396000  0.75543000  1.0
  N  N41  1  0.43962000  0.32037000  0.78451000  1.0
  N  N42  1  0.56038000  0.67963000  0.21549000  1.0
  N  N43  1  0.21457000  0.31734000  0.43228000  1.0
  N  N44  1  0.78543000  0.68266000  0.56772000  1.0
  N  N45  1  0.78197000  0.47339000  0.08659000  1.0
  N  N46  1  0.21803000  0.52661000  0.91341000  1.0
  N  N47  1  0.25696000  0.12552000  0.13018000  1.0
  N  N48  1  0.74304000  0.87448000  0.86982000  1.0
  O  O49  1  0.26086000  0.60518000  0.50461000  1.0
  O  O50  1  0.73914000  0.39482000  0.49539000  1.0
  O  O51  1  0.31388000  0.29454000  0.13986000  1.0
  O  O52  1  0.68612000  0.70546000  0.86014000  1.0
  O  O53  1  0.14620000  0.04477000  0.21018000  1.0
  O  O54  1  0.85380000  0.95523000  0.78982000  1.0
  O  O55  1  0.30982000  0.04384000  0.04524000  1.0
  O  O56  1  0.69018000  0.95616000  0.95476000  1.0
