# generated using pymatgen
data_CdH16C16(SN5)2
_symmetry_space_group_name_H-M   'P 1'
_cell_length_a   9.14468000
_cell_length_b   9.14470000
_cell_length_c   13.82670000
_cell_angle_alpha   90.00000000
_cell_angle_beta   90.00010000
_cell_angle_gamma   117.97500000
_symmetry_Int_Tables_number   1
_chemical_formula_structural   CdH16C16(SN5)2
_chemical_formula_sum   'Cd2 H32 C32 S4 N20'
_cell_volume   1021.15612467
_cell_formula_units_Z   2
loop_
 _symmetry_equiv_pos_site_id
 _symmetry_equiv_pos_as_xyz
  1  'x, y, z'
loop_
 _atom_site_type_symbol
 _atom_site_label
 _atom_site_symmetry_multiplicity
 _atom_site_fract_x
 _atom_site_fract_y
 _atom_site_fract_z
 _atom_site_occupancy
  Cd  Cd0  1  0.00000000  0.00000000  0.00000000  1.0
  Cd  Cd1  1  0.50000000  0.50000000  0.50000000  1.0
  H  H2  1  0.33522000  0.29674000  0.13853000  1.0
  H  H3  1  0.16478000  0.20326000  0.63853000  1.0
  H  H4  1  0.20327000  0.16478000  0.36147000  1.0
  H  H5  1  0.29673000  0.33522000  0.86147000  1.0
  H  H6  1  0.66477000  0.70326000  0.86148000  1.0
  H  H7  1  0.83522000  0.79674000  0.36147000  1.0
  H  H8  1  0.79674000  0.83522000  0.63853000  1.0
  H  H9  1  0.70326000  0.66478000  0.13853000  1.0
  H  H10  1  0.91598000  0.33120000  0.03823000  1.0
  H  H11  1  0.58402000  0.16880000  0.53823000  1.0
  H  H12  1  0.16880000  0.58402000  0.46177000  1.0
  H  H13  1  0.33120000  0.91598000  0.96177000  1.0
  H  H14  1  0.08402000  0.66880000  0.96177000  1.0
  H  H15  1  0.41598000  0.83120000  0.46177000  1.0
  H  H16  1  0.83121000  0.41598000  0.53823000  1.0
  H  H17  1  0.66879000  0.08402000  0.03823000  1.0
  H  H18  1  0.10509000  0.60588000  0.15220000  1.0
  H  H19  1  0.39491000  0.89412000  0.65220000  1.0
  H  H20  1  0.89412000  0.39491000  0.34780000  1.0
  H  H21  1  0.60588000  0.10509000  0.84780000  1.0
  H  H22  1  0.89491000  0.39412000  0.84780000  1.0
  H  H23  1  0.60509000  0.10588000  0.34780000  1.0
  H  H24  1  0.10588000  0.60509000  0.65220000  1.0
  H  H25  1  0.39412000  0.89491000  0.15220000  1.0
  H  H26  1  0.34445000  0.65555000  0.27439000  1.0
  H  H27  1  0.15555000  0.84445000  0.77439000  1.0
  H  H28  1  0.84445000  0.15556000  0.22561000  1.0
  H  H29  1  0.65555000  0.34444000  0.72561000  1.0
  H  H30  1  0.45718000  0.54282000  0.25584000  1.0
  H  H31  1  0.04282000  0.95718000  0.75584000  1.0
  H  H32  1  0.95718000  0.04282000  0.24416000  1.0
  H  H33  1  0.54282000  0.45718000  0.74416000  1.0
  C  C34  1  0.24418000  0.33958000  0.12561000  1.0
  C  C35  1  0.25582000  0.16042000  0.62561000  1.0
  C  C36  1  0.16042000  0.25582000  0.37439000  1.0
  C  C37  1  0.33958000  0.24418000  0.87439000  1.0
  C  C38  1  0.75582000  0.66042000  0.87439000  1.0
  C  C39  1  0.74418000  0.83958000  0.37439000  1.0
  C  C40  1  0.83958000  0.74417000  0.62561000  1.0
  C  C41  1  0.66042000  0.75582000  0.12561000  1.0
  C  C42  1  0.03068000  0.36386000  0.07610000  1.0
  C  C43  1  0.46932000  0.13613000  0.57610000  1.0
  C  C44  1  0.13614000  0.46933000  0.42390000  1.0
  C  C45  1  0.36386000  0.03068000  0.92390000  1.0
  C  C46  1  0.96933000  0.63614000  0.92390000  1.0
  C  C47  1  0.53068000  0.86386000  0.42390000  1.0
  C  C48  1  0.86386000  0.53067000  0.57610000  1.0
  C  C49  1  0.63614000  0.96933000  0.07610000  1.0
  C  C50  1  0.12372000  0.50175000  0.13093000  1.0
  C  C51  1  0.37629000  0.99824000  0.63093000  1.0
  C  C52  1  0.99824000  0.37628000  0.36907000  1.0
  C  C53  1  0.50176000  0.12371000  0.86907000  1.0
  C  C54  1  0.87629000  0.49825000  0.86907000  1.0
  C  C55  1  0.62372000  0.00176000  0.36907000  1.0
  C  C56  1  0.00176000  0.62371000  0.63093000  1.0
  C  C57  1  0.49824000  0.87629000  0.13094000  1.0
  C  C58  1  0.39506000  0.60494000  0.21963000  1.0
  C  C59  1  0.10494000  0.89506000  0.71963000  1.0
  C  C60  1  0.89506000  0.10494000  0.28037000  1.0
  C  C61  1  0.60494000  0.39506000  0.78037000  1.0
  C  C62  1  0.11956000  0.88044000  0.21120000  1.0
  C  C63  1  0.38044000  0.61957000  0.71120000  1.0
  C  C64  1  0.61956000  0.38044000  0.28880000  1.0
  C  C65  1  0.88044000  0.11956000  0.78880000  1.0
  S  S66  1  0.15055000  0.84945000  0.32312000  1.0
  S  S67  1  0.34944000  0.65056000  0.82313000  1.0
  S  S68  1  0.65055000  0.34944000  0.17688000  1.0
  S  S69  1  0.84944000  0.15055000  0.67688000  1.0
  N  N70  1  0.25904000  0.48488000  0.16178000  1.0
  N  N71  1  0.24096000  0.01512000  0.66178000  1.0
  N  N72  1  0.01512000  0.24096000  0.33822000  1.0
  N  N73  1  0.48488000  0.25905000  0.83822000  1.0
  N  N74  1  0.74096000  0.51512000  0.83822000  1.0
  N  N75  1  0.75904000  0.98488000  0.33822000  1.0
  N  N76  1  0.98488000  0.75904000  0.66178000  1.0
  N  N77  1  0.51512000  0.74096000  0.16178000  1.0
  N  N78  1  0.10606000  0.26367000  0.07397000  1.0
  N  N79  1  0.39393000  0.23633000  0.57396000  1.0
  N  N80  1  0.23633000  0.39393000  0.42603000  1.0
  N  N81  1  0.26367000  0.10607000  0.92603000  1.0
  N  N82  1  0.89393000  0.73633000  0.92604000  1.0
  N  N83  1  0.60607000  0.76367000  0.42603000  1.0
  N  N84  1  0.76367000  0.60606000  0.57396000  1.0
  N  N85  1  0.73633000  0.89393000  0.07396000  1.0
  N  N86  1  0.09837000  0.90163000  0.12852000  1.0
  N  N87  1  0.40163000  0.59837000  0.62852000  1.0
  N  N88  1  0.59837000  0.40163000  0.37148000  1.0
  N  N89  1  0.90163000  0.09837000  0.87148000  1.0
