# generated using pymatgen
data_CdH3C2Br2N3
_symmetry_space_group_name_H-M   'P 1'
_cell_length_a   7.39786000
_cell_length_b   7.55901000
_cell_length_c   8.03860534
_cell_angle_alpha   61.96901376
_cell_angle_beta   62.60780290
_cell_angle_gamma   89.95960000
_symmetry_Int_Tables_number   1
_chemical_formula_structural   CdH3C2Br2N3
_chemical_formula_sum   'Cd2 H6 C4 Br4 N6'
_cell_volume   338.72066720
_cell_formula_units_Z   2
loop_
 _symmetry_equiv_pos_site_id
 _symmetry_equiv_pos_as_xyz
  1  'x, y, z'
loop_
 _atom_site_type_symbol
 _atom_site_label
 _atom_site_symmetry_multiplicity
 _atom_site_fract_x
 _atom_site_fract_y
 _atom_site_fract_z
 _atom_site_occupancy
  Cd  Cd0  1  0.00000000  0.00000000  0.50000000  1.0
  Cd  Cd1  1  0.50000000  0.00000000  0.50000000  1.0
  H  H2  1  0.67489000  0.42542000  0.64930000  1.0
  H  H3  1  0.32511000  0.57458000  0.35071000  1.0
  H  H4  1  0.26519000  0.30192000  0.89599000  1.0
  H  H5  1  0.83810000  0.30220000  0.89575000  1.0
  H  H6  1  0.73482000  0.69808000  0.10401000  1.0
  H  H7  1  0.16190000  0.69780000  0.10425000  1.0
  C  C8  1  0.37586000  0.27348000  0.95286000  1.0
  C  C9  1  0.67055000  0.27365000  0.95284000  1.0
  C  C10  1  0.62413000  0.72652000  0.04715000  1.0
  C  C11  1  0.32946000  0.72635000  0.04716000  1.0
  Br  Br12  1  0.17368000  0.67459000  0.65266000  1.0
  Br  Br13  1  0.17354000  0.17303000  0.65244000  1.0
  Br  Br14  1  0.82646000  0.82697000  0.34756000  1.0
  Br  Br15  1  0.82631000  0.32540000  0.34734000  1.0
  N  N16  1  0.32672000  0.16963000  0.16052000  1.0
  N  N17  1  0.51229000  0.16973000  0.16051000  1.0
  N  N18  1  0.67328000  0.83037000  0.83948000  1.0
  N  N19  1  0.48770000  0.83027000  0.83950000  1.0
  N  N20  1  0.58998000  0.34043000  0.81916000  1.0
  N  N21  1  0.41002000  0.65957000  0.18084000  1.0
