# generated using pymatgen
data_CdH18PtC18(N3O)2
_symmetry_space_group_name_H-M   'P 1'
_cell_length_a   8.89826000
_cell_length_b   10.43010000
_cell_length_c   10.70640000
_cell_angle_alpha   93.97730000
_cell_angle_beta   89.99980000
_cell_angle_gamma   89.99990000
_symmetry_Int_Tables_number   1
_chemical_formula_structural   CdH18PtC18(N3O)2
_chemical_formula_sum   'Cd2 H36 Pt2 C36 N12 O4'
_cell_volume   991.26510000
_cell_formula_units_Z   2
loop_
 _symmetry_equiv_pos_site_id
 _symmetry_equiv_pos_as_xyz
  1  'x, y, z'
loop_
 _atom_site_type_symbol
 _atom_site_label
 _atom_site_symmetry_multiplicity
 _atom_site_fract_x
 _atom_site_fract_y
 _atom_site_fract_z
 _atom_site_occupancy
  Cd  Cd0  1  0.00000000  0.00000000  0.00000000  1.0
  Cd  Cd1  1  0.50000000  0.50000000  0.50000000  1.0
  H  H2  1  0.93086000  0.94210000  0.25920000  1.0
  H  H3  1  0.43086000  0.55790000  0.24080000  1.0
  H  H4  1  0.06914000  0.05790000  0.74080000  1.0
  H  H5  1  0.56914000  0.44209000  0.75920000  1.0
  H  H6  1  0.16511000  0.83687000  0.27234000  1.0
  H  H7  1  0.66511000  0.66312000  0.22766000  1.0
  H  H8  1  0.83489000  0.16312000  0.72766000  1.0
  H  H9  1  0.33489000  0.33687000  0.77234000  1.0
  H  H10  1  0.15871000  0.98252000  0.37098000  1.0
  H  H11  1  0.65871000  0.51747000  0.12902000  1.0
  H  H12  1  0.84129000  0.01747000  0.62902000  1.0
  H  H13  1  0.34129000  0.48252000  0.87098000  1.0
  H  H14  1  0.20216000  0.84230000  0.80492000  1.0
  H  H15  1  0.70216000  0.65770000  0.69508000  1.0
  H  H16  1  0.79785000  0.15770000  0.19508000  1.0
  H  H17  1  0.29784000  0.34230000  0.30492000  1.0
  H  H18  1  0.26384000  0.09486000  0.18144000  1.0
  H  H19  1  0.76384000  0.40514000  0.31856000  1.0
  H  H20  1  0.73616000  0.90514000  0.81856000  1.0
  H  H21  1  0.23616000  0.59486000  0.68144000  1.0
  H  H22  1  0.38701000  0.00233000  0.26879000  1.0
  H  H23  1  0.88701000  0.49766000  0.23121000  1.0
  H  H24  1  0.61299000  0.99766000  0.73121000  1.0
  H  H25  1  0.11299000  0.50234000  0.76879000  1.0
  H  H26  1  0.44257000  0.71923000  0.78325000  1.0
  H  H27  1  0.94257000  0.78076000  0.71675000  1.0
  H  H28  1  0.55743000  0.28077000  0.21674000  1.0
  H  H29  1  0.05743000  0.21923000  0.28326000  1.0
  H  H30  1  0.54872000  0.85932000  0.16201000  1.0
  H  H31  1  0.04871000  0.64068000  0.33799000  1.0
  H  H32  1  0.45129000  0.14068000  0.83799000  1.0
  H  H33  1  0.95128000  0.35932000  0.66201000  1.0
  H  H34  1  0.62008000  0.72710000  0.96764000  1.0
  H  H35  1  0.12007000  0.77290000  0.53236000  1.0
  H  H36  1  0.37993000  0.27290000  0.03236000  1.0
  H  H37  1  0.87993000  0.22710000  0.46764000  1.0
  Pt  Pt38  1  0.00000000  0.50000000  0.00000000  1.0
  Pt  Pt39  1  0.50000000  0.00000000  0.50000000  1.0
  C  C40  1  0.82406000  0.44095000  0.89852000  1.0
  C  C41  1  0.32406000  0.05905000  0.60149000  1.0
  C  C42  1  0.17593000  0.55905000  0.10148000  1.0
  C  C43  1  0.67593000  0.94095000  0.39851000  1.0
  C  C44  1  0.94135000  0.68030000  0.98314000  1.0
  C  C45  1  0.44135000  0.81969000  0.51687000  1.0
  C  C46  1  0.05865000  0.31969000  0.01686000  1.0
  C  C47  1  0.55865000  0.18031000  0.48314000  1.0
  C  C48  1  0.15724000  0.94241000  0.27299000  1.0
  C  C49  1  0.65724000  0.55758000  0.22700000  1.0
  C  C50  1  0.84276000  0.05758000  0.72700000  1.0
  C  C51  1  0.34276000  0.44242000  0.77300000  1.0
  C  C52  1  0.28192000  0.84241000  0.88225000  1.0
  C  C53  1  0.78193000  0.65759000  0.61775000  1.0
  C  C54  1  0.71808000  0.15760000  0.11774000  1.0
  C  C55  1  0.21808000  0.34240000  0.38225000  1.0
  C  C56  1  0.33702000  0.91822000  0.08692000  1.0
  C  C57  1  0.83702000  0.58178000  0.41308000  1.0
  C  C58  1  0.66298000  0.08178000  0.91308000  1.0
  C  C59  1  0.16298000  0.41822000  0.58692000  1.0
  C  C60  1  0.29101000  0.99617000  0.20390000  1.0
  C  C61  1  0.79101000  0.50383000  0.29610000  1.0
  C  C62  1  0.70899000  0.00382000  0.79610000  1.0
  C  C63  1  0.20899000  0.49617000  0.70390000  1.0
  C  C64  1  0.41599000  0.77437000  0.87051000  1.0
  C  C65  1  0.91599000  0.72563000  0.62949000  1.0
  C  C66  1  0.58402000  0.22563000  0.12949000  1.0
  C  C67  1  0.08401000  0.27437000  0.37051000  1.0
  C  C68  1  0.47405000  0.85218000  0.08117000  1.0
  C  C69  1  0.97405000  0.64782000  0.41883000  1.0
  C  C70  1  0.52595000  0.14782000  0.91883000  1.0
  C  C71  1  0.02595000  0.35218000  0.58117000  1.0
  C  C72  1  0.51357000  0.77888000  0.97260000  1.0
  C  C73  1  0.01358000  0.72111000  0.52740000  1.0
  C  C74  1  0.48643000  0.22112000  0.02740000  1.0
  C  C75  1  0.98643000  0.27888000  0.47260000  1.0
  N  N76  1  0.72142000  0.40729000  0.83604000  1.0
  N  N77  1  0.22142000  0.09271000  0.66396000  1.0
  N  N78  1  0.27858000  0.59271000  0.16395000  1.0
  N  N79  1  0.77857000  0.90729000  0.33604000  1.0
  N  N80  1  0.90863000  0.78787000  0.97243000  1.0
  N  N81  1  0.40863000  0.71214000  0.52757000  1.0
  N  N82  1  0.09137000  0.21214000  0.02757000  1.0
  N  N83  1  0.59137000  0.28787000  0.47243000  1.0
  N  N84  1  0.24249000  0.91234000  0.98764000  1.0
  N  N85  1  0.74249000  0.58766000  0.51236000  1.0
  N  N86  1  0.75751000  0.08766000  0.01236000  1.0
  N  N87  1  0.25751000  0.41234000  0.48764000  1.0
  O  O88  1  0.01966000  0.97940000  0.21522000  1.0
  O  O89  1  0.51966000  0.52060000  0.28478000  1.0
  O  O90  1  0.98034000  0.02060000  0.78478000  1.0
  O  O91  1  0.48034000  0.47940000  0.71522000  1.0
