# generated using pymatgen
data_Y2Cu3H24(C4O5)6
_symmetry_space_group_name_H-M   'P 1'
_cell_length_a   12.72273077
_cell_length_b   12.72410000
_cell_length_c   16.39550000
_cell_angle_alpha   89.99670000
_cell_angle_beta   90.00119970
_cell_angle_gamma   59.99731982
_symmetry_Int_Tables_number   1
_chemical_formula_structural   Y2Cu3H24(C4O5)6
_chemical_formula_sum   'Y4 Cu6 H48 C48 O60'
_cell_volume   2298.53423554
_cell_formula_units_Z   2
loop_
 _symmetry_equiv_pos_site_id
 _symmetry_equiv_pos_as_xyz
  1  'x, y, z'
loop_
 _atom_site_type_symbol
 _atom_site_label
 _atom_site_symmetry_multiplicity
 _atom_site_fract_x
 _atom_site_fract_y
 _atom_site_fract_z
 _atom_site_occupancy
  Y  Y0  1  0.33333333  0.33329667  0.75005000  1.0
  Y  Y1  1  0.66662000  0.66671333  0.74996000  1.0
  Y  Y2  1  0.66666667  0.66676333  0.24997000  1.0
  Y  Y3  1  0.33333333  0.33333333  0.25001000  1.0
  Cu  Cu4  1  0.50001000  0.00000000  0.00001000  1.0
  Cu  Cu5  1  0.50001000  0.50000000  1.00000000  1.0
  Cu  Cu6  1  0.99998000  0.50006000  0.99999000  1.0
  Cu  Cu7  1  0.50002000  0.49997000  0.49998000  1.0
  Cu  Cu8  1  0.49998000  0.00001000  0.50002000  1.0
  Cu  Cu9  1  0.00001000  0.49999000  0.50001000  1.0
  H  H10  1  0.80289000  0.34617000  0.14286000  1.0
  H  H11  1  0.93682000  0.29808000  0.20373000  1.0
  H  H12  1  0.85109000  0.80291000  0.14284000  1.0
  H  H13  1  0.76515000  0.93694000  0.20372000  1.0
  H  H14  1  0.34605000  0.85098000  0.14286000  1.0
  H  H15  1  0.29818000  0.76490000  0.20382000  1.0
  H  H16  1  0.19712000  0.65392000  0.14288000  1.0
  H  H17  1  0.06315000  0.70205000  0.20373000  1.0
  H  H18  1  0.14902000  0.19711000  0.14285000  1.0
  H  H19  1  0.23503000  0.06307000  0.20376000  1.0
  H  H20  1  0.65385000  0.14906000  0.14286000  1.0
  H  H21  1  0.70182000  0.23506000  0.20380000  1.0
  H  H22  1  0.19711000  0.14900000  0.35712000  1.0
  H  H23  1  0.06315000  0.23488000  0.29627000  1.0
  H  H24  1  0.14904000  0.65385000  0.35717000  1.0
  H  H25  1  0.23493000  0.70198000  0.29627000  1.0
  H  H26  1  0.65390000  0.19703000  0.35716000  1.0
  H  H27  1  0.70183000  0.06309000  0.29620000  1.0
  H  H28  1  0.80292000  0.85104000  0.35712000  1.0
  H  H29  1  0.93689000  0.76518000  0.29629000  1.0
  H  H30  1  0.85099000  0.34616000  0.35712000  1.0
  H  H31  1  0.76498000  0.29813000  0.29624000  1.0
  H  H32  1  0.34616000  0.80286000  0.35715000  1.0
  H  H33  1  0.29810000  0.93687000  0.29622000  1.0
  H  H34  1  0.19713000  0.65387000  0.85712000  1.0
  H  H35  1  0.06321000  0.70195000  0.79623000  1.0
  H  H36  1  0.14897000  0.19706000  0.85718000  1.0
  H  H37  1  0.23493000  0.06306000  0.79628000  1.0
  H  H38  1  0.65400000  0.14899000  0.85719000  1.0
  H  H39  1  0.70190000  0.23503000  0.79622000  1.0
  H  H40  1  0.80288000  0.34613000  0.85712000  1.0
  H  H41  1  0.93685000  0.29801000  0.79628000  1.0
  H  H42  1  0.85095000  0.80281000  0.85717000  1.0
  H  H43  1  0.76502000  0.93687000  0.79628000  1.0
  H  H44  1  0.34606000  0.85096000  0.85713000  1.0
  H  H45  1  0.29806000  0.76497000  0.79622000  1.0
  H  H46  1  0.80290000  0.85100000  0.64290000  1.0
  H  H47  1  0.93684000  0.76508000  0.70375000  1.0
  H  H48  1  0.85099000  0.34609000  0.64284000  1.0
  H  H49  1  0.76504000  0.29803000  0.70376000  1.0
  H  H50  1  0.34601000  0.80297000  0.64281000  1.0
  H  H51  1  0.29802000  0.93691000  0.70378000  1.0
  H  H52  1  0.19716000  0.14895000  0.64290000  1.0
  H  H53  1  0.06316000  0.23480000  0.70372000  1.0
  H  H54  1  0.14906000  0.65377000  0.64284000  1.0
  H  H55  1  0.23504000  0.70187000  0.70370000  1.0
  H  H56  1  0.65395000  0.19704000  0.64288000  1.0
  H  H57  1  0.70193000  0.06304000  0.70382000  1.0
  C  C58  1  0.34223000  0.53750000  0.63426000  1.0
  C  C59  1  0.77098000  0.37720000  0.31709000  1.0
  C  C60  1  0.12018000  0.34223000  0.63430000  1.0
  C  C61  1  0.85191000  0.77102000  0.31710000  1.0
  C  C62  1  0.53761000  0.12014000  0.63432000  1.0
  C  C63  1  0.37718000  0.85185000  0.31711000  1.0
  C  C64  1  0.65779000  0.46236000  0.63426000  1.0
  C  C65  1  0.22901000  0.62287000  0.31712000  1.0
  C  C66  1  0.87980000  0.65775000  0.63425000  1.0
  C  C67  1  0.14812000  0.22905000  0.31710000  1.0
  C  C68  1  0.46231000  0.87989000  0.63428000  1.0
  C  C69  1  0.62280000  0.14811000  0.31711000  1.0
  C  C70  1  0.65776000  0.87976000  0.86571000  1.0
  C  C71  1  0.22902000  0.14815000  0.18289000  1.0
  C  C72  1  0.87982000  0.46246000  0.86572000  1.0
  C  C73  1  0.14811000  0.62290000  0.18290000  1.0
  C  C74  1  0.46240000  0.65774000  0.86569000  1.0
  C  C75  1  0.62278000  0.22906000  0.18291000  1.0
  C  C76  1  0.34218000  0.12013000  0.86577000  1.0
  C  C77  1  0.77107000  0.85191000  0.18286000  1.0
  C  C78  1  0.12015000  0.53759000  0.86573000  1.0
  C  C79  1  0.85186000  0.37723000  0.18289000  1.0
  C  C80  1  0.53762000  0.34220000  0.86574000  1.0
  C  C81  1  0.37718000  0.77095000  0.18290000  1.0
  C  C82  1  0.65781000  0.46246000  0.36571000  1.0
  C  C83  1  0.22906000  0.62278000  0.68287000  1.0
  C  C84  1  0.87987000  0.65777000  0.36571000  1.0
  C  C85  1  0.14814000  0.22898000  0.68292000  1.0
  C  C86  1  0.46242000  0.87984000  0.36571000  1.0
  C  C87  1  0.62288000  0.14809000  0.68292000  1.0
  C  C88  1  0.34223000  0.53760000  0.36572000  1.0
  C  C89  1  0.77100000  0.37712000  0.68288000  1.0
  C  C90  1  0.12015000  0.34228000  0.36574000  1.0
  C  C91  1  0.85186000  0.77094000  0.68291000  1.0
  C  C92  1  0.53755000  0.12016000  0.36572000  1.0
  C  C93  1  0.37707000  0.85190000  0.68287000  1.0
  C  C94  1  0.34222000  0.12023000  0.13429000  1.0
  C  C95  1  0.77097000  0.85181000  0.81712000  1.0
  C  C96  1  0.12013000  0.53764000  0.13427000  1.0
  C  C97  1  0.85188000  0.37716000  0.81710000  1.0
  C  C98  1  0.53753000  0.34227000  0.13429000  1.0
  C  C99  1  0.37713000  0.77094000  0.81709000  1.0
  C  C100  1  0.65786000  0.87988000  0.13424000  1.0
  C  C101  1  0.22898000  0.14809000  0.81715000  1.0
  C  C102  1  0.87986000  0.46246000  0.13425000  1.0
  C  C103  1  0.14816000  0.62282000  0.81709000  1.0
  C  C104  1  0.46244000  0.65779000  0.13426000  1.0
  C  C105  1  0.62289000  0.22900000  0.81713000  1.0
  O  O106  1  0.39544000  0.42575000  0.65028000  1.0
  O  O107  1  0.37097000  0.58999000  0.57988000  1.0
  O  O108  1  0.17878000  0.39538000  0.65031000  1.0
  O  O109  1  0.03893000  0.37099000  0.57991000  1.0
  O  O110  1  0.42585000  0.17867000  0.65033000  1.0
  O  O111  1  0.59008000  0.03894000  0.57992000  1.0
  O  O112  1  0.60454000  0.57411000  0.65027000  1.0
  O  O113  1  0.62907000  0.40986000  0.57988000  1.0
  O  O114  1  0.82119000  0.60458000  0.65019000  1.0
  O  O115  1  0.96109000  0.62900000  0.57989000  1.0
  O  O116  1  0.57408000  0.82132000  0.65024000  1.0
  O  O117  1  0.40980000  0.96117000  0.57992000  1.0
  O  O118  1  0.60453000  0.82124000  0.84970000  1.0
  O  O119  1  0.62902000  0.96101000  0.92008000  1.0
  O  O120  1  0.82123000  0.57422000  0.84969000  1.0
  O  O121  1  0.96105000  0.40997000  0.92012000  1.0
  O  O122  1  0.57416000  0.60451000  0.84969000  1.0
  O  O123  1  0.40992000  0.62902000  0.92010000  1.0
  O  O124  1  0.39542000  0.17865000  0.84976000  1.0
  O  O125  1  0.37093000  0.03889000  0.92014000  1.0
  O  O126  1  0.17873000  0.42581000  0.84978000  1.0
  O  O127  1  0.03889000  0.59014000  0.92009000  1.0
  O  O128  1  0.42584000  0.39536000  0.84980000  1.0
  O  O129  1  0.59013000  0.37096000  0.92009000  1.0
  O  O130  1  0.60461000  0.57422000  0.34972000  1.0
  O  O131  1  0.62907000  0.40995000  0.42008000  1.0
  O  O132  1  0.82128000  0.60460000  0.34970000  1.0
  O  O133  1  0.96111000  0.62900000  0.42010000  1.0
  O  O134  1  0.57418000  0.82134000  0.34970000  1.0
  O  O135  1  0.40992000  0.96104000  0.42011000  1.0
  O  O136  1  0.39543000  0.42586000  0.34971000  1.0
  O  O137  1  0.37100000  0.59009000  0.42008000  1.0
  O  O138  1  0.17873000  0.39546000  0.34976000  1.0
  O  O139  1  0.03890000  0.37100000  0.42012000  1.0
  O  O140  1  0.42578000  0.17871000  0.34975000  1.0
  O  O141  1  0.59006000  0.03893000  0.42010000  1.0
  O  O142  1  0.39541000  0.17879000  0.15028000  1.0
  O  O143  1  0.37100000  0.03896000  0.07993000  1.0
  O  O144  1  0.17868000  0.42588000  0.15028000  1.0
  O  O145  1  0.03889000  0.59016000  0.07987000  1.0
  O  O146  1  0.42576000  0.39549000  0.15026000  1.0
  O  O147  1  0.59005000  0.37100000  0.07992000  1.0
  O  O148  1  0.60466000  0.82133000  0.15025000  1.0
  O  O149  1  0.62907000  0.96114000  0.07988000  1.0
  O  O150  1  0.82129000  0.57424000  0.15025000  1.0
  O  O151  1  0.96110000  0.40994000  0.07988000  1.0
  O  O152  1  0.57423000  0.60463000  0.15021000  1.0
  O  O153  1  0.40995000  0.62903000  0.07990000  1.0
  O  O154  1  0.77778000  0.44447000  0.24998000  1.0
  O  O155  1  0.77785000  0.77787000  0.24998000  1.0
  O  O156  1  0.44443000  0.77782000  0.24999000  1.0
  O  O157  1  0.22216000  0.55565000  0.25001000  1.0
  O  O158  1  0.22218000  0.22223000  0.25000000  1.0
  O  O159  1  0.55554000  0.22222000  0.25001000  1.0
  O  O160  1  0.22227000  0.55554000  0.75001000  1.0
  O  O161  1  0.22216000  0.22217000  0.75004000  1.0
  O  O162  1  0.55565000  0.22213000  0.75004000  1.0
  O  O163  1  0.77783000  0.44438000  0.74997000  1.0
  O  O164  1  0.77778000  0.77777000  0.75000000  1.0
  O  O165  1  0.44433000  0.77780000  0.74997000  1.0
