# generated using pymatgen
data_SnH29C18NO
_symmetry_space_group_name_H-M   'P 1'
_cell_length_a   6.23502000
_cell_length_b   11.15690000
_cell_length_c   13.09950000
_cell_angle_alpha   100.38000000
_cell_angle_beta   91.31800000
_cell_angle_gamma   101.39600000
_symmetry_Int_Tables_number   1
_chemical_formula_structural   SnH29C18NO
_chemical_formula_sum   'Sn2 H58 C36 N2 O2'
_cell_volume   877.03843256
_cell_formula_units_Z   2
loop_
 _symmetry_equiv_pos_site_id
 _symmetry_equiv_pos_as_xyz
  1  'x, y, z'
loop_
 _atom_site_type_symbol
 _atom_site_label
 _atom_site_symmetry_multiplicity
 _atom_site_fract_x
 _atom_site_fract_y
 _atom_site_fract_z
 _atom_site_occupancy
  Sn  Sn0  1  0.23507000  0.48402000  0.03435000  1.0
  Sn  Sn1  1  0.76490000  0.51597000  0.96565000  1.0
  H  H2  1  0.60405000  0.48240000  0.70809000  1.0
  H  H3  1  0.39594000  0.51760000  0.29190000  1.0
  H  H4  1  0.32594000  0.09315000  0.62836000  1.0
  H  H5  1  0.67404000  0.90683000  0.37163000  1.0
  H  H6  1  0.83428000  0.38587000  0.47180000  1.0
  H  H7  1  0.16572000  0.61413000  0.52820000  1.0
  H  H8  1  0.87447000  0.43387000  0.60851000  1.0
  H  H9  1  0.12554000  0.56613000  0.39149000  1.0
  H  H10  1  0.65404000  0.47173000  0.54003000  1.0
  H  H11  1  0.34597000  0.52827000  0.45997000  1.0
  H  H12  1  0.51781000  0.21925000  0.38893000  1.0
  H  H13  1  0.48220000  0.78075000  0.61106000  1.0
  H  H14  1  0.32848000  0.29827000  0.45865000  1.0
  H  H15  1  0.67153000  0.70173000  0.54134000  1.0
  H  H16  1  0.32781000  0.14107000  0.46617000  1.0
  H  H17  1  0.67220000  0.85893000  0.53383000  1.0
  H  H18  1  0.83854000  0.17115000  0.48421000  1.0
  H  H19  1  0.16146000  0.82885000  0.51580000  1.0
  H  H20  1  0.65695000  0.08773000  0.56171000  1.0
  H  H21  1  0.34306000  0.91228000  0.43829000  1.0
  H  H22  1  0.87463000  0.21040000  0.62187000  1.0
  H  H23  1  0.12538000  0.78960000  0.37813000  1.0
  H  H24  1  0.97595000  0.87113000  0.73392000  1.0
  H  H25  1  0.02404000  0.12887000  0.26608000  1.0
  H  H26  1  0.24449000  0.93073000  0.69922000  1.0
  H  H27  1  0.75551000  0.06927000  0.30078000  1.0
  H  H28  1  0.01259000  0.96737000  0.63921000  1.0
  H  H29  1  0.98741000  0.03263000  0.36079000  1.0
  H  H30  1  0.09731000  0.94895000  0.91640000  1.0
  H  H31  1  0.90269000  0.05105000  0.08360000  1.0
  H  H32  1  0.19772000  0.10994000  0.96618000  1.0
  H  H33  1  0.80229000  0.89006000  0.03382000  1.0
  H  H34  1  0.36336000  0.02326000  0.88692000  1.0
  H  H35  1  0.63665000  0.97674000  0.11308000  1.0
  H  H36  1  0.76128000  0.00167000  0.84506000  1.0
  H  H37  1  0.23871000  0.99833000  0.15495000  1.0
  H  H38  1  0.77348000  0.09277000  0.74635000  1.0
  H  H39  1  0.22652000  0.90723000  0.25365000  1.0
  H  H40  1  0.85328000  0.16580000  0.87718000  1.0
  H  H41  1  0.14672000  0.83420000  0.12282000  1.0
  H  H42  1  0.06884000  0.56404000  0.78770000  1.0
  H  H43  1  0.93116000  0.43597000  0.21231000  1.0
  H  H44  1  0.27153000  0.56102000  0.69480000  1.0
  H  H45  1  0.72847000  0.43898000  0.30520000  1.0
  H  H46  1  0.19647000  0.70422000  0.74790000  1.0
  H  H47  1  0.80353000  0.29577000  0.25211000  1.0
  H  H48  1  0.74477000  0.73742000  0.88655000  1.0
  H  H49  1  0.25523000  0.26258000  0.11345000  1.0
  H  H50  1  0.59981000  0.79294000  0.79365000  1.0
  H  H51  1  0.40020000  0.20707000  0.20635000  1.0
  H  H52  1  0.68698000  0.65096000  0.75683000  1.0
  H  H53  1  0.31302000  0.34904000  0.24317000  1.0
  H  H54  1  0.44739000  0.74453000  0.01553000  1.0
  H  H55  1  0.55262000  0.25547000  0.98447000  1.0
  H  H56  1  0.16731000  0.70161000  0.96657000  1.0
  H  H57  1  0.83270000  0.29840000  0.03344000  1.0
  H  H58  1  0.34736000  0.82463000  0.92608000  1.0
  H  H59  1  0.65265000  0.17537000  0.07392000  1.0
  C  C60  1  0.26280000  0.30002000  0.84487000  1.0
  C  C61  1  0.73721000  0.69998000  0.15514000  1.0
  C  C62  1  0.38967000  0.40899000  0.81807000  1.0
  C  C63  1  0.61034000  0.59100000  0.18192000  1.0
  C  C64  1  0.49954000  0.39949000  0.72548000  1.0
  C  C65  1  0.50046000  0.60051000  0.27452000  1.0
  C  C66  1  0.47974000  0.28679000  0.65629000  1.0
  C  C67  1  0.52023000  0.71319000  0.34369000  1.0
  C  C68  1  0.34405000  0.18167000  0.68216000  1.0
  C  C69  1  0.65591000  0.81833000  0.31784000  1.0
  C  C70  1  0.23434000  0.18433000  0.77416000  1.0
  C  C71  1  0.76566000  0.81566000  0.22583000  1.0
  C  C72  1  0.60221000  0.27525000  0.55599000  1.0
  C  C73  1  0.39779000  0.72475000  0.44401000  1.0
  C  C74  1  0.74874000  0.39919000  0.54406000  1.0
  C  C75  1  0.25126000  0.60081000  0.45594000  1.0
  C  C76  1  0.43423000  0.23083000  0.46197000  1.0
  C  C77  1  0.56578000  0.76916000  0.53803000  1.0
  C  C78  1  0.75130000  0.18030000  0.55624000  1.0
  C  C79  1  0.24870000  0.81971000  0.44377000  1.0
  C  C80  1  0.09308000  0.06588000  0.80051000  1.0
  C  C81  1  0.90692000  0.93413000  0.19949000  1.0
  C  C82  1  0.08203000  0.95288000  0.71277000  1.0
  C  C83  1  0.91797000  0.04712000  0.28723000  1.0
  C  C84  1  0.19437000  0.03552000  0.89879000  1.0
  C  C85  1  0.80564000  0.96448000  0.10121000  1.0
  C  C86  1  0.85623000  0.08316000  0.81837000  1.0
  C  C87  1  0.14377000  0.91684000  0.18163000  1.0
  C  C88  1  0.40108000  0.64238000  0.85505000  1.0
  C  C89  1  0.59892000  0.35762000  0.14495000  1.0
  C  C90  1  0.22457000  0.61581000  0.76573000  1.0
  C  C91  1  0.77544000  0.38419000  0.23428000  1.0
  C  C92  1  0.62159000  0.70817000  0.82071000  1.0
  C  C93  1  0.37841000  0.29183000  0.17929000  1.0
  C  C94  1  0.33696000  0.73245000  0.94623000  1.0
  C  C95  1  0.66305000  0.26755000  0.05378000  1.0
  N  N96  1  0.41774000  0.52385000  0.89339000  1.0
  N  N97  1  0.58227000  0.47614000  0.10661000  1.0
  O  O98  1  0.17347000  0.30727000  0.93830000  1.0
  O  O99  1  0.82652000  0.69273000  0.06170000  1.0
