# generated using pymatgen
data_Ag3H5C8SO8
_symmetry_space_group_name_H-M   'P 1'
_cell_length_a   7.06761000
_cell_length_b   12.25010000
_cell_length_c   13.47180000
_cell_angle_alpha   72.45600000
_cell_angle_beta   89.99990000
_cell_angle_gamma   89.99990000
_symmetry_Int_Tables_number   1
_chemical_formula_structural   Ag3H5C8SO8
_chemical_formula_sum   'Ag12 H20 C32 S4 O32'
_cell_volume   1112.12099958
_cell_formula_units_Z   4
loop_
 _symmetry_equiv_pos_site_id
 _symmetry_equiv_pos_as_xyz
  1  'x, y, z'
loop_
 _atom_site_type_symbol
 _atom_site_label
 _atom_site_symmetry_multiplicity
 _atom_site_fract_x
 _atom_site_fract_y
 _atom_site_fract_z
 _atom_site_occupancy
  Ag  Ag0  1  0.33493000  0.72287000  0.19742000  1.0
  Ag  Ag1  1  0.83493000  0.77713000  0.80258000  1.0
  Ag  Ag2  1  0.66506000  0.27713000  0.80258000  1.0
  Ag  Ag3  1  0.16507000  0.22287000  0.19742000  1.0
  Ag  Ag4  1  0.81249000  0.50618000  0.53328000  1.0
  Ag  Ag5  1  0.31248000  0.99382000  0.46672000  1.0
  Ag  Ag6  1  0.18751000  0.49382000  0.46672000  1.0
  Ag  Ag7  1  0.68751000  0.00618000  0.53328000  1.0
  Ag  Ag8  1  0.41739000  0.90371000  0.28452000  1.0
  Ag  Ag9  1  0.91740000  0.59629000  0.71548000  1.0
  Ag  Ag10  1  0.58260000  0.09629000  0.71548000  1.0
  Ag  Ag11  1  0.08260000  0.40371000  0.28452000  1.0
  H  H12  1  0.44407000  0.75303000  0.47950000  1.0
  H  H13  1  0.94407000  0.74697000  0.52050000  1.0
  H  H14  1  0.55593000  0.24697000  0.52050000  1.0
  H  H15  1  0.05593000  0.25303000  0.47950000  1.0
  H  H16  1  0.61103000  0.72784000  0.41118000  1.0
  H  H17  1  0.11103000  0.77216000  0.58882000  1.0
  H  H18  1  0.38897000  0.27216000  0.58882000  1.0
  H  H19  1  0.88897000  0.22784000  0.41118000  1.0
  H  H20  1  0.21663000  0.21940000  0.01405000  1.0
  H  H21  1  0.71663000  0.28060000  0.98595000  1.0
  H  H22  1  0.78337000  0.78060000  0.98595000  1.0
  H  H23  1  0.28337000  0.71940000  0.01405000  1.0
  H  H24  1  0.09297000  0.34459000  0.84691000  1.0
  H  H25  1  0.59297000  0.15541000  0.15309000  1.0
  H  H26  1  0.90703000  0.65541000  0.15309000  1.0
  H  H27  1  0.40703000  0.84459000  0.84691000  1.0
  H  H28  1  0.19194000  0.93269000  0.89307000  1.0
  H  H29  1  0.69193000  0.56731000  0.10693000  1.0
  H  H30  1  0.80806000  0.06731000  0.10694000  1.0
  H  H31  1  0.30806000  0.43269000  0.89306000  1.0
  C  C32  1  0.28596000  0.98637000  0.06557000  1.0
  C  C33  1  0.78596000  0.51363000  0.93443000  1.0
  C  C34  1  0.71404000  0.01363000  0.93443000  1.0
  C  C35  1  0.21404000  0.48637000  0.06557000  1.0
  C  C36  1  0.21892000  0.06722000  0.96412000  1.0
  C  C37  1  0.71892000  0.43278000  0.03588000  1.0
  C  C38  1  0.78108000  0.93278000  0.03588000  1.0
  C  C39  1  0.28108000  0.56723000  0.96412000  1.0
  C  C40  1  0.18953000  0.18369000  0.95055000  1.0
  C  C41  1  0.68953000  0.31631000  0.04946000  1.0
  C  C42  1  0.81047000  0.81631000  0.04945000  1.0
  C  C43  1  0.31047000  0.68369000  0.95054000  1.0
  C  C44  1  0.12396000  0.25511000  0.85581000  1.0
  C  C45  1  0.62395000  0.24489000  0.14419000  1.0
  C  C46  1  0.87605000  0.74489000  0.14419000  1.0
  C  C47  1  0.37605000  0.75511000  0.85581000  1.0
  C  C48  1  0.09759000  0.21411000  0.77019000  1.0
  C  C49  1  0.59759000  0.28589000  0.22981000  1.0
  C  C50  1  0.90241000  0.78589000  0.22981000  1.0
  C  C51  1  0.40241000  0.71411000  0.77019000  1.0
  C  C52  1  0.12544000  0.09679000  0.78455000  1.0
  C  C53  1  0.62544000  0.40321000  0.21546000  1.0
  C  C54  1  0.87456000  0.90321000  0.21546000  1.0
  C  C55  1  0.37456000  0.59679000  0.78454000  1.0
  C  C56  1  0.18054000  0.02409000  0.88117000  1.0
  C  C57  1  0.68054000  0.47591000  0.11884000  1.0
  C  C58  1  0.81946000  0.97591000  0.11884000  1.0
  C  C59  1  0.31946000  0.52410000  0.88116000  1.0
  C  C60  1  0.04519000  0.30039000  0.66876000  1.0
  C  C61  1  0.54519000  0.19961000  0.33124000  1.0
  C  C62  1  0.95481000  0.69961000  0.33124000  1.0
  C  C63  1  0.45482000  0.80039000  0.66876000  1.0
  S  S64  1  0.08717000  0.03496000  0.68196000  1.0
  S  S65  1  0.58717000  0.46504000  0.31804000  1.0
  S  S66  1  0.91283000  0.96504000  0.31805000  1.0
  S  S67  1  0.41283000  0.53496000  0.68195000  1.0
  O  O68  1  0.30279000  0.88222000  0.06830000  1.0
  O  O69  1  0.80279000  0.61778000  0.93170000  1.0
  O  O70  1  0.69720000  0.11778000  0.93170000  1.0
  O  O71  1  0.19721000  0.38222000  0.06830000  1.0
  O  O72  1  0.32171000  0.02774000  0.14021000  1.0
  O  O73  1  0.82172000  0.47226000  0.85980000  1.0
  O  O74  1  0.67828000  0.97226000  0.85979000  1.0
  O  O75  1  0.17829000  0.52774000  0.14020000  1.0
  O  O76  1  0.89939000  0.36087000  0.67093000  1.0
  O  O77  1  0.39939000  0.13914000  0.32908000  1.0
  O  O78  1  0.10061000  0.63913000  0.32908000  1.0
  O  O79  1  0.60061000  0.86087000  0.67092000  1.0
  O  O80  1  0.15143000  0.31249000  0.58974000  1.0
  O  O81  1  0.65143000  0.18751000  0.41026000  1.0
  O  O82  1  0.84857000  0.68751000  0.41026000  1.0
  O  O83  1  0.34858000  0.81249000  0.58974000  1.0
  O  O84  1  0.26202000  0.05856000  0.61914000  1.0
  O  O85  1  0.76202000  0.44143000  0.38087000  1.0
  O  O86  1  0.73798000  0.94143000  0.38086000  1.0
  O  O87  1  0.23798000  0.55857000  0.61913000  1.0
  O  O88  1  0.92118000  0.09375000  0.62327000  1.0
  O  O89  1  0.42117000  0.40625000  0.37673000  1.0
  O  O90  1  0.07882000  0.90625000  0.37673000  1.0
  O  O91  1  0.57882000  0.59375000  0.62327000  1.0
  O  O92  1  0.05976000  0.91185000  0.73199000  1.0
  O  O93  1  0.55976000  0.58815000  0.26802000  1.0
  O  O94  1  0.94024000  0.08815000  0.26802000  1.0
  O  O95  1  0.44024000  0.41185000  0.73198000  1.0
  O  O96  1  0.47286000  0.74307000  0.41135000  1.0
  O  O97  1  0.97286000  0.75693000  0.58865000  1.0
  O  O98  1  0.52714000  0.25693000  0.58865000  1.0
  O  O99  1  0.02714000  0.24307000  0.41135000  1.0
