# generated using pymatgen
data_AlH4C10N2O9
_symmetry_space_group_name_H-M   'P 1'
_cell_length_a   6.60665000
_cell_length_b   10.97420000
_cell_length_c   11.12650000
_cell_angle_alpha   83.93900000
_cell_angle_beta   72.76360000
_cell_angle_gamma   73.57130000
_symmetry_Int_Tables_number   1
_chemical_formula_structural   AlH4C10N2O9
_chemical_formula_sum   'Al2 H8 C20 N4 O18'
_cell_volume   738.80709596
_cell_formula_units_Z   2
loop_
 _symmetry_equiv_pos_site_id
 _symmetry_equiv_pos_as_xyz
  1  'x, y, z'
loop_
 _atom_site_type_symbol
 _atom_site_label
 _atom_site_symmetry_multiplicity
 _atom_site_fract_x
 _atom_site_fract_y
 _atom_site_fract_z
 _atom_site_occupancy
  Al  Al0  1  0.51042000  0.50147000  0.49857000  1.0
  Al  Al1  1  0.01045000  0.50299000  0.49458000  1.0
  H  H2  1  0.73309000  0.41801000  0.64370000  1.0
  H  H3  1  0.22842000  0.65102000  0.42063000  1.0
  H  H4  1  0.18860000  0.11694000  0.41438000  1.0
  H  H5  1  0.83536000  0.89229000  0.56932000  1.0
  H  H6  1  0.32318000  0.87974000  0.40885000  1.0
  H  H7  1  0.69839000  0.12976000  0.57602000  1.0
  H  H8  1  0.76426000  0.69075000  0.77007000  1.0
  H  H9  1  0.51070000  0.62301000  0.23462000  1.0
  C  C10  1  0.14643000  0.52248000  0.72296000  1.0
  C  C11  1  0.35733000  0.27671000  0.49927000  1.0
  C  C12  1  0.86785000  0.47958000  0.27284000  1.0
  C  C13  1  0.66324000  0.73167000  0.48870000  1.0
  C  C14  1  0.43531000  0.13600000  0.49626000  1.0
  C  C15  1  0.58563000  0.87239000  0.48995000  1.0
  C  C16  1  0.32798000  0.06651000  0.44939000  1.0
  C  C17  1  0.69362000  0.94221000  0.53608000  1.0
  C  C18  1  0.40315000  0.93489000  0.44635000  1.0
  C  C19  1  0.61844000  0.07371000  0.53955000  1.0
  C  C20  1  0.07366000  0.51919000  0.86478000  1.0
  C  C21  1  0.85905000  0.58813000  0.93300000  1.0
  C  C22  1  0.21006000  0.43993000  0.93057000  1.0
  C  C23  1  0.71389000  0.67447000  0.87145000  1.0
  C  C24  1  0.50810000  0.73906000  0.93949000  1.0
  C  C25  1  0.93175000  0.48725000  0.13099000  1.0
  C  C26  1  0.13800000  0.42155000  0.06188000  1.0
  C  C27  1  0.78810000  0.57206000  0.06732000  1.0
  C  C28  1  0.57298000  0.63943000  0.13410000  1.0
  C  C29  1  0.43559000  0.71938000  0.07138000  1.0
  N  N30  1  0.28107000  0.32651000  0.12682000  1.0
  N  N31  1  0.42923000  0.36202000  0.85973000  1.0
  N  N32  1  0.37228000  0.83759000  0.87376000  1.0
  N  N33  1  0.20468000  0.77087000  0.14313000  1.0
  O  O34  1  0.33290000  0.54196000  0.67071000  1.0
  O  O35  1  0.17528000  0.33083000  0.47525000  1.0
  O  O36  1  0.99942000  0.50679000  0.32210000  1.0
  O  O37  1  0.54088000  0.67125000  0.46437000  1.0
  O  O38  1  0.68668000  0.45549000  0.32853000  1.0
  O  O39  1  0.84779000  0.67920000  0.51110000  1.0
  O  O40  1  0.01456000  0.50118000  0.67018000  1.0
  O  O41  1  0.47789000  0.33544000  0.52742000  1.0
  O  O42  1  0.75527000  0.45174000  0.55760000  1.0
  O  O43  1  0.26289000  0.56001000  0.43879000  1.0
  O  O44  1  0.19392000  0.25228000  0.20130000  1.0
  O  O45  1  0.47563000  0.32858000  0.10028000  1.0
  O  O46  1  0.58511000  0.41017000  0.83489000  1.0
  O  O47  1  0.43476000  0.25579000  0.83003000  1.0
  O  O48  1  0.34964000  0.80754000  0.77556000  1.0
  O  O49  1  0.29768000  0.94355000  0.92147000  1.0
  O  O50  1  0.16596000  0.79876000  0.25410000  1.0
  O  O51  1  0.06419000  0.77759000  0.08782000  1.0
