# generated using pymatgen
data_ZnH32C26(N2O3)2
_symmetry_space_group_name_H-M   'P 1'
_cell_length_a   7.47470000
_cell_length_b   8.39594000
_cell_length_c   11.38750000
_cell_angle_alpha   87.30780000
_cell_angle_beta   79.03950000
_cell_angle_gamma   66.32460000
_symmetry_Int_Tables_number   1
_chemical_formula_structural   ZnH32C26(N2O3)2
_chemical_formula_sum   'Zn1 H32 C26 N4 O6'
_cell_volume   642.21653379
_cell_formula_units_Z   1
loop_
 _symmetry_equiv_pos_site_id
 _symmetry_equiv_pos_as_xyz
  1  'x, y, z'
loop_
 _atom_site_type_symbol
 _atom_site_label
 _atom_site_symmetry_multiplicity
 _atom_site_fract_x
 _atom_site_fract_y
 _atom_site_fract_z
 _atom_site_occupancy
  Zn  Zn0  1  0.00000000  0.00000000  0.00000000  1.0
  H  H1  1  0.29989000  0.65162000  0.88745000  1.0
  H  H2  1  0.70012000  0.34838000  0.11255000  1.0
  H  H3  1  0.83736000  0.38387000  0.24588000  1.0
  H  H4  1  0.16263000  0.61614000  0.75412000  1.0
  H  H5  1  0.64512000  0.95287000  0.07983000  1.0
  H  H6  1  0.35487000  0.04713000  0.92017000  1.0
  H  H7  1  0.43012000  0.33719000  0.93991000  1.0
  H  H8  1  0.56988000  0.66281000  0.06010000  1.0
  H  H9  1  0.68253000  0.01848000  0.94534000  1.0
  H  H10  1  0.31746000  0.98150000  0.05465000  1.0
  H  H11  1  0.30344000  0.25639000  0.14495000  1.0
  H  H12  1  0.69656000  0.74360000  0.85505000  1.0
  H  H13  1  0.90776000  0.79609000  0.21064000  1.0
  H  H14  1  0.09222000  0.20390000  0.78936000  1.0
  H  H15  1  0.97350000  0.58960000  0.37983000  1.0
  H  H16  1  0.02649000  0.41041000  0.62017000  1.0
  H  H17  1  0.10224000  0.36227000  0.34894000  1.0
  H  H18  1  0.89774000  0.63774000  0.65108000  1.0
  H  H19  1  0.78620000  0.34732000  0.46759000  1.0
  H  H20  1  0.21380000  0.65268000  0.53241000  1.0
  H  H21  1  0.71644000  0.65363000  0.52307000  1.0
  H  H22  1  0.28355000  0.34637000  0.47694000  1.0
  H  H23  1  0.51081000  0.72832000  0.44938000  1.0
  H  H24  1  0.48918000  0.27168000  0.55062000  1.0
  H  H25  1  0.59726000  0.28948000  0.32895000  1.0
  H  H26  1  0.40274000  0.71051000  0.67105000  1.0
  H  H27  1  0.43798000  0.51348000  0.33557000  1.0
  H  H28  1  0.56202000  0.48652000  0.66443000  1.0
  H  H29  1  0.31240000  0.03494000  0.41166000  1.0
  H  H30  1  0.68764000  0.96506000  0.58832000  1.0
  H  H31  1  0.77948000  0.98609000  0.36652000  1.0
  H  H32  1  0.22057000  0.01391000  0.63348000  1.0
  C  C33  1  0.24154000  0.60865000  0.97216000  1.0
  C  C34  1  0.75844000  0.39135000  0.02785000  1.0
  C  C35  1  0.31501000  0.43508000  0.00310000  1.0
  C  C36  1  0.68499000  0.56491000  0.99690000  1.0
  C  C37  1  0.24387000  0.39082000  0.11675000  1.0
  C  C38  1  0.75612000  0.60918000  0.88325000  1.0
  C  C39  1  0.09557000  0.52107000  0.19444000  1.0
  C  C40  1  0.90442000  0.47892000  0.80556000  1.0
  C  C41  1  0.02553000  0.69053000  0.15396000  1.0
  C  C42  1  0.97447000  0.30947000  0.84603000  1.0
  C  C43  1  0.00028000  0.48491000  0.31549000  1.0
  C  C44  1  0.99972000  0.51510000  0.68451000  1.0
  C  C45  1  0.69271000  0.45589000  0.41743000  1.0
  C  C46  1  0.30728000  0.54411000  0.58258000  1.0
  C  C47  1  0.60034000  0.61921000  0.49926000  1.0
  C  C48  1  0.39966000  0.38079000  0.50074000  1.0
  C  C49  1  0.52938000  0.40771000  0.38734000  1.0
  C  C50  1  0.47062000  0.59229000  0.61267000  1.0
  C  C51  1  0.10753000  0.02219000  0.24202000  1.0
  C  C52  1  0.89248000  0.97781000  0.75797000  1.0
  C  C53  1  0.05233000  0.01083000  0.37535000  1.0
  C  C54  1  0.94766000  0.98918000  0.62463000  1.0
  C  C55  1  0.17554000  0.01990000  0.45119000  1.0
  C  C56  1  0.82448000  0.98010000  0.54880000  1.0
  C  C57  1  0.87631000  0.99082000  0.42547000  1.0
  C  C58  1  0.12368000  0.00917000  0.57452000  1.0
  N  N59  1  0.09871000  0.73487000  0.04651000  1.0
  N  N60  1  0.90130000  0.26512000  0.95349000  1.0
  N  N61  1  0.80974000  0.48187000  0.30557000  1.0
  N  N62  1  0.19025000  0.51814000  0.69443000  1.0
  O  O63  1  0.96511000  0.06724000  0.18364000  1.0
  O  O64  1  0.03490000  0.93276000  0.81635000  1.0
  O  O65  1  0.28897000  0.98640000  0.19654000  1.0
  O  O66  1  0.71104000  0.01360000  0.80344000  1.0
  O  O67  1  0.68447000  0.03744000  0.03304000  1.0
  O  O68  1  0.31553000  0.96255000  0.96695000  1.0
