# generated using pymatgen
data_ZnH42C40N3O8
_symmetry_space_group_name_H-M   'P 1'
_cell_length_a   15.12730000
_cell_length_b   16.24280000
_cell_length_c   16.89330000
_cell_angle_alpha   86.99020000
_cell_angle_beta   88.55040000
_cell_angle_gamma   89.37880000
_symmetry_Int_Tables_number   1
_chemical_formula_structural   ZnH42C40N3O8
_chemical_formula_sum   'Zn2 H84 C80 N6 O16'
_cell_volume   4143.60725896
_cell_formula_units_Z   2
loop_
 _symmetry_equiv_pos_site_id
 _symmetry_equiv_pos_as_xyz
  1  'x, y, z'
loop_
 _atom_site_type_symbol
 _atom_site_label
 _atom_site_symmetry_multiplicity
 _atom_site_fract_x
 _atom_site_fract_y
 _atom_site_fract_z
 _atom_site_occupancy
  Zn  Zn0  1  0.49851000  0.59033000  0.50664000  1.0
  Zn  Zn1  1  0.50670000  0.40389000  0.49572000  1.0
  H  H2  1  0.07442000  0.61475000  0.31939000  1.0
  H  H3  1  0.92198000  0.51112000  0.71515000  1.0
  H  H4  1  0.45142000  0.56736000  0.91048000  1.0
  H  H5  1  0.46398000  0.42144000  0.10072000  1.0
  H  H6  1  0.60929000  0.62943000  0.25720000  1.0
  H  H7  1  0.58571000  0.36394000  0.73311000  1.0
  H  H8  1  0.28911000  0.33029000  0.75272000  1.0
  H  H9  1  0.18948000  0.37477000  0.79102000  1.0
  H  H10  1  0.19054000  0.27239000  0.75922000  1.0
  H  H11  1  0.12038000  0.37103000  0.65917000  1.0
  H  H12  1  0.21451000  0.32391000  0.61802000  1.0
  H  H13  1  0.30326000  0.44615000  0.62724000  1.0
  H  H14  1  0.22875000  0.48913000  0.69398000  1.0
  H  H15  1  0.72330000  0.47429000  0.21360000  1.0
  H  H16  1  0.82218000  0.53168000  0.20149000  1.0
  H  H17  1  0.82357000  0.42429000  0.18659000  1.0
  H  H18  1  0.88696000  0.45797000  0.31830000  1.0
  H  H19  1  0.79543000  0.39243000  0.33124000  1.0
  H  H20  1  0.69966000  0.49762000  0.37552000  1.0
  H  H21  1  0.76270000  0.57742000  0.33118000  1.0
  H  H22  1  0.67666000  0.00437000  0.25669000  1.0
  H  H23  1  0.71092000  0.90825000  0.22066000  1.0
  H  H24  1  0.61590000  0.95908000  0.18152000  1.0
  H  H25  1  0.57394000  0.84080000  0.27842000  1.0
  H  H26  1  0.53380000  0.93598000  0.31064000  1.0
  H  H27  1  0.66746000  0.94333000  0.39836000  1.0
  H  H28  1  0.70259000  0.84624000  0.36517000  1.0
  H  H29  1  0.22070000  0.98189000  0.59881000  1.0
  H  H30  1  0.17060000  0.07746000  0.62120000  1.0
  H  H31  1  0.14512000  0.03057000  0.53206000  1.0
  H  H32  1  0.25127000  0.14642000  0.50234000  1.0
  H  H33  1  0.30156000  0.05124000  0.48135000  1.0
  H  H34  1  0.37289000  0.04674000  0.61578000  1.0
  H  H35  1  0.32432000  0.14255000  0.63428000  1.0
  H  H36  1  0.57708000  0.05125000  0.35915000  1.0
  H  H37  1  0.38810000  0.87721000  0.65302000  1.0
  H  H38  1  0.64906000  0.36753000  0.24456000  1.0
  H  H39  1  0.71251000  0.27519000  0.24112000  1.0
  H  H40  1  0.62165000  0.29252000  0.17713000  1.0
  H  H41  1  0.57969000  0.19396000  0.29022000  1.0
  H  H42  1  0.51579000  0.28455000  0.29301000  1.0
  H  H43  1  0.61484000  0.33973000  0.39436000  1.0
  H  H44  1  0.68112000  0.24980000  0.39175000  1.0
  H  H45  1  0.22864000  0.64927000  0.60376000  1.0
  H  H46  1  0.23107000  0.72231000  0.67861000  1.0
  H  H47  1  0.16254000  0.73974000  0.59503000  1.0
  H  H48  1  0.29645000  0.82652000  0.57364000  1.0
  H  H49  1  0.30015000  0.74767000  0.50564000  1.0
  H  H50  1  0.39654000  0.66193000  0.59825000  1.0
  H  H51  1  0.39833000  0.74232000  0.66321000  1.0
  H  H52  1  0.20515000  0.58554000  0.18596000  1.0
  H  H53  1  0.31237000  0.54540000  0.20503000  1.0
  H  H54  1  0.23237000  0.48253000  0.16328000  1.0
  H  H55  1  0.23926000  0.43977000  0.30648000  1.0
  H  H56  1  0.13797000  0.49035000  0.28935000  1.0
  H  H57  1  0.21248000  0.62440000  0.32939000  1.0
  H  H58  1  0.30338000  0.56390000  0.35927000  1.0
  H  H59  1  0.63484000  0.56589000  0.77688000  1.0
  H  H60  1  0.73997000  0.55788000  0.82111000  1.0
  H  H61  1  0.69351000  0.65625000  0.79552000  1.0
  H  H62  1  0.80956000  0.62279000  0.69441000  1.0
  H  H63  1  0.70503000  0.62622000  0.65038000  1.0
  H  H64  1  0.69622000  0.47408000  0.65887000  1.0
  H  H65  1  0.79517000  0.46594000  0.71108000  1.0
  H  H66  1  0.84354000  0.67017000  0.33025000  1.0
  H  H67  1  0.14529000  0.57063000  0.72962000  1.0
  H  H68  1  0.35252000  0.56964000  0.71255000  1.0
  H  H69  1  0.38845000  0.42080000  0.31224000  1.0
  H  H70  1  0.74947000  0.79746000  0.09447000  1.0
  H  H71  1  0.69493000  0.78975000  0.00337000  1.0
  H  H72  1  0.65943000  0.86451000  0.07050000  1.0
  H  H73  1  0.55503000  0.74534000  0.07950000  1.0
  H  H74  1  0.61076000  0.75179000  0.16951000  1.0
  H  H75  1  0.71931000  0.64345000  0.12642000  1.0
  H  H76  1  0.66259000  0.63655000  0.03689000  1.0
  H  H77  1  0.70996000  0.17945000  0.91138000  1.0
  H  H78  1  0.70983000  0.22932000  0.00236000  1.0
  H  H79  1  0.63462000  0.14825000  0.98916000  1.0
  H  H80  1  0.55649000  0.28597000  0.97595000  1.0
  H  H81  1  0.55551000  0.23593000  0.88562000  1.0
  H  H82  1  0.68573000  0.31929000  0.83535000  1.0
  H  H83  1  0.68786000  0.36813000  0.92644000  1.0
  H  H84  1  0.65419000  0.64286000  0.44370000  1.0
  H  H85  1  0.36831000  0.34149000  0.58686000  1.0
  C  C86  1  0.51732000  0.52044000  0.34914000  1.0
  C  C87  1  0.49086000  0.47788000  0.65388000  1.0
  C  C88  1  0.95073000  0.58825000  0.37439000  1.0
  C  C89  1  0.04611000  0.51512000  0.65567000  1.0
  C  C90  1  0.52365000  0.52474000  0.26068000  1.0
  C  C91  1  0.49869000  0.46818000  0.74179000  1.0
  C  C92  1  0.48159000  0.46524000  0.21685000  1.0
  C  C93  1  0.45917000  0.52606000  0.79164000  1.0
  C  C94  1  0.49789000  0.46552000  0.13544000  1.0
  C  C95  1  0.48195000  0.52368000  0.87106000  1.0
  C  C96  1  0.55333000  0.52456000  0.09726000  1.0
  C  C97  1  0.54177000  0.46428000  0.90133000  1.0
  C  C98  1  0.59329000  0.58630000  0.13989000  1.0
  C  C99  1  0.57901000  0.40375000  0.85300000  1.0
  C  C100  1  0.57713000  0.58462000  0.22193000  1.0
  C  C101  1  0.55588000  0.40733000  0.77332000  1.0
  C  C102  1  0.44202000  0.23195000  0.54414000  1.0
  C  C103  1  0.57727000  0.75723000  0.45118000  1.0
  C  C104  1  0.42631000  0.14709000  0.54331000  1.0
  C  C105  1  0.58707000  0.84319000  0.44110000  1.0
  C  C106  1  0.48537000  0.10286000  0.49533000  1.0
  C  C107  1  0.53817000  0.89067000  0.49482000  1.0
  C  C108  1  0.67283000  0.48956000  0.51465000  1.0
  C  C109  1  0.32897000  0.50433000  0.49325000  1.0
  C  C110  1  0.55135000  0.14297000  0.44831000  1.0
  C  C111  1  0.48374000  0.85258000  0.55444000  1.0
  C  C112  1  0.55405000  0.23004000  0.44505000  1.0
  C  C113  1  0.46809000  0.76722000  0.55196000  1.0
  C  C114  1  0.18589000  0.49682000  0.57249000  1.0
  C  C115  1  0.81379000  0.52668000  0.44197000  1.0
  C  C116  1  0.22937000  0.51225000  0.49830000  1.0
  C  C117  1  0.77054000  0.50577000  0.51502000  1.0
  C  C118  1  0.18491000  0.54392000  0.43112000  1.0
  C  C119  1  0.81237000  0.50734000  0.58804000  1.0
  C  C120  1  0.09203000  0.55428000  0.43697000  1.0
  C  C121  1  0.90523000  0.51719000  0.58678000  1.0
  C  C122  1  0.04610000  0.53761000  0.51092000  1.0
  C  C123  1  0.95145000  0.53682000  0.51355000  1.0
  C  C124  1  0.09488000  0.51755000  0.58058000  1.0
  C  C125  1  0.90306000  0.55199000  0.44279000  1.0
  C  C126  1  0.04156000  0.58643000  0.37202000  1.0
  C  C127  1  0.95523000  0.51290000  0.65713000  1.0
  C  C128  1  0.23232000  0.45275000  0.64094000  1.0
  C  C129  1  0.19277000  0.36705000  0.66301000  1.0
  C  C130  1  0.21718000  0.33446000  0.74616000  1.0
  C  C131  1  0.76816000  0.51754000  0.36430000  1.0
  C  C132  1  0.81508000  0.45524000  0.31084000  1.0
  C  C133  1  0.79480000  0.47207000  0.22336000  1.0
  C  C134  1  0.64435000  0.88466000  0.37743000  1.0
  C  C135  1  0.59495000  0.90041000  0.29926000  1.0
  C  C136  1  0.65266000  0.94572000  0.23602000  1.0
  C  C137  1  0.34996000  0.10486000  0.58689000  1.0
  C  C138  1  0.27506000  0.08756000  0.52992000  1.0
  C  C139  1  0.19862000  0.04192000  0.57277000  1.0
  C  C140  1  0.61188000  0.09417000  0.39701000  1.0
  C  C141  1  0.45302000  0.89617000  0.62618000  1.0
  C  C142  1  0.61341000  0.27380000  0.38461000  1.0
  C  C143  1  0.58336000  0.26043000  0.29976000  1.0
  C  C144  1  0.64516000  0.30102000  0.23711000  1.0
  C  C145  1  0.39325000  0.72903000  0.60029000  1.0
  C  C146  1  0.30283000  0.75920000  0.56916000  1.0
  C  C147  1  0.22690000  0.71536000  0.61442000  1.0
  C  C148  1  0.23146000  0.56197000  0.35223000  1.0
  C  C149  1  0.20982000  0.50019000  0.28940000  1.0
  C  C150  1  0.24173000  0.52981000  0.20638000  1.0
  C  C151  1  0.76042000  0.50370000  0.66541000  1.0
  C  C152  1  0.74532000  0.59150000  0.69433000  1.0
  C  C153  1  0.70100000  0.59286000  0.77639000  1.0
  C  C154  1  0.90726000  0.64079000  0.31191000  1.0
  C  C155  1  0.08627000  0.52981000  0.73297000  1.0
  C  C156  1  0.39100000  0.58679000  0.76416000  1.0
  C  C157  1  0.41441000  0.40728000  0.25227000  1.0
  C  C158  1  0.65355000  0.64964000  0.09975000  1.0
  C  C159  1  0.62041000  0.73889000  0.10651000  1.0
  C  C160  1  0.68452000  0.80111000  0.06656000  1.0
  C  C161  1  0.64377000  0.34010000  0.88481000  1.0
  C  C162  1  0.59912000  0.26471000  0.92724000  1.0
  C  C163  1  0.66702000  0.20198000  0.95928000  1.0
  C  C164  1  0.63884000  0.70049000  0.40878000  1.0
  C  C165  1  0.39760000  0.28154000  0.60685000  1.0
  N  N166  1  0.56025000  0.52883000  0.01393000  1.0
  N  N167  1  0.55894000  0.45953000  0.98298000  1.0
  N  N168  1  0.49989000  0.27283000  0.49345000  1.0
  N  N169  1  0.51761000  0.72059000  0.50354000  1.0
  N  N170  1  0.47560000  0.01643000  0.49853000  1.0
  N  N171  1  0.54668000  0.97693000  0.48815000  1.0
  O  O172  1  0.51745000  0.58738000  0.38486000  1.0
  O  O173  1  0.50391000  0.41386000  0.61440000  1.0
  O  O174  1  0.51432000  0.44781000  0.38190000  1.0
  O  O175  1  0.47544000  0.55043000  0.62504000  1.0
  O  O176  1  0.62497000  0.55303000  0.52753000  1.0
  O  O177  1  0.36594000  0.43385000  0.49107000  1.0
  O  O178  1  0.64510000  0.41857000  0.50124000  1.0
  O  O179  1  0.36807000  0.57363000  0.49216000  1.0
  O  O180  1  0.69213000  0.10208000  0.39196000  1.0
  O  O181  1  0.49915000  0.94566000  0.65775000  1.0
  O  O182  1  0.93936000  0.65711000  0.24550000  1.0
  O  O183  1  0.05518000  0.50584000  0.79776000  1.0
  O  O184  1  0.37429000  0.65099000  0.79705000  1.0
  O  O185  1  0.38604000  0.34883000  0.21764000  1.0
  O  O186  1  0.67432000  0.71722000  0.34391000  1.0
  O  O187  1  0.39535000  0.25518000  0.67593000  1.0
