# generated using pymatgen
data_CdH18C19N4(ClO2)2
_symmetry_space_group_name_H-M   'P 1'
_cell_length_a   9.82422000
_cell_length_b   10.09970000
_cell_length_c   12.07240000
_cell_angle_alpha   84.55730000
_cell_angle_beta   67.89230000
_cell_angle_gamma   71.20120000
_symmetry_Int_Tables_number   1
_chemical_formula_structural   CdH18C19N4(ClO2)2
_chemical_formula_sum   'Cd2 H36 C38 N8 Cl4 O8'
_cell_volume   1050.09906771
_cell_formula_units_Z   2
loop_
 _symmetry_equiv_pos_site_id
 _symmetry_equiv_pos_as_xyz
  1  'x, y, z'
loop_
 _atom_site_type_symbol
 _atom_site_label
 _atom_site_symmetry_multiplicity
 _atom_site_fract_x
 _atom_site_fract_y
 _atom_site_fract_z
 _atom_site_occupancy
  Cd  Cd0  1  0.55307000  0.02628000  0.81454000  1.0
  Cd  Cd1  1  0.44693000  0.97372000  0.18546000  1.0
  H  H2  1  0.18180000  0.12163000  0.71594000  1.0
  H  H3  1  0.81820000  0.87837000  0.28406000  1.0
  H  H4  1  0.26951000  0.95986000  0.76609000  1.0
  H  H5  1  0.73049000  0.04014000  0.23391000  1.0
  H  H6  1  0.49119000  0.73398000  0.36356000  1.0
  H  H7  1  0.50881000  0.26602000  0.63645000  1.0
  H  H8  1  0.77499000  0.87945000  0.96823000  1.0
  H  H9  1  0.22501000  0.12055000  0.03177000  1.0
  H  H10  1  0.00748000  0.81502000  0.03764000  1.0
  H  H11  1  0.99253000  0.18497000  0.96236000  1.0
  H  H12  1  0.17472000  0.85889000  0.94252000  1.0
  H  H13  1  0.82528000  0.14110000  0.05748000  1.0
  H  H14  1  0.14071000  0.70855000  0.90899000  1.0
  H  H15  1  0.85929000  0.29144000  0.09100000  1.0
  H  H16  1  0.38395000  0.69710000  0.69805000  1.0
  H  H17  1  0.61605000  0.30290000  0.30195000  1.0
  H  H18  1  0.46610000  0.59625000  0.56315000  1.0
  H  H19  1  0.53390000  0.40375000  0.43685000  1.0
  H  H20  1  0.26256000  0.65249000  0.63986000  1.0
  H  H21  1  0.73744000  0.34751000  0.36015000  1.0
  H  H22  1  0.34845000  0.21829000  0.38902000  1.0
  H  H23  1  0.65155000  0.78171000  0.61098000  1.0
  H  H24  1  0.25880000  0.24060000  0.54743000  1.0
  H  H25  1  0.74120000  0.75940000  0.45257000  1.0
  H  H26  1  0.15079000  0.22961000  0.46157000  1.0
  H  H27  1  0.84921000  0.77039000  0.53843000  1.0
  H  H28  1  0.77597000  0.18928000  0.65046000  1.0
  H  H29  1  0.22403000  0.81072000  0.34954000  1.0
  H  H30  1  0.96293000  0.08980000  0.55491000  1.0
  H  H31  1  0.03707000  0.91020000  0.44509000  1.0
  H  H32  1  0.94134000  0.22835000  0.64578000  1.0
  H  H33  1  0.05866000  0.77166000  0.35422000  1.0
  H  H34  1  0.19337000  0.36372000  0.08719000  1.0
  H  H35  1  0.80664000  0.63629000  0.91280000  1.0
  H  H36  1  0.36107000  0.71710000  0.12601000  1.0
  H  H37  1  0.63894000  0.28289000  0.87399000  1.0
  C  C38  1  0.19730000  0.00884000  0.71334000  1.0
  C  C39  1  0.80270000  0.99116000  0.28666000  1.0
  C  C40  1  0.04263000  0.98530000  0.77225000  1.0
  C  C41  1  0.95737000  0.01470000  0.22775000  1.0
  C  C42  1  0.31224000  0.03382000  0.48139000  1.0
  C  C43  1  0.68776000  0.96618000  0.51861000  1.0
  C  C44  1  0.91090000  0.04484000  0.74123000  1.0
  C  C45  1  0.08910000  0.95516000  0.25877000  1.0
  C  C46  1  0.08395000  0.81708000  0.94437000  1.0
  C  C47  1  0.91605000  0.18291000  0.05563000  1.0
  C  C48  1  0.35653000  0.81451000  0.54720000  1.0
  C  C49  1  0.64347000  0.18549000  0.45281000  1.0
  C  C50  1  0.36764000  0.68331000  0.61535000  1.0
  C  C51  1  0.63236000  0.31669000  0.38466000  1.0
  C  C52  1  0.99669000  0.90436000  0.87150000  1.0
  C  C53  1  0.00331000  0.09563000  0.12850000  1.0
  C  C54  1  0.26521000  0.18856000  0.46901000  1.0
  C  C55  1  0.73479000  0.81144000  0.53099000  1.0
  C  C56  1  0.89622000  0.14276000  0.64325000  1.0
  C  C57  1  0.10378000  0.85724000  0.35675000  1.0
  C  C58  1  0.50357000  0.77349000  0.89983000  1.0
  C  C59  1  0.49643000  0.22651000  0.10017000  1.0
  C  C60  1  0.28347000  0.95497000  0.58611000  1.0
  C  C61  1  0.71653000  0.04503000  0.41389000  1.0
  C  C62  1  0.14236000  0.40852000  0.92642000  1.0
  C  C63  1  0.85765000  0.59148000  0.07358000  1.0
  C  C64  1  0.96819000  0.51400000  0.12137000  1.0
  C  C65  1  0.03180000  0.48600000  0.87863000  1.0
  C  C66  1  0.10884000  0.42356000  0.04870000  1.0
  C  C67  1  0.89116000  0.57645000  0.95131000  1.0
  C  C68  1  0.29452000  0.30787000  0.85118000  1.0
  C  C69  1  0.70547000  0.69213000  0.14883000  1.0
  C  C70  1  0.50182000  0.63149000  0.94833000  1.0
  C  C71  1  0.49818000  0.36851000  0.05167000  1.0
  C  C72  1  0.42244000  0.62159000  0.07069000  1.0
  C  C73  1  0.57757000  0.37841000  0.92931000  1.0
  C  C74  1  0.57992000  0.50730000  0.87768000  1.0
  C  C75  1  0.42009000  0.49270000  0.12232000  1.0
  N  N76  1  0.79172000  0.00313000  0.81710000  1.0
  N  N77  1  0.20828000  0.99686000  0.18290000  1.0
  N  N78  1  0.39780000  0.94649000  0.38482000  1.0
  N  N79  1  0.60220000  0.05351000  0.61518000  1.0
  N  N80  1  0.42275000  0.81498000  0.42677000  1.0
  N  N81  1  0.57724000  0.18502000  0.57324000  1.0
  N  N82  1  0.84650000  0.91769000  0.89501000  1.0
  N  N83  1  0.15350000  0.08231000  0.10499000  1.0
  Cl  Cl84  1  0.93340000  0.53145000  0.27190000  1.0
  Cl  Cl85  1  0.06660000  0.46855000  0.72810000  1.0
  Cl  Cl86  1  0.68501000  0.50807000  0.72643000  1.0
  Cl  Cl87  1  0.31500000  0.49193000  0.27356000  1.0
  O  O88  1  0.52754000  0.85529000  0.96087000  1.0
  O  O89  1  0.47246000  0.14471000  0.03913000  1.0
  O  O90  1  0.48445000  0.80828000  0.80222000  1.0
  O  O91  1  0.51555000  0.19172000  0.19778000  1.0
  O  O92  1  0.38949000  0.35454000  0.76967000  1.0
  O  O93  1  0.61051000  0.64547000  0.23032000  1.0
  O  O94  1  0.31281000  0.17907000  0.88063000  1.0
  O  O95  1  0.68719000  0.82093000  0.11936000  1.0
