# generated using pymatgen
data_UH19C23NO7
_symmetry_space_group_name_H-M   'P 1'
_cell_length_a   9.65830000
_cell_length_b   10.52760000
_cell_length_c   12.81570000
_cell_angle_alpha   74.85560000
_cell_angle_beta   86.64450000
_cell_angle_gamma   72.10790000
_symmetry_Int_Tables_number   1
_chemical_formula_structural   UH19C23NO7
_chemical_formula_sum   'U2 H38 C46 N2 O14'
_cell_volume   1196.66078179
_cell_formula_units_Z   2
loop_
 _symmetry_equiv_pos_site_id
 _symmetry_equiv_pos_as_xyz
  1  'x, y, z'
loop_
 _atom_site_type_symbol
 _atom_site_label
 _atom_site_symmetry_multiplicity
 _atom_site_fract_x
 _atom_site_fract_y
 _atom_site_fract_z
 _atom_site_occupancy
  U  U0  1  0.22952000  0.29394000  0.95715000  1.0
  U  U1  1  0.77048000  0.70607000  0.04284000  1.0
  H  H2  1  0.16605000  0.07733000  0.66040000  1.0
  H  H3  1  0.83395000  0.92268000  0.33959000  1.0
  H  H4  1  0.26060000  0.92732000  0.53678000  1.0
  H  H5  1  0.73939000  0.07269000  0.46321000  1.0
  H  H6  1  0.68854000  0.80554000  0.68396000  1.0
  H  H7  1  0.31145000  0.19447000  0.31604000  1.0
  H  H8  1  0.59472000  0.96197000  0.80052000  1.0
  H  H9  1  0.40527000  0.03803000  0.19947000  1.0
  H  H10  1  0.33446000  0.76880000  0.46930000  1.0
  H  H11  1  0.66553000  0.23120000  0.53069000  1.0
  H  H12  1  0.70498000  0.54121000  0.32101000  1.0
  H  H13  1  0.29503000  0.45878000  0.67900000  1.0
  H  H14  1  0.86863000  0.59003000  0.43543000  1.0
  H  H15  1  0.13137000  0.40998000  0.56459000  1.0
  H  H16  1  0.76940000  0.73480000  0.56107000  1.0
  H  H17  1  0.23059000  0.26523000  0.43892000  1.0
  H  H18  1  0.22799000  0.80690000  0.31704000  1.0
  H  H19  1  0.77201000  0.19309000  0.68296000  1.0
  H  H20  1  0.06643000  0.75512000  0.20188000  1.0
  H  H21  1  0.93357000  0.24488000  0.79812000  1.0
  H  H22  1  0.40599000  0.38810000  0.17829000  1.0
  H  H23  1  0.59400000  0.61191000  0.82170000  1.0
  H  H24  1  0.56613000  0.43524000  0.29760000  1.0
  H  H25  1  0.43388000  0.56476000  0.70239000  1.0
  H  H26  1  0.61152000  0.11857000  0.95720000  1.0
  H  H27  1  0.38850000  0.88140000  0.04281000  1.0
  H  H28  1  0.84376000  0.03710000  0.98807000  1.0
  H  H29  1  0.15626000  0.96289000  0.01193000  1.0
  H  H30  1  0.89807000  0.03553000  0.11903000  1.0
  H  H31  1  0.10194000  0.96446000  0.88098000  1.0
  H  H32  1  0.93060000  0.16017000  0.00333000  1.0
  H  H33  1  0.06941000  0.83982000  0.99667000  1.0
  H  H34  1  0.61993000  0.39185000  0.08185000  1.0
  H  H35  1  0.38008000  0.60815000  0.91814000  1.0
  H  H36  1  0.80979000  0.31535000  0.11315000  1.0
  H  H37  1  0.19022000  0.68465000  0.88684000  1.0
  H  H38  1  0.68049000  0.25163000  0.19909000  1.0
  H  H39  1  0.31951000  0.74838000  0.80091000  1.0
  C  C40  1  0.32113000  0.12405000  0.80968000  1.0
  C  C41  1  0.67887000  0.87596000  0.19031000  1.0
  C  C42  1  0.37425000  0.03085000  0.73767000  1.0
  C  C43  1  0.62574000  0.96916000  0.26232000  1.0
  C  C44  1  0.28077000  0.01737000  0.66437000  1.0
  C  C45  1  0.71922000  0.98264000  0.33561000  1.0
  C  C46  1  0.33486000  0.93165000  0.59561000  1.0
  C  C47  1  0.66513000  0.06837000  0.40439000  1.0
  C  C48  1  0.48327000  0.85443000  0.59873000  1.0
  C  C49  1  0.51672000  0.14558000  0.40127000  1.0
  C  C50  1  0.57430000  0.86660000  0.67521000  1.0
  C  C51  1  0.42570000  0.13341000  0.32479000  1.0
  C  C52  1  0.52181000  0.95418000  0.74240000  1.0
  C  C53  1  0.47818000  0.04582000  0.25760000  1.0
  C  C54  1  0.54301000  0.76521000  0.52434000  1.0
  C  C55  1  0.45698000  0.23480000  0.47566000  1.0
  C  C56  1  0.45187000  0.73285000  0.46056000  1.0
  C  C57  1  0.54812000  0.26715000  0.53944000  1.0
  C  C58  1  0.50696000  0.65218000  0.38724000  1.0
  C  C59  1  0.49304000  0.34782000  0.61277000  1.0
  C  C60  1  0.65883000  0.59938000  0.38019000  1.0
  C  C61  1  0.34117000  0.40062000  0.61982000  1.0
  C  C62  1  0.75105000  0.62834000  0.44395000  1.0
  C  C63  1  0.24894000  0.37167000  0.55606000  1.0
  C  C64  1  0.69441000  0.71075000  0.51467000  1.0
  C  C65  1  0.30558000  0.28926000  0.48533000  1.0
  C  C66  1  0.40932000  0.62390000  0.31766000  1.0
  C  C67  1  0.59069000  0.37610000  0.68235000  1.0
  C  C68  1  0.26704000  0.71296000  0.28904000  1.0
  C  C69  1  0.73297000  0.28703000  0.71097000  1.0
  C  C70  1  0.17644000  0.68584000  0.22286000  1.0
  C  C71  1  0.82355000  0.31416000  0.77715000  1.0
  C  C72  1  0.22671000  0.56801000  0.18256000  1.0
  C  C73  1  0.77329000  0.43199000  0.81744000  1.0
  C  C74  1  0.36804000  0.47885000  0.21013000  1.0
  C  C75  1  0.63197000  0.52114000  0.78987000  1.0
  C  C76  1  0.45740000  0.50665000  0.27635000  1.0
  C  C77  1  0.54260000  0.49336000  0.72365000  1.0
  C  C78  1  0.13570000  0.53816000  0.10857000  1.0
  C  C79  1  0.86429000  0.46184000  0.89143000  1.0
  C  C80  1  0.59509000  0.19395000  0.00558000  1.0
  C  C81  1  0.40492000  0.80603000  0.99442000  1.0
  C  C82  1  0.85529000  0.10210000  0.03916000  1.0
  C  C83  1  0.14472000  0.89789000  0.96084000  1.0
  C  C84  1  0.70518000  0.29501000  0.11489000  1.0
  C  C85  1  0.29483000  0.70498000  0.88511000  1.0
  N  N86  1  0.71340000  0.19805000  0.05017000  1.0
  N  N87  1  0.28662000  0.80194000  0.94983000  1.0
  O  O88  1  0.18541000  0.18737000  0.81568000  1.0
  O  O89  1  0.81459000  0.81264000  0.18432000  1.0
  O  O90  1  0.41241000  0.14130000  0.86963000  1.0
  O  O91  1  0.58758000  0.85869000  0.13037000  1.0
  O  O92  1  0.01923000  0.63215000  0.06714000  1.0
  O  O93  1  0.98077000  0.36785000  0.93286000  1.0
  O  O94  1  0.17808000  0.42106000  0.08637000  1.0
  O  O95  1  0.82193000  0.57894000  0.91363000  1.0
  O  O96  1  0.23548000  0.44635000  0.85318000  1.0
  O  O97  1  0.76451000  0.55366000  0.14683000  1.0
  O  O98  1  0.21727000  0.14248000  0.06081000  1.0
  O  O99  1  0.78272000  0.85753000  0.93918000  1.0
  O  O100  1  0.46875000  0.27153000  0.01704000  1.0
  O  O101  1  0.53126000  0.72845000  0.98296000  1.0
