# generated using pymatgen
data_TbH15C21O8
_symmetry_space_group_name_H-M   'P 1'
_cell_length_a   12.80530000
_cell_length_b   14.02540000
_cell_length_c   17.85639622
_cell_angle_alpha   100.51489074
_cell_angle_beta   110.97698442
_cell_angle_gamma   90.01160000
_symmetry_Int_Tables_number   1
_chemical_formula_structural   TbH15C21O8
_chemical_formula_sum   'Tb4 H60 C84 O32'
_cell_volume   2936.65795193
_cell_formula_units_Z   4
loop_
 _symmetry_equiv_pos_site_id
 _symmetry_equiv_pos_as_xyz
  1  'x, y, z'
loop_
 _atom_site_type_symbol
 _atom_site_label
 _atom_site_symmetry_multiplicity
 _atom_site_fract_x
 _atom_site_fract_y
 _atom_site_fract_z
 _atom_site_occupancy
  Tb  Tb0  1  0.09978000  0.04558000  0.61388000  1.0
  Tb  Tb1  1  0.48603000  0.45452000  0.38599000  1.0
  Tb  Tb2  1  0.90021000  0.95443000  0.38612000  1.0
  Tb  Tb3  1  0.51395000  0.54548000  0.61401000  1.0
  H  H4  1  0.33713000  0.81286000  0.54283000  1.0
  H  H5  1  0.79443000  0.68717000  0.45723000  1.0
  H  H6  1  0.66285000  0.18715000  0.45717000  1.0
  H  H7  1  0.20556000  0.31284000  0.54277000  1.0
  H  H8  1  0.36209000  0.70568000  0.30918000  1.0
  H  H9  1  0.05230000  0.79478000  0.69098000  1.0
  H  H10  1  0.63791000  0.29432000  0.69083000  1.0
  H  H11  1  0.94770000  0.20521000  0.30902000  1.0
  H  H12  1  0.14770000  0.93751000  0.33567000  1.0
  H  H13  1  0.81185000  0.56244000  0.66436000  1.0
  H  H14  1  0.85231000  0.06249000  0.66433000  1.0
  H  H15  1  0.18816000  0.43755000  0.33563000  1.0
  H  H16  1  0.38905000  0.79070000  0.22336000  1.0
  H  H17  1  0.16562000  0.70936000  0.77634000  1.0
  H  H18  1  0.61096000  0.20929000  0.77664000  1.0
  H  H19  1  0.83438000  0.29060000  0.22364000  1.0
  H  H20  1  0.35451000  0.82026000  0.08575000  1.0
  H  H21  1  0.26873000  0.67993000  0.91403000  1.0
  H  H22  1  0.64550000  0.17973000  0.91425000  1.0
  H  H23  1  0.73127000  0.32004000  0.08596000  1.0
  H  H24  1  0.02552000  0.90946000  0.06778000  1.0
  H  H25  1  0.95788000  0.59055000  0.93230000  1.0
  H  H26  1  0.97450000  0.09055000  0.93223000  1.0
  H  H27  1  0.04213000  0.40943000  0.06769000  1.0
  H  H28  1  0.05876000  0.87841000  0.20442000  1.0
  H  H29  1  0.85457000  0.62093000  0.79545000  1.0
  H  H30  1  0.94125000  0.12160000  0.79558000  1.0
  H  H31  1  0.14544000  0.37906000  0.20455000  1.0
  H  H32  1  0.34818000  0.93560000  0.01836000  1.0
  H  H33  1  0.32978000  0.56494000  0.98135000  1.0
  H  H34  1  0.65183000  0.06441000  0.98164000  1.0
  H  H35  1  0.67023000  0.43506000  0.01865000  1.0
  H  H36  1  0.32172000  0.98910000  0.88798000  1.0
  H  H37  1  0.43390000  0.51131000  0.11153000  1.0
  H  H38  1  0.67828000  0.01091000  0.11202000  1.0
  H  H39  1  0.56611000  0.48871000  0.88848000  1.0
  H  H40  1  0.96617000  0.92700000  0.80903000  1.0
  H  H41  1  0.15762000  0.57302000  0.19106000  1.0
  H  H42  1  0.03383000  0.07301000  0.19098000  1.0
  H  H43  1  0.84237000  0.42699000  0.80893000  1.0
  H  H44  1  0.99161000  0.86714000  0.93635000  1.0
  H  H45  1  0.05537000  0.63266000  0.06377000  1.0
  H  H46  1  0.00839000  0.13286000  0.06365000  1.0
  H  H47  1  0.94463000  0.36734000  0.93621000  1.0
  H  H48  1  0.30022000  0.12072000  0.73133000  1.0
  H  H49  1  0.56956000  0.37946000  0.26833000  1.0
  H  H50  1  0.69977000  0.87929000  0.26867000  1.0
  H  H51  1  0.43043000  0.62053000  0.73167000  1.0
  H  H52  1  0.32640000  0.11608000  0.65242000  1.0
  H  H53  1  0.67426000  0.38417000  0.34740000  1.0
  H  H54  1  0.67360000  0.88393000  0.34758000  1.0
  H  H55  1  0.32573000  0.61582000  0.65260000  1.0
  H  H56  1  0.97882000  0.20278000  0.67870000  1.0
  H  H57  1  0.29992000  0.29742000  0.32104000  1.0
  H  H58  1  0.02119000  0.79722000  0.32131000  1.0
  H  H59  1  0.70008000  0.70259000  0.67897000  1.0
  H  H60  1  0.06052000  0.24167000  0.64153000  1.0
  H  H61  1  0.41867000  0.25851000  0.35823000  1.0
  H  H62  1  0.93947000  0.75833000  0.35847000  1.0
  H  H63  1  0.58132000  0.74149000  0.64178000  1.0
  C  C64  1  0.18983000  0.94652000  0.49669000  1.0
  C  C65  1  0.69315000  0.55337000  0.50340000  1.0
  C  C66  1  0.81017000  0.05348000  0.50331000  1.0
  C  C67  1  0.30683000  0.44663000  0.49659000  1.0
  C  C68  1  0.23698000  0.88063000  0.44372000  1.0
  C  C69  1  0.79318000  0.61934000  0.55634000  1.0
  C  C70  1  0.76301000  0.11937000  0.55628000  1.0
  C  C71  1  0.20681000  0.38066000  0.44365000  1.0
  C  C72  1  0.31340000  0.81530000  0.47828000  1.0
  C  C73  1  0.83505000  0.68474000  0.52179000  1.0
  C  C74  1  0.68660000  0.18470000  0.52173000  1.0
  C  C75  1  0.16495000  0.31527000  0.47821000  1.0
  C  C76  1  0.35666000  0.75170000  0.42865000  1.0
  C  C77  1  0.92772000  0.74850000  0.57146000  1.0
  C  C78  1  0.64332000  0.24830000  0.57136000  1.0
  C  C79  1  0.07228000  0.25149000  0.42854000  1.0
  C  C80  1  0.32685000  0.75642000  0.34605000  1.0
  C  C81  1  0.98045000  0.74381000  0.65406000  1.0
  C  C82  1  0.67314000  0.24358000  0.65395000  1.0
  C  C83  1  0.01955000  0.25619000  0.34594000  1.0
  C  C84  1  0.25240000  0.82341000  0.31093000  1.0
  C  C85  1  0.94135000  0.67654000  0.68909000  1.0
  C  C86  1  0.74761000  0.17660000  0.68907000  1.0
  C  C87  1  0.05866000  0.32345000  0.31091000  1.0
  C  C88  1  0.20546000  0.88415000  0.36062000  1.0
  C  C89  1  0.84474000  0.61581000  0.63943000  1.0
  C  C90  1  0.79454000  0.11585000  0.63938000  1.0
  C  C91  1  0.15526000  0.38418000  0.36056000  1.0
  C  C92  1  0.43200000  0.67583000  0.46269000  1.0
  C  C93  1  0.96904000  0.82443000  0.53746000  1.0
  C  C94  1  0.56799000  0.32417000  0.53732000  1.0
  C  C95  1  0.03096000  0.17557000  0.46254000  1.0
  C  C96  1  0.22741000  0.83343000  0.22539000  1.0
  C  C97  1  0.00203000  0.66637000  0.77450000  1.0
  C  C98  1  0.77261000  0.16657000  0.77461000  1.0
  C  C99  1  0.99799000  0.33362000  0.22550000  1.0
  C  C100  1  0.30871000  0.81638000  0.18940000  1.0
  C  C101  1  0.11927000  0.68359000  0.81036000  1.0
  C  C102  1  0.69130000  0.18361000  0.81060000  1.0
  C  C103  1  0.88074000  0.31639000  0.18963000  1.0
  C  C104  1  0.28959000  0.83425000  0.11174000  1.0
  C  C105  1  0.17783000  0.66583000  0.88807000  1.0
  C  C106  1  0.71044000  0.16574000  0.88827000  1.0
  C  C107  1  0.82218000  0.33415000  0.11192000  1.0
  C  C108  1  0.18826000  0.86963000  0.06640000  1.0
  C  C109  1  0.12191000  0.63047000  0.93353000  1.0
  C  C110  1  0.81175000  0.13037000  0.93360000  1.0
  C  C111  1  0.87811000  0.36952000  0.06647000  1.0
  C  C112  1  0.10498000  0.88183000  0.10084000  1.0
  C  C113  1  0.00423000  0.61808000  0.89912000  1.0
  C  C114  1  0.89504000  0.11817000  0.89917000  1.0
  C  C115  1  0.99577000  0.38191000  0.10087000  1.0
  C  C116  1  0.12417000  0.86460000  0.17879000  1.0
  C  C117  1  0.94549000  0.63502000  0.82112000  1.0
  C  C118  1  0.87585000  0.13541000  0.82122000  1.0
  C  C119  1  0.05452000  0.36498000  0.17888000  1.0
  C  C120  1  0.17177000  0.89805000  0.98760000  1.0
  C  C121  1  0.18426000  0.60217000  0.01235000  1.0
  C  C122  1  0.82824000  0.10194000  0.01240000  1.0
  C  C123  1  0.81575000  0.39783000  0.98765000  1.0
  C  C124  1  0.26426000  0.93157000  0.97196000  1.0
  C  C125  1  0.29239000  0.56884000  0.02784000  1.0
  C  C126  1  0.73575000  0.06844000  0.02804000  1.0
  C  C127  1  0.70760000  0.43116000  0.97215000  1.0
  C  C128  1  0.25000000  0.96282000  0.89967000  1.0
  C  C129  1  0.35054000  0.53757000  0.10006000  1.0
  C  C130  1  0.75000000  0.03719000  0.10032000  1.0
  C  C131  1  0.64946000  0.46244000  0.89994000  1.0
  C  C132  1  0.14224000  0.96310000  0.84107000  1.0
  C  C133  1  0.30154000  0.53722000  0.15881000  1.0
  C  C134  1  0.85775000  0.03691000  0.15893000  1.0
  C  C135  1  0.69845000  0.46279000  0.84119000  1.0
  C  C136  1  0.04965000  0.92842000  0.85530000  1.0
  C  C137  1  0.19468000  0.57171000  0.14468000  1.0
  C  C138  1  0.95035000  0.07158000  0.14470000  1.0
  C  C139  1  0.80531000  0.42831000  0.85531000  1.0
  C  C140  1  0.06431000  0.89596000  0.92724000  1.0
  C  C141  1  0.13723000  0.60409000  0.07277000  1.0
  C  C142  1  0.93569000  0.10404000  0.07276000  1.0
  C  C143  1  0.86278000  0.39592000  0.92723000  1.0
  C  C144  1  0.12734000  0.00081000  0.76557000  1.0
  C  C145  1  0.36224000  0.49957000  0.23437000  1.0
  C  C146  1  0.87264000  0.99920000  0.23443000  1.0
  C  C147  1  0.63777000  0.50044000  0.76564000  1.0
  O  O148  1  0.28267000  0.15002000  0.68264000  1.0
  O  O149  1  0.60039000  0.35017000  0.31704000  1.0
  O  O150  1  0.71734000  0.84998000  0.31736000  1.0
  O  O151  1  0.39959000  0.64982000  0.68296000  1.0
  O  O152  1  0.05640000  0.20367000  0.68146000  1.0
  O  O153  1  0.37478000  0.29659000  0.31834000  1.0
  O  O154  1  0.94360000  0.79633000  0.31854000  1.0
  O  O155  1  0.62520000  0.70341000  0.68166000  1.0
  O  O156  1  0.24724000  0.97542000  0.57211000  1.0
  O  O157  1  0.67540000  0.52434000  0.42802000  1.0
  O  O158  1  0.75276000  0.02459000  0.42790000  1.0
  O  O159  1  0.32458000  0.47566000  0.57198000  1.0
  O  O160  1  0.08944000  0.97234000  0.46562000  1.0
  O  O161  1  0.62378000  0.52762000  0.53449000  1.0
  O  O162  1  0.91055000  0.02766000  0.53439000  1.0
  O  O163  1  0.37621000  0.47237000  0.46551000  1.0
  O  O164  1  0.02946000  0.01518000  0.71794000  1.0
  O  O165  1  0.31195000  0.48529000  0.28207000  1.0
  O  O166  1  0.97053000  0.98482000  0.28206000  1.0
  O  O167  1  0.68805000  0.51471000  0.71793000  1.0
  O  O168  1  0.21367000  0.01766000  0.74780000  1.0
  O  O169  1  0.46627000  0.48268000  0.25204000  1.0
  O  O170  1  0.78631000  0.98237000  0.25220000  1.0
  O  O171  1  0.53372000  0.51733000  0.74796000  1.0
  O  O172  1  0.46824000  0.62017000  0.41443000  1.0
  O  O173  1  0.05346000  0.88009000  0.58575000  1.0
  O  O174  1  0.53174000  0.37983000  0.58558000  1.0
  O  O175  1  0.94655000  0.11991000  0.41425000  1.0
  O  O176  1  0.45342000  0.67124000  0.53762000  1.0
  O  O177  1  0.91561000  0.82895000  0.46252000  1.0
  O  O178  1  0.54658000  0.32876000  0.46239000  1.0
  O  O179  1  0.08438000  0.17104000  0.53747000  1.0
