# generated using pymatgen
data_ZnH14C16S2N2O5
_symmetry_space_group_name_H-M   'P 1'
_cell_length_a   8.94053000
_cell_length_b   10.88160000
_cell_length_c   11.55130000
_cell_angle_alpha   102.97100000
_cell_angle_beta   111.44700000
_cell_angle_gamma   108.56800000
_symmetry_Int_Tables_number   1
_chemical_formula_structural   ZnH14C16S2N2O5
_chemical_formula_sum   'Zn2 H28 C32 S4 N4 O10'
_cell_volume   914.53707087
_cell_formula_units_Z   2
loop_
 _symmetry_equiv_pos_site_id
 _symmetry_equiv_pos_as_xyz
  1  'x, y, z'
loop_
 _atom_site_type_symbol
 _atom_site_label
 _atom_site_symmetry_multiplicity
 _atom_site_fract_x
 _atom_site_fract_y
 _atom_site_fract_z
 _atom_site_occupancy
  Zn  Zn0  1  0.83382000  0.64158000  0.01676000  1.0
  Zn  Zn1  1  0.16618000  0.35842000  0.98323000  1.0
  H  H2  1  0.66773000  0.10359000  0.30242000  1.0
  H  H3  1  0.33227000  0.89641000  0.69758000  1.0
  H  H4  1  0.84380000  0.14077000  0.46207000  1.0
  H  H5  1  0.15620000  0.85924000  0.53793000  1.0
  H  H6  1  0.91744000  0.39874000  0.52843000  1.0
  H  H7  1  0.08256000  0.60126000  0.47157000  1.0
  H  H8  1  0.69700000  0.29758000  0.49448000  1.0
  H  H9  1  0.30300000  0.70242000  0.50552000  1.0
  H  H10  1  0.00770000  0.94666000  0.25640000  1.0
  H  H11  1  0.99230000  0.05334000  0.74359000  1.0
  H  H12  1  0.28926000  0.09644000  0.46794000  1.0
  H  H13  1  0.71074000  0.90356000  0.53205000  1.0
  H  H14  1  0.48694000  0.79667000  0.35585000  1.0
  H  H15  1  0.51305000  0.20332000  0.64415000  1.0
  H  H16  1  0.19932000  0.66348000  0.14872000  1.0
  H  H17  1  0.80068000  0.33652000  0.85128000  1.0
  H  H18  1  0.87141000  0.89227000  0.95157000  1.0
  H  H19  1  0.12859000  0.10773000  0.04843000  1.0
  H  H20  1  0.73828000  0.06005000  0.94335000  1.0
  H  H21  1  0.26173000  0.93995000  0.05665000  1.0
  H  H22  1  0.38474000  0.81775000  0.06915000  1.0
  H  H23  1  0.61526000  0.18225000  0.93085000  1.0
  H  H24  1  0.54724000  0.67257000  0.08695000  1.0
  H  H25  1  0.45276000  0.32742000  0.91305000  1.0
  H  H26  1  0.48556000  0.47624000  0.81852000  1.0
  H  H27  1  0.51444000  0.52376000  0.18148000  1.0
  H  H28  1  0.64285000  0.48395000  0.77317000  1.0
  H  H29  1  0.35715000  0.51606000  0.22683000  1.0
  C  C30  1  0.80948000  0.49194000  0.17152000  1.0
  C  C31  1  0.19051000  0.50806000  0.82848000  1.0
  C  C32  1  0.08007000  0.38116000  0.20946000  1.0
  C  C33  1  0.91993000  0.61884000  0.79054000  1.0
  C  C34  1  0.82799000  0.40101000  0.24987000  1.0
  C  C35  1  0.17201000  0.59899000  0.75013000  1.0
  C  C36  1  0.94098000  0.33977000  0.25751000  1.0
  C  C37  1  0.05902000  0.66023000  0.74249000  1.0
  C  C38  1  0.79774000  0.18426000  0.38612000  1.0
  C  C39  1  0.20226000  0.81574000  0.61388000  1.0
  C  C40  1  0.78533000  0.31722000  0.44839000  1.0
  C  C41  1  0.21467000  0.68278000  0.55161000  1.0
  C  C42  1  0.11793000  0.91730000  0.28273000  1.0
  C  C43  1  0.88207000  0.08270000  0.71727000  1.0
  C  C44  1  0.27700000  0.00073000  0.40216000  1.0
  C  C45  1  0.72300000  0.99927000  0.59784000  1.0
  C  C46  1  0.41602000  0.95937000  0.43537000  1.0
  C  C47  1  0.58398000  0.04063000  0.56463000  1.0
  C  C48  1  0.38693000  0.83652000  0.34035000  1.0
  C  C49  1  0.61306000  0.16347000  0.65965000  1.0
  C  C50  1  0.22440000  0.75975000  0.22265000  1.0
  C  C51  1  0.77559000  0.24025000  0.77735000  1.0
  C  C52  1  0.76521000  0.88282000  0.97933000  1.0
  C  C53  1  0.23479000  0.11718000  0.02067000  1.0
  C  C54  1  0.68612000  0.97362000  0.97184000  1.0
  C  C55  1  0.31388000  0.02638000  0.02815000  1.0
  C  C56  1  0.54558000  0.95400000  0.00435000  1.0
  C  C57  1  0.45442000  0.04600000  0.99565000  1.0
  C  C58  1  0.49483000  0.84256000  0.04526000  1.0
  C  C59  1  0.50517000  0.15743000  0.95474000  1.0
  C  C60  1  0.58356000  0.75841000  0.05385000  1.0
  C  C61  1  0.41644000  0.24159000  0.94615000  1.0
  S  S62  1  0.68927000  0.38554000  0.32692000  1.0
  S  S63  1  0.31073000  0.61446000  0.67308000  1.0
  S  S64  1  0.96540000  0.21877000  0.32989000  1.0
  S  S65  1  0.03460000  0.78124000  0.67011000  1.0
  N  N66  1  0.09040000  0.79800000  0.19460000  1.0
  N  N67  1  0.90960000  0.20200000  0.80541000  1.0
  N  N68  1  0.71645000  0.77760000  0.02082000  1.0
  N  N69  1  0.28355000  0.22240000  0.97918000  1.0
  O  O70  1  0.88628000  0.50033000  0.09672000  1.0
  O  O71  1  0.11372000  0.49967000  0.90328000  1.0
  O  O72  1  0.71477000  0.55636000  0.17805000  1.0
  O  O73  1  0.28523000  0.44364000  0.82195000  1.0
  O  O74  1  0.03927000  0.29943000  0.09244000  1.0
  O  O75  1  0.96073000  0.70057000  0.90756000  1.0
  O  O76  1  0.22639000  0.48669000  0.29255000  1.0
  O  O77  1  0.77361000  0.51331000  0.70745000  1.0
  O  O78  1  0.60251000  0.47273000  0.84305000  1.0
  O  O79  1  0.39749000  0.52727000  0.15695000  1.0
