# generated using pymatgen
data_FeH6PdC12(N4F)2
_symmetry_space_group_name_H-M   'P 1'
_cell_length_a   6.98495000
_cell_length_b   7.16756000
_cell_length_c   15.09160000
_cell_angle_alpha   89.99990000
_cell_angle_beta   89.99860000
_cell_angle_gamma   90.00000000
_symmetry_Int_Tables_number   1
_chemical_formula_structural   FeH6PdC12(N4F)2
_chemical_formula_sum   'Fe2 H12 Pd2 C24 N16 F4'
_cell_volume   755.56168152
_cell_formula_units_Z   2
loop_
 _symmetry_equiv_pos_site_id
 _symmetry_equiv_pos_as_xyz
  1  'x, y, z'
loop_
 _atom_site_type_symbol
 _atom_site_label
 _atom_site_symmetry_multiplicity
 _atom_site_fract_x
 _atom_site_fract_y
 _atom_site_fract_z
 _atom_site_occupancy
  Fe  Fe0  1  0.48828000  0.50000000  0.01191000  1.0
  Fe  Fe1  1  0.48829000  0.00000000  0.48809000  1.0
  H  H2  1  0.10754000  0.50000000  0.10107000  1.0
  H  H3  1  0.89360000  0.99999000  0.60429000  1.0
  H  H4  1  0.89362000  0.50000000  0.89574000  1.0
  H  H5  1  0.10755000  0.00000000  0.39893000  1.0
  H  H6  1  0.67710000  0.50000000  0.18677000  1.0
  H  H7  1  0.33121000  0.00000000  0.69589000  1.0
  H  H8  1  0.33129000  0.49999000  0.80408000  1.0
  H  H9  1  0.67710000  0.00000000  0.31322000  1.0
  H  H10  1  0.56370000  0.50000000  0.34568000  1.0
  H  H11  1  0.45183000  0.00001000  0.85585000  1.0
  H  H12  1  0.45201000  0.50000000  0.64413000  1.0
  H  H13  1  0.56368000  0.00000000  0.15431000  1.0
  Pd  Pd14  1  0.99045000  0.00000000  0.00291000  1.0
  Pd  Pd15  1  0.99047000  0.50000000  0.49710000  1.0
  C  C16  1  0.18627000  0.80541000  0.98454000  1.0
  C  C17  1  0.79599000  0.69482000  0.47547000  1.0
  C  C18  1  0.79598000  0.80517000  0.02453000  1.0
  C  C19  1  0.18628000  0.69458000  0.51546000  1.0
  C  C20  1  0.79598000  0.19483000  0.02453000  1.0
  C  C21  1  0.18629000  0.30542000  0.51546000  1.0
  C  C22  1  0.18627000  0.19459000  0.98454000  1.0
  C  C23  1  0.79599000  0.30517000  0.47547000  1.0
  C  C24  1  0.21103000  0.50000000  0.15479000  1.0
  C  C25  1  0.79416000  0.00000000  0.65999000  1.0
  C  C26  1  0.79422000  0.50000000  0.84003000  1.0
  C  C27  1  0.21104000  0.00000000  0.34520000  1.0
  C  C28  1  0.52606000  0.50000000  0.20358000  1.0
  C  C29  1  0.48287000  0.00000000  0.71212000  1.0
  C  C30  1  0.48297000  0.49999000  0.78786000  1.0
  C  C31  1  0.52605000  0.00000000  0.29641000  1.0
  C  C32  1  0.15755000  0.50000000  0.24348000  1.0
  C  C33  1  0.85324000  0.00000000  0.74833000  1.0
  C  C34  1  0.85336000  0.50000000  0.75170000  1.0
  C  C35  1  0.15755000  0.00000000  0.25652000  1.0
  C  C36  1  0.46219000  0.50000000  0.29073000  1.0
  C  C37  1  0.54945000  0.00001000  0.79933000  1.0
  C  C38  1  0.54959000  0.50000000  0.70066000  1.0
  C  C39  1  0.46217000  0.00000000  0.20926000  1.0
  N  N40  1  0.30392000  0.68887000  0.98480000  1.0
  N  N41  1  0.67841000  0.81095000  0.47029000  1.0
  N  N42  1  0.67840000  0.68904000  0.02971000  1.0
  N  N43  1  0.30393000  0.81114000  0.51520000  1.0
  N  N44  1  0.67839000  0.31096000  0.02971000  1.0
  N  N45  1  0.30393000  0.18887000  0.51520000  1.0
  N  N46  1  0.30392000  0.31114000  0.98480000  1.0
  N  N47  1  0.67841000  0.18905000  0.47028000  1.0
  N  N48  1  0.40016000  0.50000000  0.13495000  1.0
  N  N49  1  0.60617000  0.00000000  0.64407000  1.0
  N  N50  1  0.60622000  0.49999000  0.85593000  1.0
  N  N51  1  0.40016000  0.00000000  0.36504000  1.0
  N  N52  1  0.27459000  0.50000000  0.31144000  1.0
  N  N53  1  0.73805000  0.00001000  0.81693000  1.0
  N  N54  1  0.73821000  0.50000000  0.68309000  1.0
  N  N55  1  0.27459000  0.00000000  0.18856000  1.0
  F  F56  1  0.96726000  0.49999000  0.26238000  1.0
  F  F57  1  0.04380000  0.00000000  0.76642000  1.0
  F  F58  1  0.04394000  0.50001000  0.73362000  1.0
  F  F59  1  0.96726000  0.00000000  0.23762000  1.0
