# generated using pymatgen
data_H10PbC12N2O5
_symmetry_space_group_name_H-M   'P 1'
_cell_length_a   7.11427000
_cell_length_b   10.61380000
_cell_length_c   10.70770000
_cell_angle_alpha   113.71500000
_cell_angle_beta   101.10700000
_cell_angle_gamma   106.31100000
_symmetry_Int_Tables_number   1
_chemical_formula_structural   H10PbC12N2O5
_chemical_formula_sum   'H20 Pb2 C24 N4 O10'
_cell_volume   666.11366864
_cell_formula_units_Z   2
loop_
 _symmetry_equiv_pos_site_id
 _symmetry_equiv_pos_as_xyz
  1  'x, y, z'
loop_
 _atom_site_type_symbol
 _atom_site_label
 _atom_site_symmetry_multiplicity
 _atom_site_fract_x
 _atom_site_fract_y
 _atom_site_fract_z
 _atom_site_occupancy
  H  H0  1  0.21742000  0.14770000  0.74340000  1.0
  H  H1  1  0.97393000  0.40442000  0.25687000  1.0
  H  H2  1  0.23126000  0.89920000  0.69611000  1.0
  H  H3  1  0.03523000  0.20320000  0.30413000  1.0
  H  H4  1  0.43543000  0.06675000  0.15961000  1.0
  H  H5  1  0.77618000  0.90754000  0.84067000  1.0
  H  H6  1  0.41953000  0.31049000  0.18888000  1.0
  H  H7  1  0.73081000  0.12197000  0.81139000  1.0
  H  H8  1  0.63718000  0.83015000  0.25855000  1.0
  H  H9  1  0.87853000  0.57154000  0.74138000  1.0
  H  H10  1  0.97641000  0.04226000  0.42667000  1.0
  H  H11  1  0.04952000  0.61529000  0.57287000  1.0
  H  H12  1  0.63250000  0.27597000  0.64918000  1.0
  H  H13  1  0.48364000  0.62686000  0.35087000  1.0
  H  H14  1  0.30716000  0.05514000  0.47055000  1.0
  H  H15  1  0.33685000  0.58476000  0.52972000  1.0
  H  H16  1  0.51738000  0.57320000  0.14790000  1.0
  H  H17  1  0.86975000  0.42523000  0.85201000  1.0
  H  H18  1  0.32620000  0.41945000  0.03478000  1.0
  H  H19  1  0.79167000  0.38478000  0.96534000  1.0
  Pb  Pb20  1  0.46922000  0.55855000  0.85372000  1.0
  Pb  Pb21  1  0.11530000  0.70466000  0.14597000  1.0
  C  C22  1  0.26285000  0.12499000  0.83296000  1.0
  C  C23  1  0.92985000  0.29219000  0.16731000  1.0
  C  C24  1  0.26971000  0.98704000  0.80660000  1.0
  C  C25  1  0.96317000  0.18061000  0.19366000  1.0
  C  C26  1  0.33127000  0.96409000  0.92536000  1.0
  C  C27  1  0.90599000  0.03896000  0.07488000  1.0
  C  C28  1  0.38597000  0.08127000  0.06538000  1.0
  C  C29  1  0.82081000  0.01623000  0.93488000  1.0
  C  C30  1  0.37647000  0.21582000  0.08111000  1.0
  C  C31  1  0.79548000  0.13501000  0.91915000  1.0
  C  C32  1  0.34959000  0.81997000  0.90531000  1.0
  C  C33  1  0.94420000  0.91474000  0.09470000  1.0
  C  C34  1  0.64199000  0.92988000  0.34751000  1.0
  C  C35  1  0.79450000  0.58232000  0.65241000  1.0
  C  C36  1  0.83214000  0.04853000  0.44233000  1.0
  C  C37  1  0.88970000  0.60599000  0.55740000  1.0
  C  C38  1  0.83377000  0.17683000  0.55346000  1.0
  C  C39  1  0.78022000  0.62316000  0.44630000  1.0
  C  C40  1  0.64194000  0.17932000  0.56530000  1.0
  C  C41  1  0.57674000  0.61400000  0.43470000  1.0
  C  C42  1  0.45876000  0.05496000  0.46614000  1.0
  C  C43  1  0.49278000  0.58893000  0.53398000  1.0
  C  C44  1  0.03965000  0.30741000  0.65397000  1.0
  C  C45  1  0.88529000  0.65315000  0.34556000  1.0
  N  N46  1  0.31466000  0.23794000  0.96789000  1.0
  N  N47  1  0.84677000  0.27028000  0.03240000  1.0
  N  N48  1  0.45818000  0.93221000  0.35890000  1.0
  N  N49  1  0.59940000  0.57338000  0.64117000  1.0
  O  O50  1  0.34604000  0.73033000  0.78163000  1.0
  O  O51  1  0.06441000  0.94860000  0.21825000  1.0
  O  O52  1  0.37626000  0.79679000  0.01415000  1.0
  O  O53  1  0.86179000  0.78279000  0.98579000  1.0
  O  O54  1  0.20123000  0.30364000  0.62121000  1.0
  O  O55  1  0.07956000  0.68207000  0.37812000  1.0
  O  O56  1  0.04421000  0.41534000  0.76738000  1.0
  O  O57  1  0.77641000  0.64777000  0.23224000  1.0
  O  O58  1  0.36735000  0.53166000  0.08594000  1.0
  O  O59  1  0.78171000  0.44573000  0.91403000  1.0
