# generated using pymatgen
data_AgH6C5N3O2
_symmetry_space_group_name_H-M   'P 1'
_cell_length_a   6.51047000
_cell_length_b   7.70876000
_cell_length_c   15.39330000
_cell_angle_alpha   90.00030000
_cell_angle_beta   90.00120000
_cell_angle_gamma   101.74100000
_symmetry_Int_Tables_number   1
_chemical_formula_structural   AgH6C5N3O2
_chemical_formula_sum   'Ag4 H24 C20 N12 O8'
_cell_volume   756.38977176
_cell_formula_units_Z   4
loop_
 _symmetry_equiv_pos_site_id
 _symmetry_equiv_pos_as_xyz
  1  'x, y, z'
loop_
 _atom_site_type_symbol
 _atom_site_label
 _atom_site_symmetry_multiplicity
 _atom_site_fract_x
 _atom_site_fract_y
 _atom_site_fract_z
 _atom_site_occupancy
  Ag  Ag0  1  0.77257000  0.03927000  0.74910000  1.0
  Ag  Ag1  1  0.22743000  0.46074000  0.24910000  1.0
  Ag  Ag2  1  0.22744000  0.96073000  0.25090000  1.0
  Ag  Ag3  1  0.77256000  0.53927000  0.75091000  1.0
  H  H4  1  0.75596000  0.05654000  0.53346000  1.0
  H  H5  1  0.24402000  0.44344000  0.03345000  1.0
  H  H6  1  0.24406000  0.94347000  0.46655000  1.0
  H  H7  1  0.75594000  0.55654000  0.96656000  1.0
  H  H8  1  0.79678000  0.51312000  0.53517000  1.0
  H  H9  1  0.20324000  0.98687000  0.03517000  1.0
  H  H10  1  0.20323000  0.48689000  0.46482000  1.0
  H  H11  1  0.79681000  0.01313000  0.96483000  1.0
  H  H12  1  0.81541000  0.90995000  0.38199000  1.0
  H  H13  1  0.18462000  0.59006000  0.88199000  1.0
  H  H14  1  0.18458000  0.09008000  0.61800000  1.0
  H  H15  1  0.81540000  0.40991000  0.11801000  1.0
  H  H16  1  0.00932000  0.66269000  0.37476000  1.0
  H  H17  1  0.99070000  0.83732000  0.87476000  1.0
  H  H18  1  0.99066000  0.33733000  0.62522000  1.0
  H  H19  1  0.00932000  0.16265000  0.12524000  1.0
  H  H20  1  0.81144000  0.64529000  0.29318000  1.0
  H  H21  1  0.18859000  0.85472000  0.79317000  1.0
  H  H22  1  0.18852000  0.35472000  0.70682000  1.0
  H  H23  1  0.81143000  0.14527000  0.20683000  1.0
  H  H24  1  0.76693000  0.50389000  0.38490000  1.0
  H  H25  1  0.23309000  0.99612000  0.88490000  1.0
  H  H26  1  0.23304000  0.49612000  0.61510000  1.0
  H  H27  1  0.76694000  0.00388000  0.11510000  1.0
  C  C28  1  0.78017000  0.92664000  0.55409000  1.0
  C  C29  1  0.21982000  0.57331000  0.05407000  1.0
  C  C30  1  0.21981000  0.07334000  0.44591000  1.0
  C  C31  1  0.78019000  0.42668000  0.94592000  1.0
  C  C32  1  0.80299000  0.64943000  0.55510000  1.0
  C  C33  1  0.19704000  0.85059000  0.05508000  1.0
  C  C34  1  0.19703000  0.35059000  0.44491000  1.0
  C  C35  1  0.80297000  0.14942000  0.94492000  1.0
  C  C36  1  0.50270000  0.75349000  0.39021000  1.0
  C  C37  1  0.49732000  0.74652000  0.89021000  1.0
  C  C38  1  0.49727000  0.24652000  0.60980000  1.0
  C  C39  1  0.50269000  0.25347000  0.10979000  1.0
  C  C40  1  0.74240000  0.77880000  0.40783000  1.0
  C  C41  1  0.25762000  0.72121000  0.90782000  1.0
  C  C42  1  0.25758000  0.22121000  0.59217000  1.0
  C  C43  1  0.74239000  0.27878000  0.09218000  1.0
  C  C44  1  0.83920000  0.63825000  0.36312000  1.0
  C  C45  1  0.16082000  0.86176000  0.86312000  1.0
  C  C46  1  0.16077000  0.36176000  0.63687000  1.0
  C  C47  1  0.83920000  0.13823000  0.13687000  1.0
  N  N48  1  0.80020000  0.88092000  0.63605000  1.0
  N  N49  1  0.19978000  0.61907000  0.13604000  1.0
  N  N50  1  0.19980000  0.11911000  0.36394000  1.0
  N  N51  1  0.80022000  0.38089000  0.86395000  1.0
  N  N52  1  0.81393000  0.70453000  0.63681000  1.0
  N  N53  1  0.18608000  0.79547000  0.13680000  1.0
  N  N54  1  0.18610000  0.29549000  0.36319000  1.0
  N  N55  1  0.81392000  0.20451000  0.86321000  1.0
  N  N56  1  0.78416000  0.78558000  0.50154000  1.0
  N  N57  1  0.21586000  0.71441000  0.00153000  1.0
  N  N58  1  0.21582000  0.21441000  0.49846000  1.0
  N  N59  1  0.78416000  0.28561000  0.99847000  1.0
  O  O60  1  0.45737000  0.75368000  0.31009000  1.0
  O  O61  1  0.54265000  0.74632000  0.81009000  1.0
  O  O62  1  0.54257000  0.24631000  0.68992000  1.0
  O  O63  1  0.45738000  0.25369000  0.18992000  1.0
  O  O64  1  0.37934000  0.73697000  0.45443000  1.0
  O  O65  1  0.62067000  0.76304000  0.95443000  1.0
  O  O66  1  0.62065000  0.26306000  0.54559000  1.0
  O  O67  1  0.37935000  0.23695000  0.04558000  1.0
