# generated using pymatgen
data_Zn5H16C26(N7O9)2
_symmetry_space_group_name_H-M   'P 1'
_cell_length_a   11.30810000
_cell_length_b   12.47010000
_cell_length_c   18.17440000
_cell_angle_alpha   89.99980000
_cell_angle_beta   89.99990000
_cell_angle_gamma   107.35900000
_symmetry_Int_Tables_number   1
_chemical_formula_structural   Zn5H16C26(N7O9)2
_chemical_formula_sum   'Zn10 H32 C52 N28 O36'
_cell_volume   2446.10274215
_cell_formula_units_Z   2
loop_
 _symmetry_equiv_pos_site_id
 _symmetry_equiv_pos_as_xyz
  1  'x, y, z'
loop_
 _atom_site_type_symbol
 _atom_site_label
 _atom_site_symmetry_multiplicity
 _atom_site_fract_x
 _atom_site_fract_y
 _atom_site_fract_z
 _atom_site_occupancy
  Zn  Zn0  1  0.72011000  0.08162000  0.52270000  1.0
  Zn  Zn1  1  0.27989000  0.41838000  0.02270000  1.0
  Zn  Zn2  1  0.27989000  0.91838000  0.47730000  1.0
  Zn  Zn3  1  0.72011000  0.58162000  0.97730000  1.0
  Zn  Zn4  1  0.00000000  0.00000000  0.50000000  1.0
  Zn  Zn5  1  0.00000000  0.50000000  0.00000000  1.0
  Zn  Zn6  1  0.92550000  0.56947000  0.67067000  1.0
  Zn  Zn7  1  0.07450000  0.93052000  0.17067000  1.0
  Zn  Zn8  1  0.07450000  0.43052000  0.32933000  1.0
  Zn  Zn9  1  0.92550000  0.06948000  0.82934000  1.0
  H  H10  1  0.87660000  0.37601000  0.64796000  1.0
  H  H11  1  0.12340000  0.12399000  0.14795000  1.0
  H  H12  1  0.12340000  0.62399000  0.35204000  1.0
  H  H13  1  0.87660000  0.87601000  0.85204000  1.0
  H  H14  1  0.02545000  0.39865000  0.67135000  1.0
  H  H15  1  0.97455000  0.10135000  0.17134000  1.0
  H  H16  1  0.97455000  0.60135000  0.32865000  1.0
  H  H17  1  0.02545000  0.89865000  0.82866000  1.0
  H  H18  1  0.19717000  0.69581000  0.58687000  1.0
  H  H19  1  0.80283000  0.80419000  0.08687000  1.0
  H  H20  1  0.80282000  0.30419000  0.41313000  1.0
  H  H21  1  0.19717000  0.19581000  0.91313000  1.0
  H  H22  1  0.86535000  0.78227000  0.61016000  1.0
  H  H23  1  0.13464000  0.71773000  0.11016000  1.0
  H  H24  1  0.13464000  0.21772000  0.38983000  1.0
  H  H25  1  0.86535000  0.28227000  0.88984000  1.0
  H  H26  1  0.07633000  0.04376000  0.67729000  1.0
  H  H27  1  0.92367000  0.45624000  0.17729000  1.0
  H  H28  1  0.92367000  0.95624000  0.32271000  1.0
  H  H29  1  0.07634000  0.54376000  0.82271000  1.0
  H  H30  1  0.73243000  0.10807000  0.70547000  1.0
  H  H31  1  0.26757000  0.39192000  0.20547000  1.0
  H  H32  1  0.26757000  0.89193000  0.29453000  1.0
  H  H33  1  0.73243000  0.60808000  0.79453000  1.0
  H  H34  1  0.55285000  0.55282000  0.62635000  1.0
  H  H35  1  0.44715000  0.94718000  0.12635000  1.0
  H  H36  1  0.44715000  0.44718000  0.37365000  1.0
  H  H37  1  0.55285000  0.05282000  0.87365000  1.0
  H  H38  1  0.21951000  0.31786000  0.54201000  1.0
  H  H39  1  0.78048000  0.18213000  0.04200000  1.0
  H  H40  1  0.78048000  0.68214000  0.45800000  1.0
  H  H41  1  0.21951000  0.81786000  0.95799000  1.0
  C  C42  1  0.12763000  0.73997000  0.58438000  1.0
  C  C43  1  0.87237000  0.76003000  0.08438000  1.0
  C  C44  1  0.87237000  0.26003000  0.41562000  1.0
  C  C45  1  0.12763000  0.23997000  0.91562000  1.0
  C  C46  1  0.95915000  0.78426000  0.59590000  1.0
  C  C47  1  0.04085000  0.71574000  0.09590000  1.0
  C  C48  1  0.04085000  0.21574000  0.40410000  1.0
  C  C49  1  0.95915000  0.28426000  0.90410000  1.0
  C  C50  1  0.98665000  0.05624000  0.66764000  1.0
  C  C51  1  0.01335000  0.44376000  0.16764000  1.0
  C  C52  1  0.01335000  0.94377000  0.33237000  1.0
  C  C53  1  0.98666000  0.55624000  0.83237000  1.0
  C  C54  1  0.81279000  0.08942000  0.68254000  1.0
  C  C55  1  0.18721000  0.41058000  0.18253000  1.0
  C  C56  1  0.18721000  0.91059000  0.31747000  1.0
  C  C57  1  0.81280000  0.58942000  0.81747000  1.0
  C  C58  1  0.69355000  0.41480000  0.63284000  1.0
  C  C59  1  0.30645000  0.08520000  0.13283000  1.0
  C  C60  1  0.30645000  0.58520000  0.36716000  1.0
  C  C61  1  0.69355000  0.91480000  0.86716000  1.0
  C  C62  1  0.56112000  0.38420000  0.60775000  1.0
  C  C63  1  0.43888000  0.11581000  0.10774000  1.0
  C  C64  1  0.43888000  0.61580000  0.39226000  1.0
  C  C65  1  0.56112000  0.88419000  0.89225000  1.0
  C  C66  1  0.50297000  0.46848000  0.60798000  1.0
  C  C67  1  0.49703000  0.03152000  0.10798000  1.0
  C  C68  1  0.49703000  0.53152000  0.39202000  1.0
  C  C69  1  0.50297000  0.96848000  0.89202000  1.0
  C  C70  1  0.38081000  0.44332000  0.58433000  1.0
  C  C71  1  0.61919000  0.05668000  0.08433000  1.0
  C  C72  1  0.61919000  0.55668000  0.41568000  1.0
  C  C73  1  0.38081000  0.94332000  0.91567000  1.0
  C  C74  1  0.31498000  0.33608000  0.56035000  1.0
  C  C75  1  0.68502000  0.16391000  0.06034000  1.0
  C  C76  1  0.68501000  0.66392000  0.43967000  1.0
  C  C77  1  0.31498000  0.83608000  0.93966000  1.0
  C  C78  1  0.37253000  0.25149000  0.55962000  1.0
  C  C79  1  0.62747000  0.24850000  0.05961000  1.0
  C  C80  1  0.62747000  0.74850000  0.44039000  1.0
  C  C81  1  0.37253000  0.75149000  0.94038000  1.0
  C  C82  1  0.49672000  0.27446000  0.58333000  1.0
  C  C83  1  0.50327000  0.22554000  0.08332000  1.0
  C  C84  1  0.50328000  0.72554000  0.41668000  1.0
  C  C85  1  0.49672000  0.77446000  0.91667000  1.0
  C  C86  1  0.56096000  0.18389000  0.58189000  1.0
  C  C87  1  0.43904000  0.31610000  0.08188000  1.0
  C  C88  1  0.43904000  0.81611000  0.41812000  1.0
  C  C89  1  0.56096000  0.68390000  0.91811000  1.0
  C  C90  1  0.29752000  0.13736000  0.53173000  1.0
  C  C91  1  0.70248000  0.36263000  0.03171000  1.0
  C  C92  1  0.70248000  0.86264000  0.46828000  1.0
  C  C93  1  0.29752000  0.63736000  0.96827000  1.0
  N  N94  1  0.14248000  0.83587000  0.54838000  1.0
  N  N95  1  0.85752000  0.66413000  0.04837000  1.0
  N  N96  1  0.85752000  0.16412000  0.45162000  1.0
  N  N97  1  0.14248000  0.33587000  0.95163000  1.0
  N  N98  1  0.03509000  0.86412000  0.55567000  1.0
  N  N99  1  0.96491000  0.63588000  0.05566000  1.0
  N  N100  1  0.96491000  0.13588000  0.44433000  1.0
  N  N101  1  0.03509000  0.36412000  0.94433000  1.0
  N  N102  1  0.01328000  0.70473000  0.61550000  1.0
  N  N103  1  0.98671000  0.79526000  0.11550000  1.0
  N  N104  1  0.98671000  0.29526000  0.38449000  1.0
  N  N105  1  0.01329000  0.20474000  0.88450000  1.0
  N  N106  1  0.93531000  0.04985000  0.60162000  1.0
  N  N107  1  0.06469000  0.45016000  0.10162000  1.0
  N  N108  1  0.06469000  0.95016000  0.39838000  1.0
  N  N109  1  0.93532000  0.54985000  0.89838000  1.0
  N  N110  1  0.82456000  0.07142000  0.61124000  1.0
  N  N111  1  0.17545000  0.42858000  0.11124000  1.0
  N  N112  1  0.17545000  0.92859000  0.38876000  1.0
  N  N113  1  0.82457000  0.57142000  0.88876000  1.0
  N  N114  1  0.91330000  0.08061000  0.72034000  1.0
  N  N115  1  0.08670000  0.41939000  0.22034000  1.0
  N  N116  1  0.08670000  0.91940000  0.27966000  1.0
  N  N117  1  0.91330000  0.58061000  0.77966000  1.0
  N  N118  1  0.31931000  0.53135000  0.58563000  1.0
  N  N119  1  0.68069000  0.96865000  0.08563000  1.0
  N  N120  1  0.68069000  0.46865000  0.41437000  1.0
  N  N121  1  0.31931000  0.03135000  0.91437000  1.0
  O  O122  1  0.62845000  0.18943000  0.52364000  1.0
  O  O123  1  0.37155000  0.31056000  0.02362000  1.0
  O  O124  1  0.37155000  0.81057000  0.47637000  1.0
  O  O125  1  0.62845000  0.68943000  0.97636000  1.0
  O  O126  1  0.54689000  0.11580000  0.63327000  1.0
  O  O127  1  0.45311000  0.38420000  0.13325000  1.0
  O  O128  1  0.45312000  0.88420000  0.36675000  1.0
  O  O129  1  0.54689000  0.61581000  0.86673000  1.0
  O  O130  1  0.35906000  0.07144000  0.51210000  1.0
  O  O131  1  0.64094000  0.42855000  0.01208000  1.0
  O  O132  1  0.64093000  0.92855000  0.48791000  1.0
  O  O133  1  0.35906000  0.57144000  0.98790000  1.0
  O  O134  1  0.18104000  0.11691000  0.52930000  1.0
  O  O135  1  0.81896000  0.38309000  0.02930000  1.0
  O  O136  1  0.81896000  0.88309000  0.47070000  1.0
  O  O137  1  0.18104000  0.61691000  0.97069000  1.0
  O  O138  1  0.21242000  0.50831000  0.55985000  1.0
  O  O139  1  0.78758000  0.99169000  0.05985000  1.0
  O  O140  1  0.78758000  0.49168000  0.44016000  1.0
  O  O141  1  0.21241000  0.00831000  0.94015000  1.0
  O  O142  1  0.37553000  0.62366000  0.61320000  1.0
  O  O143  1  0.62447000  0.87634000  0.11320000  1.0
  O  O144  1  0.62447000  0.37634000  0.38680000  1.0
  O  O145  1  0.37552000  0.12366000  0.88680000  1.0
  O  O146  1  0.75073000  0.52103000  0.63751000  1.0
  O  O147  1  0.24927000  0.97898000  0.13750000  1.0
  O  O148  1  0.24927000  0.47897000  0.36249000  1.0
  O  O149  1  0.75073000  0.02102000  0.86249000  1.0
  O  O150  1  0.96861000  0.42860000  0.64412000  1.0
  O  O151  1  0.03139000  0.07140000  0.14411000  1.0
  O  O152  1  0.03139000  0.57140000  0.35588000  1.0
  O  O153  1  0.96861000  0.92860000  0.85589000  1.0
  O  O154  1  0.74107000  0.33755000  0.64757000  1.0
  O  O155  1  0.25893000  0.16245000  0.14756000  1.0
  O  O156  1  0.25893000  0.66246000  0.35244000  1.0
  O  O157  1  0.74107000  0.83755000  0.85243000  1.0
