# generated using pymatgen
data_YH7(C3O4)2
_symmetry_space_group_name_H-M   'P 1'
_cell_length_a   8.05744000
_cell_length_b   9.54206000
_cell_length_c   12.27710000
_cell_angle_alpha   91.39800000
_cell_angle_beta   90.00000000
_cell_angle_gamma   90.00000000
_symmetry_Int_Tables_number   1
_chemical_formula_structural   YH7(C3O4)2
_chemical_formula_sum   'Y4 H28 C24 O32'
_cell_volume   943.63866189
_cell_formula_units_Z   4
loop_
 _symmetry_equiv_pos_site_id
 _symmetry_equiv_pos_as_xyz
  1  'x, y, z'
loop_
 _atom_site_type_symbol
 _atom_site_label
 _atom_site_symmetry_multiplicity
 _atom_site_fract_x
 _atom_site_fract_y
 _atom_site_fract_z
 _atom_site_occupancy
  Y  Y0  1  0.44453000  0.69167000  0.41728000  1.0
  Y  Y1  1  0.94453000  0.80833000  0.08272000  1.0
  Y  Y2  1  0.55547000  0.30833000  0.58272000  1.0
  Y  Y3  1  0.05547000  0.19167000  0.91728000  1.0
  H  H4  1  0.83215000  0.43036000  0.17989000  1.0
  H  H5  1  0.33215000  0.06964000  0.32011000  1.0
  H  H6  1  0.16785000  0.56964000  0.82011000  1.0
  H  H7  1  0.66785000  0.93036000  0.67989000  1.0
  H  H8  1  0.68693000  0.17089000  0.29233000  1.0
  H  H9  1  0.18693000  0.32911000  0.20767000  1.0
  H  H10  1  0.31307000  0.82911000  0.70767000  1.0
  H  H11  1  0.81307000  0.67089000  0.79233000  1.0
  H  H12  1  0.89128000  0.86586000  0.49893000  1.0
  H  H13  1  0.39128000  0.63414000  0.00107000  1.0
  H  H14  1  0.10872000  0.13414000  0.50107000  1.0
  H  H15  1  0.60872000  0.36586000  0.99893000  1.0
  H  H16  1  0.64273000  0.96321000  0.42302000  1.0
  H  H17  1  0.14273000  0.53679000  0.07698000  1.0
  H  H18  1  0.35727000  0.03679000  0.57698000  1.0
  H  H19  1  0.85727000  0.46321000  0.92302000  1.0
  H  H20  1  0.70900000  0.87466000  0.32178000  1.0
  H  H21  1  0.20900000  0.62534000  0.17822000  1.0
  H  H22  1  0.29100000  0.12534000  0.67822000  1.0
  H  H23  1  0.79100000  0.37466000  0.82178000  1.0
  H  H24  1  0.48178000  0.75180000  0.18150000  1.0
  H  H25  1  0.98178000  0.74820000  0.31850000  1.0
  H  H26  1  0.51822000  0.24820000  0.81850000  1.0
  H  H27  1  0.01822000  0.25180000  0.68150000  1.0
  H  H28  1  0.30816000  0.81851000  0.21915000  1.0
  H  H29  1  0.80816000  0.68149000  0.28085000  1.0
  H  H30  1  0.69184000  0.18149000  0.78085000  1.0
  H  H31  1  0.19184000  0.31851000  0.71915000  1.0
  C  C32  1  0.15742000  0.85635000  0.46050000  1.0
  C  C33  1  0.65742000  0.64365000  0.03950000  1.0
  C  C34  1  0.84258000  0.14365000  0.53950000  1.0
  C  C35  1  0.34258000  0.35635000  0.96050000  1.0
  C  C36  1  0.69886000  0.44841000  0.33708000  1.0
  C  C37  1  0.19886000  0.05159000  0.16292000  1.0
  C  C38  1  0.30114000  0.55159000  0.66292000  1.0
  C  C39  1  0.80114000  0.94841000  0.83708000  1.0
  C  C40  1  0.77075000  0.36990000  0.24262000  1.0
  C  C41  1  0.27075000  0.13010000  0.25738000  1.0
  C  C42  1  0.22925000  0.63010000  0.75738000  1.0
  C  C43  1  0.72925000  0.86990000  0.74262000  1.0
  C  C44  1  0.74898000  0.23096000  0.22973000  1.0
  C  C45  1  0.24898000  0.26904000  0.27027000  1.0
  C  C46  1  0.25102000  0.76904000  0.77027000  1.0
  C  C47  1  0.75102000  0.73096000  0.72973000  1.0
  C  C48  1  0.00290000  0.93027000  0.49247000  1.0
  C  C49  1  0.50290000  0.56973000  0.00753000  1.0
  C  C50  1  0.99710000  0.06973000  0.50754000  1.0
  C  C51  1  0.49710000  0.43027000  0.99246000  1.0
  C  C52  1  0.81547000  0.14958000  0.13417000  1.0
  C  C53  1  0.31547000  0.35042000  0.36583000  1.0
  C  C54  1  0.18453000  0.85042000  0.86583000  1.0
  C  C55  1  0.68453000  0.64958000  0.63417000  1.0
  O  O56  1  0.30129000  0.90260000  0.48750000  1.0
  O  O57  1  0.80129000  0.59741000  0.01250000  1.0
  O  O58  1  0.69871000  0.09740000  0.51250000  1.0
  O  O59  1  0.19871000  0.40260000  0.98750000  1.0
  O  O60  1  0.38590000  0.73832000  0.23226000  1.0
  O  O61  1  0.88590000  0.76168000  0.26774000  1.0
  O  O62  1  0.61410000  0.26168000  0.76774000  1.0
  O  O63  1  0.11410000  0.23832000  0.73226000  1.0
  O  O64  1  0.66491000  0.57876000  0.32248000  1.0
  O  O65  1  0.16491000  0.92124000  0.17752000  1.0
  O  O66  1  0.33509000  0.42124000  0.67752000  1.0
  O  O67  1  0.83509000  0.07876000  0.82248000  1.0
  O  O68  1  0.14442000  0.74299000  0.40318000  1.0
  O  O69  1  0.64442000  0.75701000  0.09682000  1.0
  O  O70  1  0.85558000  0.25701000  0.59682000  1.0
  O  O71  1  0.35558000  0.24299000  0.90318000  1.0
  O  O72  1  0.60824000  0.89382000  0.36545000  1.0
  O  O73  1  0.10824000  0.60618000  0.13455000  1.0
  O  O74  1  0.39176000  0.10618000  0.63455000  1.0
  O  O75  1  0.89176000  0.39382000  0.86545000  1.0
  O  O76  1  0.85365000  0.21562000  0.04861000  1.0
  O  O77  1  0.35365000  0.28438000  0.45139000  1.0
  O  O78  1  0.14635000  0.78438000  0.95139000  1.0
  O  O79  1  0.64635000  0.71562000  0.54861000  1.0
  O  O80  1  0.83328000  0.01878000  0.14709000  1.0
  O  O81  1  0.33328000  0.48122000  0.35291000  1.0
  O  O82  1  0.16672000  0.98122000  0.85291000  1.0
  O  O83  1  0.66666667  0.51878000  0.64709000  1.0
  O  O84  1  0.66679000  0.38719000  0.42430000  1.0
  O  O85  1  0.16679000  0.11281000  0.07570000  1.0
  O  O86  1  0.33321000  0.61281000  0.57570000  1.0
  O  O87  1  0.83321000  0.88719000  0.92430000  1.0
