# generated using pymatgen
data_Al3H31C50(NO7)2
_symmetry_space_group_name_H-M   'P 1'
_cell_length_a   12.03824395
_cell_length_b   12.23160000
_cell_length_c   27.92930000
_cell_angle_alpha   90.13480000
_cell_angle_beta   94.15889549
_cell_angle_gamma   118.49239490
_symmetry_Int_Tables_number   1
_chemical_formula_structural   Al3H31C50(NO7)2
_chemical_formula_sum   'Al6 H62 C100 N4 O28'
_cell_volume   3601.67881640
_cell_formula_units_Z   2
loop_
 _symmetry_equiv_pos_site_id
 _symmetry_equiv_pos_as_xyz
  1  'x, y, z'
loop_
 _atom_site_type_symbol
 _atom_site_label
 _atom_site_symmetry_multiplicity
 _atom_site_fract_x
 _atom_site_fract_y
 _atom_site_fract_z
 _atom_site_occupancy
  Al  Al0  1  0.81543000  0.39831000  0.49739000  1.0
  Al  Al1  1  0.09140000  0.41867000  0.50206000  1.0
  Al  Al2  1  0.07489000  0.65614000  0.50304000  1.0
  Al  Al3  1  0.84158000  0.92589000  0.00759000  1.0
  Al  Al4  1  0.58136000  0.66909000  0.00419000  1.0
  Al  Al5  1  0.56539000  0.90622000  0.00407000  1.0
  H  H6  1  0.42612000  0.58492000  0.30605000  1.0
  H  H7  1  0.53324000  0.01703000  0.31156000  1.0
  H  H8  1  0.68550000  0.13417000  0.38232000  1.0
  H  H9  1  0.38678000  0.51559000  0.87566000  1.0
  H  H10  1  0.26568000  0.44552000  0.63313000  1.0
  H  H11  1  0.34129000  0.38802000  0.79961000  1.0
  H  H12  1  0.29993000  0.36446000  0.71092000  1.0
  H  H13  1  0.39985000  0.87280000  0.87159000  1.0
  H  H14  1  0.36290000  0.95385000  0.79463000  1.0
  H  H15  1  0.26524000  0.79364000  0.62808000  1.0
  H  H16  1  0.69958000  0.48291000  0.69967000  1.0
  H  H17  1  0.04433000  0.97704000  0.22338000  1.0
  H  H18  1  0.99725000  0.86286000  0.71842000  1.0
  H  H19  1  0.05108000  0.26002000  0.73599000  1.0
  H  H20  1  0.99468000  0.22175000  0.82057000  1.0
  H  H21  1  0.59837000  0.06397000  0.77214000  1.0
  H  H22  1  0.65467000  0.10367000  0.68741000  1.0
  H  H23  1  0.17830000  0.74728000  0.28379000  1.0
  H  H24  1  0.65266000  0.50962000  0.12304000  1.0
  H  H25  1  0.72755000  0.42817000  0.36086000  1.0
  H  H26  1  0.64506000  0.33502000  0.27858000  1.0
  H  H27  1  0.94341000  0.88930000  0.14225000  1.0
  H  H28  1  0.02759000  0.80393000  0.38010000  1.0
  H  H29  1  0.15295000  0.04625000  0.29573000  1.0
  H  H30  1  0.99014000  0.05844000  0.34049000  1.0
  H  H31  1  0.13693000  0.10027000  0.37485000  1.0
  H  H32  1  0.00437000  0.95198000  0.38032000  1.0
  H  H33  1  0.33180000  0.37495000  0.21786000  1.0
  H  H34  1  0.32098000  0.43883000  0.16144000  1.0
  H  H35  1  0.44485000  0.40106000  0.17577000  1.0
  H  H36  1  0.53059000  0.63047000  0.18588000  1.0
  H  H37  1  0.53644000  0.56703000  0.24215000  1.0
  H  H38  1  0.30356000  0.93515000  0.66320000  1.0
  H  H39  1  0.97210000  0.18333000  0.12712000  1.0
  H  H40  1  0.33751000  0.12569000  0.68949000  1.0
  H  H41  1  0.45720000  0.11814000  0.72884000  1.0
  H  H42  1  0.30499000  0.07498000  0.74871000  1.0
  H  H43  1  0.34950000  0.92901000  0.16216000  1.0
  H  H44  1  0.20723000  0.93912000  0.15602000  1.0
  H  H45  1  0.28896000  0.96030000  0.21393000  1.0
  H  H46  1  0.16032000  0.71702000  0.15137000  1.0
  H  H47  1  0.09519000  0.74774000  0.20105000  1.0
  H  H48  1  0.63883000  0.46730000  0.82837000  1.0
  H  H49  1  0.50203000  0.27779000  0.79098000  1.0
  H  H50  1  0.08552000  0.33423000  0.36629000  1.0
  H  H51  1  0.62278000  0.30454000  0.75213000  1.0
  H  H52  1  0.50787000  0.35418000  0.73624000  1.0
  H  H53  1  0.15912000  0.97723000  0.78587000  1.0
  H  H54  1  0.05999000  0.04088000  0.76461000  1.0
  H  H55  1  0.13712000  0.08162000  0.82361000  1.0
  H  H56  1  0.91061000  0.92479000  0.82830000  1.0
  H  H57  1  0.01105000  0.86717000  0.84963000  1.0
  H  H58  1  0.55746000  0.25782000  0.20434000  1.0
  H  H59  1  0.57743000  0.21346000  0.12580000  1.0
  H  H60  1  0.73372000  0.28176000  0.15523000  1.0
  H  H61  1  0.12401000  0.29693000  0.19792000  1.0
  H  H62  1  0.68637000  0.37097000  0.11715000  1.0
  H  H63  1  0.16567000  0.35320000  0.28497000  1.0
  H  H64  1  0.57262000  0.97629000  0.14341000  1.0
  H  H65  1  0.49269000  0.95826000  0.22490000  1.0
  H  H66  1  0.61053000  0.31719000  0.52202000  1.0
  H  H67  1  0.04947000  0.07257000  0.03429000  1.0
  C  C68  1  0.91269000  0.27509000  0.43061000  1.0
  C  C69  1  0.77468000  0.53025000  0.29532000  1.0
  C  C70  1  0.65412000  0.29886000  0.14366000  1.0
  C  C71  1  0.74980000  0.55974000  0.19464000  1.0
  C  C72  1  0.22780000  0.62261000  0.44017000  1.0
  C  C73  1  0.68386000  0.43735000  0.21436000  1.0
  C  C74  1  0.69493000  0.42663000  0.26334000  1.0
  C  C75  1  0.72737000  0.58208000  0.14665000  1.0
  C  C76  1  0.79761000  0.69988000  0.12843000  1.0
  C  C77  1  0.95387000  0.73175000  0.35608000  1.0
  C  C78  1  0.93844000  0.75236000  0.30732000  1.0
  C  C79  1  0.85015000  0.64963000  0.27612000  1.0
  C  C80  1  0.25231000  0.71722000  0.21993000  1.0
  C  C81  1  0.01033000  0.87337000  0.28714000  1.0
  C  C82  1  0.99339000  0.88549000  0.23856000  1.0
  C  C83  1  0.90815000  0.78342000  0.20688000  1.0
  C  C84  1  0.89117000  0.59631000  0.42671000  1.0
  C  C85  1  0.83646000  0.66306000  0.22590000  1.0
  C  C86  1  0.88974000  0.79897000  0.15778000  1.0
  C  C87  1  0.87545000  0.61661000  0.37484000  1.0
  C  C88  1  0.98923000  0.27759000  0.34986000  1.0
  C  C89  1  0.96772000  0.24945000  0.30022000  1.0
  C  C90  1  0.92004000  0.18493000  0.19978000  1.0
  C  C91  1  0.23920000  0.71435000  0.26919000  1.0
  C  C92  1  0.04627000  0.26232000  0.22118000  1.0
  C  C93  1  0.06919000  0.29325000  0.26924000  1.0
  C  C94  1  0.89479000  0.15162000  0.15054000  1.0
  C  C95  1  0.77015000  0.07836000  0.13060000  1.0
  C  C96  1  0.91948000  0.28098000  0.56861000  1.0
  C  C97  1  0.76271000  0.16330000  0.35895000  1.0
  C  C98  1  0.73751000  0.12913000  0.30981000  1.0
  C  C99  1  0.84068000  0.17297000  0.27980000  1.0
  C  C100  1  0.61131000  0.05130000  0.28839000  1.0
  C  C101  1  0.58883000  0.01906000  0.24044000  1.0
  C  C102  1  0.30179000  0.66690000  0.30040000  1.0
  C  C103  1  0.69011000  0.06295000  0.20936000  1.0
  C  C104  1  0.81694000  0.14045000  0.22978000  1.0
  C  C105  1  0.66878000  0.03399000  0.15977000  1.0
  C  C106  1  0.88763000  0.23509000  0.37882000  1.0
  C  C107  1  0.27875000  0.52909000  0.65233000  1.0
  C  C108  1  0.22746000  0.60208000  0.57434000  1.0
  C  C109  1  0.30275000  0.54226000  0.70248000  1.0
  C  C110  1  0.35077000  0.56985000  0.80468000  1.0
  C  C111  1  0.33458000  0.46070000  0.77902000  1.0
  C  C112  1  0.31192000  0.44771000  0.73017000  1.0
  C  C113  1  0.33091000  0.67235000  0.20180000  1.0
  C  C114  1  0.37690000  0.58607000  0.85476000  1.0
  C  C115  1  0.39386000  0.69503000  0.87823000  1.0
  C  C116  1  0.28002000  0.72815000  0.65047000  1.0
  C  C117  1  0.30596000  0.74621000  0.70029000  1.0
  C  C118  1  0.31710000  0.65177000  0.72710000  1.0
  C  C119  1  0.32217000  0.85782000  0.72566000  1.0
  C  C120  1  0.90183000  0.62783000  0.56608000  1.0
  C  C121  1  0.34950000  0.87075000  0.77496000  1.0
  C  C122  1  0.35823000  0.77599000  0.80210000  1.0
  C  C123  1  0.34162000  0.66525000  0.77794000  1.0
  C  C124  1  0.34923000  0.67790000  0.15220000  1.0
  C  C125  1  0.38435000  0.78853000  0.85225000  1.0
  C  C126  1  0.26724000  0.62149000  0.62657000  1.0
  C  C127  1  0.88047000  0.65753000  0.61307000  1.0
  C  C128  1  0.75532000  0.56445000  0.72357000  1.0
  C  C129  1  0.73486000  0.56266000  0.77247000  1.0
  C  C130  1  0.90592000  0.78242000  0.78287000  1.0
  C  C131  1  0.92489000  0.78119000  0.73439000  1.0
  C  C132  1  0.27180000  0.64870000  0.39310000  1.0
  C  C133  1  0.84986000  0.67263000  0.70485000  1.0
  C  C134  1  0.81200000  0.67250000  0.80207000  1.0
  C  C135  1  0.28569000  0.65974000  0.35021000  1.0
  C  C136  1  0.79262000  0.67146000  0.85097000  1.0
  C  C137  1  0.86885000  0.66891000  0.65554000  1.0
  C  C138  1  0.77776000  0.67335000  0.89374000  1.0
  C  C139  1  0.90527000  0.23177000  0.61591000  1.0
  C  C140  1  0.95217000  0.21703000  0.74404000  1.0
  C  C141  1  0.92101000  0.19666000  0.79120000  1.0
  C  C142  1  0.69725000  0.10847000  0.76397000  1.0
  C  C143  1  0.72839000  0.12923000  0.71682000  1.0
  C  C144  1  0.37849000  0.62179000  0.28160000  1.0
  C  C145  1  0.85645000  0.18411000  0.70609000  1.0
  C  C146  1  0.36966000  0.68364000  0.10984000  1.0
  C  C147  1  0.79306000  0.14239000  0.80193000  1.0
  C  C148  1  0.76367000  0.11959000  0.85022000  1.0
  C  C149  1  0.88624000  0.20840000  0.65789000  1.0
  C  C150  1  0.74604000  0.09830000  0.89242000  1.0
  C  C151  1  0.77031000  0.72351000  0.07801000  1.0
  C  C152  1  0.42158000  0.70713000  0.06413000  1.0
  C  C153  1  0.74544000  0.04239000  0.07834000  1.0
  C  C154  1  0.75659000  0.70142000  0.94080000  1.0
  C  C155  1  0.43412000  0.71800000  0.93053000  1.0
  C  C156  1  0.39411000  0.62351000  0.23274000  1.0
  C  C157  1  0.78573000  0.51703000  0.34502000  1.0
  C  C158  1  0.73376000  0.04885000  0.93962000  1.0
  C  C159  1  0.05445000  0.02361000  0.35493000  1.0
  C  C160  1  0.47150000  0.56985000  0.21303000  1.0
  C  C161  1  0.38715000  0.43830000  0.19056000  1.0
  C  C162  1  0.35481000  0.07214000  0.71767000  1.0
  C  C163  1  0.18467000  0.76694000  0.18655000  1.0
  C  C164  1  0.26243000  0.90717000  0.17938000  1.0
  C  C165  1  0.56595000  0.34403000  0.76652000  1.0
  C  C166  1  0.97829000  0.89554000  0.81646000  1.0
  C  C167  1  0.08975000  0.00515000  0.79630000  1.0
  N  N168  1  0.09906000  0.97515000  0.31666000  1.0
  N  N169  1  0.30884000  0.94616000  0.69931000  1.0
  N  N170  1  0.64446000  0.46075000  0.79251000  1.0
  N  N171  1  0.60438000  0.33330000  0.18423000  1.0
  O  O172  1  0.81547000  0.49176000  0.44200000  1.0
  O  O173  1  0.43494000  0.80562000  0.04358000  1.0
  O  O174  1  0.63274000  0.01059000  0.05911000  1.0
  O  O175  1  0.82642000  0.28131000  0.45153000  1.0
  O  O176  1  0.81559000  0.01666000  0.95339000  1.0
  O  O177  1  0.83575000  0.80633000  0.95998000  1.0
  O  O178  1  0.65539000  0.61919000  0.95902000  1.0
  O  O179  1  0.45468000  0.63739000  0.95296000  1.0
  O  O180  1  0.45269000  0.82127000  0.94972000  1.0
  O  O181  1  0.64006000  0.03714000  0.96301000  1.0
  O  O182  1  0.66071000  0.83303000  0.00545000  1.0
  O  O183  1  0.21358000  0.50232000  0.55333000  1.0
  O  O184  1  0.02517000  0.30620000  0.45024000  1.0
  O  O185  1  0.21277000  0.52105000  0.45826000  1.0
  O  O186  1  0.19980000  0.70062000  0.45946000  1.0
  O  O187  1  0.98308000  0.68526000  0.45284000  1.0
  O  O188  1  0.82200000  0.52463000  0.54586000  1.0
  O  O189  1  0.83678000  0.31132000  0.55367000  1.0
  O  O190  1  0.01508000  0.29407000  0.54640000  1.0
  O  O191  1  0.20221000  0.68187000  0.55390000  1.0
  O  O192  1  0.00602000  0.70854000  0.54895000  1.0
  O  O193  1  0.99636000  0.49208000  0.50142000  1.0
  O  O194  1  0.83319000  0.04110000  0.05653000  1.0
  O  O195  1  0.84405000  0.82789000  0.06205000  1.0
  O  O196  1  0.67051000  0.63690000  0.05427000  1.0
  O  O197  1  0.45728000  0.63131000  0.04845000  1.0
  O  O198  1  0.64946000  0.31193000  0.49366000  1.0
  O  O199  1  0.00729000  0.01211000  0.00788000  1.0
