# generated using pymatgen
data_CoH10C10(NCl)2
_symmetry_space_group_name_H-M   'P 1'
_cell_length_a   3.58392000
_cell_length_b   8.37730000
_cell_length_c   17.28000000
_cell_angle_alpha   89.96430000
_cell_angle_beta   91.22120000
_cell_angle_gamma   89.92900000
_symmetry_Int_Tables_number   1
_chemical_formula_structural   CoH10C10(NCl)2
_chemical_formula_sum   'Co2 H20 C20 N4 Cl4'
_cell_volume   518.68899530
_cell_formula_units_Z   2
loop_
 _symmetry_equiv_pos_site_id
 _symmetry_equiv_pos_as_xyz
  1  'x, y, z'
loop_
 _atom_site_type_symbol
 _atom_site_label
 _atom_site_symmetry_multiplicity
 _atom_site_fract_x
 _atom_site_fract_y
 _atom_site_fract_z
 _atom_site_occupancy
  Co  Co0  1  0.00000000  0.00000000  0.00000000  1.0
  Co  Co1  1  0.49999000  0.50000000  0.50000000  1.0
  H  H2  1  0.17274000  0.64287000  0.00607000  1.0
  H  H3  1  0.32680000  0.14227000  0.49387000  1.0
  H  H4  1  0.82724000  0.35712000  0.99393000  1.0
  H  H5  1  0.67317000  0.85774000  0.50613000  1.0
  H  H6  1  0.21510000  0.42344000  0.10459000  1.0
  H  H7  1  0.28499000  0.92357000  0.39509000  1.0
  H  H8  1  0.78487000  0.57656000  0.89541000  1.0
  H  H9  1  0.71500000  0.07643000  0.60491000  1.0
  H  H10  1  0.07707000  0.48904000  0.24313000  1.0
  H  H11  1  0.42422000  0.98995000  0.25666000  1.0
  H  H12  1  0.92293000  0.51095000  0.75687000  1.0
  H  H13  1  0.57581000  0.01005000  0.74334000  1.0
  H  H14  1  0.90020000  0.76904000  0.27654000  1.0
  H  H15  1  0.60213000  0.26999000  0.22368000  1.0
  H  H16  1  0.09983000  0.23096000  0.72346000  1.0
  H  H17  1  0.39789000  0.73001000  0.77632000  1.0
  H  H18  1  0.87462000  0.97453000  0.16984000  1.0
  H  H19  1  0.62751000  0.47462000  0.33057000  1.0
  H  H20  1  0.12541000  0.02547000  0.83016000  1.0
  H  H21  1  0.37249000  0.52539000  0.66943000  1.0
  C  C22  1  0.11129000  0.66478000  0.06655000  1.0
  C  C23  1  0.38890000  0.16452000  0.43345000  1.0
  C  C24  1  0.88869000  0.33522000  0.93345000  1.0
  C  C25  1  0.61106000  0.83549000  0.56655000  1.0
  C  C26  1  0.13488000  0.54381000  0.12169000  1.0
  C  C27  1  0.36577000  0.04395000  0.37817000  1.0
  C  C28  1  0.86511000  0.45619000  0.87830000  1.0
  C  C29  1  0.63422000  0.95605000  0.62183000  1.0
  C  C30  1  0.05844000  0.58037000  0.19835000  1.0
  C  C31  1  0.44269000  0.08094000  0.30155000  1.0
  C  C32  1  0.94156000  0.41963000  0.80165000  1.0
  C  C33  1  0.55732000  0.91906000  0.69846000  1.0
  C  C34  1  0.96122000  0.73652000  0.21703000  1.0
  C  C35  1  0.54059000  0.23702000  0.28309000  1.0
  C  C36  1  0.03880000  0.26349000  0.78297000  1.0
  C  C37  1  0.45944000  0.76298000  0.71691000  1.0
  C  C38  1  0.94664000  0.85055000  0.15852000  1.0
  C  C39  1  0.55493000  0.35066000  0.34173000  1.0
  C  C40  1  0.05337000  0.14945000  0.84148000  1.0
  C  C41  1  0.44507000  0.64934000  0.65827000  1.0
  N  N42  1  0.01977000  0.81629000  0.08418000  1.0
  N  N43  1  0.48108000  0.31601000  0.41600000  1.0
  N  N44  1  0.98023000  0.18372000  0.91582000  1.0
  N  N45  1  0.51891000  0.68399000  0.58400000  1.0
  Cl  Cl46  1  0.50810000  0.85974000  0.92914000  1.0
  Cl  Cl47  1  0.99255000  0.35965000  0.57090000  1.0
  Cl  Cl48  1  0.49190000  0.14026000  0.07086000  1.0
  Cl  Cl49  1  0.00744000  0.64035000  0.42910000  1.0
