# generated using pymatgen
data_HgH7C7Br2NO2
_symmetry_space_group_name_H-M   'P 1'
_cell_length_a   8.09354000
_cell_length_b   10.22280000
_cell_length_c   13.68160000
_cell_angle_alpha   68.77110000
_cell_angle_beta   84.71870000
_cell_angle_gamma   78.32320000
_symmetry_Int_Tables_number   1
_chemical_formula_structural   HgH7C7Br2NO2
_chemical_formula_sum   'Hg4 H28 C28 Br8 N4 O8'
_cell_volume   1033.12572085
_cell_formula_units_Z   4
loop_
 _symmetry_equiv_pos_site_id
 _symmetry_equiv_pos_as_xyz
  1  'x, y, z'
loop_
 _atom_site_type_symbol
 _atom_site_label
 _atom_site_symmetry_multiplicity
 _atom_site_fract_x
 _atom_site_fract_y
 _atom_site_fract_z
 _atom_site_occupancy
  Hg  Hg0  1  0.38849000  0.32366000  0.42754000  1.0
  Hg  Hg1  1  0.61151000  0.67635000  0.57245000  1.0
  Hg  Hg2  1  0.88145000  0.35575000  0.45688000  1.0
  Hg  Hg3  1  0.11855000  0.64426000  0.54311000  1.0
  H  H4  1  0.91575000  0.53559000  0.08125000  1.0
  H  H5  1  0.08425000  0.46441000  0.91874000  1.0
  H  H6  1  0.71908000  0.36650000  0.16003000  1.0
  H  H7  1  0.28091000  0.63349000  0.83997000  1.0
  H  H8  1  0.82425000  0.12931000  0.29782000  1.0
  H  H9  1  0.17575000  0.87069000  0.70218000  1.0
  H  H10  1  0.11947000  0.06552000  0.35237000  1.0
  H  H11  1  0.88052000  0.93449000  0.64763000  1.0
  H  H12  1  0.43628000  0.27701000  0.22804000  1.0
  H  H13  1  0.56371000  0.72299000  0.77196000  1.0
  H  H14  1  0.39635000  0.11706000  0.31576000  1.0
  H  H15  1  0.60364000  0.88295000  0.68424000  1.0
  H  H16  1  0.24771000  0.69618000  0.02272000  1.0
  H  H17  1  0.75230000  0.30382000  0.97728000  1.0
  H  H18  1  0.82782000  0.76770000  0.02703000  1.0
  H  H19  1  0.17219000  0.23229000  0.97298000  1.0
  H  H20  1  0.02145000  0.93637000  0.93971000  1.0
  H  H21  1  0.97855000  0.06363000  0.06029000  1.0
  H  H22  1  0.91501000  0.16254000  0.79179000  1.0
  H  H23  1  0.08500000  0.83745000  0.20821000  1.0
  H  H24  1  0.62467000  0.21261000  0.73136000  1.0
  H  H25  1  0.37534000  0.78738000  0.26864000  1.0
  H  H26  1  0.35568000  0.14773000  0.75403000  1.0
  H  H27  1  0.64432000  0.85226000  0.24598000  1.0
  H  H28  1  0.31538000  0.98617000  0.84643000  1.0
  H  H29  1  0.68462000  0.01383000  0.15357000  1.0
  H  H30  1  0.50492000  0.59681000  0.08586000  1.0
  H  H31  1  0.49507000  0.40319000  0.91414000  1.0
  C  C32  1  0.24037000  0.50236000  0.11976000  1.0
  C  C33  1  0.75963000  0.49764000  0.88024000  1.0
  C  C34  1  0.12928000  0.39751000  0.16995000  1.0
  C  C35  1  0.87072000  0.60249000  0.83004000  1.0
  C  C36  1  0.95954000  0.43216000  0.14047000  1.0
  C  C37  1  0.04046000  0.56784000  0.85953000  1.0
  C  C38  1  0.84937000  0.33759000  0.18490000  1.0
  C  C39  1  0.15062000  0.66241000  0.81510000  1.0
  C  C40  1  0.90822000  0.20553000  0.26146000  1.0
  C  C41  1  0.09177000  0.79448000  0.73854000  1.0
  C  C42  1  0.07518000  0.16900000  0.29278000  1.0
  C  C43  1  0.92482000  0.83100000  0.70722000  1.0
  C  C44  1  0.18862000  0.26267000  0.24706000  1.0
  C  C45  1  0.81137000  0.73733000  0.75293000  1.0
  C  C46  1  0.51038000  0.78524000  0.98175000  1.0
  C  C47  1  0.48962000  0.21476000  0.01825000  1.0
  C  C48  1  0.61671000  0.89110000  0.92904000  1.0
  C  C49  1  0.38330000  0.10890000  0.07096000  1.0
  C  C50  1  0.78426000  0.86533000  0.96209000  1.0
  C  C51  1  0.21575000  0.13466000  0.03792000  1.0
  C  C52  1  0.89227000  0.95991000  0.91365000  1.0
  C  C53  1  0.10774000  0.04008000  0.08635000  1.0
  C  C54  1  0.83233000  0.08599000  0.83077000  1.0
  C  C55  1  0.16767000  0.91401000  0.16923000  1.0
  C  C56  1  0.66885000  0.11493000  0.79656000  1.0
  C  C57  1  0.33114000  0.88507000  0.20344000  1.0
  C  C58  1  0.55676000  0.01852000  0.84344000  1.0
  C  C59  1  0.44325000  0.98147000  0.15656000  1.0
  Br  Br60  1  0.16805000  0.54809000  0.35509000  1.0
  Br  Br61  1  0.83193000  0.45190000  0.64489000  1.0
  Br  Br62  1  0.63472000  0.13923000  0.51955000  1.0
  Br  Br63  1  0.36529000  0.86082000  0.48046000  1.0
  Br  Br64  1  0.66092000  0.54858000  0.34703000  1.0
  Br  Br65  1  0.33904000  0.45144000  0.65298000  1.0
  Br  Br66  1  0.11592000  0.16519000  0.55771000  1.0
  Br  Br67  1  0.88410000  0.83484000  0.44228000  1.0
  N  N68  1  0.35463000  0.22453000  0.28279000  1.0
  N  N69  1  0.64536000  0.77547000  0.71721000  1.0
  N  N70  1  0.39954000  0.04733000  0.80338000  1.0
  N  N71  1  0.60047000  0.95266000  0.19662000  1.0
  O  O72  1  0.16248000  0.63041000  0.06277000  1.0
  O  O73  1  0.83752000  0.36959000  0.93722000  1.0
  O  O74  1  0.39816000  0.47197000  0.13025000  1.0
  O  O75  1  0.60184000  0.52803000  0.86975000  1.0
  O  O76  1  0.35962000  0.79994000  0.95658000  1.0
  O  O77  1  0.64039000  0.20005000  0.04342000  1.0
  O  O78  1  0.58330000  0.66987000  0.05794000  1.0
  O  O79  1  0.41670000  0.33013000  0.94206000  1.0
