# generated using pymatgen
data_Cu3H16(C12N13)2
_symmetry_space_group_name_H-M   'P 1'
_cell_length_a   12.98750000
_cell_length_b   14.75570000
_cell_length_c   15.60040000
_cell_angle_alpha   89.99990000
_cell_angle_beta   91.00960000
_cell_angle_gamma   89.99960000
_symmetry_Int_Tables_number   1
_chemical_formula_structural   Cu3H16(C12N13)2
_chemical_formula_sum   'Cu6 H32 C48 N52'
_cell_volume   2989.19113106
_cell_formula_units_Z   2
loop_
 _symmetry_equiv_pos_site_id
 _symmetry_equiv_pos_as_xyz
  1  'x, y, z'
loop_
 _atom_site_type_symbol
 _atom_site_label
 _atom_site_symmetry_multiplicity
 _atom_site_fract_x
 _atom_site_fract_y
 _atom_site_fract_z
 _atom_site_occupancy
  Cu  Cu0  1  0.01991000  0.79781000  0.39686000  1.0
  Cu  Cu1  1  0.48007000  0.29782000  0.10315000  1.0
  Cu  Cu2  1  0.98007000  0.20218000  0.60315000  1.0
  Cu  Cu3  1  0.51992000  0.70218000  0.89685000  1.0
  Cu  Cu4  1  0.99999000  0.00000000  0.50000000  1.0
  Cu  Cu5  1  0.50000000  0.50000000  1.00000000  1.0
  H  H6  1  0.28158000  0.65160000  0.64115000  1.0
  H  H7  1  0.41743000  0.87595000  0.84671000  1.0
  H  H8  1  0.24113000  0.01872000  0.12459000  1.0
  H  H9  1  0.41177000  0.61208000  0.75637000  1.0
  H  H10  1  0.28278000  0.92506000  0.73950000  1.0
  H  H11  1  0.25299000  0.19788000  0.34385000  1.0
  H  H12  1  0.37008000  0.29782000  0.26134000  1.0
  H  H13  1  0.35789000  0.12745000  0.04993000  1.0
  H  H14  1  0.21842000  0.15160000  0.85884000  1.0
  H  H15  1  0.08258000  0.37595000  0.65326000  1.0
  H  H16  1  0.25887000  0.51872000  0.37542000  1.0
  H  H17  1  0.08826000  0.11208000  0.74361000  1.0
  H  H18  1  0.21723000  0.42505000  0.76049000  1.0
  H  H19  1  0.24700000  0.69789000  0.15616000  1.0
  H  H20  1  0.12990000  0.79782000  0.23868000  1.0
  H  H21  1  0.14210000  0.62745000  0.45008000  1.0
  H  H22  1  0.71842000  0.34842000  0.35884000  1.0
  H  H23  1  0.58258000  0.12406000  0.15328000  1.0
  H  H24  1  0.75886000  0.98128000  0.87542000  1.0
  H  H25  1  0.58824000  0.38793000  0.24361000  1.0
  H  H26  1  0.71723000  0.07496000  0.26049000  1.0
  H  H27  1  0.74701000  0.80212000  0.65615000  1.0
  H  H28  1  0.62992000  0.70218000  0.73867000  1.0
  H  H29  1  0.64210000  0.87254000  0.95008000  1.0
  H  H30  1  0.78159000  0.84839000  0.14115000  1.0
  H  H31  1  0.91741000  0.62404000  0.34673000  1.0
  H  H32  1  0.74115000  0.48128000  0.62459000  1.0
  H  H33  1  0.91174000  0.88791000  0.25639000  1.0
  H  H34  1  0.78278000  0.57493000  0.23950000  1.0
  H  H35  1  0.75301000  0.30213000  0.84386000  1.0
  H  H36  1  0.87010000  0.20218000  0.76134000  1.0
  H  H37  1  0.85791000  0.37255000  0.54992000  1.0
  C  C38  1  0.19543000  0.81895000  0.61695000  1.0
  C  C39  1  0.27128000  0.79183000  0.68168000  1.0
  C  C40  1  0.30904000  0.70282000  0.68629000  1.0
  C  C41  1  0.38417000  0.82815000  0.80066000  1.0
  C  C42  1  0.16859000  0.04231000  0.28923000  1.0
  C  C43  1  0.23694000  0.10018000  0.24043000  1.0
  C  C44  1  0.26828000  0.07985000  0.15698000  1.0
  C  C45  1  0.38174000  0.68069000  0.74902000  1.0
  C  C46  1  0.31004000  0.85529000  0.74099000  1.0
  C  C47  1  0.27428000  0.18016000  0.27865000  1.0
  C  C48  1  0.34051000  0.23509000  0.23349000  1.0
  C  C49  1  0.33415000  0.13920000  0.11567000  1.0
  C  C50  1  0.30456000  0.31895000  0.88305000  1.0
  C  C51  1  0.22872000  0.29183000  0.81831000  1.0
  C  C52  1  0.19097000  0.20282000  0.81370000  1.0
  C  C53  1  0.11585000  0.32815000  0.69932000  1.0
  C  C54  1  0.33140000  0.54232000  0.21078000  1.0
  C  C55  1  0.26305000  0.60018000  0.25958000  1.0
  C  C56  1  0.23172000  0.57985000  0.34303000  1.0
  C  C57  1  0.11827000  0.18068000  0.75096000  1.0
  C  C58  1  0.18997000  0.35529000  0.75899000  1.0
  C  C59  1  0.22571000  0.68016000  0.22136000  1.0
  C  C60  1  0.15948000  0.73509000  0.26652000  1.0
  C  C61  1  0.16584000  0.63920000  0.38434000  1.0
  C  C62  1  0.80457000  0.18105000  0.38305000  1.0
  C  C63  1  0.72872000  0.20818000  0.31831000  1.0
  C  C64  1  0.69096000  0.29719000  0.31370000  1.0
  C  C65  1  0.61584000  0.17186000  0.19933000  1.0
  C  C66  1  0.83140000  0.95770000  0.71078000  1.0
  C  C67  1  0.76305000  0.89983000  0.75958000  1.0
  C  C68  1  0.73171000  0.92015000  0.84303000  1.0
  C  C69  1  0.61826000  0.31932000  0.25097000  1.0
  C  C70  1  0.68997000  0.14472000  0.25900000  1.0
  C  C71  1  0.72572000  0.81984000  0.72136000  1.0
  C  C72  1  0.65949000  0.76491000  0.76651000  1.0
  C  C73  1  0.66584000  0.86079000  0.88434000  1.0
  C  C74  1  0.69545000  0.68104000  0.11693000  1.0
  C  C75  1  0.77129000  0.70815000  0.18167000  1.0
  C  C76  1  0.80905000  0.79717000  0.18629000  1.0
  C  C77  1  0.88415000  0.67184000  0.30067000  1.0
  C  C78  1  0.66861000  0.45769000  0.78923000  1.0
  C  C79  1  0.73697000  0.39983000  0.74043000  1.0
  C  C80  1  0.76830000  0.42015000  0.65698000  1.0
  C  C81  1  0.88173000  0.81930000  0.24903000  1.0
  C  C82  1  0.81005000  0.64469000  0.24099000  1.0
  C  C83  1  0.77430000  0.31984000  0.77866000  1.0
  C  C84  1  0.84052000  0.26491000  0.73349000  1.0
  C  C85  1  0.83417000  0.36080000  0.61567000  1.0
  N  N86  1  0.09224000  0.90013000  0.54532000  1.0
  N  N87  1  0.09531000  0.81807000  0.50888000  1.0
  N  N88  1  0.15968000  0.76529000  0.55270000  1.0
  N  N89  1  0.15393000  0.90296000  0.61305000  1.0
  N  N90  1  0.41946000  0.74245000  0.80490000  1.0
  N  N91  1  0.08317000  0.93017000  0.33592000  1.0
  N  N92  1  0.07411000  0.00031000  0.38952000  1.0
  N  N93  1  0.12609000  0.07115000  0.36268000  1.0
  N  N94  1  0.14242000  0.95537000  0.27134000  1.0
  N  N95  1  0.90425000  0.87431000  0.44224000  1.0
  N  N96  1  0.82642000  0.83811000  0.46657000  1.0
  N  N97  1  0.37038000  0.21543000  0.15318000  1.0
  N  N98  1  0.74988000  0.80568000  0.48983000  1.0
  N  N99  1  0.40774000  0.40014000  0.95468000  1.0
  N  N100  1  0.40467000  0.31807000  0.99113000  1.0
  N  N101  1  0.34031000  0.26529000  0.94731000  1.0
  N  N102  1  0.34605000  0.40296000  0.88695000  1.0
  N  N103  1  0.08056000  0.24245000  0.69509000  1.0
  N  N104  1  0.41683000  0.43018000  0.16408000  1.0
  N  N105  1  0.42588000  0.50032000  0.11048000  1.0
  N  N106  1  0.37390000  0.57116000  0.13732000  1.0
  N  N107  1  0.35757000  0.45538000  0.22866000  1.0
  N  N108  1  0.59574000  0.37431000  0.05776000  1.0
  N  N109  1  0.67358000  0.33812000  0.03345000  1.0
  N  N110  1  0.12960000  0.71542000  0.34684000  1.0
  N  N111  1  0.75014000  0.30570000  0.01021000  1.0
  N  N112  1  0.90774000  0.09987000  0.45468000  1.0
  N  N113  1  0.90468000  0.18193000  0.49113000  1.0
  N  N114  1  0.84032000  0.23471000  0.44730000  1.0
  N  N115  1  0.84606000  0.09704000  0.38694000  1.0
  N  N116  1  0.58055000  0.25755000  0.19509000  1.0
  N  N117  1  0.91683000  0.06983000  0.66409000  1.0
  N  N118  1  0.92588000  0.99970000  0.61049000  1.0
  N  N119  1  0.87390000  0.92886000  0.63732000  1.0
  N  N120  1  0.85757000  0.04463000  0.72866000  1.0
  N  N121  1  0.09573000  0.12567000  0.55777000  1.0
  N  N122  1  0.17357000  0.16186000  0.53345000  1.0
  N  N123  1  0.62962000  0.78457000  0.84683000  1.0
  N  N124  1  0.25012000  0.19429000  0.51019000  1.0
  N  N125  1  0.59225000  0.59986000  0.04531000  1.0
  N  N126  1  0.59532000  0.68193000  0.00886000  1.0
  N  N127  1  0.65969000  0.73470000  0.05269000  1.0
  N  N128  1  0.65395000  0.59703000  0.11304000  1.0
  N  N129  1  0.91944000  0.75753000  0.30491000  1.0
  N  N130  1  0.58317000  0.56983000  0.83591000  1.0
  N  N131  1  0.57411000  0.49969000  0.88951000  1.0
  N  N132  1  0.62610000  0.42885000  0.86268000  1.0
  N  N133  1  0.64243000  0.54463000  0.77134000  1.0
  N  N134  1  0.40425000  0.62570000  0.94223000  1.0
  N  N135  1  0.32642000  0.66189000  0.96654000  1.0
  N  N136  1  0.87040000  0.28458000  0.65317000  1.0
  N  N137  1  0.24986000  0.69432000  0.98979000  1.0
