# generated using pymatgen
data_CuH18C10(NO)6
_symmetry_space_group_name_H-M   'P 1'
_cell_length_a   8.24358000
_cell_length_b   10.48840000
_cell_length_c   11.06388199
_cell_angle_alpha   116.69665412
_cell_angle_beta   111.84029572
_cell_angle_gamma   90.00910000
_symmetry_Int_Tables_number   1
_chemical_formula_structural   CuH18C10(NO)6
_chemical_formula_sum   'Cu2 H36 C20 N12 O12'
_cell_volume   776.97689408
_cell_formula_units_Z   2
loop_
 _symmetry_equiv_pos_site_id
 _symmetry_equiv_pos_as_xyz
  1  'x, y, z'
loop_
 _atom_site_type_symbol
 _atom_site_label
 _atom_site_symmetry_multiplicity
 _atom_site_fract_x
 _atom_site_fract_y
 _atom_site_fract_z
 _atom_site_occupancy
  Cu  Cu0  1  0.20462000  0.75000000  0.00008000  1.0
  Cu  Cu1  1  0.79538000  0.24999000  0.99992000  1.0
  H  H2  1  0.53724000  0.39251000  0.36772000  1.0
  H  H3  1  0.16951000  0.10743000  0.63219000  1.0
  H  H4  1  0.46276000  0.60749000  0.63228000  1.0
  H  H5  1  0.83049000  0.89257000  0.36781000  1.0
  H  H6  1  0.60921000  0.39644000  0.54292000  1.0
  H  H7  1  0.06637000  0.10349000  0.45700000  1.0
  H  H8  1  0.39079000  0.60355000  0.45708000  1.0
  H  H9  1  0.93363000  0.89651000  0.54301000  1.0
  H  H10  1  0.28889000  0.34907000  0.50190000  1.0
  H  H11  1  0.78722000  0.15106000  0.49824000  1.0
  H  H12  1  0.71110000  0.65093000  0.49809000  1.0
  H  H13  1  0.21279000  0.84894000  0.50177000  1.0
  H  H14  1  0.21867000  0.33967000  0.32483000  1.0
  H  H15  1  0.89391000  0.16049000  0.67532000  1.0
  H  H16  1  0.78133000  0.66033000  0.67516000  1.0
  H  H17  1  0.10609000  0.83951000  0.32468000  1.0
  H  H18  1  0.47167000  0.89351000  0.35142000  1.0
  H  H19  1  0.12075000  0.60657000  0.64872000  1.0
  H  H20  1  0.52832000  0.10650000  0.64858000  1.0
  H  H21  1  0.87925000  0.39343000  0.35128000  1.0
  H  H22  1  0.15277000  0.08919000  0.11191000  1.0
  H  H23  1  0.04070000  0.41086000  0.88813000  1.0
  H  H24  1  0.84723000  0.91081000  0.88809000  1.0
  H  H25  1  0.95930000  0.58914000  0.11187000  1.0
  H  H26  1  0.35590000  0.86851000  0.84811000  1.0
  H  H27  1  0.50764000  0.63141000  0.15189000  1.0
  H  H28  1  0.64409000  0.13148000  0.15188000  1.0
  H  H29  1  0.49236000  0.36859000  0.84812000  1.0
  H  H30  1  0.80721000  0.66735000  0.93401000  1.0
  H  H31  1  0.87322000  0.83278000  0.06616000  1.0
  H  H32  1  0.19279000  0.33265000  0.06599000  1.0
  H  H33  1  0.12678000  0.16722000  0.93384000  1.0
  H  H34  1  0.52845000  0.66784000  0.93314000  1.0
  H  H35  1  0.59531000  0.83227000  0.06699000  1.0
  H  H36  1  0.47155000  0.33215000  0.06686000  1.0
  H  H37  1  0.40470000  0.16773000  0.93301000  1.0
  C  C38  1  0.50440000  0.41959000  0.46313000  1.0
  C  C39  1  0.04132000  0.08040000  0.53685000  1.0
  C  C40  1  0.49559000  0.58041000  0.53686000  1.0
  C  C41  1  0.95868000  0.91960000  0.46315000  1.0
  C  C42  1  0.32628000  0.32444000  0.40937000  1.0
  C  C43  1  0.91705000  0.17568000  0.59073000  1.0
  C  C44  1  0.67371000  0.67556000  0.59062000  1.0
  C  C45  1  0.08294000  0.82432000  0.40927000  1.0
  C  C46  1  0.41036000  0.97295000  0.32216000  1.0
  C  C47  1  0.08861000  0.52713000  0.67798000  1.0
  C  C48  1  0.58965000  0.02705000  0.67785000  1.0
  C  C49  1  0.91138000  0.47287000  0.32202000  1.0
  C  C50  1  0.24651000  0.06842000  0.19711000  1.0
  C  C51  1  0.04942000  0.43164000  0.80296000  1.0
  C  C52  1  0.75348000  0.93158000  0.80288000  1.0
  C  C53  1  0.95059000  0.56835000  0.19705000  1.0
  C  C54  1  0.23678000  0.91700000  0.85184000  1.0
  C  C55  1  0.38484000  0.58286000  0.14812000  1.0
  C  C56  1  0.76322000  0.08300000  0.14816000  1.0
  C  C57  1  0.61516000  0.41714000  0.85188000  1.0
  N  N58  1  0.33197000  0.17007000  0.34033000  1.0
  N  N59  1  0.99180000  0.33002000  0.65973000  1.0
  N  N60  1  0.66801000  0.82993000  0.65966000  1.0
  N  N61  1  0.00820000  0.66998000  0.34027000  1.0
  N  N62  1  0.43750000  0.11185000  0.42199000  1.0
  N  N63  1  0.01590000  0.38825000  0.57811000  1.0
  N  N64  1  0.56250000  0.88816000  0.57801000  1.0
  N  N65  1  0.98411000  0.61175000  0.42190000  1.0
  N  N66  1  0.29364000  0.94151000  0.18227000  1.0
  N  N67  1  0.11155000  0.55855000  0.81785000  1.0
  N  N68  1  0.70636000  0.05849000  0.81773000  1.0
  N  N69  1  0.88845000  0.44145000  0.18215000  1.0
  O  O70  1  0.91080000  0.75007000  0.00009000  1.0
  O  O71  1  0.08920000  0.24993000  0.99991000  1.0
  O  O72  1  0.49141000  0.75006000  0.00005000  1.0
  O  O73  1  0.50859000  0.24994000  0.99994000  1.0
  O  O74  1  0.12861000  0.85886000  0.87943000  1.0
  O  O75  1  0.24913000  0.64105000  0.12067000  1.0
  O  O76  1  0.87139000  0.14114000  0.12057000  1.0
  O  O77  1  0.75087000  0.35895000  0.87933000  1.0
  O  O78  1  0.21707000  0.02557000  0.83003000  1.0
  O  O79  1  0.38690000  0.47422000  0.16984000  1.0
  O  O80  1  0.78293000  0.97443000  0.16997000  1.0
  O  O81  1  0.61310000  0.52578000  0.83016000  1.0
