# generated using pymatgen
data_ZnH7C10N3O5
_symmetry_space_group_name_H-M   'P 1'
_cell_length_a   7.64220000
_cell_length_b   7.64218000
_cell_length_c   9.85721000
_cell_angle_alpha   70.23520000
_cell_angle_beta   70.23500000
_cell_angle_gamma   84.69730000
_symmetry_Int_Tables_number   1
_chemical_formula_structural   ZnH7C10N3O5
_chemical_formula_sum   'Zn2 H14 C20 N6 O10'
_cell_volume   509.70276609
_cell_formula_units_Z   2
loop_
 _symmetry_equiv_pos_site_id
 _symmetry_equiv_pos_as_xyz
  1  'x, y, z'
loop_
 _atom_site_type_symbol
 _atom_site_label
 _atom_site_symmetry_multiplicity
 _atom_site_fract_x
 _atom_site_fract_y
 _atom_site_fract_z
 _atom_site_occupancy
  Zn  Zn0  1  0.39163000  0.25347000  0.77742000  1.0
  Zn  Zn1  1  0.25347000  0.39164000  0.27742000  1.0
  H  H2  1  0.45091000  0.73344000  0.62054000  1.0
  H  H3  1  0.73344000  0.45092000  0.12054000  1.0
  H  H4  1  0.65506000  0.76906000  0.14879000  1.0
  H  H5  1  0.76906000  0.65506000  0.64878000  1.0
  H  H6  1  0.81184000  0.19347000  0.28860000  1.0
  H  H7  1  0.19347000  0.81183000  0.78859000  1.0
  H  H8  1  0.08865000  0.16372000  0.10552000  1.0
  H  H9  1  0.16372000  0.08865000  0.60552000  1.0
  H  H10  1  0.72310000  0.05792000  0.90009000  1.0
  H  H11  1  0.05792000  0.72310000  0.40008000  1.0
  H  H12  1  0.36958000  0.03422000  0.08275000  1.0
  H  H13  1  0.03422000  0.36958000  0.58274000  1.0
  H  H14  1  0.35304000  0.90713000  0.99384000  1.0
  H  H15  1  0.90713000  0.35305000  0.49384000  1.0
  C  C16  1  0.53384000  0.80704000  0.50323000  1.0
  C  C17  1  0.80704000  0.53385000  0.00322000  1.0
  C  C18  1  0.54623000  0.73185000  0.38919000  1.0
  C  C19  1  0.73185000  0.54623000  0.88918000  1.0
  C  C20  1  0.65052000  0.82581000  0.23722000  1.0
  C  C21  1  0.82582000  0.65053000  0.73721000  1.0
  C  C22  1  0.74636000  0.98945000  0.20285000  1.0
  C  C23  1  0.98946000  0.74636000  0.70284000  1.0
  C  C24  1  0.73734000  0.06446000  0.31578000  1.0
  C  C25  1  0.06447000  0.73733000  0.81578000  1.0
  C  C26  1  0.62746000  0.97501000  0.46596000  1.0
  C  C27  1  0.97502000  0.62746000  0.96595000  1.0
  C  C28  1  0.03126000  0.16094000  0.01965000  1.0
  C  C29  1  0.16095000  0.03126000  0.51965000  1.0
  C  C30  1  0.84608000  0.10343000  0.91225000  1.0
  C  C31  1  0.10343000  0.84608000  0.41225000  1.0
  C  C32  1  0.43810000  0.55723000  0.42454000  1.0
  C  C33  1  0.55723000  0.43811000  0.92453000  1.0
  C  C34  1  0.60226000  0.07623000  0.57779000  1.0
  C  C35  1  0.07624000  0.60225000  0.07778000  1.0
  N  N36  1  0.86417000  0.08133000  0.05135000  1.0
  N  N37  1  0.08133000  0.86417000  0.55134000  1.0
  N  N38  1  0.11128000  0.22631000  0.87078000  1.0
  N  N39  1  0.22631000  0.11128000  0.37077000  1.0
  N  N40  1  0.99459000  0.19215000  0.80155000  1.0
  N  N41  1  0.19214000  0.99460000  0.30155000  1.0
  O  O42  1  0.35685000  0.45910000  0.56014000  1.0
  O  O43  1  0.45910000  0.35686000  0.06013000  1.0
  O  O44  1  0.43376000  0.52775000  0.30430000  1.0
  O  O45  1  0.52775000  0.43377000  0.80429000  1.0
  O  O46  1  0.44028000  0.05482000  0.68127000  1.0
  O  O47  1  0.05481000  0.44027000  0.18127000  1.0
  O  O48  1  0.72925000  0.18109000  0.56270000  1.0
  O  O49  1  0.18111000  0.72923000  0.06269000  1.0
  O  O50  1  0.42414000  0.01612000  0.98243000  1.0
  O  O51  1  0.01612000  0.42414000  0.48242000  1.0
