# generated using pymatgen
data_LiH6C10NO4
_symmetry_space_group_name_H-M   'P 1'
_cell_length_a   4.90483000
_cell_length_b   7.28731000
_cell_length_c   13.46710000
_cell_angle_alpha   98.29450000
_cell_angle_beta   90.00000000
_cell_angle_gamma   89.99980000
_symmetry_Int_Tables_number   1
_chemical_formula_structural   LiH6C10NO4
_chemical_formula_sum   'Li2 H12 C20 N2 O8'
_cell_volume   476.31963683
_cell_formula_units_Z   2
loop_
 _symmetry_equiv_pos_site_id
 _symmetry_equiv_pos_as_xyz
  1  'x, y, z'
loop_
 _atom_site_type_symbol
 _atom_site_label
 _atom_site_symmetry_multiplicity
 _atom_site_fract_x
 _atom_site_fract_y
 _atom_site_fract_z
 _atom_site_occupancy
  Li  Li0  1  0.63792000  0.62493000  0.50132000  1.0
  Li  Li1  1  0.13791000  0.37507000  0.49868000  1.0
  H  H2  1  0.65746000  0.51446000  0.70084000  1.0
  H  H3  1  0.15746000  0.48554000  0.29916000  1.0
  H  H4  1  0.32450000  0.59281000  0.84313000  1.0
  H  H5  1  0.82450000  0.40719000  0.15687000  1.0
  H  H6  1  0.29084000  0.39522000  0.97722000  1.0
  H  H7  1  0.79084000  0.60479000  0.02278000  1.0
  H  H8  1  0.58314000  0.11542000  0.97547000  1.0
  H  H9  1  0.08315000  0.88458000  0.02453000  1.0
  H  H10  1  0.42267000  0.83820000  0.72226000  1.0
  H  H11  1  0.92266000  0.16180000  0.27774000  1.0
  H  H12  1  0.42080000  0.96935000  0.62141000  1.0
  H  H13  1  0.92079000  0.03066000  0.37859000  1.0
  C  C14  1  0.00952000  0.18703000  0.68754000  1.0
  C  C15  1  0.50952000  0.81297000  0.31246000  1.0
  C  C16  1  0.80071000  0.27130000  0.76018000  1.0
  C  C17  1  0.30071000  0.72870000  0.23982000  1.0
  C  C18  1  0.64062000  0.42844000  0.76039000  1.0
  C  C19  1  0.14062000  0.57156000  0.23961000  1.0
  C  C20  1  0.45569000  0.47106000  0.84017000  1.0
  C  C21  1  0.95569000  0.52894000  0.15983000  1.0
  C  C22  1  0.43586000  0.35905000  0.91616000  1.0
  C  C23  1  0.93586000  0.64095000  0.08384000  1.0
  C  C24  1  0.59906000  0.20053000  0.91553000  1.0
  C  C25  1  0.09906000  0.79947000  0.08447000  1.0
  C  C26  1  0.78027000  0.15942000  0.83647000  1.0
  C  C27  1  0.28027000  0.84058000  0.16354000  1.0
  C  C28  1  0.97550000  0.00295000  0.81351000  1.0
  C  C29  1  0.47550000  0.99705000  0.18649000  1.0
  C  C30  1  0.29008000  0.89841000  0.66996000  1.0
  C  C31  1  0.79008000  0.10159000  0.33004000  1.0
  C  C32  1  0.13332000  0.74217000  0.60478000  1.0
  C  C33  1  0.63331000  0.25783000  0.39522000  1.0
  N  N34  1  0.11112000  0.03256000  0.72546000  1.0
  N  N35  1  0.61112000  0.96743000  0.27454000  1.0
  O  O36  1  0.08689000  0.23483000  0.60837000  1.0
  O  O37  1  0.58689000  0.76517000  0.39163000  1.0
  O  O38  1  0.01846000  0.87106000  0.85868000  1.0
  O  O39  1  0.51846000  0.12894000  0.14132000  1.0
  O  O40  1  0.28079000  0.61391000  0.55787000  1.0
  O  O41  1  0.78078000  0.38609000  0.44213000  1.0
  O  O42  1  0.87762000  0.75069000  0.60206000  1.0
  O  O43  1  0.37760000  0.24931000  0.39793000  1.0
