# generated using pymatgen
data_Zn2H22C40S(N2O5)2
_symmetry_space_group_name_H-M   'P 1'
_cell_length_a   5.78383000
_cell_length_b   11.62440000
_cell_length_c   27.08230000
_cell_angle_alpha   89.99970000
_cell_angle_beta   89.99920000
_cell_angle_gamma   89.74960000
_symmetry_Int_Tables_number   1
_chemical_formula_structural   Zn2H22C40S(N2O5)2
_chemical_formula_sum   'Zn4 H44 C80 S2 N8 O20'
_cell_volume   1820.82187586
_cell_formula_units_Z   2
loop_
 _symmetry_equiv_pos_site_id
 _symmetry_equiv_pos_as_xyz
  1  'x, y, z'
loop_
 _atom_site_type_symbol
 _atom_site_label
 _atom_site_symmetry_multiplicity
 _atom_site_fract_x
 _atom_site_fract_y
 _atom_site_fract_z
 _atom_site_occupancy
  Zn  Zn0  1  0.66557000  0.88357000  0.04810000  1.0
  Zn  Zn1  1  0.33446000  0.11643000  0.54809000  1.0
  Zn  Zn2  1  0.33444000  0.11640000  0.95190000  1.0
  Zn  Zn3  1  0.66553000  0.88359000  0.45190000  1.0
  H  H4  1  0.59845000  0.23412000  0.10937000  1.0
  H  H5  1  0.40154000  0.76588000  0.60937000  1.0
  H  H6  1  0.40152000  0.76587000  0.89062000  1.0
  H  H7  1  0.59843000  0.23415000  0.39063000  1.0
  H  H8  1  0.50432000  0.32657000  0.19061000  1.0
  H  H9  1  0.49573000  0.67342000  0.69062000  1.0
  H  H10  1  0.49568000  0.67344000  0.80937000  1.0
  H  H11  1  0.50428000  0.32659000  0.30938000  1.0
  H  H12  1  0.87193000  0.13132000  0.19743000  1.0
  H  H13  1  0.12814000  0.86867000  0.69741000  1.0
  H  H14  1  0.12815000  0.86865000  0.80259000  1.0
  H  H15  1  0.87186000  0.13135000  0.30259000  1.0
  H  H16  1  0.27007000  0.84897000  0.12661000  1.0
  H  H17  1  0.72994000  0.15105000  0.62661000  1.0
  H  H18  1  0.72996000  0.15101000  0.87339000  1.0
  H  H19  1  0.27003000  0.84898000  0.37339000  1.0
  H  H20  1  0.19480000  0.70951000  0.19471000  1.0
  H  H21  1  0.80521000  0.29049000  0.69471000  1.0
  H  H22  1  0.80524000  0.29048000  0.80530000  1.0
  H  H23  1  0.19478000  0.70952000  0.30529000  1.0
  H  H24  1  0.45248000  0.53660000  0.20369000  1.0
  H  H25  1  0.54751000  0.46340000  0.70370000  1.0
  H  H26  1  0.54757000  0.46340000  0.79631000  1.0
  H  H27  1  0.45246000  0.53660000  0.29631000  1.0
  H  H28  1  0.80369000  0.42534000  0.17225000  1.0
  H  H29  1  0.19631000  0.57467000  0.67225000  1.0
  H  H30  1  0.19635000  0.57466000  0.82776000  1.0
  H  H31  1  0.80366000  0.42534000  0.32776000  1.0
  H  H32  1  0.11747000  0.40359000  0.11096000  1.0
  H  H33  1  0.88254000  0.59641000  0.61096000  1.0
  H  H34  1  0.88254000  0.59640000  0.88904000  1.0
  H  H35  1  0.11744000  0.40360000  0.38905000  1.0
  H  H36  1  0.34121000  0.48672000  0.03843000  1.0
  H  H37  1  0.65880000  0.51328000  0.53842000  1.0
  H  H38  1  0.65879000  0.51326000  0.96157000  1.0
  H  H39  1  0.34119000  0.48673000  0.46157000  1.0
  H  H40  1  0.40012000  0.65448000  0.98039000  1.0
  H  H41  1  0.59990000  0.34551000  0.48038000  1.0
  H  H42  1  0.59990000  0.34549000  0.01962000  1.0
  H  H43  1  0.40010000  0.65451000  0.51961000  1.0
  H  H44  1  0.13119000  0.82221000  0.98482000  1.0
  H  H45  1  0.86884000  0.17778000  0.48482000  1.0
  H  H46  1  0.86882000  0.17776000  0.01518000  1.0
  H  H47  1  0.13116000  0.82223000  0.51517000  1.0
  C  C48  1  0.34320000  0.07991000  0.05888000  1.0
  C  C49  1  0.65677000  0.92008000  0.55887000  1.0
  C  C50  1  0.65679000  0.92005000  0.94113000  1.0
  C  C51  1  0.34319000  0.07993000  0.44113000  1.0
  C  C52  1  0.28794000  0.13218000  0.10823000  1.0
  C  C53  1  0.71207000  0.86781000  0.60823000  1.0
  C  C54  1  0.71206000  0.86779000  0.89177000  1.0
  C  C55  1  0.28792000  0.13221000  0.39177000  1.0
  C  C56  1  0.43940000  0.21275000  0.12890000  1.0
  C  C57  1  0.56059000  0.78725000  0.62890000  1.0
  C  C58  1  0.56058000  0.78724000  0.87110000  1.0
  C  C59  1  0.43939000  0.21278000  0.37110000  1.0
  C  C60  1  0.38768000  0.26476000  0.17384000  1.0
  C  C61  1  0.61234000  0.73524000  0.67384000  1.0
  C  C62  1  0.61230000  0.73524000  0.82615000  1.0
  C  C63  1  0.38766000  0.26478000  0.32616000  1.0
  C  C64  1  0.17920000  0.23729000  0.19715000  1.0
  C  C65  1  0.82083000  0.76271000  0.69714000  1.0
  C  C66  1  0.82081000  0.76270000  0.80285000  1.0
  C  C67  1  0.17919000  0.23731000  0.30285000  1.0
  C  C68  1  0.03107000  0.15376000  0.17826000  1.0
  C  C69  1  0.96896000  0.84623000  0.67825000  1.0
  C  C70  1  0.96896000  0.84621000  0.82175000  1.0
  C  C71  1  0.03104000  0.15379000  0.32175000  1.0
  C  C72  1  0.08641000  0.09980000  0.13367000  1.0
  C  C73  1  0.91359000  0.90019000  0.63366000  1.0
  C  C74  1  0.91360000  0.90016000  0.86634000  1.0
  C  C75  1  0.08638000  0.09983000  0.36634000  1.0
  C  C76  1  0.93069000  0.00542000  0.11490000  1.0
  C  C77  1  0.06930000  0.99458000  0.61488000  1.0
  C  C78  1  0.06931000  0.99454000  0.88511000  1.0
  C  C79  1  0.93067000  0.00546000  0.38511000  1.0
  C  C80  1  0.38339000  0.77513000  0.13222000  1.0
  C  C81  1  0.61663000  0.22487000  0.63222000  1.0
  C  C82  1  0.61663000  0.22485000  0.86778000  1.0
  C  C83  1  0.38334000  0.77514000  0.36778000  1.0
  C  C84  1  0.34225000  0.69571000  0.17034000  1.0
  C  C85  1  0.65773000  0.30429000  0.67034000  1.0
  C  C86  1  0.65778000  0.30428000  0.82966000  1.0
  C  C87  1  0.34222000  0.69571000  0.32966000  1.0
  C  C88  1  0.48569000  0.60096000  0.17534000  1.0
  C  C89  1  0.51430000  0.39904000  0.67533000  1.0
  C  C90  1  0.51435000  0.39903000  0.82467000  1.0
  C  C91  1  0.48566000  0.60096000  0.32466000  1.0
  C  C92  1  0.67269000  0.58631000  0.14222000  1.0
  C  C93  1  0.32732000  0.41370000  0.64221000  1.0
  C  C94  1  0.32734000  0.41368000  0.85779000  1.0
  C  C95  1  0.67265000  0.58631000  0.35778000  1.0
  C  C96  1  0.82738000  0.48955000  0.14337000  1.0
  C  C97  1  0.17263000  0.51047000  0.64337000  1.0
  C  C98  1  0.17264000  0.51044000  0.85663000  1.0
  C  C99  1  0.82736000  0.48955000  0.35663000  1.0
  C  C100  1  0.00245000  0.47816000  0.10976000  1.0
  C  C101  1  0.99756000  0.52186000  0.60975000  1.0
  C  C102  1  0.99757000  0.52183000  0.89025000  1.0
  C  C103  1  0.00241000  0.47816000  0.39025000  1.0
  C  C104  1  0.04378000  0.56539000  0.07353000  1.0
  C  C105  1  0.95625000  0.43462000  0.57353000  1.0
  C  C106  1  0.95626000  0.43459000  0.92647000  1.0
  C  C107  1  0.04372000  0.56539000  0.42647000  1.0
  C  C108  1  0.22624000  0.56136000  0.03888000  1.0
  C  C109  1  0.77379000  0.43865000  0.53887000  1.0
  C  C110  1  0.77378000  0.43862000  0.96112000  1.0
  C  C111  1  0.22621000  0.56137000  0.46112000  1.0
  C  C112  1  0.25814000  0.65239000  0.00676000  1.0
  C  C113  1  0.74189000  0.34760000  0.50675000  1.0
  C  C114  1  0.74186000  0.34758000  0.99324000  1.0
  C  C115  1  0.25813000  0.65241000  0.49324000  1.0
  C  C116  1  0.10801000  0.74792000  0.00902000  1.0
  C  C117  1  0.89203000  0.25207000  0.50902000  1.0
  C  C118  1  0.89202000  0.25205000  0.99098000  1.0
  C  C119  1  0.10798000  0.74794000  0.49097000  1.0
  C  C120  1  0.89820000  0.66398000  0.07238000  1.0
  C  C121  1  0.10183000  0.33604000  0.57238000  1.0
  C  C122  1  0.10183000  0.33601000  0.92762000  1.0
  C  C123  1  0.89816000  0.66398000  0.42762000  1.0
  C  C124  1  0.70480000  0.67230000  0.10580000  1.0
  C  C125  1  0.29522000  0.32771000  0.60579000  1.0
  C  C126  1  0.29522000  0.32769000  0.89421000  1.0
  C  C127  1  0.70476000  0.67231000  0.39421000  1.0
  S  S128  1  0.09421000  0.31673000  0.25000000  1.0
  S  S129  1  0.90581000  0.68329000  0.74999000  1.0
  N  N130  1  0.55951000  0.76347000  0.10094000  1.0
  N  N131  1  0.44052000  0.23654000  0.60094000  1.0
  N  N132  1  0.44050000  0.23653000  0.89906000  1.0
  N  N133  1  0.55946000  0.76348000  0.39906000  1.0
  N  N134  1  0.93335000  0.75260000  0.04093000  1.0
  N  N135  1  0.06670000  0.24741000  0.54093000  1.0
  N  N136  1  0.06666000  0.24738000  0.95907000  1.0
  N  N137  1  0.93331000  0.75261000  0.45907000  1.0
  O  O138  1  0.34663000  0.97150000  0.05516000  1.0
  O  O139  1  0.65336000  0.02849000  0.55516000  1.0
  O  O140  1  0.65336000  0.02847000  0.94484000  1.0
  O  O141  1  0.34661000  0.97153000  0.44484000  1.0
  O  O142  1  0.38084000  0.15236000  0.02449000  1.0
  O  O143  1  0.61910000  0.84763000  0.52449000  1.0
  O  O144  1  0.61913000  0.84760000  0.97552000  1.0
  O  O145  1  0.38087000  0.15239000  0.47551000  1.0
  O  O146  1  0.84438000  0.02058000  0.07114000  1.0
  O  O147  1  0.15564000  0.97942000  0.57113000  1.0
  O  O148  1  0.15564000  0.97939000  0.92887000  1.0
  O  O149  1  0.84437000  0.02059000  0.42887000  1.0
  O  O150  1  0.89773000  0.92157000  0.14260000  1.0
  O  O151  1  0.10227000  0.07843000  0.64258000  1.0
  O  O152  1  0.10227000  0.07839000  0.85742000  1.0
  O  O153  1  0.89765000  0.92162000  0.35741000  1.0
  O  O154  1  0.84215000  0.32151000  0.25000000  1.0
  O  O155  1  0.15789000  0.67852000  0.75000000  1.0
  O  O156  1  0.22415000  0.42355000  0.24999000  1.0
  O  O157  1  0.77591000  0.57645000  0.75000000  1.0
