# generated using pymatgen
data_Cu2H23C18S2I2N
_symmetry_space_group_name_H-M   'P 1'
_cell_length_a   8.90047000
_cell_length_b   10.47870000
_cell_length_c   12.04610000
_cell_angle_alpha   94.60850000
_cell_angle_beta   99.53420000
_cell_angle_gamma   105.39400000
_symmetry_Int_Tables_number   1
_chemical_formula_structural   Cu2H23C18S2I2N
_chemical_formula_sum   'Cu4 H46 C36 S4 I4 N2'
_cell_volume   1059.04485210
_cell_formula_units_Z   2
loop_
 _symmetry_equiv_pos_site_id
 _symmetry_equiv_pos_as_xyz
  1  'x, y, z'
loop_
 _atom_site_type_symbol
 _atom_site_label
 _atom_site_symmetry_multiplicity
 _atom_site_fract_x
 _atom_site_fract_y
 _atom_site_fract_z
 _atom_site_occupancy
  Cu  Cu0  1  0.64093000  0.05452000  0.54018000  1.0
  Cu  Cu1  1  0.35907000  0.94547000  0.45982000  1.0
  Cu  Cu2  1  0.49626000  0.37454000  0.47759000  1.0
  Cu  Cu3  1  0.50374000  0.62546000  0.52241000  1.0
  H  H4  1  0.74660000  0.29828000  0.52765000  1.0
  H  H5  1  0.25340000  0.70172000  0.47235000  1.0
  H  H6  1  0.02611000  0.35292000  0.58351000  1.0
  H  H7  1  0.97389000  0.64709000  0.41648000  1.0
  H  H8  1  0.01582000  0.18342000  0.55015000  1.0
  H  H9  1  0.98418000  0.81657000  0.44985000  1.0
  H  H10  1  0.87220000  0.30202000  0.73608000  1.0
  H  H11  1  0.12780000  0.69798000  0.26392000  1.0
  H  H12  1  0.04197000  0.24101000  0.75947000  1.0
  H  H13  1  0.95803000  0.75899000  0.24053000  1.0
  H  H14  1  0.82620000  0.85795000  0.65657000  1.0
  H  H15  1  0.17380000  0.14205000  0.34343000  1.0
  H  H16  1  0.98151000  0.98884000  0.62723000  1.0
  H  H17  1  0.01849000  0.01117000  0.37278000  1.0
  H  H18  1  0.22350000  0.09210000  0.77225000  1.0
  H  H19  1  0.77650000  0.90790000  0.22775000  1.0
  H  H20  1  0.40002000  0.06869000  0.94768000  1.0
  H  H21  1  0.59999000  0.93131000  0.05232000  1.0
  H  H22  1  0.29687000  0.90092000  0.07194000  1.0
  H  H23  1  0.70314000  0.09908000  0.92806000  1.0
  H  H24  1  0.01590000  0.76103000  0.02273000  1.0
  H  H25  1  0.98411000  0.23897000  0.97726000  1.0
  H  H26  1  0.83913000  0.78571000  0.84768000  1.0
  H  H27  1  0.16088000  0.21429000  0.15232000  1.0
  H  H28  1  0.59583000  0.09186000  0.31176000  1.0
  H  H29  1  0.40417000  0.90813000  0.68825000  1.0
  H  H30  1  0.68654000  0.18799000  0.21312000  1.0
  H  H31  1  0.31345000  0.81201000  0.78688000  1.0
  H  H32  1  0.54865000  0.50626000  0.25823000  1.0
  H  H33  1  0.45135000  0.49373000  0.74178000  1.0
  H  H34  1  0.73981000  0.48560000  0.30146000  1.0
  H  H35  1  0.26019000  0.51439000  0.69854000  1.0
  H  H36  1  0.89330000  0.17742000  0.36358000  1.0
  H  H37  1  0.10669000  0.82257000  0.63642000  1.0
  H  H38  1  0.88286000  0.34339000  0.37846000  1.0
  H  H39  1  0.11714000  0.65661000  0.62154000  1.0
  H  H40  1  0.39003000  0.29856000  0.06807000  1.0
  H  H41  1  0.60996000  0.70144000  0.93193000  1.0
  H  H42  1  0.40685000  0.27419000  0.86432000  1.0
  H  H43  1  0.59314000  0.72582000  0.13568000  1.0
  H  H44  1  0.65916000  0.37841000  0.80272000  1.0
  H  H45  1  0.34083000  0.62159000  0.19728000  1.0
  H  H46  1  0.89620000  0.50738000  0.94659000  1.0
  H  H47  1  0.10380000  0.49262000  0.05341000  1.0
  H  H48  1  0.88238000  0.52632000  0.15199000  1.0
  H  H49  1  0.11761000  0.47367000  0.84801000  1.0
  C  C50  1  0.95097000  0.25000000  0.58203000  1.0
  C  C51  1  0.04903000  0.74999000  0.41797000  1.0
  C  C52  1  0.92765000  0.22884000  0.70250000  1.0
  C  C53  1  0.07235000  0.77116000  0.29750000  1.0
  C  C54  1  0.91362000  0.95400000  0.69271000  1.0
  C  C55  1  0.08639000  0.04600000  0.30729000  1.0
  C  C56  1  0.01898000  0.94247000  0.79979000  1.0
  C  C57  1  0.98103000  0.05753000  0.20020000  1.0
  C  C58  1  0.17676000  0.02227000  0.82923000  1.0
  C  C59  1  0.82324000  0.97773000  0.17077000  1.0
  C  C60  1  0.27673000  0.00746000  0.92668000  1.0
  C  C61  1  0.72328000  0.99254000  0.07332000  1.0
  C  C62  1  0.21936000  0.91317000  0.99611000  1.0
  C  C63  1  0.78065000  0.08683000  0.00389000  1.0
  C  C64  1  0.06129000  0.83452000  0.96836000  1.0
  C  C65  1  0.93872000  0.16548000  0.03163000  1.0
  C  C66  1  0.96180000  0.84865000  0.87079000  1.0
  C  C67  1  0.03822000  0.15136000  0.12921000  1.0
  C  C68  1  0.66275000  0.19264000  0.29971000  1.0
  C  C69  1  0.33724000  0.80736000  0.70029000  1.0
  C  C70  1  0.62293000  0.43908000  0.24659000  1.0
  C  C71  1  0.37706000  0.56091000  0.75341000  1.0
  C  C72  1  0.81802000  0.23963000  0.38524000  1.0
  C  C73  1  0.18198000  0.76037000  0.61475000  1.0
  C  C74  1  0.63487000  0.41504000  0.12395000  1.0
  C  C75  1  0.36513000  0.58496000  0.87605000  1.0
  C  C76  1  0.50188000  0.34309000  0.04184000  1.0
  C  C77  1  0.49812000  0.65691000  0.95816000  1.0
  C  C78  1  0.51139000  0.32927000  0.92747000  1.0
  C  C79  1  0.48861000  0.67074000  0.07253000  1.0
  C  C80  1  0.65320000  0.38766000  0.89267000  1.0
  C  C81  1  0.34680000  0.61234000  0.10733000  1.0
  C  C82  1  0.78610000  0.45954000  0.97357000  1.0
  C  C83  1  0.21390000  0.54046000  0.02644000  1.0
  C  C84  1  0.77755000  0.47146000  0.08862000  1.0
  C  C85  1  0.22245000  0.52854000  0.91138000  1.0
  S  S86  1  0.79232000  0.06748000  0.71299000  1.0
  S  S87  1  0.20769000  0.93253000  0.28701000  1.0
  S  S88  1  0.52292000  0.29074000  0.30358000  1.0
  S  S89  1  0.47707000  0.70926000  0.69642000  1.0
  I  I90  1  0.59261000  0.83402000  0.41148000  1.0
  I  I91  1  0.40739000  0.16598000  0.58852000  1.0
  I  I92  1  0.75413000  0.54309000  0.60059000  1.0
  I  I93  1  0.24587000  0.45691000  0.39941000  1.0
  N  N94  1  0.79767000  0.22551000  0.50308000  1.0
  N  N95  1  0.20233000  0.77449000  0.49691000  1.0
