# generated using pymatgen
data_Zn4H49C89I3(N8O5)2
_symmetry_space_group_name_H-M   'P 1'
_cell_length_a   19.07920000
_cell_length_b   19.15280000
_cell_length_c   20.12060000
_cell_angle_alpha   108.02400000
_cell_angle_beta   104.66800000
_cell_angle_gamma   112.92800000
_symmetry_Int_Tables_number   1
_chemical_formula_structural   Zn4H49C89I3(N8O5)2
_chemical_formula_sum   'Zn4 H49 C89 I3 N16 O10'
_cell_volume   5823.46006903
_cell_formula_units_Z   1
loop_
 _symmetry_equiv_pos_site_id
 _symmetry_equiv_pos_as_xyz
  1  'x, y, z'
loop_
 _atom_site_type_symbol
 _atom_site_label
 _atom_site_symmetry_multiplicity
 _atom_site_fract_x
 _atom_site_fract_y
 _atom_site_fract_z
 _atom_site_occupancy
  Zn  Zn0  1  0.11676000  0.12648000  0.49887000  1.0
  Zn  Zn1  1  0.89860000  0.89666000  0.49037000  1.0
  Zn  Zn2  1  0.01820000  0.91828000  0.39514000  1.0
  Zn  Zn3  1  0.00224000  0.10070000  0.59595000  1.0
  H  H4  1  0.99563000  0.16591000  0.38967000  1.0
  H  H5  1  0.00018000  0.87684000  0.62201000  1.0
  H  H6  1  0.15291000  0.90260000  0.32260000  1.0
  H  H7  1  0.95096000  0.11029000  0.74501000  1.0
  H  H8  1  0.80377000  0.83693000  0.60058000  1.0
  H  H9  1  0.29519000  0.17380000  0.47541000  1.0
  H  H10  1  0.13061000  0.10886000  0.74371000  1.0
  H  H11  1  0.14479000  0.87062000  0.48735000  1.0
  H  H12  1  0.20382000  0.80804000  0.56104000  1.0
  H  H13  1  0.00173000  0.76381000  0.63079000  1.0
  H  H14  1  0.95176000  0.65279000  0.66917000  1.0
  H  H15  1  0.73328000  0.87213000  0.36440000  1.0
  H  H16  1  0.19592000  0.46060000  0.58368000  1.0
  H  H17  1  0.25987000  0.58351000  0.56193000  1.0
  H  H18  1  0.27752000  0.91064000  0.36597000  1.0
  H  H19  1  0.54321000  0.22840000  0.39239000  1.0
  H  H20  1  0.66869000  0.21888000  0.39842000  1.0
  H  H21  1  0.74731000  0.14088000  0.40890000  1.0
  H  H22  1  0.90716000  0.71178000  0.25139000  1.0
  H  H23  1  0.61498000  0.88163000  0.37206000  1.0
  H  H24  1  0.46444000  0.80944000  0.34021000  1.0
  H  H25  1  0.33898000  0.82047000  0.33858000  1.0
  H  H26  1  0.75517000  0.59969000  0.14560000  1.0
  H  H27  1  0.74486000  0.51892000  0.32210000  1.0
  H  H28  1  0.49604000  0.17101000  0.84935000  1.0
  H  H29  1  0.64102000  0.45582000  0.04613000  1.0
  H  H30  1  0.36753000  0.10462000  0.72925000  1.0
  H  H31  1  0.01670000  0.28939000  0.66106000  1.0
  H  H32  1  0.59307000  0.31471000  0.98037000  1.0
  H  H33  1  0.40017000  0.30811000  0.97465000  1.0
  H  H34  1  0.63188000  0.37403000  0.22243000  1.0
  H  H35  1  0.76084000  0.90259000  0.16724000  1.0
  H  H36  1  0.82159000  0.07419000  0.77575000  1.0
  H  H37  1  0.74943000  0.90216000  0.94864000  1.0
  H  H38  1  0.88908000  0.16943000  0.14432000  1.0
  H  H39  1  0.77855000  0.07497000  0.88133000  1.0
  H  H40  1  0.94428000  0.17003000  0.26914000  1.0
  H  H41  1  0.81032000  0.09310000  0.00603000  1.0
  H  H42  1  0.70729000  0.90160000  0.04203000  1.0
  H  H43  1  0.77826000  0.84141000  0.84818000  1.0
  H  H44  1  0.14322000  0.31724000  0.51238000  1.0
  H  H45  1  0.87108000  0.14601000  0.50838000  1.0
  H  H46  1  0.86272000  0.89084000  0.25493000  1.0
  H  H47  1  0.28599000  0.14789000  0.61925000  1.0
  H  H48  1  0.82288000  0.30799000  0.53022000  1.0
  H  H49  1  0.36232000  0.82215000  0.55435000  1.0
  H  H50  1  0.22911000  0.33084000  0.82216000  1.0
  H  H51  1  0.51885000  0.39836000  0.16517000  1.0
  H  H52  1  0.92100000  0.80641000  0.72933000  1.0
  C  C53  1  0.97182000  0.09782000  0.36587000  1.0
  C  C54  1  0.76933000  0.01061000  0.42067000  1.0
  C  C55  1  0.81426000  0.66029000  0.29816000  1.0
  C  C56  1  0.07850000  0.33723000  0.59037000  1.0
  C  C57  1  0.23647000  0.13459000  0.63897000  1.0
  C  C58  1  0.03030000  0.88113000  0.58315000  1.0
  C  C59  1  0.17665000  0.96807000  0.36311000  1.0
  C  C60  1  0.91953000  0.04508000  0.70008000  1.0
  C  C61  1  0.84543000  0.90552000  0.62727000  1.0
  C  C62  1  0.24900000  0.10643000  0.44020000  1.0
  C  C63  1  0.15730000  0.11609000  0.70288000  1.0
  C  C64  1  0.77845000  0.93861000  0.40537000  1.0
  C  C65  1  0.10459000  0.87894000  0.51501000  1.0
  C  C66  1  0.23971000  0.13909000  0.71088000  1.0
  C  C67  1  0.08566000  0.85299000  0.56962000  1.0
  C  C68  1  0.25621000  0.04065000  0.39233000  1.0
  C  C69  1  0.86307000  0.96935000  0.69746000  1.0
  C  C70  1  0.16070000  0.77153000  0.57973000  1.0
  C  C71  1  0.10128000  0.79324000  0.59272000  1.0
  C  C72  1  0.04817000  0.74814000  0.61983000  1.0
  C  C73  1  0.04813000  0.67790000  0.62703000  1.0
  C  C74  1  0.10465000  0.65236000  0.60924000  1.0
  C  C75  1  0.88096000  0.72150000  0.29318000  1.0
  C  C76  1  0.16490000  0.70291000  0.58824000  1.0
  C  C77  1  0.99006000  0.62888000  0.64983000  1.0
  C  C78  1  0.98163000  0.55408000  0.64839000  1.0
  C  C79  1  0.03131000  0.52032000  0.62297000  1.0
  C  C80  1  0.09683000  0.57544000  0.60938000  1.0
  C  C81  1  0.15412000  0.55061000  0.59224000  1.0
  C  C82  1  0.21627000  0.60289000  0.57504000  1.0
  C  C83  1  0.22268000  0.67583000  0.57221000  1.0
  C  C84  1  0.02070000  0.43890000  0.61084000  1.0
  C  C85  1  0.08177000  0.41758000  0.59943000  1.0
  C  C86  1  0.04793000  0.28368000  0.62331000  1.0
  C  C87  1  0.14827000  0.47561000  0.59208000  1.0
  C  C88  1  0.32976000  0.96313000  0.36749000  1.0
  C  C89  1  0.32845000  0.03904000  0.38028000  1.0
  C  C90  1  0.39697000  0.10605000  0.38217000  1.0
  C  C91  1  0.46851000  0.10129000  0.37913000  1.0
  C  C92  1  0.46845000  0.02383000  0.36922000  1.0
  C  C93  1  0.39629000  0.95289000  0.36012000  1.0
  C  C94  1  0.54280000  0.16991000  0.38726000  1.0
  C  C95  1  0.61292000  0.16448000  0.39068000  1.0
  C  C96  1  0.61601000  0.08953000  0.38547000  1.0
  C  C97  1  0.81065000  0.70988000  0.36415000  1.0
  C  C98  1  0.54087000  0.01785000  0.37133000  1.0
  C  C99  1  0.54036000  0.94074000  0.36296000  1.0
  C  C100  1  0.46476000  0.86867000  0.34852000  1.0
  C  C101  1  0.39575000  0.87479000  0.34774000  1.0
  C  C102  1  0.68970000  0.08521000  0.39673000  1.0
  C  C103  1  0.69108000  0.01178000  0.39461000  1.0
  C  C104  1  0.61508000  0.93932000  0.37425000  1.0
  C  C105  1  0.31292000  0.17213000  0.78201000  1.0
  C  C106  1  0.32393000  0.23014000  0.85309000  1.0
  C  C107  1  0.39307000  0.26216000  0.92147000  1.0
  C  C108  1  0.11302000  0.29828000  0.54788000  1.0
  C  C109  1  0.45718000  0.24303000  0.92170000  1.0
  C  C110  1  0.44709000  0.18673000  0.85081000  1.0
  C  C111  1  0.37550000  0.15041000  0.78308000  1.0
  C  C112  1  0.66563000  0.46851000  0.10635000  1.0
  C  C113  1  0.72965000  0.54972000  0.16246000  1.0
  C  C114  1  0.72219000  0.50525000  0.26153000  1.0
  C  C115  1  0.65830000  0.42334000  0.20504000  1.0
  C  C116  1  0.62624000  0.40391000  0.12624000  1.0
  C  C117  1  0.53665000  0.29272000  0.99092000  1.0
  C  C118  1  0.54822000  0.32474000  0.06595000  1.0
  C  C119  1  0.84921000  0.07851000  0.47800000  1.0
  C  C120  1  0.75672000  0.57079000  0.24143000  1.0
  C  C121  1  0.86055000  0.03509000  0.22688000  1.0
  C  C122  1  0.79025000  0.96120000  0.16231000  1.0
  C  C123  1  0.75983000  0.96060000  0.09166000  1.0
  C  C124  1  0.79821000  0.03421000  0.08228000  1.0
  C  C125  1  0.86030000  0.11074000  0.14935000  1.0
  C  C126  1  0.89141000  0.11099000  0.21987000  1.0
  C  C127  1  0.78943000  0.02434000  0.85247000  1.0
  C  C128  1  0.81477000  0.02458000  0.79372000  1.0
  C  C129  1  0.81761000  0.89551000  0.77645000  1.0
  C  C130  1  0.90320000  0.95739000  0.29770000  1.0
  C  C131  1  0.78801000  0.89337000  0.83303000  1.0
  C  C132  1  0.77764000  0.95942000  0.87508000  1.0
  C  C133  1  0.78713000  0.03156000  0.00704000  1.0
  C  C134  1  0.76568000  0.96138000  0.94405000  1.0
  C  C135  1  0.83215000  0.96228000  0.75575000  1.0
  C  C136  1  0.90581000  0.03071000  0.29443000  1.0
  C  C137  1  0.93856000  0.36917000  0.59767000  1.0
  C  C138  1  0.29070000  0.71909000  0.55061000  1.0
  C  C139  1  0.26797000  0.26682000  0.85865000  1.0
  C  C140  1  0.47733000  0.28520000  0.08693000  1.0
  C  C141  1  0.83682000  0.82693000  0.74605000  1.0
  I  I142  1  0.90089000  0.50190000  0.69676000  1.0
  I  I143  1  0.39217000  0.21562000  0.38509000  1.0
  I  I144  1  0.72942000  0.67631000  0.41528000  1.0
  N  N145  1  0.00579000  0.06626000  0.40701000  1.0
  N  N146  1  0.01591000  0.91821000  0.53850000  1.0
  N  N147  1  0.12688000  0.98882000  0.39105000  1.0
  N  N148  1  0.93468000  0.02754000  0.63695000  1.0
  N  N149  1  0.88815000  0.94062000  0.59145000  1.0
  N  N150  1  0.17190000  0.07518000  0.43911000  1.0
  N  N151  1  0.11006000  0.10106000  0.63247000  1.0
  N  N152  1  0.06167000  0.91700000  0.49653000  1.0
  N  N153  1  0.85710000  0.96236000  0.45070000  1.0
  N  N154  1  0.91357000  0.79980000  0.35065000  1.0
  N  N155  1  0.06234000  0.21883000  0.60155000  1.0
  N  N156  1  0.86913000  0.79273000  0.39461000  1.0
  N  N157  1  0.10308000  0.22780000  0.55459000  1.0
  N  N158  1  0.90065000  0.04831000  0.49568000  1.0
  N  N159  1  0.96357000  0.98004000  0.36509000  1.0
  N  N160  1  0.15853000  0.11288000  0.59323000  1.0
  O  O161  1  0.92673000  0.32736000  0.63303000  1.0
  O  O162  1  0.87464000  0.35203000  0.53407000  1.0
  O  O163  1  0.32337000  0.68434000  0.51897000  1.0
  O  O164  1  0.31687000  0.80306000  0.57057000  1.0
  O  O165  1  0.23066000  0.26428000  0.89979000  1.0
  O  O166  1  0.26686000  0.30909000  0.81510000  1.0
  O  O167  1  0.42689000  0.20921000  0.05622000  1.0
  O  O168  1  0.47202000  0.34044000  0.14525000  1.0
  O  O169  1  0.79103000  0.75169000  0.72716000  1.0
  O  O170  1  0.91463000  0.85654000  0.74595000  1.0
