# generated using pymatgen
data_Ho2Cu3H24(C4O5)6
_symmetry_space_group_name_H-M   'P 1'
_cell_length_a   12.76810000
_cell_length_b   12.77320000
_cell_length_c   16.42060000
_cell_angle_alpha   89.99720000
_cell_angle_beta   89.99970000
_cell_angle_gamma   119.98600000
_symmetry_Int_Tables_number   1
_chemical_formula_structural   Ho2Cu3H24(C4O5)6
_chemical_formula_sum   'Ho4 Cu6 H48 C48 O60'
_cell_volume   2319.56683543
_cell_formula_units_Z   2
loop_
 _symmetry_equiv_pos_site_id
 _symmetry_equiv_pos_as_xyz
  1  'x, y, z'
loop_
 _atom_site_type_symbol
 _atom_site_label
 _atom_site_symmetry_multiplicity
 _atom_site_fract_x
 _atom_site_fract_y
 _atom_site_fract_z
 _atom_site_occupancy
  Ho  Ho0  1  0.66666667  0.33327000  0.75002000  1.0
  Ho  Ho1  1  0.33338000  0.66666667  0.75000000  1.0
  Ho  Ho2  1  0.33333333  0.66666667  0.24999000  1.0
  Ho  Ho3  1  0.66666667  0.33333333  0.25000000  1.0
  Cu  Cu4  1  0.00002000  0.50000000  0.99997000  1.0
  Cu  Cu5  1  0.50000000  0.99999000  0.99999000  1.0
  Cu  Cu6  1  0.50001000  0.50000000  0.00003000  1.0
  Cu  Cu7  1  0.50001000  0.49999000  0.50001000  1.0
  Cu  Cu8  1  0.50001000  0.99999000  0.49996000  1.0
  Cu  Cu9  1  0.00000000  0.49996000  0.50003000  1.0
  H  H10  1  0.93610000  0.23912000  0.79471000  1.0
  H  H11  1  0.80375000  0.15112000  0.85608000  1.0
  H  H12  1  0.30294000  0.06390000  0.79480000  1.0
  H  H13  1  0.34737000  0.19627000  0.85609000  1.0
  H  H14  1  0.76079000  0.69695000  0.79474000  1.0
  H  H15  1  0.84887000  0.65261000  0.85604000  1.0
  H  H16  1  0.06388000  0.76089000  0.79471000  1.0
  H  H17  1  0.19624000  0.84889000  0.85605000  1.0
  H  H18  1  0.69704000  0.93610000  0.79475000  1.0
  H  H19  1  0.65264000  0.80374000  0.85606000  1.0
  H  H20  1  0.23909000  0.30300000  0.79486000  1.0
  H  H21  1  0.15110000  0.34751000  0.85610000  1.0
  H  H22  1  0.69709000  0.76103000  0.70515000  1.0
  H  H23  1  0.65251000  0.84893000  0.64388000  1.0
  H  H24  1  0.23906000  0.93608000  0.70515000  1.0
  H  H25  1  0.15111000  0.80366000  0.64391000  1.0
  H  H26  1  0.06397000  0.30300000  0.70523000  1.0
  H  H27  1  0.19640000  0.34746000  0.64392000  1.0
  H  H28  1  0.30292000  0.23908000  0.70526000  1.0
  H  H29  1  0.34735000  0.15111000  0.64394000  1.0
  H  H30  1  0.76103000  0.06400000  0.70513000  1.0
  H  H31  1  0.84890000  0.19648000  0.64390000  1.0
  H  H32  1  0.93601000  0.69698000  0.70517000  1.0
  H  H33  1  0.80354000  0.65246000  0.64389000  1.0
  H  H34  1  0.06383000  0.76082000  0.20525000  1.0
  H  H35  1  0.19623000  0.84884000  0.14393000  1.0
  H  H36  1  0.69695000  0.93611000  0.20529000  1.0
  H  H37  1  0.65267000  0.80380000  0.14396000  1.0
  H  H38  1  0.23905000  0.30295000  0.20521000  1.0
  H  H39  1  0.15108000  0.34744000  0.14392000  1.0
  H  H40  1  0.93616000  0.23908000  0.20520000  1.0
  H  H41  1  0.80373000  0.15111000  0.14391000  1.0
  H  H42  1  0.30301000  0.06399000  0.20517000  1.0
  H  H43  1  0.34752000  0.19642000  0.14391000  1.0
  H  H44  1  0.76078000  0.69694000  0.20533000  1.0
  H  H45  1  0.84889000  0.65272000  0.14396000  1.0
  H  H46  1  0.30304000  0.23913000  0.29476000  1.0
  H  H47  1  0.34744000  0.15112000  0.35608000  1.0
  H  H48  1  0.76114000  0.06402000  0.29485000  1.0
  H  H49  1  0.84897000  0.19645000  0.35610000  1.0
  H  H50  1  0.93605000  0.69703000  0.29491000  1.0
  H  H51  1  0.80349000  0.65239000  0.35612000  1.0
  H  H52  1  0.69708000  0.76108000  0.29488000  1.0
  H  H53  1  0.65239000  0.84892000  0.35613000  1.0
  H  H54  1  0.23906000  0.93605000  0.29475000  1.0
  H  H55  1  0.15112000  0.80370000  0.35607000  1.0
  H  H56  1  0.06388000  0.30297000  0.29480000  1.0
  H  H57  1  0.19631000  0.34738000  0.35608000  1.0
  C  C58  1  0.87826000  0.34339000  0.86553000  1.0
  C  C59  1  0.85099000  0.23134000  0.81643000  1.0
  C  C60  1  0.46508000  0.12166000  0.86558000  1.0
  C  C61  1  0.38031000  0.14896000  0.81646000  1.0
  C  C62  1  0.65657000  0.53484000  0.86556000  1.0
  C  C63  1  0.76859000  0.61962000  0.81642000  1.0
  C  C64  1  0.12174000  0.65662000  0.86553000  1.0
  C  C65  1  0.14900000  0.76866000  0.81641000  1.0
  C  C66  1  0.53491000  0.87832000  0.86557000  1.0
  C  C67  1  0.61968000  0.85104000  0.81643000  1.0
  C  C68  1  0.34342000  0.46516000  0.86558000  1.0
  C  C69  1  0.23137000  0.38039000  0.81648000  1.0
  C  C70  1  0.53491000  0.65664000  0.63443000  1.0
  C  C71  1  0.61966000  0.76871000  0.68351000  1.0
  C  C72  1  0.34343000  0.87830000  0.63438000  1.0
  C  C73  1  0.23137000  0.85101000  0.68352000  1.0
  C  C74  1  0.12175000  0.46513000  0.63447000  1.0
  C  C75  1  0.14906000  0.38037000  0.68357000  1.0
  C  C76  1  0.46507000  0.34339000  0.63445000  1.0
  C  C77  1  0.38029000  0.23134000  0.68357000  1.0
  C  C78  1  0.65656000  0.12172000  0.63440000  1.0
  C  C79  1  0.76865000  0.14905000  0.68351000  1.0
  C  C80  1  0.87823000  0.53482000  0.63445000  1.0
  C  C81  1  0.85091000  0.61958000  0.68354000  1.0
  C  C82  1  0.12172000  0.65657000  0.13444000  1.0
  C  C83  1  0.14896000  0.76859000  0.18356000  1.0
  C  C84  1  0.53487000  0.87829000  0.13443000  1.0
  C  C85  1  0.61964000  0.85104000  0.18358000  1.0
  C  C86  1  0.34340000  0.46511000  0.13446000  1.0
  C  C87  1  0.23133000  0.38034000  0.18356000  1.0
  C  C88  1  0.87830000  0.34337000  0.13441000  1.0
  C  C89  1  0.85104000  0.23134000  0.18353000  1.0
  C  C90  1  0.46517000  0.12173000  0.13441000  1.0
  C  C91  1  0.38042000  0.14906000  0.18353000  1.0
  C  C92  1  0.65660000  0.53487000  0.13448000  1.0
  C  C93  1  0.76863000  0.61967000  0.18361000  1.0
  C  C94  1  0.46517000  0.34339000  0.36556000  1.0
  C  C95  1  0.38040000  0.23136000  0.31644000  1.0
  C  C96  1  0.65663000  0.12169000  0.36557000  1.0
  C  C97  1  0.76874000  0.14906000  0.31647000  1.0
  C  C98  1  0.87827000  0.53482000  0.36558000  1.0
  C  C99  1  0.85095000  0.61959000  0.31649000  1.0
  C  C100  1  0.53487000  0.65661000  0.36558000  1.0
  C  C101  1  0.61960000  0.76870000  0.31650000  1.0
  C  C102  1  0.34344000  0.87830000  0.36555000  1.0
  C  C103  1  0.23136000  0.85099000  0.31643000  1.0
  C  C104  1  0.12173000  0.46511000  0.36558000  1.0
  C  C105  1  0.14899000  0.38032000  0.31645000  1.0
  O  O106  1  0.82015000  0.39661000  0.84949000  1.0
  O  O107  1  0.95893000  0.37135000  0.91993000  1.0
  O  O108  1  0.57640000  0.17973000  0.84954000  1.0
  O  O109  1  0.41236000  0.04102000  0.91997000  1.0
  O  O110  1  0.60334000  0.42359000  0.84953000  1.0
  O  O111  1  0.62868000  0.58758000  0.91998000  1.0
  O  O112  1  0.17984000  0.60340000  0.84948000  1.0
  O  O113  1  0.04109000  0.62868000  0.91994000  1.0
  O  O114  1  0.42359000  0.82023000  0.84953000  1.0
  O  O115  1  0.58762000  0.95895000  0.91996000  1.0
  O  O116  1  0.39667000  0.57641000  0.84952000  1.0
  O  O117  1  0.37131000  0.41243000  0.92001000  1.0
  O  O118  1  0.42359000  0.60339000  0.65049000  1.0
  O  O119  1  0.58762000  0.62870000  0.58002000  1.0
  O  O120  1  0.39670000  0.82025000  0.65044000  1.0
  O  O121  1  0.37131000  0.95889000  0.57997000  1.0
  O  O122  1  0.17977000  0.57638000  0.65050000  1.0
  O  O123  1  0.04106000  0.41237000  0.58009000  1.0
  O  O124  1  0.57639000  0.39660000  0.65050000  1.0
  O  O125  1  0.41236000  0.37133000  0.58004000  1.0
  O  O126  1  0.60327000  0.17973000  0.65047000  1.0
  O  O127  1  0.62870000  0.04113000  0.57999000  1.0
  O  O128  1  0.82022000  0.42357000  0.65049000  1.0
  O  O129  1  0.95890000  0.58757000  0.58005000  1.0
  O  O130  1  0.17980000  0.60334000  0.15050000  1.0
  O  O131  1  0.04110000  0.62866000  0.08001000  1.0
  O  O132  1  0.42354000  0.82020000  0.15046000  1.0
  O  O133  1  0.58759000  0.95892000  0.08003000  1.0
  O  O134  1  0.39662000  0.57636000  0.15049000  1.0
  O  O135  1  0.37134000  0.41237000  0.08007000  1.0
  O  O136  1  0.82022000  0.39661000  0.15047000  1.0
  O  O137  1  0.95892000  0.37129000  0.07998000  1.0
  O  O138  1  0.57648000  0.17977000  0.15047000  1.0
  O  O139  1  0.41244000  0.04111000  0.08001000  1.0
  O  O140  1  0.60341000  0.42361000  0.15051000  1.0
  O  O141  1  0.62867000  0.58761000  0.08008000  1.0
  O  O142  1  0.57649000  0.39662000  0.34951000  1.0
  O  O143  1  0.41245000  0.37132000  0.41998000  1.0
  O  O144  1  0.60337000  0.17975000  0.34953000  1.0
  O  O145  1  0.62870000  0.04103000  0.41995000  1.0
  O  O146  1  0.82029000  0.42358000  0.34952000  1.0
  O  O147  1  0.95891000  0.58756000  0.41999000  1.0
  O  O148  1  0.42356000  0.60332000  0.34951000  1.0
  O  O149  1  0.58760000  0.62868000  0.41999000  1.0
  O  O150  1  0.39667000  0.82022000  0.34952000  1.0
  O  O151  1  0.37136000  0.95895000  0.41992000  1.0
  O  O152  1  0.17975000  0.57636000  0.34953000  1.0
  O  O153  1  0.04109000  0.41236000  0.42000000  1.0
  O  O154  1  0.77605000  0.22381000  0.75000000  1.0
  O  O155  1  0.44768000  0.22384000  0.75002000  1.0
  O  O156  1  0.77611000  0.55225000  0.75000000  1.0
  O  O157  1  0.22392000  0.77619000  0.74998000  1.0
  O  O158  1  0.55230000  0.77614000  0.75001000  1.0
  O  O159  1  0.22391000  0.44772000  0.75001000  1.0
  O  O160  1  0.22385000  0.77610000  0.25001000  1.0
  O  O161  1  0.55225000  0.77609000  0.24999000  1.0
  O  O162  1  0.22384000  0.44767000  0.25001000  1.0
  O  O163  1  0.77617000  0.22385000  0.24999000  1.0
  O  O164  1  0.44779000  0.22387000  0.24999000  1.0
  O  O165  1  0.77623000  0.55228000  0.24999000  1.0
