# generated using pymatgen
data_Zn8H28C41O27
_symmetry_space_group_name_H-M   'P 1'
_cell_length_a   18.49300000
_cell_length_b   18.49400000
_cell_length_c   18.60860000
_cell_angle_alpha   90.60880000
_cell_angle_beta   119.09800000
_cell_angle_gamma   119.95800000
_symmetry_Int_Tables_number   1
_chemical_formula_structural   Zn8H28C41O27
_chemical_formula_sum   'Zn8 H28 C41 O27'
_cell_volume   4539.98857085
_cell_formula_units_Z   1
loop_
 _symmetry_equiv_pos_site_id
 _symmetry_equiv_pos_as_xyz
  1  'x, y, z'
loop_
 _atom_site_type_symbol
 _atom_site_label
 _atom_site_symmetry_multiplicity
 _atom_site_fract_x
 _atom_site_fract_y
 _atom_site_fract_z
 _atom_site_occupancy
  Zn  Zn0  1  0.08399000  0.95046000  0.54124000  1.0
  Zn  Zn1  1  0.08450000  0.12649000  0.54001000  1.0
  Zn  Zn2  1  0.91237000  0.95456000  0.53932000  1.0
  Zn  Zn3  1  0.91688000  0.95372000  0.36901000  1.0
  Zn  Zn4  1  0.91384000  0.54551000  0.95806000  1.0
  Zn  Zn5  1  0.08773000  0.54482000  0.96028000  1.0
  Zn  Zn6  1  0.91261000  0.37242000  0.95932000  1.0
  Zn  Zn7  1  0.08565000  0.54715000  0.13136000  1.0
  H  H8  1  0.95094000  0.60743000  0.27348000  1.0
  H  H9  1  0.95952000  0.15284000  0.23493000  1.0
  H  H10  1  0.88377000  0.18639000  0.79143000  1.0
  H  H11  1  0.83166000  0.67606000  0.22308000  1.0
  H  H12  1  0.07344000  0.34477000  0.81068000  1.0
  H  H13  1  0.90218000  0.09292000  0.71419000  1.0
  H  H14  1  0.03186000  0.26278000  0.68802000  1.0
  H  H15  1  0.59288000  0.18888000  0.80276000  1.0
  H  H16  1  0.58095000  0.34795000  0.77730000  1.0
  H  H17  1  0.40715000  0.09356000  0.69797000  1.0
  H  H18  1  0.41497000  0.26291000  0.72337000  1.0
  H  H19  1  0.01546000  0.75775000  0.68277000  1.0
  H  H20  1  0.87398000  0.72198000  0.09606000  1.0
  H  H21  1  0.04681000  0.89147000  0.22329000  1.0
  H  H22  1  0.16609000  0.82284000  0.27359000  1.0
  H  H23  1  0.12374000  0.77689000  0.40075000  1.0
  H  H24  1  0.90110000  0.70901000  0.80649000  1.0
  H  H25  1  0.08216000  0.73363000  0.81365000  1.0
  H  H26  1  0.01741000  0.91613000  0.87292000  1.0
  H  H27  1  0.90072000  0.81678000  0.84485000  1.0
  H  H28  1  0.90048000  0.90611000  0.80906000  1.0
  H  H29  1  0.40893000  0.71321000  0.31346000  1.0
  H  H30  1  0.41823000  0.69671000  0.15354000  1.0
  H  H31  1  0.59510000  0.79409000  0.40311000  1.0
  H  H32  1  0.58285000  0.80472000  0.23266000  1.0
  H  H33  1  0.11398000  0.40677000  0.31262000  1.0
  H  H34  1  0.93231000  0.23606000  0.15449000  1.0
  H  H35  1  0.10475000  0.31209000  0.40458000  1.0
  C  C36  1  0.00781000  0.13638000  0.36216000  1.0
  C  C37  1  0.98799000  0.79742000  0.68446000  1.0
  C  C38  1  0.44627000  0.72565000  0.27956000  1.0
  C  C39  1  0.99043000  0.85327000  0.62909000  1.0
  C  C40  1  0.38669000  0.68911000  0.19177000  1.0
  C  C41  1  0.55626000  0.77956000  0.33253000  1.0
  C  C42  1  0.61481000  0.81423000  0.30188000  1.0
  C  C43  1  0.05749000  0.33529000  0.27973000  1.0
  C  C44  1  0.99232000  0.30614000  0.19206000  1.0
  C  C45  1  0.05799000  0.27943000  0.33396000  1.0
  C  C46  1  0.00642000  0.19047000  0.30424000  1.0
  C  C47  1  0.92937000  0.73463000  0.16397000  1.0
  C  C48  1  0.94298000  0.21911000  0.77936000  1.0
  C  C49  1  0.01034000  0.30784000  0.81735000  1.0
  C  C50  1  0.94414000  0.16392000  0.72450000  1.0
  C  C51  1  0.27205000  0.13354000  0.64116000  1.0
  C  C52  1  0.99150000  0.19347000  0.68362000  1.0
  C  C53  1  0.55421000  0.22126000  0.77800000  1.0
  C  C54  1  0.61297000  0.31037000  0.80078000  1.0
  C  C55  1  0.44415000  0.16479000  0.72250000  1.0
  C  C56  1  0.38395000  0.19314000  0.69989000  1.0
  C  C57  1  0.27502000  0.63689000  0.13971000  1.0
  C  C58  1  0.02543000  0.82765000  0.23357000  1.0
  C  C59  1  0.72479000  0.36431000  0.85953000  1.0
  C  C60  1  0.01137000  0.64666000  0.87205000  1.0
  C  C61  1  0.99672000  0.36542000  0.13934000  1.0
  C  C62  1  0.00375000  0.36229000  0.86935000  1.0
  C  C63  1  0.72661000  0.86693000  0.35950000  1.0
  C  C64  1  0.99545000  0.64086000  0.13596000  1.0
  C  C65  1  0.99298000  0.13511000  0.63030000  1.0
  C  C66  1  0.00284000  0.85805000  0.36141000  1.0
  C  C67  1  0.90584000  0.70791000  0.23353000  1.0
  C  C68  1  0.97236000  0.67126000  0.26324000  1.0
  C  C69  1  0.09197000  0.79103000  0.26328000  1.0
  C  C70  1  0.99514000  0.69765000  0.19254000  1.0
  C  C71  1  0.93563000  0.87032000  0.82224000  1.0
  C  C72  1  0.06844000  0.76428000  0.33283000  1.0
  C  C73  1  0.00267000  0.80122000  0.30433000  1.0
  C  C74  1  0.95814000  0.73497000  0.79179000  1.0
  C  C75  1  0.02116000  0.70955000  0.82289000  1.0
  C  C76  1  0.95732000  0.79275000  0.73882000  1.0
  O  O77  1  0.00044000  0.99662000  0.49724000  1.0
  O  O78  1  0.93404000  0.32580000  0.05662000  1.0
  O  O79  1  0.06459000  0.44606000  0.89009000  1.0
  O  O80  1  0.94822000  0.05256000  0.32282000  1.0
  O  O81  1  0.05736000  0.61985000  0.17572000  1.0
  O  O82  1  0.93938000  0.32290000  0.88869000  1.0
  O  O83  1  0.93469000  0.61792000  0.05342000  1.0
  O  O84  1  0.94554000  0.62168000  0.88964000  1.0
  O  O85  1  0.06078000  0.44900000  0.17882000  1.0
  O  O86  1  0.23153000  0.61286000  0.05699000  1.0
  O  O87  1  0.76782000  0.32434000  0.88511000  1.0
  O  O88  1  0.22918000  0.05008000  0.61649000  1.0
  O  O89  1  0.05130000  0.87086000  0.60624000  1.0
  O  O90  1  0.22814000  0.17322000  0.62015000  1.0
  O  O91  1  0.76872000  0.88712000  0.44187000  1.0
  O  O92  1  0.04963000  0.17459000  0.60329000  1.0
  O  O93  1  0.93892000  0.87708000  0.32183000  1.0
  O  O94  1  0.93932000  0.05191000  0.61580000  1.0
  O  O95  1  0.06567000  0.88294000  0.44374000  1.0
  O  O96  1  0.91827000  0.83795000  0.74095000  1.0
  O  O97  1  0.77140000  0.88752000  0.32035000  1.0
  O  O98  1  0.06651000  0.17619000  0.44464000  1.0
  O  O99  1  0.93285000  0.87935000  0.60749000  1.0
  O  O100  1  0.00007000  0.50251000  0.00279000  1.0
  O  O101  1  0.23137000  0.62031000  0.17957000  1.0
  O  O102  1  0.76913000  0.44832000  0.87998000  1.0
  O  O103  1  0.07129000  0.62306000  0.89285000  1.0
