# generated using pymatgen
data_Zn4H43C69N17Cl4
_symmetry_space_group_name_H-M   'P 1'
_cell_length_a   15.69000000
_cell_length_b   17.85190000
_cell_length_c   19.04334179
_cell_angle_alpha   62.69739681
_cell_angle_beta   68.30992622
_cell_angle_gamma   82.55690000
_symmetry_Int_Tables_number   1
_chemical_formula_structural   Zn4H43C69N17Cl4
_chemical_formula_sum   'Zn4 H43 C69 N17 Cl4'
_cell_volume   4398.98932585
_cell_formula_units_Z   1
loop_
 _symmetry_equiv_pos_site_id
 _symmetry_equiv_pos_as_xyz
  1  'x, y, z'
loop_
 _atom_site_type_symbol
 _atom_site_label
 _atom_site_symmetry_multiplicity
 _atom_site_fract_x
 _atom_site_fract_y
 _atom_site_fract_z
 _atom_site_occupancy
  Zn  Zn0  1  0.37869000  0.10141000  0.99843000  1.0
  Zn  Zn1  1  0.62405000  0.91906000  0.97511000  1.0
  Zn  Zn2  1  0.45280000  0.99448000  0.87838000  1.0
  Zn  Zn3  1  0.54669000  0.02965000  0.08978000  1.0
  H  H4  1  0.14579000  0.06614000  0.06313000  1.0
  H  H5  1  0.80543000  0.00148000  0.80766000  1.0
  H  H6  1  0.47095000  0.17766000  0.68597000  1.0
  H  H7  1  0.73899000  0.08106000  0.09161000  1.0
  H  H8  1  0.84475000  0.95999000  0.92646000  1.0
  H  H9  1  0.52698000  0.24998000  0.85362000  1.0
  H  H10  1  0.60162000  0.21340000  0.05921000  1.0
  H  H11  1  0.60199000  0.08137000  0.68741000  1.0
  H  H12  1  0.11889000  0.01865000  0.51756000  1.0
  H  H13  1  0.25187000  0.98999000  0.41364000  1.0
  H  H14  1  0.17296000  0.18406000  0.21153000  1.0
  H  H15  1  0.68096000  0.74334000  0.13052000  1.0
  H  H16  1  0.03952000  0.21219000  0.31561000  1.0
  H  H17  1  0.89635000  0.12309000  0.67916000  1.0
  H  H18  1  0.04008000  0.14761000  0.55729000  1.0
  H  H19  1  0.75703000  0.55496000  0.36206000  1.0
  H  H20  1  0.70207000  0.64932000  0.24717000  1.0
  H  H21  1  0.49110000  0.73934000  0.39949000  1.0
  H  H22  1  0.51077000  0.61490000  0.52122000  1.0
  H  H23  1  0.60159000  0.53399000  0.61147000  1.0
  H  H24  1  0.37318000  0.80490000  0.92109000  1.0
  H  H25  1  0.54962000  0.39705000  0.73666000  1.0
  H  H26  1  0.58724000  0.28025000  0.57345000  1.0
  H  H27  1  0.31966000  0.68183000  0.97700000  1.0
  H  H28  1  0.52458000  0.42010000  0.18035000  1.0
  H  H29  1  0.30449000  0.54413000  0.98187000  1.0
  H  H30  1  0.53612000  0.29637000  0.15636000  1.0
  H  H31  1  0.37047000  0.40870000  0.99987000  1.0
  H  H32  1  0.83590000  0.71206000  0.14195000  1.0
  H  H33  1  0.73923000  0.77046000  0.35376000  1.0
  H  H34  1  0.97690000  0.78557000  0.02113000  1.0
  H  H35  1  0.87106000  0.87264000  0.28626000  1.0
  H  H36  1  0.11382000  0.88035000  0.95836000  1.0
  H  H37  1  0.02034000  0.93578000  0.17188000  1.0
  H  H38  1  0.53914000  0.73241000  0.07759000  1.0
  H  H39  1  0.21168000  0.04632000  0.16934000  1.0
  H  H40  1  0.48262000  0.86670000  0.26854000  1.0
  H  H41  1  0.26526000  0.88404000  0.96791000  1.0
  H  H42  1  0.33813000  0.27282000  0.02658000  1.0
  H  H43  1  0.52211000  0.52615000  0.17631000  1.0
  H  H44  1  0.47557000  0.60711000  0.24987000  1.0
  H  H45  1  0.37188000  0.56480000  0.25998000  1.0
  H  H46  1  0.41150000  0.67083000  0.18545000  1.0
  C  C47  1  0.18967000  0.02779000  0.03464000  1.0
  C  C48  1  0.59041000  0.77907000  0.23413000  1.0
  C  C49  1  0.43898000  0.72986000  0.01922000  1.0
  C  C50  1  0.28767000  0.05699000  0.24406000  1.0
  C  C51  1  0.40390000  0.24765000  0.03067000  1.0
  C  C52  1  0.74407000  0.01452000  0.79120000  1.0
  C  C53  1  0.47811000  0.18252000  0.73837000  1.0
  C  C54  1  0.75099000  0.04961000  0.05182000  1.0
  C  C55  1  0.80423000  0.98838000  0.96750000  1.0
  C  C56  1  0.50651000  0.21995000  0.82364000  1.0
  C  C57  1  0.53755000  0.21652000  0.04852000  1.0
  C  C58  1  0.63106000  0.78344000  0.15195000  1.0
  C  C59  1  0.64006000  0.05478000  0.72996000  1.0
  C  C60  1  0.46649000  0.27289000  0.05362000  1.0
  C  C61  1  0.73567000  0.05651000  0.71120000  1.0
  C  C62  1  0.51978000  0.24800000  0.73808000  1.0
  C  C63  1  0.83250000  0.02907000  0.00327000  1.0
  C  C64  1  0.13133000  0.05574000  0.45021000  1.0
  C  C65  1  0.20594000  0.03934000  0.39178000  1.0
  C  C66  1  0.21892000  0.08182000  0.30539000  1.0
  C  C67  1  0.16026000  0.14687000  0.27891000  1.0
  C  C68  1  0.08569000  0.16310000  0.33731000  1.0
  C  C69  1  0.41765000  0.80083000  0.95475000  1.0
  C  C70  1  0.06752000  0.11481000  0.42421000  1.0
  C  C71  1  0.89565000  0.09401000  0.49021000  1.0
  C  C72  1  0.81403000  0.07943000  0.55984000  1.0
  C  C73  1  0.81341000  0.08570000  0.63128000  1.0
  C  C74  1  0.89616000  0.11371000  0.62652000  1.0
  C  C75  1  0.97676000  0.12782000  0.55796000  1.0
  C  C76  1  0.97940000  0.11596000  0.48926000  1.0
  C  C77  1  0.69948000  0.59502000  0.37115000  1.0
  C  C78  1  0.69623000  0.67206000  0.29394000  1.0
  C  C79  1  0.60875000  0.71899000  0.30697000  1.0
  C  C80  1  0.38090000  0.04120000  0.23146000  1.0
  C  C81  1  0.55026000  0.70096000  0.38953000  1.0
  C  C82  1  0.56102000  0.63055000  0.45821000  1.0
  C  C83  1  0.63211000  0.57254000  0.44846000  1.0
  C  C84  1  0.59828000  0.47797000  0.60320000  1.0
  C  C85  1  0.56931000  0.40062000  0.67394000  1.0
  C  C86  1  0.56093000  0.32791000  0.66544000  1.0
  C  C87  1  0.58922000  0.33538000  0.58331000  1.0
  C  C88  1  0.61818000  0.41319000  0.51290000  1.0
  C  C89  1  0.62105000  0.48771000  0.52059000  1.0
  C  C90  1  0.41171000  0.64232000  0.04792000  1.0
  C  C91  1  0.50236000  0.76443000  0.03443000  1.0
  C  C92  1  0.45670000  0.34429000  0.07330000  1.0
  C  C93  1  0.49142000  0.42032000  0.13894000  1.0
  C  C94  1  0.49859000  0.34954000  0.12559000  1.0
  C  C95  1  0.40416000  0.41062000  0.04000000  1.0
  C  C96  1  0.39691000  0.48405000  0.05133000  1.0
  C  C97  1  0.44440000  0.49181000  0.09942000  1.0
  C  C98  1  0.44699000  0.57139000  0.10087000  1.0
  C  C99  1  0.35482000  0.62864000  0.01086000  1.0
  C  C100  1  0.34635000  0.55231000  0.01284000  1.0
  C  C101  1  0.77975000  0.73368000  0.25221000  1.0
  C  C102  1  0.27477000  0.04316000  0.18153000  1.0
  C  C103  1  0.07802000  0.91269000  0.06244000  1.0
  C  C104  1  0.98672000  0.81795000  0.05446000  1.0
  C  C105  1  0.06317000  0.87039000  0.01978000  1.0
  C  C106  1  0.01063000  0.90400000  0.13799000  1.0
  C  C107  1  0.93118000  0.85035000  0.17544000  1.0
  C  C108  1  0.91991000  0.80449000  0.13403000  1.0
  C  C109  1  0.84344000  0.74676000  0.17417000  1.0
  C  C110  1  0.79029000  0.77998000  0.29260000  1.0
  C  C111  1  0.86363000  0.83702000  0.25493000  1.0
  C  C112  1  0.52779000  0.84519000  0.22305000  1.0
  C  C113  1  0.25098000  0.93614000  0.98438000  1.0
  C  C114  1  0.16613000  0.95839000  0.02845000  1.0
  C  C115  1  0.43373000  0.60657000  0.21486000  1.0
  N  N116  1  0.28119000  0.04544000  0.99582000  1.0
  N  N117  1  0.66048000  0.98845000  0.85137000  1.0
  N  N118  1  0.44224000  0.12130000  0.81734000  1.0
  N  N119  1  0.67805000  0.02348000  0.04447000  1.0
  N  N120  1  0.71098000  0.98597000  0.99140000  1.0
  N  N121  1  0.46023000  0.14415000  0.87069000  1.0
  N  N122  1  0.51855000  0.16191000  0.02440000  1.0
  N  N123  1  0.59601000  0.01424000  0.81382000  1.0
  N  N124  1  0.59511000  0.84460000  0.09995000  1.0
  N  N125  1  0.46494000  0.87007000  0.93365000  1.0
  N  N126  1  0.41900000  0.02055000  0.16714000  1.0
  N  N127  1  0.51738000  0.84817000  0.98327000  1.0
  N  N128  1  0.35360000  0.02177000  0.13523000  1.0
  N  N129  1  0.53263000  0.88522000  0.14252000  1.0
  N  N130  1  0.31940000  0.98788000  0.96570000  1.0
  N  N131  1  0.43560000  0.18200000  0.01385000  1.0
  N  N132  1  0.48974000  0.57925000  0.15038000  1.0
  Cl  Cl133  1  0.89324000  0.07681000  0.40868000  1.0
  Cl  Cl134  1  0.71543000  0.04708000  0.55890000  1.0
  Cl  Cl135  1  0.64424000  0.41445000  0.41509000  1.0
  Cl  Cl136  1  0.44687000  0.04761000  0.28292000  1.0
