# generated using pymatgen
data_HgH10C6(NF3)2
_symmetry_space_group_name_H-M   'P 1'
_cell_length_a   7.78516000
_cell_length_b   8.95488000
_cell_length_c   9.37234258
_cell_angle_alpha   61.46192202
_cell_angle_beta   83.92061780
_cell_angle_gamma   77.18820000
_symmetry_Int_Tables_number   1
_chemical_formula_structural   HgH10C6(NF3)2
_chemical_formula_sum   'Hg2 H20 C12 N4 F12'
_cell_volume   559.71628623
_cell_formula_units_Z   2
loop_
 _symmetry_equiv_pos_site_id
 _symmetry_equiv_pos_as_xyz
  1  'x, y, z'
loop_
 _atom_site_type_symbol
 _atom_site_label
 _atom_site_symmetry_multiplicity
 _atom_site_fract_x
 _atom_site_fract_y
 _atom_site_fract_z
 _atom_site_occupancy
  Hg  Hg0  1  0.74997000  0.39726000  0.20551000  1.0
  Hg  Hg1  1  0.25003000  0.60275000  0.79448000  1.0
  H  H2  1  0.75088000  0.49835000  0.47838000  1.0
  H  H3  1  0.74911000  0.02329000  0.47837000  1.0
  H  H4  1  0.24912000  0.50165000  0.52162000  1.0
  H  H5  1  0.25089000  0.97671000  0.52163000  1.0
  H  H6  1  0.84971000  0.72943000  0.24926000  1.0
  H  H7  1  0.65029000  0.02131000  0.24927000  1.0
  H  H8  1  0.15029000  0.27057000  0.75074000  1.0
  H  H9  1  0.34971000  0.97869000  0.75073000  1.0
  H  H10  1  0.05627000  0.59217000  0.26332000  1.0
  H  H11  1  0.44372000  0.14451000  0.26331000  1.0
  H  H12  1  0.94373000  0.40783000  0.73668000  1.0
  H  H13  1  0.55628000  0.85549000  0.73669000  1.0
  H  H14  1  0.09575000  0.27900000  0.48992000  1.0
  H  H15  1  0.40425000  0.23109000  0.48990000  1.0
  H  H16  1  0.90425000  0.72100000  0.51008000  1.0
  H  H17  1  0.59575000  0.76890000  0.51010000  1.0
  H  H18  1  0.91480000  0.21680000  0.62204000  1.0
  H  H19  1  0.58521000  0.16116000  0.62203000  1.0
  H  H20  1  0.08520000  0.78320000  0.37796000  1.0
  H  H21  1  0.41479000  0.83883000  0.37797000  1.0
  C  C22  1  0.99182000  0.23905000  0.18447000  1.0
  C  C23  1  0.50813000  0.57650000  0.18446000  1.0
  C  C24  1  0.00818000  0.76095000  0.81553000  1.0
  C  C25  1  0.49187000  0.42351000  0.81553000  1.0
  C  C26  1  0.94654000  0.62232000  0.33567000  1.0
  C  C27  1  0.55345000  0.04201000  0.33567000  1.0
  C  C28  1  0.05346000  0.37768000  0.66433000  1.0
  C  C29  1  0.44655000  0.95799000  0.66433000  1.0
  C  C30  1  0.98440000  0.32445000  0.55190000  1.0
  C  C31  1  0.51560000  0.12366000  0.55189000  1.0
  C  C32  1  0.01560000  0.67556000  0.44809000  1.0
  C  C33  1  0.48440000  0.87634000  0.44811000  1.0
  N  N34  1  0.86568000  0.46817000  0.42526000  1.0
  N  N35  1  0.63431000  0.10657000  0.42525000  1.0
  N  N36  1  0.13432000  0.53183000  0.57474000  1.0
  N  N37  1  0.36569000  0.89343000  0.57475000  1.0
  F  F38  1  0.99136000  0.18607000  0.06899000  1.0
  F  F39  1  0.50856000  0.74495000  0.06895000  1.0
  F  F40  1  0.00864000  0.81392000  0.93102000  1.0
  F  F41  1  0.49144000  0.25506000  0.93105000  1.0
  F  F42  1  0.03695000  0.08582000  0.32878000  1.0
  F  F43  1  0.46302000  0.58544000  0.32876000  1.0
  F  F44  1  0.96305000  0.91417000  0.67123000  1.0
  F  F45  1  0.53698000  0.41455000  0.67124000  1.0
  F  F46  1  0.13589000  0.31726000  0.14951000  1.0
  F  F47  1  0.36408000  0.53321000  0.14953000  1.0
  F  F48  1  0.86411000  0.68275000  0.85048000  1.0
  F  F49  1  0.63592000  0.46680000  0.85047000  1.0
