# generated using pymatgen
data_Zn3H22(C15O8)2
_symmetry_space_group_name_H-M   'P 1'
_cell_length_a   7.54961000
_cell_length_b   13.75960000
_cell_length_c   17.48610000
_cell_angle_alpha   90.00120000
_cell_angle_beta   90.00050000
_cell_angle_gamma   79.28400000
_symmetry_Int_Tables_number   1
_chemical_formula_structural   Zn3H22(C15O8)2
_chemical_formula_sum   'Zn6 H44 C60 O32'
_cell_volume   1784.77209122
_cell_formula_units_Z   2
loop_
 _symmetry_equiv_pos_site_id
 _symmetry_equiv_pos_as_xyz
  1  'x, y, z'
loop_
 _atom_site_type_symbol
 _atom_site_label
 _atom_site_symmetry_multiplicity
 _atom_site_fract_x
 _atom_site_fract_y
 _atom_site_fract_z
 _atom_site_occupancy
  Zn  Zn0  1  0.70079000  0.99391000  0.95849000  1.0
  Zn  Zn1  1  0.29919000  0.00611000  0.45849000  1.0
  Zn  Zn2  1  0.39535000  0.85458000  0.90555000  1.0
  Zn  Zn3  1  0.60464000  0.14543000  0.40555000  1.0
  Zn  Zn4  1  0.95006000  0.16457000  0.02305000  1.0
  Zn  Zn5  1  0.04995000  0.83542000  0.52305000  1.0
  H  H6  1  0.57451000  0.98965000  0.18827000  1.0
  H  H7  1  0.42548000  0.01035000  0.68826000  1.0
  H  H8  1  0.54333000  0.77657000  0.36407000  1.0
  H  H9  1  0.45667000  0.22343000  0.86407000  1.0
  H  H10  1  0.45159000  0.70586000  0.12860000  1.0
  H  H11  1  0.54841000  0.29413000  0.62860000  1.0
  H  H12  1  0.32041000  0.68785000  0.37774000  1.0
  H  H13  1  0.67961000  0.31216000  0.87774000  1.0
  H  H14  1  0.28352000  0.52473000  0.42675000  1.0
  H  H15  1  0.71648000  0.47527000  0.92676000  1.0
  H  H16  1  0.59085000  0.38283000  0.23713000  1.0
  H  H17  1  0.40914000  0.61717000  0.73714000  1.0
  H  H18  1  0.61726000  0.54664000  0.18406000  1.0
  H  H19  1  0.38275000  0.45336000  0.68406000  1.0
  H  H20  1  0.94816000  0.99221000  0.73473000  1.0
  H  H21  1  0.05183000  0.00779000  0.23473000  1.0
  H  H22  1  0.05550000  0.20741000  0.57196000  1.0
  H  H23  1  0.94449000  0.79259000  0.07195000  1.0
  H  H24  1  0.97885000  0.28538000  0.81021000  1.0
  H  H25  1  0.02114000  0.71463000  0.31020000  1.0
  H  H26  1  0.18317000  0.33293000  0.56434000  1.0
  H  H27  1  0.81684000  0.66706000  0.06433000  1.0
  H  H28  1  0.15372000  0.50706000  0.52603000  1.0
  H  H29  1  0.84630000  0.49292000  0.02602000  1.0
  H  H30  1  0.83519000  0.59902000  0.72576000  1.0
  H  H31  1  0.16483000  0.40098000  0.22576000  1.0
  H  H32  1  0.87155000  0.42577000  0.76767000  1.0
  H  H33  1  0.12846000  0.57424000  0.26766000  1.0
  H  H34  1  0.30367000  0.10116000  0.98987000  1.0
  H  H35  1  0.69632000  0.89882000  0.48986000  1.0
  H  H36  1  0.24488000  0.17571000  0.06361000  1.0
  H  H37  1  0.75511000  0.82427000  0.56360000  1.0
  H  H38  1  0.72772000  0.77523000  0.90784000  1.0
  H  H39  1  0.27227000  0.22477000  0.40784000  1.0
  H  H40  1  0.78413000  0.86091000  0.85354000  1.0
  H  H41  1  0.21586000  0.13909000  0.35353000  1.0
  H  H42  1  0.61775000  0.14919000  0.08073000  1.0
  H  H43  1  0.38224000  0.85081000  0.58073000  1.0
  H  H44  1  0.54213000  0.22052000  0.01428000  1.0
  H  H45  1  0.45785000  0.77945000  0.51429000  1.0
  H  H46  1  0.12071000  0.77179000  0.92237000  1.0
  H  H47  1  0.87928000  0.22821000  0.42238000  1.0
  H  H48  1  0.06282000  0.87822000  0.96144000  1.0
  H  H49  1  0.93716000  0.12178000  0.46145000  1.0
  C  C50  1  0.51330000  0.85021000  0.15007000  1.0
  C  C51  1  0.48671000  0.14979000  0.65007000  1.0
  C  C52  1  0.55168000  0.91703000  0.20531000  1.0
  C  C53  1  0.44832000  0.08297000  0.70531000  1.0
  C  C54  1  0.55853000  0.89072000  0.28241000  1.0
  C  C55  1  0.44146000  0.10928000  0.78241000  1.0
  C  C56  1  0.53264000  0.79657000  0.30380000  1.0
  C  C57  1  0.46737000  0.20344000  0.80380000  1.0
  C  C58  1  0.49607000  0.72798000  0.24970000  1.0
  C  C59  1  0.50394000  0.27202000  0.74970000  1.0
  C  C60  1  0.48397000  0.75644000  0.17222000  1.0
  C  C61  1  0.51604000  0.24356000  0.67222000  1.0
  C  C62  1  0.51284000  0.88139000  0.06769000  1.0
  C  C63  1  0.48716000  0.11861000  0.56769000  1.0
  C  C64  1  0.58344000  0.96303000  0.34263000  1.0
  C  C65  1  0.41654000  0.03698000  0.84263000  1.0
  C  C66  1  0.47236000  0.62947000  0.27719000  1.0
  C  C67  1  0.52765000  0.37053000  0.77719000  1.0
  C  C68  1  0.38134000  0.62135000  0.34658000  1.0
  C  C69  1  0.61867000  0.37866000  0.84658000  1.0
  C  C70  1  0.35942000  0.52955000  0.37436000  1.0
  C  C71  1  0.64059000  0.47046000  0.87437000  1.0
  C  C72  1  0.43562000  0.44288000  0.33538000  1.0
  C  C73  1  0.56439000  0.55712000  0.83539000  1.0
  C  C74  1  0.52970000  0.45022000  0.26705000  1.0
  C  C75  1  0.47031000  0.54978000  0.76705000  1.0
  C  C76  1  0.54404000  0.54238000  0.23736000  1.0
  C  C77  1  0.45597000  0.45762000  0.73736000  1.0
  C  C78  1  0.42183000  0.34328000  0.36663000  1.0
  C  C79  1  0.57818000  0.65672000  0.86664000  1.0
  C  C80  1  0.95127000  0.13823000  0.77965000  1.0
  C  C81  1  0.04872000  0.86178000  0.27965000  1.0
  C  C82  1  0.96667000  0.06705000  0.72220000  1.0
  C  C83  1  0.03332000  0.93295000  0.22220000  1.0
  C  C84  1  0.01098000  0.09240000  0.64824000  1.0
  C  C85  1  0.98902000  0.90759000  0.14824000  1.0
  C  C86  1  0.02904000  0.18920000  0.63097000  1.0
  C  C87  1  0.97096000  0.81079000  0.13096000  1.0
  C  C88  1  0.01580000  0.26158000  0.68815000  1.0
  C  C89  1  0.98420000  0.73843000  0.18815000  1.0
  C  C90  1  0.98309000  0.23316000  0.76323000  1.0
  C  C91  1  0.01691000  0.76684000  0.26323000  1.0
  C  C92  1  0.89979000  0.11355000  0.85880000  1.0
  C  C93  1  0.10021000  0.88646000  0.35879000  1.0
  C  C94  1  0.04756000  0.01432000  0.58944000  1.0
  C  C95  1  0.95243000  0.98568000  0.08944000  1.0
  C  C96  1  0.02395000  0.36511000  0.66835000  1.0
  C  C97  1  0.97606000  0.63489000  0.16834000  1.0
  C  C98  1  0.10649000  0.39007000  0.60074000  1.0
  C  C99  1  0.89353000  0.60992000  0.10073000  1.0
  C  C100  1  0.09066000  0.48850000  0.57867000  1.0
  C  C101  1  0.90936000  0.51149000  0.07865000  1.0
  C  C102  1  0.98769000  0.56428000  0.62210000  1.0
  C  C103  1  0.01233000  0.43572000  0.12209000  1.0
  C  C104  1  0.91328000  0.54040000  0.69123000  1.0
  C  C105  1  0.08674000  0.45960000  0.19122000  1.0
  C  C106  1  0.93447000  0.44247000  0.71456000  1.0
  C  C107  1  0.06554000  0.55753000  0.21455000  1.0
  C  C108  1  0.94842000  0.66849000  0.59371000  1.0
  C  C109  1  0.05159000  0.33150000  0.09370000  1.0
  O  O110  1  0.43892000  0.83372000  0.01814000  1.0
  O  O111  1  0.56108000  0.16629000  0.51814000  1.0
  O  O112  1  0.22549000  0.11396000  0.03536000  1.0
  O  O113  1  0.77452000  0.88602000  0.53534000  1.0
  O  O114  1  0.59178000  0.95379000  0.05408000  1.0
  O  O115  1  0.40822000  0.04621000  0.55408000  1.0
  O  O116  1  0.72263000  0.85241000  0.90143000  1.0
  O  O117  1  0.27735000  0.14760000  0.40143000  1.0
  O  O118  1  0.62845000  0.04429000  0.32320000  1.0
  O  O119  1  0.37152000  0.95572000  0.82320000  1.0
  O  O120  1  0.63587000  0.16406000  0.02704000  1.0
  O  O121  1  0.36413000  0.83593000  0.52704000  1.0
  O  O122  1  0.55156000  0.94282000  0.41261000  1.0
  O  O123  1  0.44842000  0.05720000  0.91261000  1.0
  O  O124  1  0.12661000  0.84144000  0.91675000  1.0
  O  O125  1  0.87338000  0.15856000  0.41676000  1.0
  O  O126  1  0.28207000  0.33122000  0.40339000  1.0
  O  O127  1  0.71793000  0.66879000  0.90341000  1.0
  O  O128  1  0.55880000  0.27473000  0.35314000  1.0
  O  O129  1  0.44120000  0.72528000  0.85314000  1.0
  O  O130  1  0.82682000  0.03779000  0.86738000  1.0
  O  O131  1  0.17317000  0.96222000  0.36738000  1.0
  O  O132  1  0.92967000  0.17261000  0.91137000  1.0
  O  O133  1  0.07034000  0.82738000  0.41137000  1.0
  O  O134  1  0.08006000  0.92482000  0.61184000  1.0
  O  O135  1  0.91994000  0.07518000  0.11184000  1.0
  O  O136  1  0.05068000  0.03746000  0.51793000  1.0
  O  O137  1  0.94931000  0.96254000  0.01792000  1.0
  O  O138  1  0.07672000  0.69716000  0.55603000  1.0
  O  O139  1  0.92330000  0.30284000  0.05603000  1.0
  O  O140  1  0.79455000  0.72014000  0.60721000  1.0
  O  O141  1  0.20547000  0.27985000  0.10721000  1.0
