# generated using pymatgen
data_MnH26C24(NO2)2
_symmetry_space_group_name_H-M   'P 1'
_cell_length_a   8.62666000
_cell_length_b   9.85601000
_cell_length_c   15.45560000
_cell_angle_alpha   107.48810000
_cell_angle_beta   91.20160000
_cell_angle_gamma   102.85950000
_symmetry_Int_Tables_number   1
_chemical_formula_structural   MnH26C24(NO2)2
_chemical_formula_sum   'Mn2 H52 C48 N4 O8'
_cell_volume   1216.46337920
_cell_formula_units_Z   2
loop_
 _symmetry_equiv_pos_site_id
 _symmetry_equiv_pos_as_xyz
  1  'x, y, z'
loop_
 _atom_site_type_symbol
 _atom_site_label
 _atom_site_symmetry_multiplicity
 _atom_site_fract_x
 _atom_site_fract_y
 _atom_site_fract_z
 _atom_site_occupancy
  Mn  Mn0  1  0.05408000  0.83085000  0.41081000  1.0
  Mn  Mn1  1  0.94593000  0.16915000  0.58919000  1.0
  H  H2  1  0.75273000  0.63284000  0.28867000  1.0
  H  H3  1  0.24728000  0.36717000  0.71133000  1.0
  H  H4  1  0.36137000  0.03371000  0.52701000  1.0
  H  H5  1  0.63863000  0.96630000  0.47299000  1.0
  H  H6  1  0.58161000  0.24134000  0.53032000  1.0
  H  H7  1  0.41839000  0.75867000  0.46968000  1.0
  H  H8  1  0.46313000  0.91187000  0.29882000  1.0
  H  H9  1  0.53687000  0.08813000  0.70118000  1.0
  H  H10  1  0.59436000  0.79783000  0.30107000  1.0
  H  H11  1  0.40564000  0.20216000  0.69893000  1.0
  H  H12  1  0.69829000  0.15149000  0.32659000  1.0
  H  H13  1  0.30171000  0.84851000  0.67341000  1.0
  H  H14  1  0.86694000  0.13109000  0.26758000  1.0
  H  H15  1  0.13306000  0.86891000  0.73241000  1.0
  H  H16  1  0.33278000  0.26643000  0.29049000  1.0
  H  H17  1  0.66723000  0.73357000  0.70951000  1.0
  H  H18  1  0.12506000  0.05224000  0.29709000  1.0
  H  H19  1  0.87494000  0.94777000  0.70291000  1.0
  H  H20  1  0.37158000  0.55456000  0.24565000  1.0
  H  H21  1  0.62842000  0.44544000  0.75436000  1.0
  H  H22  1  0.22883000  0.53402000  0.15442000  1.0
  H  H23  1  0.77117000  0.46598000  0.84559000  1.0
  H  H24  1  0.46042000  0.54069000  0.06373000  1.0
  H  H25  1  0.53957000  0.45930000  0.93627000  1.0
  H  H26  1  0.59638000  0.57924000  0.16015000  1.0
  H  H27  1  0.40362000  0.42075000  0.83985000  1.0
  H  H28  1  0.50229000  0.70766000  0.96353000  1.0
  H  H29  1  0.49770000  0.29233000  0.03648000  1.0
  H  H30  1  0.66624000  0.86354000  0.99227000  1.0
  H  H31  1  0.33375000  0.13645000  0.00772000  1.0
  H  H32  1  0.94530000  0.63734000  0.53644000  1.0
  H  H33  1  0.05471000  0.36266000  0.46356000  1.0
  H  H34  1  0.53106000  0.41846000  0.27949000  1.0
  H  H35  1  0.46894000  0.58155000  0.72051000  1.0
  H  H36  1  0.66906000  0.08109000  0.13241000  1.0
  H  H37  1  0.33094000  0.91890000  0.86759000  1.0
  H  H38  1  0.50698000  0.07750000  0.20117000  1.0
  H  H39  1  0.49302000  0.92250000  0.79883000  1.0
  H  H40  1  0.26852000  0.85163000  0.15868000  1.0
  H  H41  1  0.73148000  0.14836000  0.84132000  1.0
  H  H42  1  0.27063000  0.70068000  0.06198000  1.0
  H  H43  1  0.72937000  0.29932000  0.93802000  1.0
  H  H44  1  0.83463000  0.80336000  0.19998000  1.0
  H  H45  1  0.16537000  0.19664000  0.80002000  1.0
  H  H46  1  0.85808000  0.92071000  0.13182000  1.0
  H  H47  1  0.14192000  0.07929000  0.86818000  1.0
  H  H48  1  0.73338000  0.42378000  0.54029000  1.0
  H  H49  1  0.26663000  0.57623000  0.45970000  1.0
  H  H50  1  0.41217000  0.93608000  0.03879000  1.0
  H  H51  1  0.58783000  0.06392000  0.96121000  1.0
  H  H52  1  0.73669000  0.66012000  0.03867000  1.0
  H  H53  1  0.26331000  0.33988000  0.96133000  1.0
  C  C54  1  0.74256000  0.58242000  0.34280000  1.0
  C  C55  1  0.25745000  0.41758000  0.65720000  1.0
  C  C56  1  0.47872000  0.27551000  0.41015000  1.0
  C  C57  1  0.52128000  0.72449000  0.58984000  1.0
  C  C58  1  0.35924000  0.08871000  0.47581000  1.0
  C  C59  1  0.64076000  0.91130000  0.52420000  1.0
  C  C60  1  0.60892000  0.40159000  0.41024000  1.0
  C  C61  1  0.39108000  0.59841000  0.58976000  1.0
  C  C62  1  0.48337000  0.20602000  0.47690000  1.0
  C  C63  1  0.51664000  0.79399000  0.52310000  1.0
  C  C64  1  0.20337000  0.68557000  0.28205000  1.0
  C  C65  1  0.79663000  0.31443000  0.71796000  1.0
  C  C66  1  0.53695000  0.84461000  0.25656000  1.0
  C  C67  1  0.46304000  0.15539000  0.74344000  1.0
  C  C68  1  0.84573000  0.03997000  0.37597000  1.0
  C  C69  1  0.15427000  0.96003000  0.62404000  1.0
  C  C70  1  0.66599000  0.94329000  0.21951000  1.0
  C  C71  1  0.33400000  0.05671000  0.78050000  1.0
  C  C72  1  0.76855000  0.07153000  0.29689000  1.0
  C  C73  1  0.23145000  0.92846000  0.70311000  1.0
  C  C74  1  0.42992000  0.72028000  0.17815000  1.0
  C  C75  1  0.57008000  0.27971000  0.82185000  1.0
  C  C76  1  0.34633000  0.21845000  0.34428000  1.0
  C  C77  1  0.65367000  0.78155000  0.65572000  1.0
  C  C78  1  0.22776000  0.09972000  0.34806000  1.0
  C  C79  1  0.77225000  0.90029000  0.65194000  1.0
  C  C80  1  0.30702000  0.61393000  0.21346000  1.0
  C  C81  1  0.69298000  0.38607000  0.78655000  1.0
  C  C82  1  0.53668000  0.63053000  0.11916000  1.0
  C  C83  1  0.46331000  0.36946000  0.88084000  1.0
  C  C84  1  0.57714000  0.79456000  0.02121000  1.0
  C  C85  1  0.42285000  0.20543000  0.97879000  1.0
  C  C86  1  0.84988000  0.58467000  0.48123000  1.0
  C  C87  1  0.15013000  0.41533000  0.51877000  1.0
  C  C88  1  0.61870000  0.46279000  0.33873000  1.0
  C  C89  1  0.38131000  0.53722000  0.66127000  1.0
  C  C90  1  0.57971000  0.00875000  0.15916000  1.0
  C  C91  1  0.42029000  0.99125000  0.84084000  1.0
  C  C92  1  0.34751000  0.78867000  0.11841000  1.0
  C  C93  1  0.65249000  0.21132000  0.88159000  1.0
  C  C94  1  0.76829000  0.84956000  0.15918000  1.0
  C  C95  1  0.23171000  0.15044000  0.84082000  1.0
  C  C96  1  0.73017000  0.46530000  0.48257000  1.0
  C  C97  1  0.26983000  0.53470000  0.51743000  1.0
  C  C98  1  0.47326000  0.88673000  0.08029000  1.0
  C  C99  1  0.52674000  0.11326000  0.91971000  1.0
  C  C100  1  0.66209000  0.72732000  0.08024000  1.0
  C  C101  1  0.33790000  0.27267000  0.91976000  1.0
  N  N102  1  0.85664000  0.64405000  0.41311000  1.0
  N  N103  1  0.14337000  0.35596000  0.58689000  1.0
  N  N104  1  0.23185000  0.03568000  0.41346000  1.0
  N  N105  1  0.76815000  0.96433000  0.58654000  1.0
  O  O106  1  0.87770000  0.14496000  0.45107000  1.0
  O  O107  1  0.12230000  0.85505000  0.54893000  1.0
  O  O108  1  0.87514000  0.91534000  0.36387000  1.0
  O  O109  1  0.12486000  0.08466000  0.63613000  1.0
  O  O110  1  0.23437000  0.70010000  0.36674000  1.0
  O  O111  1  0.76561000  0.29990000  0.63326000  1.0
  O  O112  1  0.09026000  0.73289000  0.25709000  1.0
  O  O113  1  0.90974000  0.26711000  0.74291000  1.0
