# generated using pymatgen
data_CuH14C16N2O11
_symmetry_space_group_name_H-M   'P 1'
_cell_length_a   6.19041000
_cell_length_b   7.22409998
_cell_length_c   23.08100000
_cell_angle_alpha   89.39307352
_cell_angle_beta   88.61040000
_cell_angle_gamma   64.67375582
_symmetry_Int_Tables_number   1
_chemical_formula_structural   CuH14C16N2O11
_chemical_formula_sum   'Cu2 H28 C32 N4 O22'
_cell_volume   932.70440416
_cell_formula_units_Z   2
loop_
 _symmetry_equiv_pos_site_id
 _symmetry_equiv_pos_as_xyz
  1  'x, y, z'
loop_
 _atom_site_type_symbol
 _atom_site_label
 _atom_site_symmetry_multiplicity
 _atom_site_fract_x
 _atom_site_fract_y
 _atom_site_fract_z
 _atom_site_occupancy
  Cu  Cu0  1  0.20203000  0.59640000  0.75003000  1.0
  Cu  Cu1  1  0.79797000  0.40359000  0.24997000  1.0
  H  H2  1  0.40416000  0.94050000  0.09304000  1.0
  H  H3  1  0.65571000  0.94071000  0.40689000  1.0
  H  H4  1  0.59584000  0.05949000  0.90696000  1.0
  H  H5  1  0.34429000  0.05930000  0.59311000  1.0
  H  H6  1  0.86706000  0.03536000  0.73563000  1.0
  H  H7  1  0.09742000  0.03555000  0.76440000  1.0
  H  H8  1  0.13293000  0.96464000  0.26437000  1.0
  H  H9  1  0.90258000  0.96445000  0.23560000  1.0
  H  H10  1  0.86124000  0.47869000  0.96037000  1.0
  H  H11  1  0.66031000  0.47925000  0.53967000  1.0
  H  H12  1  0.13876000  0.52131000  0.03963000  1.0
  H  H13  1  0.33968000  0.52076000  0.46033000  1.0
  H  H14  1  0.13384000  0.94956000  0.96249000  1.0
  H  H15  1  0.91800000  0.94989000  0.53744000  1.0
  H  H16  1  0.86617000  0.05043000  0.03751000  1.0
  H  H17  1  0.08202000  0.05010000  0.46256000  1.0
  H  H18  1  0.09584000  0.85060000  0.86068000  1.0
  H  H19  1  0.05451000  0.85110000  0.63930000  1.0
  H  H20  1  0.90417000  0.14939000  0.13932000  1.0
  H  H21  1  0.94549000  0.14890000  0.36070000  1.0
  H  H22  1  0.77120000  0.25322000  0.83381000  1.0
  H  H23  1  0.97544000  0.25380000  0.66626000  1.0
  H  H24  1  0.22881000  0.74677000  0.16619000  1.0
  H  H25  1  0.02455000  0.74620000  0.33374000  1.0
  H  H26  1  0.96410000  0.23276000  0.89287000  1.0
  H  H27  1  0.80312000  0.23325000  0.60719000  1.0
  H  H28  1  0.03591000  0.76724000  0.10713000  1.0
  H  H29  1  0.19687000  0.76676000  0.39281000  1.0
  C  C30  1  0.68832000  0.56531000  0.94077000  1.0
  C  C31  1  0.74681000  0.56583000  0.55926000  1.0
  C  C32  1  0.31167000  0.43469000  0.05923000  1.0
  C  C33  1  0.25319000  0.43418000  0.44074000  1.0
  C  C34  1  0.50317000  0.72324000  0.96937000  1.0
  C  C35  1  0.77439000  0.72369000  0.53062000  1.0
  C  C36  1  0.49684000  0.27675000  0.03063000  1.0
  C  C37  1  0.22562000  0.27631000  0.46938000  1.0
  C  C38  1  0.28305000  0.82654000  0.94049000  1.0
  C  C39  1  0.89139000  0.82698000  0.55947000  1.0
  C  C40  1  0.71695000  0.17346000  0.05951000  1.0
  C  C41  1  0.10862000  0.17302000  0.44053000  1.0
  C  C42  1  0.25949000  0.77461000  0.88483000  1.0
  C  C43  1  0.96670000  0.77514000  0.61516000  1.0
  C  C44  1  0.74052000  0.22538000  0.11517000  1.0
  C  C45  1  0.03331000  0.22486000  0.38484000  1.0
  C  C46  1  0.45409000  0.61498000  0.85512000  1.0
  C  C47  1  0.93132000  0.61559000  0.64490000  1.0
  C  C48  1  0.54592000  0.38501000  0.14488000  1.0
  C  C49  1  0.06868000  0.38441000  0.35510000  1.0
  C  C50  1  0.54972000  0.77236000  0.02794000  1.0
  C  C51  1  0.67852000  0.77267000  0.47207000  1.0
  C  C52  1  0.45028000  0.22763000  0.97206000  1.0
  C  C53  1  0.32148000  0.22734000  0.52793000  1.0
  C  C54  1  0.85406000  0.33294000  0.85887000  1.0
  C  C55  1  0.81300000  0.33348000  0.64118000  1.0
  C  C56  1  0.14594000  0.66706000  0.14113000  1.0
  C  C57  1  0.18699000  0.66652000  0.35882000  1.0
  C  C58  1  0.02169000  0.37880000  0.81708000  1.0
  C  C59  1  0.59959000  0.37912000  0.68295000  1.0
  C  C60  1  0.97831000  0.62120000  0.18292000  1.0
  C  C61  1  0.40041000  0.62088000  0.31705000  1.0
  N  N62  1  0.66270000  0.50958000  0.88686000  1.0
  N  N63  1  0.82799000  0.51014000  0.61317000  1.0
  N  N64  1  0.33730000  0.49042000  0.11314000  1.0
  N  N65  1  0.17200000  0.48987000  0.38683000  1.0
  O  O66  1  0.35128000  0.91411000  0.05551000  1.0
  O  O67  1  0.73502000  0.91456000  0.44441000  1.0
  O  O68  1  0.64871000  0.08589000  0.94449000  1.0
  O  O69  1  0.26499000  0.08544000  0.55559000  1.0
  O  O70  1  0.74513000  0.69755000  0.05121000  1.0
  O  O71  1  0.55788000  0.69760000  0.44888000  1.0
  O  O72  1  0.25487000  0.30244000  0.94879000  1.0
  O  O73  1  0.44211000  0.30242000  0.55112000  1.0
  O  O74  1  0.46033000  0.55611000  0.80380000  1.0
  O  O75  1  0.98370000  0.55671000  0.69624000  1.0
  O  O76  1  0.53966000  0.44389000  0.19620000  1.0
  O  O77  1  0.01630000  0.44329000  0.30376000  1.0
  O  O78  1  0.17109000  0.22791000  0.78988000  1.0
  O  O79  1  0.60106000  0.22806000  0.71011000  1.0
  O  O80  1  0.82892000  0.77208000  0.21011000  1.0
  O  O81  1  0.39894000  0.77194000  0.28989000  1.0
  O  O82  1  0.99693000  0.56439000  0.81444000  1.0
  O  O83  1  0.43896000  0.56466000  0.68562000  1.0
  O  O84  1  0.00307000  0.43561000  0.18556000  1.0
  O  O85  1  0.56103000  0.43535000  0.31438000  1.0
  O  O86  1  0.02808000  0.94374000  0.75003000  1.0
  O  O87  1  0.97192000  0.05626000  0.24997000  1.0
