# generated using pymatgen
data_ZnH16C20(NO3)2
_symmetry_space_group_name_H-M   'P 1'
_cell_length_a   8.30900000
_cell_length_b   10.27770000
_cell_length_c   11.96910000
_cell_angle_alpha   106.66700000
_cell_angle_beta   103.58100000
_cell_angle_gamma   103.28300000
_symmetry_Int_Tables_number   1
_chemical_formula_structural   ZnH16C20(NO3)2
_chemical_formula_sum   'Zn2 H32 C40 N4 O12'
_cell_volume   902.06224702
_cell_formula_units_Z   2
loop_
 _symmetry_equiv_pos_site_id
 _symmetry_equiv_pos_as_xyz
  1  'x, y, z'
loop_
 _atom_site_type_symbol
 _atom_site_label
 _atom_site_symmetry_multiplicity
 _atom_site_fract_x
 _atom_site_fract_y
 _atom_site_fract_z
 _atom_site_occupancy
  Zn  Zn0  1  0.20192000  0.55624000  0.67640000  1.0
  Zn  Zn1  1  0.79808000  0.44376000  0.32360000  1.0
  H  H2  1  0.86352000  0.60611000  0.62199000  1.0
  H  H3  1  0.13648000  0.39389000  0.37801000  1.0
  H  H4  1  0.58379000  0.53741000  0.66790000  1.0
  H  H5  1  0.41621000  0.46259000  0.33210000  1.0
  H  H6  1  0.56122000  0.39880000  0.80779000  1.0
  H  H7  1  0.43878000  0.60120000  0.19221000  1.0
  H  H8  1  0.09183000  0.40251000  0.83614000  1.0
  H  H9  1  0.90817000  0.59749000  0.16386000  1.0
  H  H10  1  0.06182000  0.33672000  0.01315000  1.0
  H  H11  1  0.93819000  0.66328000  0.98685000  1.0
  H  H12  1  0.97731000  0.20122000  0.86214000  1.0
  H  H13  1  0.02269000  0.79878000  0.13785000  1.0
  H  H14  1  0.98026000  0.10915000  0.03914000  1.0
  H  H15  1  0.01975000  0.89085000  0.96086000  1.0
  H  H16  1  0.81728000  0.18767000  0.06736000  1.0
  H  H17  1  0.18272000  0.81233000  0.93264000  1.0
  H  H18  1  0.78494000  0.97892000  0.11464000  1.0
  H  H19  1  0.21506000  0.02108000  0.88536000  1.0
  H  H20  1  0.61722000  0.74902000  0.12297000  1.0
  H  H21  1  0.38278000  0.25098000  0.87703000  1.0
  H  H22  1  0.38180000  0.56612000  0.93209000  1.0
  H  H23  1  0.61820000  0.43388000  0.06791000  1.0
  H  H24  1  0.48999000  0.81791000  0.72586000  1.0
  H  H25  1  0.51001000  0.18209000  0.27414000  1.0
  H  H26  1  0.17120000  0.07151000  0.70411000  1.0
  H  H27  1  0.82880000  0.92849000  0.29589000  1.0
  H  H28  1  0.30054000  0.19086000  0.41235000  1.0
  H  H29  1  0.69946000  0.80914000  0.58765000  1.0
  H  H30  1  0.31700000  0.94645000  0.31602000  1.0
  H  H31  1  0.68299000  0.05355000  0.68398000  1.0
  H  H32  1  0.26096000  0.76578000  0.41705000  1.0
  H  H33  1  0.73904000  0.23421000  0.58295000  1.0
  C  C34  1  0.84972000  0.54703000  0.68333000  1.0
  C  C35  1  0.15028000  0.45297000  0.31667000  1.0
  C  C36  1  0.69508000  0.50914000  0.71024000  1.0
  C  C37  1  0.30492000  0.49086000  0.28976000  1.0
  C  C38  1  0.68219000  0.43196000  0.78778000  1.0
  C  C39  1  0.31782000  0.56804000  0.21222000  1.0
  C  C40  1  0.82626000  0.39253000  0.83618000  1.0
  C  C41  1  0.17373000  0.60747000  0.16381000  1.0
  C  C42  1  0.97770000  0.43378000  0.80590000  1.0
  C  C43  1  0.02230000  0.56623000  0.19410000  1.0
  C  C44  1  0.94372000  0.25301000  0.94373000  1.0
  C  C45  1  0.05628000  0.74699000  0.05627000  1.0
  C  C46  1  0.87349000  0.14389000  0.99621000  1.0
  C  C47  1  0.12651000  0.85611000  0.00379000  1.0
  C  C48  1  0.65539000  0.91200000  0.91680000  1.0
  C  C49  1  0.34461000  0.08800000  0.08320000  1.0
  C  C50  1  0.68904000  0.89491000  0.03105000  1.0
  C  C51  1  0.31096000  0.10509000  0.96895000  1.0
  C  C52  1  0.59083000  0.76829000  0.03649000  1.0
  C  C53  1  0.40917000  0.23171000  0.96351000  1.0
  C  C54  1  0.46110000  0.66602000  0.93156000  1.0
  C  C55  1  0.53890000  0.33398000  0.06844000  1.0
  C  C56  1  0.52127000  0.80523000  0.81499000  1.0
  C  C57  1  0.47873000  0.19476000  0.18501000  1.0
  C  C58  1  0.17262000  0.79906000  0.62611000  1.0
  C  C59  1  0.82738000  0.20094000  0.37389000  1.0
  C  C60  1  0.20861000  0.90638000  0.56501000  1.0
  C  C61  1  0.79140000  0.09362000  0.43499000  1.0
  C  C62  1  0.20510000  0.04484000  0.61981000  1.0
  C  C63  1  0.79490000  0.95516000  0.38019000  1.0
  C  C64  1  0.24099000  0.14808000  0.56647000  1.0
  C  C65  1  0.75901000  0.85193000  0.43353000  1.0
  C  C66  1  0.27652000  0.11073000  0.45473000  1.0
  C  C67  1  0.72348000  0.88926000  0.54527000  1.0
  C  C68  1  0.28374000  0.97347000  0.40073000  1.0
  C  C69  1  0.71626000  0.02653000  0.59927000  1.0
  C  C70  1  0.25173000  0.87215000  0.45617000  1.0
  C  C71  1  0.74827000  0.12784000  0.54383000  1.0
  C  C72  1  0.24346000  0.29642000  0.63165000  1.0
  C  C73  1  0.75654000  0.70359000  0.36835000  1.0
  N  N74  1  0.98768000  0.50963000  0.73110000  1.0
  N  N75  1  0.01232000  0.49037000  0.26891000  1.0
  N  N76  1  0.42530000  0.68619000  0.82298000  1.0
  N  N77  1  0.57470000  0.31381000  0.17702000  1.0
  O  O78  1  0.80871000  0.31408000  0.90947000  1.0
  O  O79  1  0.19129000  0.68592000  0.09053000  1.0
  O  O80  1  0.74235000  0.02541000  0.89414000  1.0
  O  O81  1  0.25765000  0.97459000  0.10586000  1.0
  O  O82  1  0.13297000  0.83151000  0.72288000  1.0
  O  O83  1  0.86704000  0.16849000  0.27712000  1.0
  O  O84  1  0.19183000  0.67606000  0.57395000  1.0
  O  O85  1  0.80817000  0.32394000  0.42605000  1.0
  O  O86  1  0.26188000  0.33711000  0.74528000  1.0
  O  O87  1  0.73811000  0.66289000  0.25471000  1.0
  O  O88  1  0.22851000  0.37893000  0.56853000  1.0
  O  O89  1  0.77149000  0.62108000  0.43147000  1.0
