# generated using pymatgen
data_CdH30C50(N2O5)2
_symmetry_space_group_name_H-M   'P 1'
_cell_length_a   4.54198000
_cell_length_b   17.38000000
_cell_length_c   27.89350000
_cell_angle_alpha   77.20000000
_cell_angle_beta   86.97020000
_cell_angle_gamma   89.89730000
_symmetry_Int_Tables_number   1
_chemical_formula_structural   CdH30C50(N2O5)2
_chemical_formula_sum   'Cd2 H60 C100 N8 O20'
_cell_volume   2144.07080727
_cell_formula_units_Z   2
loop_
 _symmetry_equiv_pos_site_id
 _symmetry_equiv_pos_as_xyz
  1  'x, y, z'
loop_
 _atom_site_type_symbol
 _atom_site_label
 _atom_site_symmetry_multiplicity
 _atom_site_fract_x
 _atom_site_fract_y
 _atom_site_fract_z
 _atom_site_occupancy
  Cd  Cd0  1  0.43144000  0.26537000  0.24819000  1.0
  Cd  Cd1  1  0.56856000  0.73463000  0.75181000  1.0
  H  H2  1  0.00875000  0.85954000  0.68596000  1.0
  H  H3  1  0.99125000  0.14046000  0.31404000  1.0
  H  H4  1  0.15253000  0.92271000  0.59878000  1.0
  H  H5  1  0.84749000  0.07729000  0.40122000  1.0
  H  H6  1  0.49955000  0.77515000  0.55472000  1.0
  H  H7  1  0.50045000  0.22485000  0.44528000  1.0
  H  H8  1  0.37298000  0.72108000  0.64425000  1.0
  H  H9  1  0.62701000  0.27892000  0.35575000  1.0
  H  H10  1  0.83251000  0.95527000  0.51158000  1.0
  H  H11  1  0.16749000  0.04473000  0.48842000  1.0
  H  H12  1  0.16840000  0.90242000  0.51348000  1.0
  H  H13  1  0.83160000  0.09758000  0.48653000  1.0
  H  H14  1  0.28828000  0.97805000  0.37547000  1.0
  H  H15  1  0.71171000  0.02195000  0.62454000  1.0
  H  H16  1  0.12209000  0.92592000  0.30444000  1.0
  H  H17  1  0.87790000  0.07408000  0.69556000  1.0
  H  H18  1  0.29241000  0.79556000  0.29261000  1.0
  H  H19  1  0.70759000  0.20444000  0.70739000  1.0
  H  H20  1  0.93984000  0.59910000  0.37881000  1.0
  H  H21  1  0.06016000  0.40090000  0.62119000  1.0
  H  H22  1  0.09767000  0.65343000  0.44943000  1.0
  H  H23  1  0.90232000  0.34657000  0.55057000  1.0
  H  H24  1  0.01174000  0.66252000  0.24645000  1.0
  H  H25  1  0.98827000  0.33747000  0.75355000  1.0
  H  H26  1  0.19200000  0.53512000  0.22687000  1.0
  H  H27  1  0.80802000  0.46487000  0.77313000  1.0
  H  H28  1  0.54452000  0.40623000  0.33109000  1.0
  H  H29  1  0.45551000  0.59376000  0.66891000  1.0
  H  H30  1  0.37141000  0.53220000  0.35265000  1.0
  H  H31  1  0.62858000  0.46780000  0.64734000  1.0
  H  H32  1  0.24041000  0.57848000  0.82049000  1.0
  H  H33  1  0.75958000  0.42154000  0.17951000  1.0
  H  H34  1  0.93389000  0.54140000  0.89995000  1.0
  H  H35  1  0.06613000  0.45860000  0.10005000  1.0
  H  H36  1  0.21944000  0.75998000  0.93272000  1.0
  H  H37  1  0.78056000  0.24002000  0.06728000  1.0
  H  H38  1  0.50559000  0.78786000  0.85161000  1.0
  H  H39  1  0.49440000  0.21214000  0.14839000  1.0
  H  H40  1  0.63208000  0.65438000  0.96046000  1.0
  H  H41  1  0.36794000  0.34562000  0.03954000  1.0
  H  H42  1  0.82367000  0.56518000  0.98200000  1.0
  H  H43  1  0.17635000  0.43481000  0.01800000  1.0
  H  H44  1  0.51772000  0.54788000  0.10747000  1.0
  H  H45  1  0.48233000  0.45212000  0.89253000  1.0
  H  H46  1  0.66948000  0.59546000  0.18117000  1.0
  H  H47  1  0.33056000  0.40455000  0.81883000  1.0
  H  H48  1  0.47542000  0.72101000  0.19726000  1.0
  H  H49  1  0.52457000  0.27900000  0.80273000  1.0
  H  H50  1  0.81961000  0.91802000  0.11372000  1.0
  H  H51  1  0.18038000  0.08198000  0.88628000  1.0
  H  H52  1  0.67097000  0.86728000  0.04110000  1.0
  H  H53  1  0.32906000  0.13272000  0.95889000  1.0
  H  H54  1  0.41229000  0.97561000  0.13531000  1.0
  H  H55  1  0.58768000  0.02439000  0.86469000  1.0
  H  H56  1  0.30657000  0.10661000  0.15536000  1.0
  H  H57  1  0.69340000  0.89339000  0.84465000  1.0
  H  H58  1  0.63624000  0.00054000  0.26349000  1.0
  H  H59  1  0.36375000  0.99946000  0.73651000  1.0
  H  H60  1  0.74856000  0.86754000  0.24524000  1.0
  H  H61  1  0.25142000  0.13246000  0.75476000  1.0
  C  C62  1  0.89590000  0.84373000  0.65594000  1.0
  C  C63  1  0.10411000  0.15627000  0.34406000  1.0
  C  C64  1  0.97761000  0.87806000  0.60734000  1.0
  C  C65  1  0.02240000  0.12193000  0.39266000  1.0
  C  C66  1  0.83855000  0.85399000  0.56936000  1.0
  C  C67  1  0.16146000  0.14601000  0.43065000  1.0
  C  C68  1  0.61953000  0.79590000  0.58236000  1.0
  C  C69  1  0.38047000  0.20410000  0.41764000  1.0
  C  C70  1  0.54810000  0.76501000  0.63215000  1.0
  C  C71  1  0.45190000  0.23499000  0.36785000  1.0
  C  C72  1  0.92749000  0.89604000  0.51757000  1.0
  C  C73  1  0.07252000  0.10396000  0.48243000  1.0
  C  C74  1  0.63758000  0.90870000  0.44489000  1.0
  C  C75  1  0.36243000  0.09129000  0.55511000  1.0
  C  C76  1  0.54580000  0.87647000  0.40341000  1.0
  C  C77  1  0.45418000  0.12352000  0.59659000  1.0
  C  C78  1  0.36038000  0.92055000  0.37006000  1.0
  C  C79  1  0.63959000  0.07944000  0.62994000  1.0
  C  C80  1  0.26893000  0.89118000  0.33020000  1.0
  C  C81  1  0.73105000  0.10882000  0.66980000  1.0
  C  C82  1  0.36477000  0.81850000  0.32344000  1.0
  C  C83  1  0.63521000  0.18150000  0.67656000  1.0
  C  C84  1  0.55737000  0.77294000  0.35650000  1.0
  C  C85  1  0.44261000  0.22705000  0.64350000  1.0
  C  C86  1  0.66901000  0.69853000  0.35062000  1.0
  C  C87  1  0.33099000  0.30147000  0.64938000  1.0
  C  C88  1  0.85779000  0.65571000  0.38400000  1.0
  C  C89  1  0.14220000  0.34429000  0.61600000  1.0
  C  C90  1  0.94467000  0.68602000  0.42375000  1.0
  C  C91  1  0.05532000  0.31397000  0.57625000  1.0
  C  C92  1  0.84317000  0.75825000  0.43095000  1.0
  C  C93  1  0.15680000  0.24174000  0.56906000  1.0
  C  C94  1  0.94512000  0.78990000  0.47197000  1.0
  C  C95  1  0.05487000  0.21009000  0.52803000  1.0
  C  C96  1  0.64807000  0.80206000  0.39744000  1.0
  C  C97  1  0.35190000  0.19793000  0.60256000  1.0
  C  C98  1  0.68627000  0.60315000  0.30094000  1.0
  C  C99  1  0.31373000  0.39685000  0.69906000  1.0
  C  C100  1  0.91347000  0.60588000  0.26508000  1.0
  C  C101  1  0.08654000  0.39412000  0.73492000  1.0
  C  C102  1  0.01109000  0.53534000  0.25404000  1.0
  C  C103  1  0.98892000  0.46465000  0.74596000  1.0
  C  C104  1  0.88034000  0.46322000  0.27793000  1.0
  C  C105  1  0.11967000  0.53677000  0.72207000  1.0
  C  C106  1  0.64927000  0.46232000  0.31338000  1.0
  C  C107  1  0.35073000  0.53767000  0.68662000  1.0
  C  C108  1  0.55241000  0.53215000  0.32540000  1.0
  C  C109  1  0.44758000  0.46785000  0.67460000  1.0
  C  C110  1  0.99224000  0.38724000  0.26632000  1.0
  C  C111  1  0.00776000  0.61275000  0.73368000  1.0
  C  C112  1  0.22562000  0.61737000  0.84626000  1.0
  C  C113  1  0.77437000  0.38264000  0.15374000  1.0
  C  C114  1  0.05774000  0.59680000  0.89044000  1.0
  C  C115  1  0.94226000  0.40320000  0.10956000  1.0
  C  C116  1  0.04656000  0.64837000  0.92260000  1.0
  C  C117  1  0.95344000  0.35163000  0.07740000  1.0
  C  C118  1  0.21206000  0.71823000  0.90890000  1.0
  C  C119  1  0.78793000  0.28177000  0.09110000  1.0
  C  C120  1  0.37293000  0.73433000  0.86397000  1.0
  C  C121  1  0.62705000  0.26567000  0.13603000  1.0
  C  C122  1  0.84979000  0.62915000  0.96896000  1.0
  C  C123  1  0.15023000  0.37085000  0.03104000  1.0
  C  C124  1  0.15591000  0.61778000  0.03951000  1.0
  C  C125  1  0.84411000  0.38222000  0.96049000  1.0
  C  C126  1  0.23987000  0.64668000  0.08285000  1.0
  C  C127  1  0.76015000  0.35333000  0.91715000  1.0
  C  C128  1  0.43224000  0.60290000  0.11506000  1.0
  C  C129  1  0.56779000  0.39711000  0.88494000  1.0
  C  C130  1  0.51644000  0.62982000  0.15631000  1.0
  C  C131  1  0.48359000  0.37019000  0.84369000  1.0
  C  C132  1  0.40772000  0.69994000  0.16548000  1.0
  C  C133  1  0.59229000  0.30006000  0.83452000  1.0
  C  C134  1  0.20993000  0.74554000  0.13341000  1.0
  C  C135  1  0.79007000  0.25447000  0.86659000  1.0
  C  C136  1  0.09031000  0.81832000  0.14090000  1.0
  C  C137  1  0.90969000  0.18169000  0.85910000  1.0
  C  C138  1  0.90439000  0.86228000  0.10753000  1.0
  C  C139  1  0.09560000  0.13772000  0.89246000  1.0
  C  C140  1  0.82351000  0.83418000  0.06666000  1.0
  C  C141  1  0.17652000  0.16582000  0.93334000  1.0
  C  C142  1  0.92976000  0.76317000  0.05822000  1.0
  C  C143  1  0.07027000  0.23683000  0.94178000  1.0
  C  C144  1  0.83235000  0.73413000  0.01592000  1.0
  C  C145  1  0.16770000  0.26588000  0.98407000  1.0
  C  C146  1  0.12576000  0.71869000  0.09124000  1.0
  C  C147  1  0.87425000  0.28132000  0.90876000  1.0
  C  C148  1  0.08771000  0.91500000  0.18977000  1.0
  C  C149  1  0.91226000  0.08501000  0.81023000  1.0
  C  C150  1  0.24264000  0.98149000  0.16334000  1.0
  C  C151  1  0.75732000  0.01852000  0.83666000  1.0
  C  C152  1  0.18274000  0.05430000  0.17450000  1.0
  C  C153  1  0.81721000  0.94570000  0.82550000  1.0
  C  C154  1  0.96786000  0.06132000  0.21116000  1.0
  C  C155  1  0.03211000  0.93869000  0.78884000  1.0
  C  C156  1  0.80735000  0.99415000  0.23580000  1.0
  C  C157  1  0.19263000  0.00585000  0.76420000  1.0
  C  C158  1  0.86781000  0.92047000  0.22552000  1.0
  C  C159  1  0.13217000  0.07953000  0.77448000  1.0
  C  C160  1  0.91638000  0.13991000  0.22500000  1.0
  C  C161  1  0.08358000  0.86009000  0.77500000  1.0
  N  N162  1  0.68314000  0.78791000  0.66844000  1.0
  N  N163  1  0.31685000  0.21209000  0.33156000  1.0
  N  N164  1  0.82341000  0.86207000  0.47793000  1.0
  N  N165  1  0.17659000  0.13793000  0.52207000  1.0
  N  N166  1  0.37826000  0.68554000  0.83278000  1.0
  N  N167  1  0.62173000  0.31446000  0.16722000  1.0
  N  N168  1  0.95089000  0.66203000  0.00942000  1.0
  N  N169  1  0.04914000  0.33797000  0.99058000  1.0
  O  O170  1  0.13085000  0.75727000  0.50030000  1.0
  O  O171  1  0.86916000  0.24272000  0.49970000  1.0
  O  O172  1  0.55776000  0.97447000  0.45043000  1.0
  O  O173  1  0.44227000  0.02554000  0.54956000  1.0
  O  O174  1  0.58029000  0.67470000  0.31015000  1.0
  O  O175  1  0.41971000  0.32530000  0.68985000  1.0
  O  O176  1  0.24024000  0.39105000  0.24212000  1.0
  O  O177  1  0.75976000  0.60895000  0.75788000  1.0
  O  O178  1  0.84061000  0.32476000  0.28197000  1.0
  O  O179  1  0.15940000  0.67524000  0.71803000  1.0
  O  O180  1  0.25734000  0.55661000  0.02984000  1.0
  O  O181  1  0.74265000  0.44338000  0.97016000  1.0
  O  O182  1  0.65335000  0.76958000  0.98723000  1.0
  O  O183  1  0.34678000  0.23043000  0.01276000  1.0
  O  O184  1  0.16646000  0.83982000  0.18286000  1.0
  O  O185  1  0.83352000  0.16018000  0.81714000  1.0
  O  O186  1  0.68484000  0.14491000  0.25191000  1.0
  O  O187  1  0.31513000  0.85509000  0.74809000  1.0
  O  O188  1  0.10776000  0.19379000  0.20909000  1.0
  O  O189  1  0.89219000  0.80622000  0.79091000  1.0
