# generated using pymatgen
data_AlH12C24(BrO2)3
_symmetry_space_group_name_H-M   'P 1'
_cell_length_a   4.08637000
_cell_length_b   28.66785000
_cell_length_c   28.66790000
_cell_angle_alpha   59.99982692
_cell_angle_beta   90.00010000
_cell_angle_gamma   89.99960000
_symmetry_Int_Tables_number   1
_chemical_formula_structural   AlH12C24(BrO2)3
_chemical_formula_sum   'Al2 H24 C48 Br6 O12'
_cell_volume   2908.42966572
_cell_formula_units_Z   2
loop_
 _symmetry_equiv_pos_site_id
 _symmetry_equiv_pos_as_xyz
  1  'x, y, z'
loop_
 _atom_site_type_symbol
 _atom_site_label
 _atom_site_symmetry_multiplicity
 _atom_site_fract_x
 _atom_site_fract_y
 _atom_site_fract_z
 _atom_site_occupancy
  Al  Al0  1  0.02320000  0.50000000  0.00000000  1.0
  Al  Al1  1  0.02314000  0.16667000  0.66666000  1.0
  H  H2  1  0.85457000  0.29257000  0.51170000  1.0
  H  H3  1  0.83328000  0.33672000  0.41255000  1.0
  H  H4  1  0.15965000  0.21490000  0.42545000  1.0
  H  H5  1  0.17718000  0.17206000  0.52474000  1.0
  H  H6  1  0.15965000  0.45177000  0.24121000  1.0
  H  H7  1  0.83340000  0.32995000  0.25413000  1.0
  H  H8  1  0.85471000  0.37410000  0.15497000  1.0
  H  H9  1  0.17722000  0.49461000  0.14191000  1.0
  H  H10  1  0.85459000  0.19573000  0.79257000  1.0
  H  H11  1  0.83329000  0.25073000  0.83672000  1.0
  H  H12  1  0.15961000  0.35965000  0.71490000  1.0
  H  H13  1  0.17715000  0.30320000  0.67205000  1.0
  H  H14  1  0.15964000  0.30702000  0.95176000  1.0
  H  H15  1  0.83341000  0.41591000  0.82996000  1.0
  H  H16  1  0.85472000  0.47092000  0.87410000  1.0
  H  H17  1  0.17722000  0.36348000  0.99459000  1.0
  H  H18  1  0.85457000  0.01170000  0.69573000  1.0
  H  H19  1  0.83327000  0.91254000  0.75074000  1.0
  H  H20  1  0.15964000  0.92545000  0.85966000  1.0
  H  H21  1  0.17719000  0.02475000  0.80320000  1.0
  H  H22  1  0.15957000  0.74122000  0.80702000  1.0
  H  H23  1  0.83338000  0.75413000  0.91592000  1.0
  H  H24  1  0.85469000  0.65498000  0.97092000  1.0
  H  H25  1  0.17714000  0.64192000  0.86348000  1.0
  C  C26  1  0.52215000  0.58228000  0.95422000  1.0
  C  C27  1  0.52217000  0.46350000  0.08227000  1.0
  C  C28  1  0.52217000  0.45423000  0.96349000  1.0
  C  C29  1  0.52209000  0.20316000  0.58439000  1.0
  C  C30  1  0.52209000  0.21245000  0.70316000  1.0
  C  C31  1  0.52210000  0.08439000  0.71245000  1.0
  C  C32  1  0.51300000  0.22993000  0.52460000  1.0
  C  C33  1  0.69604000  0.27658000  0.49245000  1.0
  C  C34  1  0.68201000  0.30148000  0.43665000  1.0
  C  C35  1  0.48532000  0.28030000  0.41120000  1.0
  C  C36  1  0.31120000  0.23238000  0.44403000  1.0
  C  C37  1  0.32136000  0.20803000  0.49975000  1.0
  C  C38  1  0.46860000  0.30664000  0.35206000  1.0
  C  C39  1  0.46860000  0.36003000  0.31461000  1.0
  C  C40  1  0.31123000  0.43429000  0.22263000  1.0
  C  C41  1  0.48538000  0.38638000  0.25546000  1.0
  C  C42  1  0.68213000  0.36519000  0.23002000  1.0
  C  C43  1  0.69617000  0.39009000  0.17421000  1.0
  C  C44  1  0.51309000  0.43674000  0.14206000  1.0
  C  C45  1  0.32140000  0.45864000  0.16691000  1.0
  C  C46  1  0.51300000  0.24547000  0.72992000  1.0
  C  C47  1  0.69604000  0.23097000  0.77657000  1.0
  C  C48  1  0.68201000  0.26187000  0.80148000  1.0
  C  C49  1  0.48531000  0.30851000  0.78029000  1.0
  C  C50  1  0.31118000  0.32359000  0.73238000  1.0
  C  C51  1  0.32134000  0.29222000  0.70802000  1.0
  C  C52  1  0.46859000  0.34130000  0.80663000  1.0
  C  C53  1  0.46861000  0.32535000  0.86003000  1.0
  C  C54  1  0.31123000  0.34307000  0.93429000  1.0
  C  C55  1  0.48540000  0.35816000  0.88638000  1.0
  C  C56  1  0.68214000  0.40479000  0.86518000  1.0
  C  C57  1  0.69618000  0.43569000  0.89009000  1.0
  C  C58  1  0.51309000  0.42119000  0.93673000  1.0
  C  C59  1  0.32141000  0.37445000  0.95863000  1.0
  C  C60  1  0.51301000  0.02461000  0.74547000  1.0
  C  C61  1  0.69604000  0.99246000  0.73097000  1.0
  C  C62  1  0.68200000  0.93665000  0.76187000  1.0
  C  C63  1  0.48531000  0.91120000  0.80851000  1.0
  C  C64  1  0.31120000  0.94403000  0.82360000  1.0
  C  C65  1  0.32136000  0.99975000  0.79222000  1.0
  C  C66  1  0.46857000  0.85207000  0.84130000  1.0
  C  C67  1  0.46856000  0.81461000  0.82536000  1.0
  C  C68  1  0.31116000  0.72263000  0.84308000  1.0
  C  C69  1  0.48533000  0.75546000  0.85817000  1.0
  C  C70  1  0.68209000  0.73002000  0.90479000  1.0
  C  C71  1  0.69614000  0.67422000  0.93569000  1.0
  C  C72  1  0.51305000  0.64207000  0.92120000  1.0
  C  C73  1  0.32135000  0.66692000  0.87445000  1.0
  Br  Br74  1  0.41737000  0.25589000  0.32687000  1.0
  Br  Br75  1  0.41728000  0.41078000  0.33979000  1.0
  Br  Br76  1  0.41732000  0.41724000  0.75589000  1.0
  Br  Br77  1  0.41732000  0.24942000  0.91077000  1.0
  Br  Br78  1  0.41735000  0.82687000  0.91724000  1.0
  Br  Br79  1  0.41726000  0.83980000  0.74943000  1.0
  O  O80  1  0.29054000  0.44703000  0.99638000  1.0
  O  O81  1  0.29053000  0.55658000  0.94703000  1.0
  O  O82  1  0.29054000  0.49639000  0.05658000  1.0
  O  O83  1  0.75980000  0.48719000  0.95202000  1.0
  O  O84  1  0.75980000  0.45203000  0.06078000  1.0
  O  O85  1  0.75979000  0.56078000  0.98719000  1.0
  O  O86  1  0.29049000  0.11009000  0.71964000  1.0
  O  O87  1  0.29049000  0.17027000  0.61009000  1.0
  O  O88  1  0.29049000  0.21964000  0.67027000  1.0
  O  O89  1  0.75970000  0.10588000  0.67948000  1.0
  O  O90  1  0.75970000  0.17948000  0.71464000  1.0
  O  O91  1  0.75971000  0.21464000  0.60588000  1.0
