# generated using pymatgen
data_AlH9C24(NO2)6
_symmetry_space_group_name_H-M   'P 1'
_cell_length_a   4.03004000
_cell_length_b   15.08730533
_cell_length_c   15.46095459
_cell_angle_alpha   62.49767490
_cell_angle_beta   88.19722161
_cell_angle_gamma   87.08646804
_symmetry_Int_Tables_number   1
_chemical_formula_structural   AlH9C24(NO2)6
_chemical_formula_sum   'Al1 H9 C24 N6 O12'
_cell_volume   832.71750592
_cell_formula_units_Z   1
loop_
 _symmetry_equiv_pos_site_id
 _symmetry_equiv_pos_as_xyz
  1  'x, y, z'
loop_
 _atom_site_type_symbol
 _atom_site_label
 _atom_site_symmetry_multiplicity
 _atom_site_fract_x
 _atom_site_fract_y
 _atom_site_fract_z
 _atom_site_occupancy
  Al  Al0  1  0.04452000  0.50773000  0.49388000  1.0
  H  H1  1  0.34082000  0.50483000  0.75206000  1.0
  H  H2  1  0.08814000  0.58516000  0.84961000  1.0
  H  H3  1  0.19326000  0.87565000  0.60273000  1.0
  H  H4  1  0.93162000  0.58505000  0.04465000  1.0
  H  H5  1  0.31208000  0.74239000  0.22508000  1.0
  H  H6  1  0.38937000  0.83861000  0.04503000  1.0
  H  H7  1  0.51386000  0.04709000  0.86771000  1.0
  H  H8  1  0.77572000  0.23450000  0.51350000  1.0
  H  H9  1  0.85052000  0.04832000  0.59970000  1.0
  C  C10  1  0.56624000  0.35646000  0.58237000  1.0
  C  C11  1  0.50969000  0.59473000  0.56198000  1.0
  C  C12  1  0.55778000  0.56207000  0.34584000  1.0
  C  C13  1  0.73423000  0.77660000  0.92733000  1.0
  C  C14  1  0.95933000  0.78424000  0.78751000  1.0
  C  C15  1  0.74628000  0.92567000  0.79006000  1.0
  C  C16  1  0.31257000  0.58609000  0.72050000  1.0
  C  C17  1  0.16911000  0.63083000  0.77465000  1.0
  C  C18  1  0.12014000  0.73525000  0.73264000  1.0
  C  C19  1  0.22414000  0.79459000  0.63632000  1.0
  C  C20  1  0.36890000  0.74903000  0.58379000  1.0
  C  C21  1  0.41116000  0.64492000  0.62350000  1.0
  C  C22  1  0.79231000  0.61998000  0.08299000  1.0
  C  C23  1  0.74926000  0.56748000  0.18332000  1.0
  C  C24  1  0.57809000  0.60997000  0.23631000  1.0
  C  C25  1  0.44466000  0.70802000  0.18487000  1.0
  C  C26  1  0.48777000  0.76183000  0.08441000  1.0
  C  C27  1  0.66453000  0.71838000  0.03273000  1.0
  C  C28  1  0.56706000  0.08700000  0.78988000  1.0
  C  C29  1  0.53086000  0.19070000  0.74099000  1.0
  C  C30  1  0.60498000  0.24540000  0.64133000  1.0
  C  C31  1  0.71877000  0.19240000  0.59106000  1.0
  C  C32  1  0.75877000  0.08892000  0.63891000  1.0
  C  C33  1  0.68523000  0.03530000  0.73892000  1.0
  N  N34  1  0.88509000  0.72757000  0.88209000  1.0
  N  N35  1  0.89916000  0.88367000  0.73880000  1.0
  N  N36  1  0.65316000  0.87519000  0.88419000  1.0
  N  N37  1  0.48733000  0.81373000  0.48372000  1.0
  N  N38  1  0.89954000  0.46503000  0.23387000  1.0
  N  N39  1  0.43414000  0.24183000  0.80027000  1.0
  O  O40  1  0.77958000  0.58988000  0.38388000  1.0
  O  O41  1  0.79463000  0.39596000  0.51932000  1.0
  O  O42  1  0.77107000  0.53908000  0.58256000  1.0
  O  O43  1  0.31810000  0.50723000  0.38955000  1.0
  O  O44  1  0.29799000  0.60667000  0.49753000  1.0
  O  O45  1  0.30942000  0.40210000  0.59404000  1.0
  O  O46  1  0.68869000  0.77481000  0.44750000  1.0
  O  O47  1  0.38437000  0.90198000  0.44347000  1.0
  O  O48  1  0.81818000  0.41340000  0.32011000  1.0
  O  O49  1  0.09753000  0.43775000  0.18708000  1.0
  O  O50  1  0.56917000  0.32087000  0.78040000  1.0
  O  O51  1  0.23028000  0.20031000  0.86704000  1.0
