# generated using pymatgen
data_NaH17C26O15
_symmetry_space_group_name_H-M   'P 1'
_cell_length_a   8.57533000
_cell_length_b   10.32770000
_cell_length_c   15.32600000
_cell_angle_alpha   74.52790000
_cell_angle_beta   80.59730000
_cell_angle_gamma   85.86470000
_symmetry_Int_Tables_number   1
_chemical_formula_structural   NaH17C26O15
_chemical_formula_sum   'Na2 H34 C52 O30'
_cell_volume   1289.97789044
_cell_formula_units_Z   2
loop_
 _symmetry_equiv_pos_site_id
 _symmetry_equiv_pos_as_xyz
  1  'x, y, z'
loop_
 _atom_site_type_symbol
 _atom_site_label
 _atom_site_symmetry_multiplicity
 _atom_site_fract_x
 _atom_site_fract_y
 _atom_site_fract_z
 _atom_site_occupancy
  Na  Na0  1  0.12884000  0.38490000  0.45597000  1.0
  Na  Na1  1  0.87115000  0.61510000  0.54403000  1.0
  H  H2  1  0.37910000  0.46913000  0.16381000  1.0
  H  H3  1  0.62090000  0.53087000  0.83620000  1.0
  H  H4  1  0.73522000  0.72315000  0.19204000  1.0
  H  H5  1  0.26477000  0.27685000  0.80795000  1.0
  H  H6  1  0.85469000  0.44335000  0.02508000  1.0
  H  H7  1  0.14531000  0.55664000  0.97492000  1.0
  H  H8  1  0.57925000  0.36623000  0.06260000  1.0
  H  H9  1  0.42075000  0.63377000  0.93740000  1.0
  H  H10  1  0.93333000  0.62285000  0.09034000  1.0
  H  H11  1  0.06667000  0.37715000  0.90966000  1.0
  H  H12  1  0.40896000  0.61165000  0.31898000  1.0
  H  H13  1  0.59104000  0.38835000  0.68102000  1.0
  H  H14  1  0.31111000  0.88248000  0.78955000  1.0
  H  H15  1  0.68889000  0.11752000  0.21045000  1.0
  H  H16  1  0.74883000  0.75113000  0.85266000  1.0
  H  H17  1  0.25117000  0.24887000  0.14734000  1.0
  H  H18  1  0.94017000  0.65890000  0.74253000  1.0
  H  H19  1  0.05983000  0.34110000  0.25747000  1.0
  H  H20  1  0.83863000  0.90503000  0.93319000  1.0
  H  H21  1  0.16136000  0.09498000  0.06681000  1.0
  H  H22  1  0.12169000  0.97186000  0.89969000  1.0
  H  H23  1  0.87831000  0.02814000  0.10031000  1.0
  H  H24  1  0.48808000  0.56911000  0.59450000  1.0
  H  H25  1  0.51192000  0.43089000  0.40550000  1.0
  H  H26  1  0.36492000  0.05215000  0.33398000  1.0
  H  H27  1  0.63508000  0.94785000  0.66602000  1.0
  H  H28  1  0.91206000  0.75673000  0.32891000  1.0
  H  H29  1  0.08795000  0.24327000  0.67109000  1.0
  H  H30  1  0.30524000  0.60657000  0.72877000  1.0
  H  H31  1  0.69477000  0.39343000  0.27123000  1.0
  H  H32  1  0.29872000  0.18554000  0.59476000  1.0
  H  H33  1  0.70128000  0.81446000  0.40524000  1.0
  H  H34  1  0.30288000  0.34141000  0.59655000  1.0
  H  H35  1  0.69711000  0.65860000  0.40345000  1.0
  C  C36  1  0.45698000  0.88974000  0.13707000  1.0
  C  C37  1  0.54302000  0.11026000  0.86292000  1.0
  C  C38  1  0.39031000  0.81207000  0.23126000  1.0
  C  C39  1  0.60969000  0.18793000  0.76874000  1.0
  C  C40  1  0.26762000  0.72126000  0.21791000  1.0
  C  C41  1  0.73238000  0.27874000  0.78209000  1.0
  C  C42  1  0.54404000  0.60272000  0.18441000  1.0
  C  C43  1  0.45596000  0.39728000  0.81559000  1.0
  C  C44  1  0.50101000  0.50205000  0.14764000  1.0
  C  C45  1  0.49899000  0.49795000  0.85236000  1.0
  C  C46  1  0.70066000  0.64494000  0.16377000  1.0
  C  C47  1  0.29934000  0.35506000  0.83623000  1.0
  C  C48  1  0.76818000  0.48886000  0.06936000  1.0
  C  C49  1  0.23182000  0.51114000  0.93064000  1.0
  C  C50  1  0.61282000  0.44505000  0.09056000  1.0
  C  C51  1  0.38718000  0.55495000  0.90944000  1.0
  C  C52  1  0.81218000  0.58852000  0.10609000  1.0
  C  C53  1  0.18782000  0.41148000  0.89391000  1.0
  C  C54  1  0.42275000  0.66143000  0.24586000  1.0
  C  C55  1  0.57725000  0.33858000  0.75414000  1.0
  C  C56  1  0.13742000  0.76624000  0.75763000  1.0
  C  C57  1  0.86258000  0.23377000  0.24237000  1.0
  C  C58  1  0.18760000  0.85440000  0.80214000  1.0
  C  C59  1  0.81240000  0.14560000  0.19786000  1.0
  C  C60  1  0.87216000  0.77962000  0.83885000  1.0
  C  C61  1  0.12784000  0.22038000  0.16115000  1.0
  C  C62  1  0.97903000  0.72896000  0.77619000  1.0
  C  C63  1  0.02097000  0.27104000  0.22381000  1.0
  C  C64  1  0.92255000  0.86706000  0.88351000  1.0
  C  C65  1  0.07745000  0.13294000  0.11649000  1.0
  C  C66  1  0.08022000  0.90464000  0.86487000  1.0
  C  C67  1  0.91978000  0.09536000  0.13513000  1.0
  C  C68  1  0.32319000  0.93139000  0.59105000  1.0
  C  C69  1  0.67681000  0.06861000  0.40895000  1.0
  C  C70  1  0.37144000  0.78576000  0.61815000  1.0
  C  C71  1  0.62856000  0.21423000  0.38185000  1.0
  C  C72  1  0.23734000  0.71303000  0.59663000  1.0
  C  C73  1  0.76266000  0.28697000  0.40337000  1.0
  C  C74  1  0.11416000  0.68048000  0.28070000  1.0
  C  C75  1  0.88584000  0.31952000  0.71930000  1.0
  C  C76  1  0.36722000  0.87383000  0.31113000  1.0
  C  C77  1  0.63278000  0.12616000  0.68887000  1.0
  C  C78  1  0.54493000  0.74708000  0.61179000  1.0
  C  C79  1  0.45508000  0.25292000  0.38821000  1.0
  C  C80  1  0.25025000  0.58676000  0.56305000  1.0
  C  C81  1  0.74975000  0.41324000  0.43695000  1.0
  C  C82  1  0.25357000  0.70385000  0.69577000  1.0
  C  C83  1  0.74643000  0.29615000  0.30423000  1.0
  C  C84  1  0.26412000  0.76042000  0.11685000  1.0
  C  C85  1  0.73588000  0.23957000  0.88315000  1.0
  C  C86  1  0.12366000  0.82277000  0.56001000  1.0
  C  C87  1  0.87634000  0.17723000  0.43999000  1.0
  O  O88  1  0.38373000  0.84951000  0.07289000  1.0
  O  O89  1  0.61627000  0.15049000  0.92711000  1.0
  O  O90  1  0.14652000  0.56562000  0.52127000  1.0
  O  O91  1  0.85348000  0.43438000  0.47873000  1.0
  O  O92  1  0.36746000  0.50429000  0.58459000  1.0
  O  O93  1  0.63254000  0.49571000  0.41541000  1.0
  O  O94  1  0.58751000  0.62678000  0.60167000  1.0
  O  O95  1  0.41249000  0.37322000  0.39833000  1.0
  O  O96  1  0.64433000  0.82427000  0.61727000  1.0
  O  O97  1  0.35567000  0.17573000  0.38273000  1.0
  O  O98  1  0.37032000  0.00652000  0.28271000  1.0
  O  O99  1  0.62968000  0.99348000  0.71729000  1.0
  O  O100  1  0.34595000  0.80553000  0.39072000  1.0
  O  O101  1  0.65406000  0.19448000  0.60928000  1.0
  O  O102  1  0.08961000  0.56239000  0.32184000  1.0
  O  O103  1  0.91038000  0.43761000  0.67816000  1.0
  O  O104  1  0.01515000  0.78358000  0.28254000  1.0
  O  O105  1  0.98485000  0.21642000  0.71746000  1.0
  O  O106  1  0.39323000  0.02844000  0.59303000  1.0
  O  O107  1  0.60677000  0.97156000  0.40697000  1.0
  O  O108  1  0.99979000  0.81744000  0.53412000  1.0
  O  O109  1  0.00021000  0.18256000  0.46588000  1.0
  O  O110  1  0.23328000  0.26728000  0.59873000  1.0
  O  O111  1  0.76672000  0.73272000  0.40127000  1.0
  O  O112  1  0.56019000  0.97005000  0.11300000  1.0
  O  O113  1  0.43981000  0.02995000  0.88700000  1.0
  O  O114  1  0.17564000  0.72437000  0.07479000  1.0
  O  O115  1  0.82436000  0.27563000  0.92521000  1.0
  O  O116  1  0.17775000  0.94662000  0.56244000  1.0
  O  O117  1  0.82225000  0.05338000  0.43757000  1.0
