# generated using pymatgen
data_BaH6(C2O5)2
_symmetry_space_group_name_H-M   'P 1'
_cell_length_a   5.39966000
_cell_length_b   7.69873000
_cell_length_c   11.82840000
_cell_angle_alpha   76.47560000
_cell_angle_beta   76.82210000
_cell_angle_gamma   69.48100000
_symmetry_Int_Tables_number   1
_chemical_formula_structural   BaH6(C2O5)2
_chemical_formula_sum   'Ba2 H12 C8 O20'
_cell_volume   441.95361273
_cell_formula_units_Z   2
loop_
 _symmetry_equiv_pos_site_id
 _symmetry_equiv_pos_as_xyz
  1  'x, y, z'
loop_
 _atom_site_type_symbol
 _atom_site_label
 _atom_site_symmetry_multiplicity
 _atom_site_fract_x
 _atom_site_fract_y
 _atom_site_fract_z
 _atom_site_occupancy
  Ba  Ba0  1  0.15718000  0.25012000  0.75000000  1.0
  Ba  Ba1  1  0.84281000  0.74988000  0.25000000  1.0
  H  H2  1  0.81015000  0.17558000  0.03805000  1.0
  H  H3  1  0.02367000  0.32427000  0.46198000  1.0
  H  H4  1  0.18987000  0.82442000  0.96195000  1.0
  H  H5  1  0.97631000  0.67573000  0.53803000  1.0
  H  H6  1  0.54057000  0.56828000  0.81324000  1.0
  H  H7  1  0.92201000  0.93201000  0.68669000  1.0
  H  H8  1  0.45943000  0.43173000  0.18676000  1.0
  H  H9  1  0.07800000  0.06799000  0.31331000  1.0
  H  H10  1  0.68547000  0.71296000  0.74113000  1.0
  H  H11  1  0.13935000  0.78732000  0.75887000  1.0
  H  H12  1  0.31453000  0.28704000  0.25887000  1.0
  H  H13  1  0.86066000  0.21268000  0.24112000  1.0
  C  C14  1  0.07365000  0.57046000  0.96311000  1.0
  C  C15  1  0.60725000  0.92964000  0.53691000  1.0
  C  C16  1  0.92635000  0.42954000  0.03689000  1.0
  C  C17  1  0.39273000  0.07036000  0.46309000  1.0
  C  C18  1  0.58650000  0.06648000  0.98091000  1.0
  C  C19  1  0.63385000  0.43355000  0.51911000  1.0
  C  C20  1  0.41351000  0.93351000  0.01909000  1.0
  C  C21  1  0.36613000  0.56647000  0.48090000  1.0
  O  O22  1  0.62042000  0.14757000  0.87818000  1.0
  O  O23  1  0.64614000  0.35258000  0.62187000  1.0
  O  O24  1  0.37960000  0.85243000  0.12182000  1.0
  O  O25  1  0.35385000  0.64742000  0.37814000  1.0
  O  O26  1  0.21918000  0.53582000  0.86676000  1.0
  O  O27  1  0.62166000  0.96438000  0.63326000  1.0
  O  O28  1  0.78083000  0.46418000  0.13324000  1.0
  O  O29  1  0.37834000  0.03563000  0.36674000  1.0
  O  O30  1  0.03002000  0.71606000  0.00859000  1.0
  O  O31  1  0.75477000  0.78402000  0.49147000  1.0
  O  O32  1  0.96999000  0.28394000  0.99141000  1.0
  O  O33  1  0.24521000  0.21598000  0.50854000  1.0
  O  O34  1  0.71907000  0.58455000  0.78555000  1.0
  O  O35  1  0.08908000  0.91571000  0.71439000  1.0
  O  O36  1  0.28093000  0.41546000  0.21445000  1.0
  O  O37  1  0.91092000  0.08428000  0.28560000  1.0
  O  O38  1  0.68615000  0.08058000  0.06840000  1.0
  O  O39  1  0.83505000  0.41935000  0.43166000  1.0
  O  O40  1  0.31386000  0.91943000  0.93159000  1.0
  O  O41  1  0.16493000  0.58065000  0.56835000  1.0
