# generated using pymatgen
data_MnH8C13N5O2
_symmetry_space_group_name_H-M   'P 1'
_cell_length_a   7.80675000
_cell_length_b   9.07285000
_cell_length_c   10.62660000
_cell_angle_alpha   110.90400000
_cell_angle_beta   101.77100000
_cell_angle_gamma   104.48000000
_symmetry_Int_Tables_number   1
_chemical_formula_structural   MnH8C13N5O2
_chemical_formula_sum   'Mn2 H16 C26 N10 O4'
_cell_volume   644.03515179
_cell_formula_units_Z   2
loop_
 _symmetry_equiv_pos_site_id
 _symmetry_equiv_pos_as_xyz
  1  'x, y, z'
loop_
 _atom_site_type_symbol
 _atom_site_label
 _atom_site_symmetry_multiplicity
 _atom_site_fract_x
 _atom_site_fract_y
 _atom_site_fract_z
 _atom_site_occupancy
  Mn  Mn0  1  0.69812000  0.51748000  0.61546000  1.0
  Mn  Mn1  1  0.30342000  0.48361000  0.40532000  1.0
  H  H2  1  0.05553000  0.84009000  0.76084000  1.0
  H  H3  1  0.94050000  0.14516000  0.22810000  1.0
  H  H4  1  0.27120000  0.00818000  0.01081000  1.0
  H  H5  1  0.71931000  0.98733000  0.97735000  1.0
  H  H6  1  0.20953000  0.92715000  0.20310000  1.0
  H  H7  1  0.78965000  0.07773000  0.79184000  1.0
  H  H8  1  0.00137000  0.70654000  0.26511000  1.0
  H  H9  1  0.99719000  0.29169000  0.73345000  1.0
  H  H10  1  0.73611000  0.44231000  0.18018000  1.0
  H  H11  1  0.26268000  0.55559000  0.81752000  1.0
  H  H12  1  0.47163000  0.18795000  0.97029000  1.0
  H  H13  1  0.52176000  0.80571000  0.02068000  1.0
  H  H14  1  0.29170000  0.05233000  0.70723000  1.0
  H  H15  1  0.71171000  0.94822000  0.28105000  1.0
  H  H16  1  0.37125000  0.19924000  0.55728000  1.0
  H  H17  1  0.63580000  0.80579000  0.43690000  1.0
  C  C18  1  0.02959000  0.80725000  0.84593000  1.0
  C  C19  1  0.96615000  0.18233000  0.14482000  1.0
  C  C20  1  0.14885000  0.90084000  0.98663000  1.0
  C  C21  1  0.84409000  0.09359000  0.00429000  1.0
  C  C22  1  0.11476000  0.85605000  0.09375000  1.0
  C  C23  1  0.88276000  0.14435000  0.90195000  1.0
  C  C24  1  0.91321000  0.64306000  0.15355000  1.0
  C  C25  1  0.08574000  0.35575000  0.84475000  1.0
  C  C26  1  0.76603000  0.49561000  0.10656000  1.0
  C  C27  1  0.23248000  0.50254000  0.89116000  1.0
  C  C28  1  0.50250000  0.24899000  0.90186000  1.0
  C  C29  1  0.49476000  0.74854000  0.09241000  1.0
  C  C30  1  0.40466000  0.17433000  0.75665000  1.0
  C  C31  1  0.59841000  0.82701000  0.23552000  1.0
  C  C32  1  0.44913000  0.25372000  0.67031000  1.0
  C  C33  1  0.55464000  0.74982000  0.32412000  1.0
  C  C34  1  0.84327000  0.62531000  0.91322000  1.0
  C  C35  1  0.15510000  0.37181000  0.08683000  1.0
  C  C36  1  0.95856000  0.71245000  0.05757000  1.0
  C  C37  1  0.04131000  0.28794000  0.94148000  1.0
  C  C38  1  0.68883000  0.47653000  0.86592000  1.0
  C  C39  1  0.31086000  0.52538000  0.13533000  1.0
  C  C40  1  0.64912000  0.40584000  0.96031000  1.0
  C  C41  1  0.34761000  0.59209000  0.03748000  1.0
  C  C42  1  0.99383000  0.42814000  0.51958000  1.0
  C  C43  1  0.99957000  0.58457000  0.49202000  1.0
  N  N44  1  0.87687000  0.67061000  0.80716000  1.0
  N  N45  1  0.11822000  0.31678000  0.18520000  1.0
  N  N46  1  0.59056000  0.40304000  0.72184000  1.0
  N  N47  1  0.41345000  0.60451000  0.27615000  1.0
  N  N48  1  0.49503000  0.34456000  0.41370000  1.0
  N  N49  1  0.52903000  0.65284000  0.61214000  1.0
  N  N50  1  0.53601000  0.26323000  0.31406000  1.0
  N  N51  1  0.48603000  0.73969000  0.70811000  1.0
  N  N52  1  0.57052000  0.18206000  0.21650000  1.0
  N  N53  1  0.43707000  0.82404000  0.79413000  1.0
  O  O54  1  0.86970000  0.37864000  0.57208000  1.0
  O  O55  1  0.13123000  0.64187000  0.45015000  1.0
  O  O56  1  0.11099000  0.35846000  0.48916000  1.0
  O  O57  1  0.87100000  0.64376000  0.51308000  1.0
