# generated using pymatgen
data_PH14AuC14I
_symmetry_space_group_name_H-M   'P 1'
_cell_length_a   11.27280000
_cell_length_b   11.27280000
_cell_length_c   11.81110000
_cell_angle_alpha   79.87460000
_cell_angle_beta   79.87460000
_cell_angle_gamma   77.66220000
_symmetry_Int_Tables_number   1
_chemical_formula_structural   PH14AuC14I
_chemical_formula_sum   'P4 H56 Au4 C56 I4'
_cell_volume   1428.41739431
_cell_formula_units_Z   4
loop_
 _symmetry_equiv_pos_site_id
 _symmetry_equiv_pos_as_xyz
  1  'x, y, z'
loop_
 _atom_site_type_symbol
 _atom_site_label
 _atom_site_symmetry_multiplicity
 _atom_site_fract_x
 _atom_site_fract_y
 _atom_site_fract_z
 _atom_site_occupancy
  P  P0  1  0.05083000  0.26031000  0.22451000  1.0
  P  P1  1  0.73969000  0.94917000  0.27549000  1.0
  P  P2  1  0.94917000  0.73969000  0.77549000  1.0
  P  P3  1  0.26031000  0.05083000  0.72451000  1.0
  H  H4  1  0.99929000  0.29024000  0.03393000  1.0
  H  H5  1  0.70976000  0.00071000  0.46606000  1.0
  H  H6  1  0.00071000  0.70976000  0.96606000  1.0
  H  H7  1  0.29024000  0.99929000  0.53394000  1.0
  H  H8  1  0.14989000  0.31672000  0.02999000  1.0
  H  H9  1  0.68328000  0.85011000  0.47001000  1.0
  H  H10  1  0.85011000  0.68328000  0.97001000  1.0
  H  H11  1  0.31672000  0.14989000  0.52999000  1.0
  H  H12  1  0.06214000  0.51961000  0.09875000  1.0
  H  H13  1  0.48039000  0.93786000  0.40125000  1.0
  H  H14  1  0.93786000  0.48039000  0.90125000  1.0
  H  H15  1  0.51961000  0.06214000  0.59875000  1.0
  H  H16  1  0.91104000  0.48930000  0.11445000  1.0
  H  H17  1  0.51070000  0.08895000  0.38555000  1.0
  H  H18  1  0.08896000  0.51070000  0.88555000  1.0
  H  H19  1  0.48930000  0.91104000  0.61445000  1.0
  H  H20  1  0.29055000  0.33251000  0.13948000  1.0
  H  H21  1  0.66749000  0.70945000  0.36052000  1.0
  H  H22  1  0.70945000  0.66748000  0.86052000  1.0
  H  H23  1  0.33251000  0.29055000  0.63948000  1.0
  H  H24  1  0.42637000  0.41883000  0.23249000  1.0
  H  H25  1  0.58116000  0.57363000  0.26751000  1.0
  H  H26  1  0.57363000  0.58116000  0.76751000  1.0
  H  H27  1  0.41884000  0.42636000  0.73249000  1.0
  H  H28  1  0.36089000  0.46948000  0.43422000  1.0
  H  H29  1  0.53052000  0.63911000  0.06578000  1.0
  H  H30  1  0.63911000  0.53052000  0.56578000  1.0
  H  H31  1  0.46948000  0.36089000  0.93422000  1.0
  H  H32  1  0.15869000  0.43163000  0.54250000  1.0
  H  H33  1  0.56837000  0.84131000  0.95750000  1.0
  H  H34  1  0.84131000  0.56837000  0.45750000  1.0
  H  H35  1  0.43164000  0.15869000  0.04250000  1.0
  H  H36  1  0.02391000  0.34041000  0.45087000  1.0
  H  H37  1  0.65959000  0.97609000  0.04913000  1.0
  H  H38  1  0.97609000  0.65959000  0.54913000  1.0
  H  H39  1  0.34041000  0.02391000  0.95087000  1.0
  H  H40  1  0.00218000  0.08095000  0.10348000  1.0
  H  H41  1  0.91905000  0.99782000  0.39652000  1.0
  H  H42  1  0.99781000  0.91905000  0.89652000  1.0
  H  H43  1  0.08095000  0.00219000  0.60348000  1.0
  H  H44  1  0.12219000  0.88023000  0.05323000  1.0
  H  H45  1  0.11976000  0.87781000  0.44677000  1.0
  H  H46  1  0.87781000  0.11977000  0.94677000  1.0
  H  H47  1  0.88024000  0.12219000  0.55323000  1.0
  H  H48  1  0.31935000  0.79323000  0.12560000  1.0
  H  H49  1  0.20677000  0.68065000  0.37440000  1.0
  H  H50  1  0.68065000  0.20677000  0.87440000  1.0
  H  H51  1  0.79323000  0.31935000  0.62560000  1.0
  H  H52  1  0.39925000  0.90453000  0.25119000  1.0
  H  H53  1  0.09547000  0.60075000  0.24881000  1.0
  H  H54  1  0.60075000  0.09547000  0.74881000  1.0
  H  H55  1  0.90453000  0.39925000  0.75119000  1.0
  H  H56  1  0.28301000  0.10768000  0.29903000  1.0
  H  H57  1  0.89232000  0.71699000  0.20097000  1.0
  H  H58  1  0.71699000  0.89232000  0.70097000  1.0
  H  H59  1  0.10768000  0.28301000  0.79903000  1.0
  Au  Au60  1  0.85605000  0.27255000  0.32028000  1.0
  Au  Au61  1  0.72745000  0.14396000  0.17972000  1.0
  Au  Au62  1  0.14396000  0.72745000  0.67972000  1.0
  Au  Au63  1  0.27255000  0.85605000  0.82028000  1.0
  C  C64  1  0.05476000  0.33606000  0.07416000  1.0
  C  C65  1  0.66394000  0.94524000  0.42584000  1.0
  C  C66  1  0.94524000  0.66394000  0.92584000  1.0
  C  C67  1  0.33606000  0.05476000  0.57416000  1.0
  C  C68  1  0.00340000  0.47293000  0.06342000  1.0
  C  C69  1  0.52707000  0.99660000  0.43658000  1.0
  C  C70  1  0.99660000  0.52707000  0.93658000  1.0
  C  C71  1  0.47293000  0.00340000  0.56342000  1.0
  C  C72  1  0.14837000  0.32948000  0.28994000  1.0
  C  C73  1  0.67052000  0.85163000  0.21006000  1.0
  C  C74  1  0.85163000  0.67052000  0.71006000  1.0
  C  C75  1  0.32948000  0.14837000  0.78994000  1.0
  C  C76  1  0.26143000  0.35332000  0.22805000  1.0
  C  C77  1  0.64668000  0.73857000  0.27195000  1.0
  C  C78  1  0.73856000  0.64668000  0.77195000  1.0
  C  C79  1  0.35332000  0.26143000  0.72805000  1.0
  C  C80  1  0.33786000  0.40264000  0.28022000  1.0
  C  C81  1  0.59736000  0.66214000  0.21977000  1.0
  C  C82  1  0.66214000  0.59736000  0.71978000  1.0
  C  C83  1  0.40264000  0.33786000  0.78022000  1.0
  C  C84  1  0.30154000  0.42978000  0.39380000  1.0
  C  C85  1  0.57022000  0.69846000  0.10620000  1.0
  C  C86  1  0.69846000  0.57022000  0.60620000  1.0
  C  C87  1  0.42978000  0.30154000  0.89380000  1.0
  C  C88  1  0.18849000  0.40819000  0.45485000  1.0
  C  C89  1  0.59181000  0.81150000  0.04515000  1.0
  C  C90  1  0.81151000  0.59181000  0.54515000  1.0
  C  C91  1  0.40819000  0.18849000  0.95485000  1.0
  C  C92  1  0.11207000  0.35772000  0.40334000  1.0
  C  C93  1  0.64229000  0.88793000  0.09666000  1.0
  C  C94  1  0.88793000  0.64228000  0.59666000  1.0
  C  C95  1  0.35771000  0.11207000  0.90334000  1.0
  C  C96  1  0.13634000  0.10847000  0.20260000  1.0
  C  C97  1  0.89153000  0.86366000  0.29740000  1.0
  C  C98  1  0.86365000  0.89153000  0.79740000  1.0
  C  C99  1  0.10848000  0.13634000  0.70260000  1.0
  C  C100  1  0.09074000  0.04374000  0.13377000  1.0
  C  C101  1  0.95626000  0.90927000  0.36624000  1.0
  C  C102  1  0.90926000  0.95626000  0.86623000  1.0
  C  C103  1  0.04374000  0.09074000  0.63377000  1.0
  C  C104  1  0.15725000  0.93125000  0.10607000  1.0
  C  C105  1  0.06875000  0.84276000  0.39393000  1.0
  C  C106  1  0.84275000  0.06875000  0.89393000  1.0
  C  C107  1  0.93125000  0.15724000  0.60607000  1.0
  C  C108  1  0.26865000  0.88176000  0.14754000  1.0
  C  C109  1  0.11824000  0.73135000  0.35246000  1.0
  C  C110  1  0.73135000  0.11824000  0.85246000  1.0
  C  C111  1  0.88176000  0.26865000  0.64754000  1.0
  C  C112  1  0.31322000  0.94455000  0.21762000  1.0
  C  C113  1  0.05545000  0.68678000  0.28238000  1.0
  C  C114  1  0.68678000  0.05545000  0.78238000  1.0
  C  C115  1  0.94455000  0.31322000  0.71762000  1.0
  C  C116  1  0.24743000  0.05804000  0.24528000  1.0
  C  C117  1  0.94195000  0.75257000  0.25472000  1.0
  C  C118  1  0.75257000  0.94196000  0.75472000  1.0
  C  C119  1  0.05805000  0.24743000  0.74528000  1.0
  I  I120  1  0.63833000  0.30265000  0.44521000  1.0
  I  I121  1  0.69734000  0.36167000  0.05480000  1.0
  I  I122  1  0.36167000  0.69735000  0.55480000  1.0
  I  I123  1  0.30265000  0.63833000  0.94521000  1.0
