# generated using pymatgen
data_V2NiH17C18N3O7
_symmetry_space_group_name_H-M   'P 1'
_cell_length_a   7.75548000
_cell_length_b   11.36230000
_cell_length_c   13.50140000
_cell_angle_alpha   92.19020000
_cell_angle_beta   105.92100000
_cell_angle_gamma   109.54500000
_symmetry_Int_Tables_number   1
_chemical_formula_structural   V2NiH17C18N3O7
_chemical_formula_sum   'V4 Ni2 H34 C36 N6 O14'
_cell_volume   1067.03339945
_cell_formula_units_Z   2
loop_
 _symmetry_equiv_pos_site_id
 _symmetry_equiv_pos_as_xyz
  1  'x, y, z'
loop_
 _atom_site_type_symbol
 _atom_site_label
 _atom_site_symmetry_multiplicity
 _atom_site_fract_x
 _atom_site_fract_y
 _atom_site_fract_z
 _atom_site_occupancy
  V  V0  1  0.09192000  0.31406000  0.01632000  1.0
  V  V1  1  0.90809000  0.68592000  0.98368000  1.0
  V  V2  1  0.22466000  0.57278000  0.14116000  1.0
  V  V3  1  0.77534000  0.42720000  0.85884000  1.0
  Ni  Ni4  1  0.49998000  0.49999000  0.99999000  1.0
  Ni  Ni5  1  0.00000000  0.99999000  0.00000000  1.0
  H  H6  1  0.86787000  0.11435000  0.15251000  1.0
  H  H7  1  0.13212000  0.88564000  0.84749000  1.0
  H  H8  1  0.84799000  0.09707000  0.33175000  1.0
  H  H9  1  0.15200000  0.90292000  0.66826000  1.0
  H  H10  1  0.15883000  0.84049000  0.35085000  1.0
  H  H11  1  0.84116000  0.15950000  0.64916000  1.0
  H  H12  1  0.16135000  0.86697000  0.17093000  1.0
  H  H13  1  0.83865000  0.13302000  0.82908000  1.0
  H  H14  1  0.08784000  0.89622000  0.50433000  1.0
  H  H15  1  0.91214000  0.10377000  0.49568000  1.0
  H  H16  1  0.35141000  0.34040000  0.78739000  1.0
  H  H17  1  0.64858000  0.65961000  0.21259000  1.0
  H  H18  1  0.16253000  0.34330000  0.60793000  1.0
  H  H19  1  0.83747000  0.65673000  0.39205000  1.0
  H  H20  1  0.08284000  0.67435000  0.72599000  1.0
  H  H21  1  0.91718000  0.32568000  0.27401000  1.0
  H  H22  1  0.28636000  0.66109000  0.90045000  1.0
  H  H23  1  0.71364000  0.33891000  0.09956000  1.0
  H  H24  1  0.92274000  0.59099000  0.54560000  1.0
  H  H25  1  0.07731000  0.40906000  0.45439000  1.0
  H  H26  1  0.34270000  0.05825000  0.97946000  1.0
  H  H27  1  0.65729000  0.94174000  0.02054000  1.0
  H  H28  1  0.32654000  0.18419000  0.02224000  1.0
  H  H29  1  0.67346000  0.81578000  0.97777000  1.0
  H  H30  1  0.59172000  0.10043000  0.52602000  1.0
  H  H31  1  0.40829000  0.89957000  0.47398000  1.0
  H  H32  1  0.56277000  0.29901000  0.58367000  1.0
  H  H33  1  0.43726000  0.70100000  0.41633000  1.0
  H  H34  1  0.38762000  0.34672000  0.25880000  1.0
  H  H35  1  0.61238000  0.65328000  0.74120000  1.0
  H  H36  1  0.44038000  0.14903000  0.21602000  1.0
  H  H37  1  0.55960000  0.85097000  0.78398000  1.0
  H  H38  1  0.40666000  0.50889000  0.38499000  1.0
  H  H39  1  0.59336000  0.49113000  0.61501000  1.0
  C  C40  1  0.92952000  0.05419000  0.19986000  1.0
  C  C41  1  0.07048000  0.94580000  0.80014000  1.0
  C  C42  1  0.92390000  0.04654000  0.30098000  1.0
  C  C43  1  0.07610000  0.95345000  0.69903000  1.0
  C  C44  1  0.01161000  0.97124000  0.36094000  1.0
  C  C45  1  0.98839000  0.02875000  0.63906000  1.0
  C  C46  1  0.09279000  0.90313000  0.31069000  1.0
  C  C47  1  0.90722000  0.09687000  0.68932000  1.0
  C  C48  1  0.09397000  0.91669000  0.20922000  1.0
  C  C49  1  0.90604000  0.08331000  0.79079000  1.0
  C  C50  1  0.02554000  0.96396000  0.46988000  1.0
  C  C51  1  0.97443000  0.03601000  0.53012000  1.0
  C  C52  1  0.29158000  0.41397000  0.77005000  1.0
  C  C53  1  0.70841000  0.58604000  0.22994000  1.0
  C  C54  1  0.18496000  0.41661000  0.66954000  1.0
  C  C55  1  0.81503000  0.58341000  0.33045000  1.0
  C  C56  1  0.10867000  0.51263000  0.64900000  1.0
  C  C57  1  0.89135000  0.48740000  0.35099000  1.0
  C  C58  1  0.14305000  0.60003000  0.73522000  1.0
  C  C59  1  0.85697000  0.39999000  0.26478000  1.0
  C  C60  1  0.25573000  0.59337000  0.83288000  1.0
  C  C61  1  0.74426000  0.40664000  0.16712000  1.0
  C  C62  1  0.00243000  0.52764000  0.54586000  1.0
  C  C63  1  0.99760000  0.47239000  0.45413000  1.0
  C  C64  1  0.55292000  0.15955000  0.46843000  1.0
  C  C65  1  0.44708000  0.84045000  0.53157000  1.0
  C  C66  1  0.53342000  0.27068000  0.50075000  1.0
  C  C67  1  0.46659000  0.72933000  0.49925000  1.0
  C  C68  1  0.47796000  0.34451000  0.42561000  1.0
  C  C69  1  0.52205000  0.65549000  0.57440000  1.0
  C  C70  1  0.43678000  0.29595000  0.32091000  1.0
  C  C71  1  0.56322000  0.70406000  0.67909000  1.0
  C  C72  1  0.46585000  0.18496000  0.29697000  1.0
  C  C73  1  0.53414000  0.81504000  0.70304000  1.0
  C  C74  1  0.46747000  0.46735000  0.45140000  1.0
  C  C75  1  0.53253000  0.53265000  0.54860000  1.0
  N  N76  1  0.01457000  0.99153000  0.15368000  1.0
  N  N77  1  0.98544000  0.00846000  0.84633000  1.0
  N  N78  1  0.33094000  0.50244000  0.85084000  1.0
  N  N79  1  0.66904000  0.49756000  0.14915000  1.0
  N  N80  1  0.52580000  0.11679000  0.36882000  1.0
  N  N81  1  0.47418000  0.88320000  0.63119000  1.0
  O  O82  1  0.36206000  0.59006000  0.06203000  1.0
  O  O83  1  0.63794000  0.40994000  0.93796000  1.0
  O  O84  1  0.30882000  0.32293000  0.00647000  1.0
  O  O85  1  0.69116000  0.67705000  0.99351000  1.0
  O  O86  1  0.96727000  0.36817000  0.90804000  1.0
  O  O87  1  0.03271000  0.63182000  0.09195000  1.0
  O  O88  1  0.96303000  0.16308000  0.01560000  1.0
  O  O89  1  0.03698000  0.83690000  0.98441000  1.0
  O  O90  1  0.12352000  0.40199000  0.13706000  1.0
  O  O91  1  0.87651000  0.59800000  0.86294000  1.0
  O  O92  1  0.35423000  0.64163000  0.25926000  1.0
  O  O93  1  0.64576000  0.35837000  0.74073000  1.0
  O  O94  1  0.30901000  0.09423000  0.03477000  1.0
  O  O95  1  0.69097000  0.90575000  0.96522000  1.0
