# generated using pymatgen
data_NiH14C14(NO2)2
_symmetry_space_group_name_H-M   'P 1'
_cell_length_a   8.47137000
_cell_length_b   9.15057000
_cell_length_c   9.15050000
_cell_angle_alpha   73.69900000
_cell_angle_beta   86.24000000
_cell_angle_gamma   93.76140000
_symmetry_Int_Tables_number   1
_chemical_formula_structural   NiH14C14(NO2)2
_chemical_formula_sum   'Ni2 H28 C28 N4 O8'
_cell_volume   676.72859111
_cell_formula_units_Z   2
loop_
 _symmetry_equiv_pos_site_id
 _symmetry_equiv_pos_as_xyz
  1  'x, y, z'
loop_
 _atom_site_type_symbol
 _atom_site_label
 _atom_site_symmetry_multiplicity
 _atom_site_fract_x
 _atom_site_fract_y
 _atom_site_fract_z
 _atom_site_occupancy
  Ni  Ni0  1  0.98075000  0.15320000  0.63090000  1.0
  Ni  Ni1  1  0.48075000  0.36909000  0.84681000  1.0
  H  H2  1  0.68264000  0.03055000  0.51035000  1.0
  H  H3  1  0.18264000  0.48962000  0.96946000  1.0
  H  H4  1  0.54222000  0.80761000  0.41848000  1.0
  H  H5  1  0.04222000  0.58153000  0.19239000  1.0
  H  H6  1  0.57475000  0.62204000  0.52698000  1.0
  H  H7  1  0.07475000  0.47303000  0.37795000  1.0
  H  H8  1  0.07067000  0.82315000  0.72085000  1.0
  H  H9  1  0.57067000  0.27917000  0.17687000  1.0
  H  H10  1  0.92174000  0.61102000  0.60608000  1.0
  H  H11  1  0.42173000  0.39394000  0.38899000  1.0
  H  H12  1  0.79443000  0.61240000  0.33316000  1.0
  H  H13  1  0.29443000  0.66684000  0.38761000  1.0
  H  H14  1  0.60511000  0.62590000  0.26457000  1.0
  H  H15  1  0.10511000  0.73543000  0.37410000  1.0
  H  H16  1  0.77991000  0.49129000  0.96621000  1.0
  H  H17  1  0.27989000  0.03379000  0.50871000  1.0
  H  H18  1  0.88867000  0.89932000  0.95013000  1.0
  H  H19  1  0.38869000  0.04986000  0.10070000  1.0
  H  H20  1  0.92098000  0.71365000  0.05845000  1.0
  H  H21  1  0.42097000  0.94155000  0.28637000  1.0
  H  H22  1  0.39160000  0.69944000  0.75686000  1.0
  H  H23  1  0.89160000  0.24315000  0.30053000  1.0
  H  H24  1  0.54150000  0.91106000  0.87176000  1.0
  H  H25  1  0.04150000  0.12824000  0.08893000  1.0
  H  H26  1  0.85867000  0.89555000  0.21255000  1.0
  H  H27  1  0.35869000  0.78745000  0.10446000  1.0
  H  H28  1  0.66926000  0.90924000  0.14411000  1.0
  H  H29  1  0.16928000  0.85589000  0.09075000  1.0
  C  C30  1  0.70435000  0.29501000  0.65805000  1.0
  C  C31  1  0.20437000  0.34193000  0.70499000  1.0
  C  C32  1  0.75686000  0.79386000  0.52648000  1.0
  C  C33  1  0.25685000  0.47353000  0.20614000  1.0
  C  C34  1  0.76203000  0.94160000  0.54802000  1.0
  C  C35  1  0.26202000  0.45197000  0.05841000  1.0
  C  C36  1  0.63410000  0.72738000  0.44776000  1.0
  C  C37  1  0.13411000  0.55225000  0.27261000  1.0
  C  C38  1  0.96561000  0.83248000  0.65830000  1.0
  C  C39  1  0.46559000  0.34171000  0.16752000  1.0
  C  C40  1  0.88691000  0.72527000  0.59698000  1.0
  C  C41  1  0.38691000  0.40303000  0.27474000  1.0
  C  C42  1  0.70007000  0.69030000  0.30312000  1.0
  C  C43  1  0.20008000  0.69688000  0.30970000  1.0
  C  C44  1  0.70616000  0.72792000  0.95060000  1.0
  C  C45  1  0.20615000  0.04940000  0.27208000  1.0
  C  C46  1  0.70059000  0.58032000  0.92873000  1.0
  C  C47  1  0.20059000  0.07127000  0.41968000  1.0
  C  C48  1  0.82919000  0.79404000  0.02930000  1.0
  C  C49  1  0.32920000  0.97070000  0.20597000  1.0
  C  C50  1  0.49679000  0.68978000  0.81926000  1.0
  C  C51  1  0.99679000  0.18074000  0.31020000  1.0
  C  C52  1  0.57595000  0.79673000  0.88063000  1.0
  C  C53  1  0.07594000  0.11937000  0.20326000  1.0
  C  C54  1  0.76358000  0.83127000  0.17401000  1.0
  C  C55  1  0.26359000  0.82599000  0.16873000  1.0
  C  C56  1  0.75683000  0.22674000  0.81944000  1.0
  C  C57  1  0.25682000  0.18056000  0.77325000  1.0
  N  N58  1  0.88489000  0.96089000  0.63290000  1.0
  N  N59  1  0.38489000  0.36710000  0.03911000  1.0
  N  N60  1  0.57735000  0.56126000  0.84422000  1.0
  N  N61  1  0.07735000  0.15580000  0.43872000  1.0
  O  O62  1  0.78371000  0.27173000  0.54666000  1.0
  O  O63  1  0.28372000  0.45334000  0.72827000  1.0
  O  O64  1  0.87823000  0.15073000  0.82977000  1.0
  O  O65  1  0.37823000  0.17021000  0.84927000  1.0
  O  O66  1  0.67747000  0.25005000  0.93082000  1.0
  O  O67  1  0.17748000  0.06919000  0.74994000  1.0
  O  O68  1  0.58281000  0.37079000  0.64789000  1.0
  O  O69  1  0.08282000  0.35212000  0.62920000  1.0
