# generated using pymatgen
data_MgH19C23O3
_symmetry_space_group_name_H-M   'P 1'
_cell_length_a   6.93929000
_cell_length_b   44.26430000
_cell_length_c   44.26430000
_cell_angle_alpha   119.72900000
_cell_angle_beta   92.99630000
_cell_angle_gamma   92.99510000
_symmetry_Int_Tables_number   1
_chemical_formula_structural   MgH19C23O3
_chemical_formula_sum   'Mg6 H114 C138 O18'
_cell_volume   11742.66106099
_cell_formula_units_Z   6
loop_
 _symmetry_equiv_pos_site_id
 _symmetry_equiv_pos_as_xyz
  1  'x, y, z'
loop_
 _atom_site_type_symbol
 _atom_site_label
 _atom_site_symmetry_multiplicity
 _atom_site_fract_x
 _atom_site_fract_y
 _atom_site_fract_z
 _atom_site_occupancy
  Mg  Mg0  1  0.77417000  0.68898000  0.33126000  1.0
  Mg  Mg1  1  0.08520000  0.64229000  0.31100000  1.0
  Mg  Mg2  1  0.44296000  0.66873000  0.35770000  1.0
  Mg  Mg3  1  0.32106000  0.31090000  0.66865000  1.0
  Mg  Mg4  1  0.01019000  0.35775000  0.68912000  1.0
  Mg  Mg5  1  0.65240000  0.33137000  0.64225000  1.0
  H  H6  1  0.06200000  0.37036000  0.77102000  1.0
  H  H7  1  0.69157000  0.40063000  0.62963000  1.0
  H  H8  1  0.29086000  0.22897000  0.59936000  1.0
  H  H9  1  0.78212000  0.39669000  0.87228000  1.0
  H  H10  1  0.38542000  0.47560000  0.60332000  1.0
  H  H11  1  0.90973000  0.12772000  0.52442000  1.0
  H  H12  1  0.55286000  0.44385000  0.98099000  1.0
  H  H13  1  0.10888000  0.53715000  0.55616000  1.0
  H  H14  1  0.57177000  0.01900000  0.46284000  1.0
  H  H15  1  0.22819000  0.57224000  0.06219000  1.0
  H  H16  1  0.65587000  0.48994000  0.42776000  1.0
  H  H17  1  0.16602000  0.93783000  0.51005000  1.0
  H  H18  1  0.62563000  0.47598000  0.04036000  1.0
  H  H19  1  0.14960000  0.56437000  0.52402000  1.0
  H  H20  1  0.58526000  0.95965000  0.43562000  1.0
  H  H21  1  0.38968000  0.50650000  0.12027000  1.0
  H  H22  1  0.88326000  0.61376000  0.49348000  1.0
  H  H23  1  0.26950000  0.87973000  0.38624000  1.0
  H  H24  1  0.55067000  0.47767000  0.09162000  1.0
  H  H25  1  0.07309000  0.61394000  0.52231000  1.0
  H  H26  1  0.45910000  0.90838000  0.38605000  1.0
  H  H27  1  0.29717000  0.46785000  0.08192000  1.0
  H  H28  1  0.82944000  0.61408000  0.53215000  1.0
  H  H29  1  0.21528000  0.91807000  0.38591000  1.0
  H  H30  1  0.05995000  0.62801000  0.17568000  1.0
  H  H31  1  0.43224000  0.54768000  0.37199000  1.0
  H  H32  1  0.88433000  0.82433000  0.45234000  1.0
  H  H33  1  0.04891000  0.50121000  0.09635000  1.0
  H  H34  1  0.54755000  0.59514000  0.49880000  1.0
  H  H35  1  0.95243000  0.90366000  0.40485000  1.0
  H  H36  1  0.67876000  0.51938000  0.15366000  1.0
  H  H37  1  0.15927000  0.63428000  0.48061000  1.0
  H  H38  1  0.52507000  0.84634000  0.36572000  1.0
  H  H39  1  0.90214000  0.51789000  0.17338000  1.0
  H  H40  1  0.38419000  0.65549000  0.48211000  1.0
  H  H41  1  0.72876000  0.82662000  0.34449000  1.0
  H  H42  1  0.84069000  0.48853000  0.12818000  1.0
  H  H43  1  0.35206000  0.63964000  0.51146000  1.0
  H  H44  1  0.71247000  0.87183000  0.36036000  1.0
  H  H45  1  0.04361000  0.62366000  0.23011000  1.0
  H  H46  1  0.42009000  0.60648000  0.37634000  1.0
  H  H47  1  0.81353000  0.76987000  0.39351000  1.0
  H  H48  1  0.33548000  0.59188000  0.21144000  1.0
  H  H49  1  0.74368000  0.61952000  0.40806000  1.0
  H  H50  1  0.12399000  0.78853000  0.38045000  1.0
  H  H51  1  0.53158000  0.56729000  0.16067000  1.0
  H  H52  1  0.96433000  0.59334000  0.43266000  1.0
  H  H53  1  0.37080000  0.83932000  0.40667000  1.0
  H  H54  1  0.46604000  0.60287000  0.12099000  1.0
  H  H55  1  0.86324000  0.51809000  0.39714000  1.0
  H  H56  1  0.34492000  0.87906000  0.48191000  1.0
  H  H57  1  0.36694000  0.63636000  0.15795000  1.0
  H  H58  1  0.73063000  0.52159000  0.36367000  1.0
  H  H59  1  0.20887000  0.84209000  0.47842000  1.0
  H  H60  1  0.27467000  0.62493000  0.11520000  1.0
  H  H61  1  0.64973000  0.49027000  0.37510000  1.0
  H  H62  1  0.15930000  0.88484000  0.50975000  1.0
  H  H63  1  0.49173000  0.54278000  0.98350000  1.0
  H  H64  1  0.94903000  0.44071000  0.45721000  1.0
  H  H65  1  0.50833000  0.01648000  0.55928000  1.0
  H  H66  1  0.50574000  0.58365000  0.02262000  1.0
  H  H67  1  0.92219000  0.43898000  0.41634000  1.0
  H  H68  1  0.48322000  0.97736000  0.56103000  1.0
  H  H69  1  0.27779000  0.56092000  0.00229000  1.0
  H  H70  1  0.71696000  0.44135000  0.43907000  1.0
  H  H71  1  0.27563000  0.99768000  0.55861000  1.0
  H  H72  1  0.98398000  0.50900000  0.94486000  1.0
  H  H73  1  0.47498000  0.43589000  0.49103000  1.0
  H  H74  1  0.03910000  0.05515000  0.56412000  1.0
  H  H75  1  0.79843000  0.56295000  0.03130000  1.0
  H  H76  1  0.23557000  0.46837000  0.43707000  1.0
  H  H77  1  0.76722000  0.96872000  0.53166000  1.0
  H  H78  1  0.81272000  0.56685000  0.99334000  1.0
  H  H79  1  0.24593000  0.42651000  0.43318000  1.0
  H  H80  1  0.81946000  0.00669000  0.57352000  1.0
  H  H81  1  0.01615000  0.55626000  0.01080000  1.0
  H  H82  1  0.45998000  0.45455000  0.44375000  1.0
  H  H83  1  0.00546000  0.98921000  0.54547000  1.0
  H  H84  1  0.87120000  0.38818000  0.91856000  1.0
  H  H85  1  0.48288000  0.53037000  0.61181000  1.0
  H  H86  1  0.95264000  0.08143000  0.46962000  1.0
  H  H87  1  0.62244000  0.38726000  0.90665000  1.0
  H  H88  1  0.23508000  0.51941000  0.61278000  1.0
  H  H89  1  0.71578000  0.09334000  0.48060000  1.0
  H  H90  1  0.69503000  0.39282000  0.94809000  1.0
  H  H91  1  0.30209000  0.55528000  0.60719000  1.0
  H  H92  1  0.74691000  0.05190000  0.44470000  1.0
  H  H93  1  0.41128000  0.45143000  0.87113000  1.0
  H  H94  1  0.95969000  0.41969000  0.54856000  1.0
  H  H95  1  0.53993000  0.12888000  0.58034000  1.0
  H  H96  1  0.25859000  0.48775000  0.95788000  1.0
  H  H97  1  0.77070000  0.47011000  0.51224000  1.0
  H  H98  1  0.30062000  0.04212000  0.52986000  1.0
  H  H99  1  0.27111000  0.51016000  0.93415000  1.0
  H  H100  1  0.76083000  0.42397000  0.48982000  1.0
  H  H101  1  0.33688000  0.06583000  0.57600000  1.0
  H  H102  1  0.45087000  0.48216000  0.93114000  1.0
  H  H103  1  0.96852000  0.44896000  0.51783000  1.0
  H  H104  1  0.51961000  0.06886000  0.55102000  1.0
  H  H105  1  0.05409000  0.33862000  0.80163000  1.0
  H  H106  1  0.71553000  0.46301000  0.66137000  1.0
  H  H107  1  0.25245000  0.19836000  0.53701000  1.0
  H  H108  1  0.84050000  0.35523000  0.79448000  1.0
  H  H109  1  0.48525000  0.43925000  0.64478000  1.0
  H  H110  1  0.04593000  0.20554000  0.56076000  1.0
  H  H111  1  0.85446000  0.34302000  0.82680000  1.0
  H  H112  1  0.51151000  0.48378000  0.65697000  1.0
  H  H113  1  0.02767000  0.17321000  0.51623000  1.0
  H  H114  1  0.58955000  0.41808000  0.83956000  1.0
  H  H115  1  0.17136000  0.42150000  0.58194000  1.0
  H  H116  1  0.74995000  0.16044000  0.57851000  1.0
  H  H117  1  0.76816000  0.40259000  0.78817000  1.0
  H  H118  1  0.36549000  0.38558000  0.59741000  1.0
  H  H119  1  0.97993000  0.21185000  0.61441000  1.0
  C  C120  1  0.31983000  0.36551000  0.74581000  1.0
  C  C121  1  0.95433000  0.38031000  0.63452000  1.0
  C  C122  1  0.57387000  0.25421000  0.61971000  1.0
  C  C123  1  0.21804000  0.37669000  0.77576000  1.0
  C  C124  1  0.84128000  0.39905000  0.62330000  1.0
  C  C125  1  0.44217000  0.22424000  0.60096000  1.0
  C  C126  1  0.30873000  0.39550000  0.80975000  1.0
  C  C127  1  0.91313000  0.41424000  0.60450000  1.0
  C  C128  1  0.49889000  0.19025000  0.58578000  1.0
  C  C129  1  0.19784000  0.40803000  0.84087000  1.0
  C  C130  1  0.78961000  0.43280000  0.59194000  1.0
  C  C131  1  0.35674000  0.15915000  0.56721000  1.0
  C  C132  1  0.02110000  0.39148000  0.84243000  1.0
  C  C133  1  0.62953000  0.45093000  0.60850000  1.0
  C  C134  1  0.17849000  0.15758000  0.54908000  1.0
  C  C135  1  0.92286000  0.40891000  0.87249000  1.0
  C  C136  1  0.51391000  0.46359000  0.59110000  1.0
  C  C137  1  0.05023000  0.12751000  0.53642000  1.0
  C  C138  1  0.99440000  0.44041000  0.90259000  1.0
  C  C139  1  0.55387000  0.46219000  0.55959000  1.0
  C  C140  1  0.09169000  0.09740000  0.53781000  1.0
  C  C141  1  0.87862000  0.45749000  0.93323000  1.0
  C  C142  1  0.42097000  0.47576000  0.54253000  1.0
  C  C143  1  0.94527000  0.06676000  0.52424000  1.0
  C  C144  1  0.75718000  0.43901000  0.94471000  1.0
  C  C145  1  0.31794000  0.50570000  0.56101000  1.0
  C  C146  1  0.81241000  0.05528000  0.49427000  1.0
  C  C147  1  0.65274000  0.45828000  0.97339000  1.0
  C  C148  1  0.19429000  0.51511000  0.54173000  1.0
  C  C149  1  0.67930000  0.02659000  0.48486000  1.0
  C  C150  1  0.66824000  0.49497000  0.99321000  1.0
  C  C151  1  0.17321000  0.49825000  0.50504000  1.0
  C  C152  1  0.67509000  0.00677000  0.50174000  1.0
  C  C153  1  0.54775000  0.51160000  0.02308000  1.0
  C  C154  1  0.03604000  0.51148000  0.48841000  1.0
  C  C155  1  0.52477000  0.97691000  0.48851000  1.0
  C  C156  1  0.43420000  0.53956000  0.02966000  1.0
  C  C157  1  0.89449000  0.49010000  0.46045000  1.0
  C  C158  1  0.40463000  0.97032000  0.50988000  1.0
  C  C159  1  0.31795000  0.55108000  0.05753000  1.0
  C  C160  1  0.76673000  0.50646000  0.44894000  1.0
  C  C161  1  0.26039000  0.94247000  0.49353000  1.0
  C  C162  1  0.30573000  0.53655000  0.07928000  1.0
  C  C163  1  0.76904000  0.54273000  0.46348000  1.0
  C  C164  1  0.22631000  0.92074000  0.45726000  1.0
  C  C165  1  0.41657000  0.50819000  0.07233000  1.0
  C  C166  1  0.90828000  0.56414000  0.49183000  1.0
  C  C167  1  0.34418000  0.92768000  0.43585000  1.0
  C  C168  1  0.53521000  0.49706000  0.04492000  1.0
  C  C169  1  0.03804000  0.54786000  0.50295000  1.0
  C  C170  1  0.49029000  0.95508000  0.45213000  1.0
  C  C171  1  0.41367000  0.48931000  0.09278000  1.0
  C  C172  1  0.92443000  0.60347000  0.51068000  1.0
  C  C173  1  0.32091000  0.90722000  0.39652000  1.0
  C  C174  1  0.17983000  0.55152000  0.10848000  1.0
  C  C175  1  0.62818000  0.55696000  0.44850000  1.0
  C  C176  1  0.07115000  0.89155000  0.44304000  1.0
  C  C177  1  0.18679000  0.58793000  0.13190000  1.0
  C  C178  1  0.59893000  0.54398000  0.41209000  1.0
  C  C179  1  0.05481000  0.86813000  0.45604000  1.0
  C  C180  1  0.05797000  0.59990000  0.15789000  1.0
  C  C181  1  0.45826000  0.55799000  0.40010000  1.0
  C  C182  1  0.90004000  0.84212000  0.44202000  1.0
  C  C183  1  0.92953000  0.57762000  0.16288000  1.0
  C  C184  1  0.35202000  0.58526000  0.42237000  1.0
  C  C185  1  0.76659000  0.83712000  0.41474000  1.0
  C  C186  1  0.93262000  0.54118000  0.14124000  1.0
  C  C187  1  0.39137000  0.60005000  0.45881000  1.0
  C  C188  1  0.79136000  0.85876000  0.39994000  1.0
  C  C189  1  0.05244000  0.52931000  0.11395000  1.0
  C  C190  1  0.52297000  0.58463000  0.47070000  1.0
  C  C191  1  0.93835000  0.88607000  0.41536000  1.0
  C  C192  1  0.83137000  0.51541000  0.14929000  1.0
  C  C193  1  0.31586000  0.63388000  0.48459000  1.0
  C  C194  1  0.68206000  0.85071000  0.36611000  1.0
  C  C195  1  0.80396000  0.59292000  0.19201000  1.0
  C  C196  1  0.21116000  0.59907000  0.40704000  1.0
  C  C197  1  0.61193000  0.80798000  0.40092000  1.0
  C  C198  1  0.88762000  0.61676000  0.22548000  1.0
  C  C199  1  0.27099000  0.60874000  0.38323000  1.0
  C  C200  1  0.66218000  0.77451000  0.39125000  1.0
  C  C201  1  0.77931000  0.63191000  0.25471000  1.0
  C  C202  1  0.14757000  0.62282000  0.36807000  1.0
  C  C203  1  0.52463000  0.74527000  0.37717000  1.0
  C  C204  1  0.57518000  0.62183000  0.24947000  1.0
  C  C205  1  0.95347000  0.62763000  0.37814000  1.0
  C  C206  1  0.32572000  0.75051000  0.37233000  1.0
  C  C207  1  0.49155000  0.59866000  0.21516000  1.0
  C  C208  1  0.89296000  0.61645000  0.40127000  1.0
  C  C209  1  0.27634000  0.78482000  0.38352000  1.0
  C  C210  1  0.60144000  0.58447000  0.18687000  1.0
  C  C211  1  0.01703000  0.60234000  0.41546000  1.0
  C  C212  1  0.41449000  0.81312000  0.39766000  1.0
  C  C213  1  0.45071000  0.63303000  0.27845000  1.0
  C  C214  1  0.81777000  0.64542000  0.36695000  1.0
  C  C215  1  0.17227000  0.72154000  0.35454000  1.0
  C  C216  1  0.33132000  0.61428000  0.13135000  1.0
  C  C217  1  0.71710000  0.51707000  0.38575000  1.0
  C  C218  1  0.19982000  0.86870000  0.48295000  1.0
  C  C219  1  0.42775000  0.55744000  0.00824000  1.0
  C  C220  1  0.87039000  0.45081000  0.44256000  1.0
  C  C221  1  0.41966000  0.99173000  0.54918000  1.0
  C  C222  1  0.79961000  0.51332000  0.98348000  1.0
  C  C223  1  0.28638000  0.47019000  0.48671000  1.0
  C  C224  1  0.81624000  0.01652000  0.52982000  1.0
  C  C225  1  0.89196000  0.49419000  0.95305000  1.0
  C  C226  1  0.39775000  0.45888000  0.50583000  1.0
  C  C227  1  0.93891000  0.04695000  0.54113000  1.0
  C  C228  1  0.85785000  0.55193000  0.00587000  1.0
  C  C229  1  0.30603000  0.45397000  0.44810000  1.0
  C  C230  1  0.85209000  0.99415000  0.54606000  1.0
  C  C231  1  0.73627000  0.39979000  0.92856000  1.0
  C  C232  1  0.33630000  0.52878000  0.60023000  1.0
  C  C233  1  0.80768000  0.07143000  0.47121000  1.0
  C  C234  1  0.18166000  0.45467000  0.90215000  1.0
  C  C235  1  0.72679000  0.44746000  0.54532000  1.0
  C  C236  1  0.27934000  0.09785000  0.55253000  1.0
  C  C237  1  0.27237000  0.43881000  0.87127000  1.0
  C  C238  1  0.83334000  0.43244000  0.56117000  1.0
  C  C239  1  0.40084000  0.12874000  0.56759000  1.0
  C  C240  1  0.29532000  0.48526000  0.93300000  1.0
  C  C241  1  0.80986000  0.44772000  0.51473000  1.0
  C  C242  1  0.36220000  0.06699000  0.55225000  1.0
  C  C243  1  0.93898000  0.35527000  0.81478000  1.0
  C  C244  1  0.58371000  0.45950000  0.64473000  1.0
  C  C245  1  0.12411000  0.18523000  0.54051000  1.0
  C  C246  1  0.51141000  0.40417000  0.81372000  1.0
  C  C247  1  0.10716000  0.40957000  0.59585000  1.0
  C  C248  1  0.69764000  0.18628000  0.59045000  1.0
  C  C249  1  0.61322000  0.39493000  0.78486000  1.0
  C  C250  1  0.21825000  0.38994000  0.60508000  1.0
  C  C251  1  0.82827000  0.21515000  0.61006000  1.0
  C  C252  1  0.52368000  0.37546000  0.75050000  1.0
  C  C253  1  0.14824000  0.37506000  0.62457000  1.0
  C  C254  1  0.77306000  0.24951000  0.62495000  1.0
  C  C255  1  0.64410000  0.36667000  0.72134000  1.0
  C  C256  1  0.27742000  0.35468000  0.63335000  1.0
  C  C257  1  0.92260000  0.27868000  0.64533000  1.0
  O  O258  1  0.27248000  0.62167000  0.27336000  1.0
  O  O259  1  0.65085000  0.65168000  0.37831000  1.0
  O  O260  1  0.99911000  0.72663000  0.34828000  1.0
  O  O261  1  0.52801000  0.65467000  0.30977000  1.0
  O  O262  1  0.87339000  0.65511000  0.34532000  1.0
  O  O263  1  0.21827000  0.69022000  0.34486000  1.0
  O  O264  1  0.87606000  0.65435000  0.28578000  1.0
  O  O265  1  0.22190000  0.63145000  0.34564000  1.0
  O  O266  1  0.59040000  0.71422000  0.36855000  1.0
  O  O267  1  0.82247000  0.37803000  0.72664000  1.0
  O  O268  1  0.44442000  0.34861000  0.62199000  1.0
  O  O269  1  0.09567000  0.27341000  0.65141000  1.0
  O  O270  1  0.56357000  0.34670000  0.68990000  1.0
  O  O271  1  0.21687000  0.34322000  0.65333000  1.0
  O  O272  1  0.87345000  0.31012000  0.65677000  1.0
  O  O273  1  0.21921000  0.34624000  0.71440000  1.0
  O  O274  1  0.87293000  0.36819000  0.65380000  1.0
  O  O275  1  0.50459000  0.28561000  0.63183000  1.0
