# generated using pymatgen
data_CdH32C18(N3O4)2
_symmetry_space_group_name_H-M   'P 1'
_cell_length_a   5.41519000
_cell_length_b   9.18494000
_cell_length_c   13.04130000
_cell_angle_alpha   107.27200000
_cell_angle_beta   101.95800000
_cell_angle_gamma   90.01820000
_symmetry_Int_Tables_number   1
_chemical_formula_structural   CdH32C18(N3O4)2
_chemical_formula_sum   'Cd1 H32 C18 N6 O8'
_cell_volume   604.63040538
_cell_formula_units_Z   1
loop_
 _symmetry_equiv_pos_site_id
 _symmetry_equiv_pos_as_xyz
  1  'x, y, z'
loop_
 _atom_site_type_symbol
 _atom_site_label
 _atom_site_symmetry_multiplicity
 _atom_site_fract_x
 _atom_site_fract_y
 _atom_site_fract_z
 _atom_site_occupancy
  Cd  Cd0  1  0.15746000  0.99988000  0.99998000  1.0
  H  H1  1  0.33248000  0.54642000  0.25626000  1.0
  H  H2  1  0.07783000  0.45330000  0.74386000  1.0
  H  H3  1  0.13350000  0.77492000  0.33534000  1.0
  H  H4  1  0.79978000  0.22507000  0.66483000  1.0
  H  H5  1  0.79405000  0.02789000  0.12856000  1.0
  H  H6  1  0.66560000  0.97220000  0.87158000  1.0
  H  H7  1  0.71816000  0.87324000  0.02570000  1.0
  H  H8  1  0.69316000  0.12692000  0.97445000  1.0
  H  H9  1  0.78853000  0.40758000  0.20648000  1.0
  H  H10  1  0.58317000  0.59293000  0.79338000  1.0
  H  H11  1  0.85663000  0.40050000  0.39917000  1.0
  H  H12  1  0.45767000  0.59954000  0.60059000  1.0
  H  H13  1  0.78186000  0.21401000  0.30312000  1.0
  H  H14  1  0.47847000  0.78608000  0.69647000  1.0
  H  H15  1  0.54738000  0.30958000  0.37144000  1.0
  H  H16  1  0.17585000  0.68985000  0.62842000  1.0
  H  H17  1  0.64621000  0.90598000  0.35081000  1.0
  H  H18  1  0.29655000  0.09389000  0.64910000  1.0
  H  H19  1  0.51323000  0.99393000  0.52271000  1.0
  H  H20  1  0.99052000  0.00650000  0.47740000  1.0
  H  H21  1  0.72673000  0.85147000  0.53941000  1.0
  H  H22  1  0.18839000  0.14854000  0.46061000  1.0
  H  H23  1  0.39448000  0.80711000  0.51139000  1.0
  H  H24  1  0.88490000  0.19379000  0.48908000  1.0
  H  H25  1  0.82614000  0.86000000  0.22500000  1.0
  H  H26  1  0.60230000  0.13960000  0.77487000  1.0
  H  H27  1  0.67497000  0.64244000  0.06065000  1.0
  H  H28  1  0.61422000  0.35724000  0.93903000  1.0
  H  H29  1  0.94317000  0.58855000  0.14266000  1.0
  H  H30  1  0.80084000  0.41132000  0.85716000  1.0
  H  H31  1  0.97431000  0.63899000  0.02370000  1.0
  H  H32  1  0.95050000  0.36116000  0.97631000  1.0
  C  C33  1  0.41618000  0.29024000  0.15212000  1.0
  C  C34  1  0.26455000  0.70966000  0.84780000  1.0
  C  C35  1  0.62422000  0.39586000  0.24145000  1.0
  C  C36  1  0.38372000  0.60421000  0.75850000  1.0
  C  C37  1  0.70744000  0.32553000  0.33512000  1.0
  C  C38  1  0.37247000  0.67438000  0.66469000  1.0
  C  C39  1  0.66754000  0.67231000  0.33860000  1.0
  C  C40  1  0.33051000  0.32764000  0.66145000  1.0
  C  C41  1  0.53436000  0.82182000  0.37025000  1.0
  C  C42  1  0.16549000  0.17819000  0.62984000  1.0
  C  C43  1  0.54254000  0.87174000  0.49387000  1.0
  C  C44  1  0.04972000  0.12854000  0.50627000  1.0
  C  C45  1  0.21835000  0.86033000  0.21659000  1.0
  C  C46  1  0.00291000  0.13969000  0.78359000  1.0
  C  C47  1  0.93692000  0.83298000  0.16075000  1.0
  C  C48  1  0.77696000  0.16691000  0.83926000  1.0
  C  C49  1  0.87988000  0.66483000  0.09322000  1.0
  C  C50  1  0.78689000  0.33507000  0.90664000  1.0
  N  N51  1  0.52427000  0.54494000  0.27955000  1.0
  N  N52  1  0.24635000  0.45498000  0.72059000  1.0
  N  N53  1  0.27782000  0.81604000  0.30828000  1.0
  N  N54  1  0.97107000  0.18401000  0.69193000  1.0
  N  N55  1  0.86614000  0.92885000  0.08892000  1.0
  N  N56  1  0.77769000  0.07114000  0.91116000  1.0
  O  O57  1  0.49420000  0.16952000  0.09080000  1.0
  O  O58  1  0.40362000  0.83043000  0.90921000  1.0
  O  O59  1  0.18950000  0.32163000  0.14660000  1.0
  O  O60  1  0.04326000  0.67814000  0.85313000  1.0
  O  O61  1  0.90313000  0.67468000  0.37046000  1.0
  O  O62  1  0.53428000  0.32519000  0.62958000  1.0
  O  O63  1  0.37723000  0.91425000  0.17862000  1.0
  O  O64  1  0.19955000  0.08588000  0.82168000  1.0
