# generated using pymatgen
data_GdH20C30N3O10
_symmetry_space_group_name_H-M   'P 1'
_cell_length_a   9.83310000
_cell_length_b   11.98630000
_cell_length_c   25.29170000
_cell_angle_alpha   90.00000000
_cell_angle_beta   90.00020000
_cell_angle_gamma   93.02850000
_symmetry_Int_Tables_number   1
_chemical_formula_structural   GdH20C30N3O10
_chemical_formula_sum   'Gd4 H80 C120 N12 O40'
_cell_volume   2976.77940143
_cell_formula_units_Z   4
loop_
 _symmetry_equiv_pos_site_id
 _symmetry_equiv_pos_as_xyz
  1  'x, y, z'
loop_
 _atom_site_type_symbol
 _atom_site_label
 _atom_site_symmetry_multiplicity
 _atom_site_fract_x
 _atom_site_fract_y
 _atom_site_fract_z
 _atom_site_occupancy
  Gd  Gd0  1  0.89671000  0.54141000  0.07333000  1.0
  Gd  Gd1  1  0.60328000  0.45859000  0.57333000  1.0
  Gd  Gd2  1  0.10329000  0.45859000  0.92667000  1.0
  Gd  Gd3  1  0.39671000  0.54141000  0.42667000  1.0
  H  H4  1  0.51126000  0.58660000  0.00993000  1.0
  H  H5  1  0.98873000  0.41341000  0.50993000  1.0
  H  H6  1  0.48873000  0.41341000  0.99007000  1.0
  H  H7  1  0.01127000  0.58660000  0.49008000  1.0
  H  H8  1  0.77516000  0.80200000  0.13985000  1.0
  H  H9  1  0.72483000  0.19800000  0.63984000  1.0
  H  H10  1  0.22483000  0.19801000  0.86016000  1.0
  H  H11  1  0.27518000  0.80199000  0.36016000  1.0
  H  H12  1  0.71950000  0.87977000  0.22789000  1.0
  H  H13  1  0.78049000  0.12023000  0.72789000  1.0
  H  H14  1  0.28049000  0.12024000  0.77211000  1.0
  H  H15  1  0.21951000  0.87977000  0.27211000  1.0
  H  H16  1  0.48968000  0.84005000  0.26732000  1.0
  H  H17  1  0.01031000  0.15996000  0.76732000  1.0
  H  H18  1  0.51031000  0.15996000  0.73268000  1.0
  H  H19  1  0.98969000  0.84004000  0.23268000  1.0
  H  H20  1  0.31197000  0.72787000  0.21703000  1.0
  H  H21  1  0.18802000  0.27213000  0.71703000  1.0
  H  H22  1  0.68802000  0.27213000  0.78297000  1.0
  H  H23  1  0.81198000  0.72787000  0.28297000  1.0
  H  H24  1  0.91592000  0.13167000  0.10914000  1.0
  H  H25  1  0.58408000  0.86833000  0.60914000  1.0
  H  H26  1  0.08408000  0.86833000  0.89085000  1.0
  H  H27  1  0.41592000  0.13167000  0.39085000  1.0
  H  H28  1  0.17465000  0.80583000  0.06751000  1.0
  H  H29  1  0.32535000  0.19417000  0.56751000  1.0
  H  H30  1  0.82536000  0.19417000  0.93249000  1.0
  H  H31  1  0.67465000  0.80583000  0.43249000  1.0
  H  H32  1  0.35177000  0.77152000  0.00036000  1.0
  H  H33  1  0.14824000  0.22848000  0.50036000  1.0
  H  H34  1  0.64824000  0.22848000  0.99964000  1.0
  H  H35  1  0.85176000  0.77152000  0.49964000  1.0
  H  H36  1  0.42673000  0.92209000  0.93711000  1.0
  H  H37  1  0.07328000  0.07791000  0.43711000  1.0
  H  H38  1  0.57328000  0.07792000  0.06289000  1.0
  H  H39  1  0.92671000  0.92209000  0.56289000  1.0
  H  H40  1  0.32321000  0.10608000  0.94067000  1.0
  H  H41  1  0.17679000  0.89392000  0.44067000  1.0
  H  H42  1  0.67680000  0.89393000  0.05933000  1.0
  H  H43  1  0.82320000  0.10608000  0.55933000  1.0
  H  H44  1  0.21811000  0.57449000  0.28318000  1.0
  H  H45  1  0.28189000  0.42551000  0.78318000  1.0
  H  H46  1  0.78189000  0.42550000  0.71682000  1.0
  H  H47  1  0.71811000  0.57449000  0.21682000  1.0
  H  H48  1  0.06932000  0.34012000  0.42856000  1.0
  H  H49  1  0.43069000  0.65989000  0.92855000  1.0
  H  H50  1  0.93068000  0.65988000  0.57145000  1.0
  H  H51  1  0.56932000  0.34012000  0.07144000  1.0
  H  H52  1  0.87760000  0.19517000  0.44086000  1.0
  H  H53  1  0.62241000  0.80484000  0.94086000  1.0
  H  H54  1  0.12240000  0.80483000  0.55914000  1.0
  H  H55  1  0.37760000  0.19517000  0.05914000  1.0
  H  H56  1  0.72314000  0.14586000  0.36542000  1.0
  H  H57  1  0.77687000  0.85414000  0.86542000  1.0
  H  H58  1  0.27686000  0.85414000  0.63458000  1.0
  H  H59  1  0.22314000  0.14586000  0.13458000  1.0
  H  H60  1  0.75527000  0.23978000  0.27860000  1.0
  H  H61  1  0.74474000  0.76022000  0.77860000  1.0
  H  H62  1  0.24472000  0.76022000  0.72140000  1.0
  H  H63  1  0.25528000  0.23978000  0.22140000  1.0
  H  H64  1  0.25117000  0.62621000  0.13893000  1.0
  H  H65  1  0.24882000  0.37378000  0.63893000  1.0
  H  H66  1  0.74883000  0.37378000  0.86108000  1.0
  H  H67  1  0.75118000  0.62622000  0.36108000  1.0
  H  H68  1  0.17322000  0.22447000  0.98288000  1.0
  H  H69  1  0.32678000  0.77553000  0.48288000  1.0
  H  H70  1  0.82679000  0.77553000  0.01712000  1.0
  H  H71  1  0.67321000  0.22447000  0.51712000  1.0
  H  H72  1  0.88809000  0.38333000  0.22579000  1.0
  H  H73  1  0.61191000  0.61667000  0.72579000  1.0
  H  H74  1  0.11190000  0.61666000  0.77422000  1.0
  H  H75  1  0.38810000  0.38333000  0.27421000  1.0
  H  H76  1  0.98885000  0.79256000  0.11150000  1.0
  H  H77  1  0.51115000  0.20744000  0.61151000  1.0
  H  H78  1  0.01115000  0.20744000  0.88850000  1.0
  H  H79  1  0.48885000  0.79256000  0.38849000  1.0
  H  H80  1  0.04416000  0.68869000  0.14452000  1.0
  H  H81  1  0.45583000  0.31131000  0.64452000  1.0
  H  H82  1  0.95583000  0.31131000  0.85548000  1.0
  H  H83  1  0.54417000  0.68869000  0.35548000  1.0
  C  C84  1  0.24265000  0.55222000  0.04502000  1.0
  C  C85  1  0.25735000  0.44778000  0.54501000  1.0
  C  C86  1  0.75735000  0.44778000  0.95499000  1.0
  C  C87  1  0.74265000  0.55223000  0.45499000  1.0
  C  C88  1  0.36762000  0.60571000  0.07240000  1.0
  C  C89  1  0.13237000  0.39429000  0.57239000  1.0
  C  C90  1  0.63238000  0.39429000  0.92761000  1.0
  C  C91  1  0.86763000  0.60572000  0.42761000  1.0
  C  C92  1  0.49458000  0.62009000  0.04916000  1.0
  C  C93  1  0.00541000  0.37991000  0.54916000  1.0
  C  C94  1  0.50541000  0.37991000  0.95084000  1.0
  C  C95  1  0.99459000  0.62009000  0.45084000  1.0
  C  C96  1  0.60542000  0.67451000  0.07666000  1.0
  C  C97  1  0.89457000  0.32549000  0.57666000  1.0
  C  C98  1  0.39457000  0.32549000  0.92334000  1.0
  C  C99  1  0.10543000  0.67451000  0.42334000  1.0
  C  C100  1  0.57510000  0.72367000  0.12767000  1.0
  C  C101  1  0.92489000  0.27632000  0.62767000  1.0
  C  C102  1  0.42489000  0.27633000  0.87233000  1.0
  C  C103  1  0.07511000  0.72367000  0.37233000  1.0
  C  C104  1  0.67398000  0.78769000  0.15676000  1.0
  C  C105  1  0.82601000  0.21231000  0.65676000  1.0
  C  C106  1  0.32601000  0.21232000  0.84324000  1.0
  C  C107  1  0.17399000  0.78769000  0.34324000  1.0
  C  C108  1  0.64267000  0.83004000  0.20588000  1.0
  C  C109  1  0.85732000  0.16996000  0.70588000  1.0
  C  C110  1  0.35732000  0.16997000  0.79412000  1.0
  C  C111  1  0.14268000  0.83003000  0.29412000  1.0
  C  C112  1  0.51228000  0.80812000  0.22805000  1.0
  C  C113  1  0.98772000  0.19188000  0.72805000  1.0
  C  C114  1  0.48772000  0.19189000  0.77195000  1.0
  C  C115  1  0.01228000  0.80812000  0.27195000  1.0
  C  C116  1  0.41312000  0.74600000  0.20061000  1.0
  C  C117  1  0.08687000  0.25400000  0.70061000  1.0
  C  C118  1  0.58687000  0.25400000  0.79939000  1.0
  C  C119  1  0.91313000  0.74600000  0.29939000  1.0
  C  C120  1  0.44339000  0.70438000  0.14992000  1.0
  C  C121  1  0.05661000  0.29562000  0.64992000  1.0
  C  C122  1  0.55661000  0.29562000  0.85008000  1.0
  C  C123  1  0.94339000  0.70438000  0.35008000  1.0
  C  C124  1  0.99320000  0.30436000  0.04175000  1.0
  C  C125  1  0.50681000  0.69564000  0.54175000  1.0
  C  C126  1  0.00680000  0.69564000  0.95825000  1.0
  C  C127  1  0.49320000  0.30437000  0.45825000  1.0
  C  C128  1  0.04099000  0.18698000  0.04464000  1.0
  C  C129  1  0.45901000  0.81301000  0.54464000  1.0
  C  C130  1  0.95901000  0.81301000  0.95536000  1.0
  C  C131  1  0.54098000  0.18699000  0.45536000  1.0
  C  C132  1  0.99364000  0.10896000  0.08110000  1.0
  C  C133  1  0.50636000  0.89103000  0.58110000  1.0
  C  C134  1  0.00636000  0.89104000  0.91890000  1.0
  C  C135  1  0.49363000  0.10896000  0.41890000  1.0
  C  C136  1  0.04205000  0.99820000  0.08196000  1.0
  C  C137  1  0.45795000  0.00180000  0.58196000  1.0
  C  C138  1  0.95795000  0.00180000  0.91804000  1.0
  C  C139  1  0.54205000  0.99820000  0.41804000  1.0
  C  C140  1  0.14856000  0.97570000  0.04325000  1.0
  C  C141  1  0.35145000  0.02429000  0.54326000  1.0
  C  C142  1  0.85145000  0.02430000  0.95675000  1.0
  C  C143  1  0.64855000  0.97570000  0.45674000  1.0
  C  C144  1  0.20914000  0.87175000  0.04024000  1.0
  C  C145  1  0.29087000  0.12825000  0.54025000  1.0
  C  C146  1  0.79088000  0.12825000  0.95976000  1.0
  C  C147  1  0.70913000  0.87175000  0.45975000  1.0
  C  C148  1  0.30760000  0.85271000  0.00265000  1.0
  C  C149  1  0.19240000  0.14729000  0.50265000  1.0
  C  C150  1  0.69241000  0.14730000  0.99735000  1.0
  C  C151  1  0.80760000  0.85271000  0.49735000  1.0
  C  C152  1  0.34970000  0.93759000  0.96682000  1.0
  C  C153  1  0.15030000  0.06241000  0.46682000  1.0
  C  C154  1  0.65031000  0.06242000  0.03318000  1.0
  C  C155  1  0.84969000  0.93759000  0.53318000  1.0
  C  C156  1  0.29318000  0.04046000  0.96870000  1.0
  C  C157  1  0.20683000  0.95953000  0.46870000  1.0
  C  C158  1  0.70683000  0.95954000  0.03130000  1.0
  C  C159  1  0.79317000  0.04047000  0.53130000  1.0
  C  C160  1  0.19242000  0.06025000  0.00681000  1.0
  C  C161  1  0.30758000  0.93975000  0.50681000  1.0
  C  C162  1  0.80759000  0.93976000  0.99319000  1.0
  C  C163  1  0.69241000  0.06025000  0.49319000  1.0
  C  C164  1  0.04765000  0.53498000  0.19755000  1.0
  C  C165  1  0.45233000  0.46501000  0.69755000  1.0
  C  C166  1  0.95233000  0.46501000  0.80245000  1.0
  C  C167  1  0.54766000  0.53498000  0.30245000  1.0
  C  C168  1  0.05019000  0.47796000  0.25071000  1.0
  C  C169  1  0.44981000  0.52204000  0.75071000  1.0
  C  C170  1  0.94981000  0.52203000  0.74929000  1.0
  C  C171  1  0.55019000  0.47796000  0.24929000  1.0
  C  C172  1  0.14132000  0.50756000  0.29019000  1.0
  C  C173  1  0.35868000  0.49244000  0.79019000  1.0
  C  C174  1  0.85867000  0.49243000  0.70981000  1.0
  C  C175  1  0.64133000  0.50756000  0.20981000  1.0
  C  C176  1  0.12940000  0.45598000  0.34093000  1.0
  C  C177  1  0.37061000  0.54403000  0.84093000  1.0
  C  C178  1  0.87060000  0.54402000  0.65907000  1.0
  C  C179  1  0.62940000  0.45598000  0.15907000  1.0
  C  C180  1  0.01985000  0.37022000  0.34759000  1.0
  C  C181  1  0.48016000  0.62978000  0.84759000  1.0
  C  C182  1  0.98015000  0.62977000  0.65241000  1.0
  C  C183  1  0.51985000  0.37022000  0.15240000  1.0
  C  C184  1  0.99925000  0.31619000  0.39659000  1.0
  C  C185  1  0.50076000  0.68381000  0.89658000  1.0
  C  C186  1  0.00075000  0.68380000  0.60341000  1.0
  C  C187  1  0.49925000  0.31619000  0.10341000  1.0
  C  C188  1  0.89370000  0.23644000  0.40286000  1.0
  C  C189  1  0.60631000  0.76356000  0.90285000  1.0
  C  C190  1  0.10630000  0.76356000  0.59715000  1.0
  C  C191  1  0.39370000  0.23644000  0.09714000  1.0
  C  C192  1  0.80625000  0.20846000  0.36010000  1.0
  C  C193  1  0.69376000  0.79154000  0.86010000  1.0
  C  C194  1  0.19375000  0.79153000  0.63990000  1.0
  C  C195  1  0.30625000  0.20847000  0.13989000  1.0
  C  C196  1  0.82358000  0.26056000  0.31157000  1.0
  C  C197  1  0.67643000  0.73944000  0.81157000  1.0
  C  C198  1  0.17641000  0.73944000  0.68843000  1.0
  C  C199  1  0.32358000  0.26056000  0.18843000  1.0
  C  C200  1  0.93066000  0.34214000  0.30501000  1.0
  C  C201  1  0.56935000  0.65786000  0.80501000  1.0
  C  C202  1  0.06934000  0.65785000  0.69499000  1.0
  C  C203  1  0.43066000  0.34214000  0.19499000  1.0
  N  N204  1  0.34568000  0.64398000  0.12168000  1.0
  N  N205  1  0.15432000  0.35602000  0.62167000  1.0
  N  N206  1  0.65432000  0.35602000  0.87833000  1.0
  N  N207  1  0.84568000  0.64398000  0.37833000  1.0
  N  N208  1  0.13606000  0.16237000  0.00837000  1.0
  N  N209  1  0.36395000  0.83763000  0.50837000  1.0
  N  N210  1  0.86395000  0.83764000  0.99163000  1.0
  N  N211  1  0.63605000  0.16237000  0.49163000  1.0
  N  N212  1  0.95050000  0.39725000  0.25780000  1.0
  N  N213  1  0.54950000  0.60275000  0.75779000  1.0
  N  N214  1  0.04949000  0.60275000  0.74221000  1.0
  N  N215  1  0.45051000  0.39725000  0.24220000  1.0
  O  O216  1  0.14066000  0.53116000  0.07467000  1.0
  O  O217  1  0.35933000  0.46883000  0.57467000  1.0
  O  O218  1  0.85934000  0.46883000  0.92534000  1.0
  O  O219  1  0.64067000  0.53117000  0.42534000  1.0
  O  O220  1  0.25168000  0.53736000  0.99572000  1.0
  O  O221  1  0.24832000  0.46264000  0.49572000  1.0
  O  O222  1  0.74832000  0.46264000  0.00429000  1.0
  O  O223  1  0.75168000  0.53736000  0.50429000  1.0
  O  O224  1  0.72742000  0.68032000  0.05795000  1.0
  O  O225  1  0.77257000  0.31969000  0.55795000  1.0
  O  O226  1  0.27257000  0.31969000  0.94205000  1.0
  O  O227  1  0.22743000  0.68031000  0.44205000  1.0
  O  O228  1  0.92478000  0.34062000  0.07961000  1.0
  O  O229  1  0.57521000  0.65937000  0.57962000  1.0
  O  O230  1  0.07521000  0.65937000  0.92039000  1.0
  O  O231  1  0.42478000  0.34062000  0.42038000  1.0
  O  O232  1  0.02787000  0.36052000  0.00079000  1.0
  O  O233  1  0.47214000  0.63947000  0.50079000  1.0
  O  O234  1  0.97213000  0.63948000  0.99921000  1.0
  O  O235  1  0.52786000  0.36053000  0.49921000  1.0
  O  O236  1  0.99527000  0.92522000  0.11462000  1.0
  O  O237  1  0.50474000  0.07477000  0.61462000  1.0
  O  O238  1  0.00474000  0.07478000  0.88538000  1.0
  O  O239  1  0.49526000  0.92523000  0.38538000  1.0
  O  O240  1  0.95950000  0.49525000  0.16530000  1.0
  O  O241  1  0.54049000  0.50474000  0.66530000  1.0
  O  O242  1  0.04048000  0.50473000  0.83470000  1.0
  O  O243  1  0.45951000  0.49526000  0.33470000  1.0
  O  O244  1  0.12985000  0.61893000  0.19104000  1.0
  O  O245  1  0.37013000  0.38107000  0.69104000  1.0
  O  O246  1  0.87013000  0.38107000  0.80896000  1.0
  O  O247  1  0.62986000  0.61892000  0.30896000  1.0
  O  O248  1  0.20557000  0.48381000  0.37964000  1.0
  O  O249  1  0.29443000  0.51620000  0.87964000  1.0
  O  O250  1  0.79443000  0.51619000  0.62036000  1.0
  O  O251  1  0.70556000  0.48381000  0.12036000  1.0
  O  O252  1  0.98087000  0.70850000  0.11571000  1.0
  O  O253  1  0.51912000  0.29150000  0.61571000  1.0
  O  O254  1  0.01913000  0.29150000  0.88429000  1.0
  O  O255  1  0.48088000  0.70850000  0.38429000  1.0
