# generated using pymatgen
data_RbH4C8N2(ClO2)2
_symmetry_space_group_name_H-M   'P 1'
_cell_length_a   6.44114000
_cell_length_b   9.62495000
_cell_length_c   18.05090000
_cell_angle_alpha   90.00040000
_cell_angle_beta   89.99970000
_cell_angle_gamma   89.99990000
_symmetry_Int_Tables_number   1
_chemical_formula_structural   RbH4C8N2(ClO2)2
_chemical_formula_sum   'Rb4 H16 C32 N8 Cl8 O16'
_cell_volume   1119.07728654
_cell_formula_units_Z   4
loop_
 _symmetry_equiv_pos_site_id
 _symmetry_equiv_pos_as_xyz
  1  'x, y, z'
loop_
 _atom_site_type_symbol
 _atom_site_label
 _atom_site_symmetry_multiplicity
 _atom_site_fract_x
 _atom_site_fract_y
 _atom_site_fract_z
 _atom_site_occupancy
  Rb  Rb0  1  0.59758000  0.48067000  0.34649000  1.0
  Rb  Rb1  1  0.40242000  0.48067000  0.65351000  1.0
  Rb  Rb2  1  0.09757000  0.51933000  0.15351000  1.0
  Rb  Rb3  1  0.90243000  0.51933000  0.84649000  1.0
  H  H4  1  0.21348000  0.40241000  0.47697000  1.0
  H  H5  1  0.78652000  0.40241000  0.52303000  1.0
  H  H6  1  0.71348000  0.59759000  0.02303000  1.0
  H  H7  1  0.28652000  0.59759000  0.97697000  1.0
  H  H8  1  0.21562000  0.56663000  0.47710000  1.0
  H  H9  1  0.78438000  0.56663000  0.52289000  1.0
  H  H10  1  0.71562000  0.43337000  0.02289000  1.0
  H  H11  1  0.28438000  0.43337000  0.97711000  1.0
  H  H12  1  0.60824000  0.52164000  0.13944000  1.0
  H  H13  1  0.39177000  0.52164000  0.86056000  1.0
  H  H14  1  0.10824000  0.47836000  0.36056000  1.0
  H  H15  1  0.89176000  0.47836000  0.63944000  1.0
  H  H16  1  0.56460000  0.64803000  0.18862000  1.0
  H  H17  1  0.43541000  0.64804000  0.81138000  1.0
  H  H18  1  0.06460000  0.35197000  0.31138000  1.0
  H  H19  1  0.93540000  0.35197000  0.68862000  1.0
  C  C20  1  0.78826000  0.82691000  0.45330000  1.0
  C  C21  1  0.21175000  0.82691000  0.54669000  1.0
  C  C22  1  0.28825000  0.17309000  0.04670000  1.0
  C  C23  1  0.71174000  0.17309000  0.95331000  1.0
  C  C24  1  0.76039000  0.90853000  0.52072000  1.0
  C  C25  1  0.23961000  0.90853000  0.47928000  1.0
  C  C26  1  0.26040000  0.09147000  0.97929000  1.0
  C  C27  1  0.73960000  0.09147000  0.02071000  1.0
  C  C28  1  0.76119000  0.05405000  0.51952000  1.0
  C  C29  1  0.23881000  0.05405000  0.48048000  1.0
  C  C30  1  0.26119000  0.94595000  0.98048000  1.0
  C  C31  1  0.73880000  0.94595000  0.01951000  1.0
  C  C32  1  0.78735000  0.13311000  0.45097000  1.0
  C  C33  1  0.21264000  0.13311000  0.54903000  1.0
  C  C34  1  0.28735000  0.86689000  0.04903000  1.0
  C  C35  1  0.71264000  0.86689000  0.95097000  1.0
  C  C36  1  0.80475000  0.04977000  0.38302000  1.0
  C  C37  1  0.19525000  0.04977000  0.61698000  1.0
  C  C38  1  0.30475000  0.95023000  0.11699000  1.0
  C  C39  1  0.69524000  0.95023000  0.88302000  1.0
  C  C40  1  0.80731000  0.90692000  0.38430000  1.0
  C  C41  1  0.19270000  0.90693000  0.61570000  1.0
  C  C42  1  0.30730000  0.09308000  0.11571000  1.0
  C  C43  1  0.69269000  0.09307000  0.88429000  1.0
  C  C44  1  0.71663000  0.83349000  0.58635000  1.0
  C  C45  1  0.28338000  0.83350000  0.41365000  1.0
  C  C46  1  0.21663000  0.16650000  0.91365000  1.0
  C  C47  1  0.78337000  0.16650000  0.08635000  1.0
  C  C48  1  0.72135000  0.13290000  0.58401000  1.0
  C  C49  1  0.27864000  0.13290000  0.41599000  1.0
  C  C50  1  0.22136000  0.86710000  0.91600000  1.0
  C  C51  1  0.77864000  0.86710000  0.08401000  1.0
  N  N52  1  0.67593000  0.76802000  0.63898000  1.0
  N  N53  1  0.32409000  0.76802000  0.36102000  1.0
  N  N54  1  0.17593000  0.23197000  0.86102000  1.0
  N  N55  1  0.82407000  0.23197000  0.13898000  1.0
  N  N56  1  0.68515000  0.20262000  0.63546000  1.0
  N  N57  1  0.31485000  0.20262000  0.36454000  1.0
  N  N58  1  0.18515000  0.79738000  0.86454000  1.0
  N  N59  1  0.81485000  0.79738000  0.13546000  1.0
  Cl  Cl60  1  0.81753000  0.13727000  0.30114000  1.0
  Cl  Cl61  1  0.18246000  0.13727000  0.69886000  1.0
  Cl  Cl62  1  0.31754000  0.86273000  0.19886000  1.0
  Cl  Cl63  1  0.68246000  0.86273000  0.80114000  1.0
  Cl  Cl64  1  0.82794000  0.81435000  0.30455000  1.0
  Cl  Cl65  1  0.17207000  0.81435000  0.69544000  1.0
  Cl  Cl66  1  0.32793000  0.18566000  0.19545000  1.0
  Cl  Cl67  1  0.67207000  0.18565000  0.80456000  1.0
  O  O68  1  0.78789000  0.69651000  0.45321000  1.0
  O  O69  1  0.21213000  0.69651000  0.54678000  1.0
  O  O70  1  0.28787000  0.30349000  0.04679000  1.0
  O  O71  1  0.71212000  0.30349000  0.95321000  1.0
  O  O72  1  0.78750000  0.26351000  0.44988000  1.0
  O  O73  1  0.21247000  0.26351000  0.55012000  1.0
  O  O74  1  0.28751000  0.73649000  0.05013000  1.0
  O  O75  1  0.71247000  0.73649000  0.94987000  1.0
  O  O76  1  0.23524000  0.48429000  0.44516000  1.0
  O  O77  1  0.76477000  0.48429000  0.55484000  1.0
  O  O78  1  0.73524000  0.51571000  0.05484000  1.0
  O  O79  1  0.26477000  0.51571000  0.94516000  1.0
  O  O80  1  0.55228000  0.54693000  0.18928000  1.0
  O  O81  1  0.44772000  0.54693000  0.81071000  1.0
  O  O82  1  0.05228000  0.45307000  0.31072000  1.0
  O  O83  1  0.94772000  0.45307000  0.68928000  1.0
