# generated using pymatgen
data_CuH9C12(N3O2)2
_symmetry_space_group_name_H-M   'P 1'
_cell_length_a   9.56999000
_cell_length_b   10.19640000
_cell_length_c   15.39400000
_cell_angle_alpha   96.35320000
_cell_angle_beta   103.70900000
_cell_angle_gamma   102.41300000
_symmetry_Int_Tables_number   1
_chemical_formula_structural   CuH9C12(N3O2)2
_chemical_formula_sum   'Cu4 H36 C48 N24 O16'
_cell_volume   1404.40625827
_cell_formula_units_Z   4
loop_
 _symmetry_equiv_pos_site_id
 _symmetry_equiv_pos_as_xyz
  1  'x, y, z'
loop_
 _atom_site_type_symbol
 _atom_site_label
 _atom_site_symmetry_multiplicity
 _atom_site_fract_x
 _atom_site_fract_y
 _atom_site_fract_z
 _atom_site_occupancy
  Cu  Cu0  1  0.99233000  0.04079000  0.40223000  1.0
  Cu  Cu1  1  0.00727000  0.95908000  0.59751000  1.0
  Cu  Cu2  1  0.67783000  0.84539000  0.35323000  1.0
  Cu  Cu3  1  0.32191000  0.15445000  0.64685000  1.0
  H  H4  1  0.91359000  0.80103000  0.41741000  1.0
  H  H5  1  0.08608000  0.19890000  0.58242000  1.0
  H  H6  1  0.75154000  0.04766000  0.24265000  1.0
  H  H7  1  0.24853000  0.95256000  0.75728000  1.0
  H  H8  1  0.83893000  0.93329000  0.22831000  1.0
  H  H9  1  0.16088000  0.06670000  0.77160000  1.0
  H  H10  1  0.87779000  0.38459000  0.53904000  1.0
  H  H11  1  0.12226000  0.61543000  0.46092000  1.0
  H  H12  1  0.85312000  0.85303000  0.75912000  1.0
  H  H13  1  0.14708000  0.14684000  0.24108000  1.0
  H  H14  1  0.88391000  0.64804000  0.51368000  1.0
  H  H15  1  0.11636000  0.35196000  0.48649000  1.0
  H  H16  1  0.49470000  0.47870000  0.60851000  1.0
  H  H17  1  0.50535000  0.52120000  0.39158000  1.0
  H  H18  1  0.44161000  0.10712000  0.44908000  1.0
  H  H19  1  0.55840000  0.89293000  0.55086000  1.0
  H  H20  1  0.87573000  0.35644000  0.32717000  1.0
  H  H21  1  0.12428000  0.64383000  0.67294000  1.0
  H  H22  1  0.53422000  0.06856000  0.13792000  1.0
  H  H23  1  0.46585000  0.93153000  0.86220000  1.0
  H  H24  1  0.10092000  0.03814000  0.93361000  1.0
  H  H25  1  0.89923000  0.96205000  0.06640000  1.0
  H  H26  1  0.23093000  0.36984000  0.14721000  1.0
  H  H27  1  0.76904000  0.63012000  0.85296000  1.0
  H  H28  1  0.48318000  0.47665000  0.19978000  1.0
  H  H29  1  0.51684000  0.52346000  0.80019000  1.0
  H  H30  1  0.38906000  0.90812000  0.37102000  1.0
  H  H31  1  0.61101000  0.09181000  0.62890000  1.0
  H  H32  1  0.52394000  0.70724000  0.16919000  1.0
  H  H33  1  0.47608000  0.29290000  0.83065000  1.0
  H  H34  1  0.32406000  0.41394000  0.90603000  1.0
  H  H35  1  0.67600000  0.58592000  0.09398000  1.0
  H  H36  1  0.06191000  0.67555000  0.96670000  1.0
  H  H37  1  0.93814000  0.32439000  0.03313000  1.0
  H  H38  1  0.06886000  0.74313000  0.11307000  1.0
  H  H39  1  0.93100000  0.25664000  0.88693000  1.0
  C  C40  1  0.75903000  0.35932000  0.53352000  1.0
  C  C41  1  0.24101000  0.64069000  0.46642000  1.0
  C  C42  1  0.73023000  0.12555000  0.44638000  1.0
  C  C43  1  0.26969000  0.87441000  0.55352000  1.0
  C  C44  1  0.66769000  0.23252000  0.48795000  1.0
  C  C45  1  0.33231000  0.76752000  0.51198000  1.0
  C  C46  1  0.69362000  0.44920000  0.57475000  1.0
  C  C47  1  0.30644000  0.55077000  0.42530000  1.0
  C  C48  1  0.83736000  0.77388000  0.70198000  1.0
  C  C49  1  0.16282000  0.22607000  0.29817000  1.0
  C  C50  1  0.86030000  0.67244000  0.57853000  1.0
  C  C51  1  0.13981000  0.32752000  0.42159000  1.0
  C  C52  1  0.54360000  0.41001000  0.57276000  1.0
  C  C53  1  0.45646000  0.58997000  0.42727000  1.0
  C  C54  1  0.51636000  0.20410000  0.48517000  1.0
  C  C55  1  0.48364000  0.79595000  0.51476000  1.0
  C  C56  1  0.75492000  0.57799000  0.32067000  1.0
  C  C57  1  0.24491000  0.42210000  0.67929000  1.0
  C  C58  1  0.68725000  0.43404000  0.27008000  1.0
  C  C59  1  0.31276000  0.56609000  0.72989000  1.0
  C  C60  1  0.76559000  0.33322000  0.28002000  1.0
  C  C61  1  0.23448000  0.66698000  0.72001000  1.0
  C  C62  1  0.57506000  0.17274000  0.17519000  1.0
  C  C63  1  0.42503000  0.82738000  0.82488000  1.0
  C  C64  1  0.48827000  0.26673000  0.16223000  1.0
  C  C65  1  0.51180000  0.73337000  0.83782000  1.0
  C  C66  1  0.16606000  0.11305000  0.99281000  1.0
  C  C67  1  0.83402000  0.88708000  0.00723000  1.0
  C  C68  1  0.22791000  0.28349000  0.09829000  1.0
  C  C69  1  0.77208000  0.71652000  0.90186000  1.0
  C  C70  1  0.54531000  0.39946000  0.21007000  1.0
  C  C71  1  0.45472000  0.60067000  0.78990000  1.0
  C  C72  1  0.10268000  0.89550000  0.27506000  1.0
  C  C73  1  0.89743000  0.10449000  0.72496000  1.0
  C  C74  1  0.21594000  0.83290000  0.24528000  1.0
  C  C75  1  0.78404000  0.16696000  0.75466000  1.0
  C  C76  1  0.35838000  0.85249000  0.30219000  1.0
  C  C77  1  0.64159000  0.14733000  0.69775000  1.0
  C  C78  1  0.43344000  0.73897000  0.18945000  1.0
  C  C79  1  0.56650000  0.26094000  0.81047000  1.0
  C  C80  1  0.29122000  0.71063000  0.13016000  1.0
  C  C81  1  0.70870000  0.28930000  0.86977000  1.0
  C  C82  1  0.28184000  0.48864000  0.94101000  1.0
  C  C83  1  0.71819000  0.51121000  0.05896000  1.0
  C  C84  1  0.14544000  0.61714000  0.96884000  1.0
  C  C85  1  0.85457000  0.38277000  0.03101000  1.0
  C  C86  1  0.18048000  0.75984000  0.15757000  1.0
  C  C87  1  0.81941000  0.24003000  0.84239000  1.0
  N  N88  1  0.77539000  0.58387000  0.61544000  1.0
  N  N89  1  0.22476000  0.41608000  0.38470000  1.0
  N  N90  1  0.75835000  0.64719000  0.69402000  1.0
  N  N91  1  0.24186000  0.35273000  0.30614000  1.0
  N  N92  1  0.90141000  0.79363000  0.63238000  1.0
  N  N93  1  0.09867000  0.20635000  0.36773000  1.0
  N  N94  1  0.71060000  0.20604000  0.23348000  1.0
  N  N95  1  0.28951000  0.79414000  0.76658000  1.0
  N  N96  1  0.34497000  0.22674000  0.10134000  1.0
  N  N97  1  0.65505000  0.77332000  0.89876000  1.0
  N  N98  1  0.30577000  0.11609000  0.03343000  1.0
  N  N99  1  0.69431000  0.88408000  0.96661000  1.0
  N  N100  1  0.11275000  0.21370000  0.03060000  1.0
  N  N101  1  0.88727000  0.78634000  0.96951000  1.0
  N  N102  1  0.46457000  0.80717000  0.27417000  1.0
  N  N103  1  0.53537000  0.19262000  0.72578000  1.0
  N  N104  1  0.26151000  0.63180000  0.04358000  1.0
  N  N105  1  0.73843000  0.36810000  0.95633000  1.0
  N  N106  1  0.35077000  0.54944000  0.02600000  1.0
  N  N107  1  0.64914000  0.45042000  0.97396000  1.0
  N  N108  1  0.15540000  0.52690000  0.90289000  1.0
  N  N109  1  0.84467000  0.47300000  0.09702000  1.0
  N  N110  1  0.45576000  0.28931000  0.52818000  1.0
  N  N111  1  0.54426000  0.71072000  0.47179000  1.0
  O  O112  1  0.87852000  0.88241000  0.43396000  1.0
  O  O113  1  0.12138000  0.11754000  0.56608000  1.0
  O  O114  1  0.74514000  0.94810000  0.24015000  1.0
  O  O115  1  0.25480000  0.05209000  0.75984000  1.0
  O  O116  1  0.64078000  0.00832000  0.41873000  1.0
  O  O117  1  0.35896000  0.99180000  0.58101000  1.0
  O  O118  1  0.86365000  0.16095000  0.44244000  1.0
  O  O119  1  0.13636000  0.83884000  0.55766000  1.0
  O  O120  1  0.67583000  0.66124000  0.29567000  1.0
  O  O121  1  0.32388000  0.33874000  0.70432000  1.0
  O  O122  1  0.87647000  0.60599000  0.38100000  1.0
  O  O123  1  0.12336000  0.39424000  0.61898000  1.0
  O  O124  1  0.12688000  0.93413000  0.36092000  1.0
  O  O125  1  0.87338000  0.06611000  0.63908000  1.0
  O  O126  1  0.99752000  0.90973000  0.21320000  1.0
  O  O127  1  0.00242000  0.09010000  0.78685000  1.0
