# generated using pymatgen
data_TbH12C9NO10
_symmetry_space_group_name_H-M   'P 1'
_cell_length_a   7.25256000
_cell_length_b   11.60290000
_cell_length_c   18.53340000
_cell_angle_alpha   80.97120000
_cell_angle_beta   89.99940000
_cell_angle_gamma   89.99870000
_symmetry_Int_Tables_number   1
_chemical_formula_structural   TbH12C9NO10
_chemical_formula_sum   'Tb4 H48 C36 N4 O40'
_cell_volume   1540.27502685
_cell_formula_units_Z   4
loop_
 _symmetry_equiv_pos_site_id
 _symmetry_equiv_pos_as_xyz
  1  'x, y, z'
loop_
 _atom_site_type_symbol
 _atom_site_label
 _atom_site_symmetry_multiplicity
 _atom_site_fract_x
 _atom_site_fract_y
 _atom_site_fract_z
 _atom_site_occupancy
  Tb  Tb0  1  0.74349000  0.69832000  0.36701000  1.0
  Tb  Tb1  1  0.24348000  0.80169000  0.13299000  1.0
  Tb  Tb2  1  0.25652000  0.30168000  0.63299000  1.0
  Tb  Tb3  1  0.75652000  0.19832000  0.86701000  1.0
  H  H4  1  0.00593000  0.86857000  0.27853000  1.0
  H  H5  1  0.50593000  0.63143000  0.22146000  1.0
  H  H6  1  0.99409000  0.13142000  0.72147000  1.0
  H  H7  1  0.49407000  0.36856000  0.77853000  1.0
  H  H8  1  0.84699000  0.93271000  0.31880000  1.0
  H  H9  1  0.34699000  0.56729000  0.18120000  1.0
  H  H10  1  0.15302000  0.06728000  0.68119000  1.0
  H  H11  1  0.65298000  0.43271000  0.81881000  1.0
  H  H12  1  0.12699000  0.57234000  0.36106000  1.0
  H  H13  1  0.62698000  0.92767000  0.13893000  1.0
  H  H14  1  0.87303000  0.42767000  0.63894000  1.0
  H  H15  1  0.37301000  0.07233000  0.86107000  1.0
  H  H16  1  0.07818000  0.66104000  0.28970000  1.0
  H  H17  1  0.57817000  0.83896000  0.21029000  1.0
  H  H18  1  0.92183000  0.33895000  0.71029000  1.0
  H  H19  1  0.42184000  0.16104000  0.78971000  1.0
  H  H20  1  0.72619000  0.45467000  0.32178000  1.0
  H  H21  1  0.22617000  0.04532000  0.17822000  1.0
  H  H22  1  0.27382000  0.54533000  0.67822000  1.0
  H  H23  1  0.77382000  0.95468000  0.82178000  1.0
  H  H24  1  0.71987000  0.43124000  0.40989000  1.0
  H  H25  1  0.21987000  0.06876000  0.09010000  1.0
  H  H26  1  0.28011000  0.56876000  0.59010000  1.0
  H  H27  1  0.78014000  0.93124000  0.90989000  1.0
  H  H28  1  0.81744000  0.52055000  0.49639000  1.0
  H  H29  1  0.31744000  0.97946000  0.00360000  1.0
  H  H30  1  0.18257000  0.47945000  0.50361000  1.0
  H  H31  1  0.68256000  0.02054000  0.99639000  1.0
  H  H32  1  0.97814000  0.61882000  0.49588000  1.0
  H  H33  1  0.47813000  0.88118000  0.00411000  1.0
  H  H34  1  0.02186000  0.38118000  0.50412000  1.0
  H  H35  1  0.52186000  0.11882000  0.99588000  1.0
  H  H36  1  0.73241000  0.17357000  0.43837000  1.0
  H  H37  1  0.23241000  0.32643000  0.06163000  1.0
  H  H38  1  0.26761000  0.82642000  0.56163000  1.0
  H  H39  1  0.76756000  0.67357000  0.93837000  1.0
  H  H40  1  0.81855000  0.79188000  0.65243000  1.0
  H  H41  1  0.31853000  0.70810000  0.84757000  1.0
  H  H42  1  0.18145000  0.20811000  0.34757000  1.0
  H  H43  1  0.68147000  0.29189000  0.15244000  1.0
  H  H44  1  0.92762000  0.79217000  0.56538000  1.0
  H  H45  1  0.42761000  0.70783000  0.93461000  1.0
  H  H46  1  0.07238000  0.20783000  0.43462000  1.0
  H  H47  1  0.57239000  0.29216000  0.06539000  1.0
  H  H48  1  0.69196000  0.76167000  0.57396000  1.0
  H  H49  1  0.19193000  0.73832000  0.92603000  1.0
  H  H50  1  0.30805000  0.23833000  0.42604000  1.0
  H  H51  1  0.80807000  0.26167000  0.07397000  1.0
  C  C52  1  0.76110000  0.94193000  0.57480000  1.0
  C  C53  1  0.26109000  0.55806000  0.92520000  1.0
  C  C54  1  0.23891000  0.05807000  0.42520000  1.0
  C  C55  1  0.73889000  0.44193000  0.07480000  1.0
  C  C56  1  0.75448000  0.00441000  0.50270000  1.0
  C  C57  1  0.25446000  0.49560000  0.99731000  1.0
  C  C58  1  0.24555000  0.99559000  0.49731000  1.0
  C  C59  1  0.74549000  0.50441000  0.00269000  1.0
  C  C60  1  0.72954000  0.12504000  0.49370000  1.0
  C  C61  1  0.22951000  0.37496000  0.00630000  1.0
  C  C62  1  0.27049000  0.87495000  0.50630000  1.0
  C  C63  1  0.77045000  0.62505000  0.99370000  1.0
  C  C64  1  0.69600000  0.18176000  0.55339000  1.0
  C  C65  1  0.19597000  0.31825000  0.94662000  1.0
  C  C66  1  0.30402000  0.81825000  0.44662000  1.0
  C  C67  1  0.80401000  0.68175000  0.05338000  1.0
  C  C68  1  0.69580000  0.11137000  0.62244000  1.0
  C  C69  1  0.19578000  0.38863000  0.87756000  1.0
  C  C70  1  0.30422000  0.88864000  0.37756000  1.0
  C  C71  1  0.80421000  0.61137000  0.12244000  1.0
  C  C72  1  0.80194000  0.81434000  0.59317000  1.0
  C  C73  1  0.30193000  0.68566000  0.90683000  1.0
  C  C74  1  0.19807000  0.18566000  0.40684000  1.0
  C  C75  1  0.69807000  0.31434000  0.09317000  1.0
  C  C76  1  0.77290000  0.95026000  0.43429000  1.0
  C  C77  1  0.27290000  0.54975000  0.06571000  1.0
  C  C78  1  0.22712000  0.04975000  0.56571000  1.0
  C  C79  1  0.72705000  0.45027000  0.93428000  1.0
  C  C80  1  0.66639000  0.31117000  0.54083000  1.0
  C  C81  1  0.16637000  0.18883000  0.95918000  1.0
  C  C82  1  0.33363000  0.68883000  0.45917000  1.0
  C  C83  1  0.83361000  0.81117000  0.04083000  1.0
  C  C84  1  0.64904000  0.15448000  0.69285000  1.0
  C  C85  1  0.14902000  0.34551000  0.80715000  1.0
  C  C86  1  0.35097000  0.84552000  0.30715000  1.0
  C  C87  1  0.85098000  0.65449000  0.19284000  1.0
  N  N88  1  0.73408000  0.99714000  0.63267000  1.0
  N  N89  1  0.23406000  0.50285000  0.86734000  1.0
  N  N90  1  0.26594000  0.00286000  0.36734000  1.0
  N  N91  1  0.76593000  0.49714000  0.13266000  1.0
  O  O92  1  0.75497000  0.83883000  0.44057000  1.0
  O  O93  1  0.25497000  0.66118000  0.05943000  1.0
  O  O94  1  0.24504000  0.16117000  0.55943000  1.0
  O  O95  1  0.74501000  0.33883000  0.94057000  1.0
  O  O96  1  0.80209000  0.01737000  0.37490000  1.0
  O  O97  1  0.30207000  0.48263000  0.12510000  1.0
  O  O98  1  0.19793000  0.98262000  0.62511000  1.0
  O  O99  1  0.69785000  0.51737000  0.87490000  1.0
  O  O100  1  0.78031000  0.37211000  0.49688000  1.0
  O  O101  1  0.28030000  0.12789000  0.00312000  1.0
  O  O102  1  0.21971000  0.62788000  0.50311000  1.0
  O  O103  1  0.71969000  0.87211000  0.99688000  1.0
  O  O104  1  0.53507000  0.35569000  0.57151000  1.0
  O  O105  1  0.03506000  0.14431000  0.92850000  1.0
  O  O106  1  0.46495000  0.64432000  0.42849000  1.0
  O  O107  1  0.96493000  0.85568000  0.07151000  1.0
  O  O108  1  0.48772000  0.19470000  0.69934000  1.0
  O  O109  1  0.98771000  0.30530000  0.80067000  1.0
  O  O110  1  0.51229000  0.80531000  0.30066000  1.0
  O  O111  1  0.01229000  0.69469000  0.19933000  1.0
  O  O112  1  0.76498000  0.14125000  0.74466000  1.0
  O  O113  1  0.26497000  0.35874000  0.75534000  1.0
  O  O114  1  0.23503000  0.85875000  0.25534000  1.0
  O  O115  1  0.73503000  0.64126000  0.24465000  1.0
  O  O116  1  0.87370000  0.86357000  0.29219000  1.0
  O  O117  1  0.37370000  0.63644000  0.20781000  1.0
  O  O118  1  0.12631000  0.13643000  0.70781000  1.0
  O  O119  1  0.62629000  0.36356000  0.79219000  1.0
  O  O120  1  0.06132000  0.64445000  0.34390000  1.0
  O  O121  1  0.56131000  0.85555000  0.15609000  1.0
  O  O122  1  0.93869000  0.35555000  0.65610000  1.0
  O  O123  1  0.43869000  0.14445000  0.84391000  1.0
  O  O124  1  0.70257000  0.48969000  0.36516000  1.0
  O  O125  1  0.20255000  0.01032000  0.13483000  1.0
  O  O126  1  0.29741000  0.51032000  0.63483000  1.0
  O  O127  1  0.79745000  0.98969000  0.86517000  1.0
  O  O128  1  0.84776000  0.60495000  0.48355000  1.0
  O  O129  1  0.34775000  0.89505000  0.01644000  1.0
  O  O130  1  0.15224000  0.39505000  0.51645000  1.0
  O  O131  1  0.65225000  0.10495000  0.98356000  1.0
