# generated using pymatgen
data_Dy2H15C12(NO4)3
_symmetry_space_group_name_H-M   'P 1'
_cell_length_a   11.63280000
_cell_length_b   18.89890000
_cell_length_c   18.90055092
_cell_angle_alpha   84.56286722
_cell_angle_beta   72.09546476
_cell_angle_gamma   72.08150000
_symmetry_Int_Tables_number   1
_chemical_formula_structural   Dy2H15C12(NO4)3
_chemical_formula_sum   'Dy16 H120 C96 N24 O96'
_cell_volume   3762.20608029
_cell_formula_units_Z   8
loop_
 _symmetry_equiv_pos_site_id
 _symmetry_equiv_pos_as_xyz
  1  'x, y, z'
loop_
 _atom_site_type_symbol
 _atom_site_label
 _atom_site_symmetry_multiplicity
 _atom_site_fract_x
 _atom_site_fract_y
 _atom_site_fract_z
 _atom_site_occupancy
  Dy  Dy0  1  0.12338000  0.20220000  0.36551000  1.0
  Dy  Dy1  1  0.69092000  0.29784000  0.13451000  1.0
  Dy  Dy2  1  0.82552000  0.36559000  0.29786000  1.0
  Dy  Dy3  1  0.48888000  0.13441000  0.20219000  1.0
  Dy  Dy4  1  0.87660000  0.79780000  0.63450000  1.0
  Dy  Dy5  1  0.30909000  0.70215000  0.86549000  1.0
  Dy  Dy6  1  0.17448000  0.63442000  0.70214000  1.0
  Dy  Dy7  1  0.51112000  0.86559000  0.79781000  1.0
  Dy  Dy8  1  0.03404000  0.02258000  0.39447000  1.0
  Dy  Dy9  1  0.45106000  0.47741000  0.10550000  1.0
  Dy  Dy10  1  0.55664000  0.39451000  0.47740000  1.0
  Dy  Dy11  1  0.42845000  0.10554000  0.02252000  1.0
  Dy  Dy12  1  0.96595000  0.97742000  0.60553000  1.0
  Dy  Dy13  1  0.54895000  0.52259000  0.89450000  1.0
  Dy  Dy14  1  0.44335000  0.60550000  0.52261000  1.0
  Dy  Dy15  1  0.57155000  0.89446000  0.97748000  1.0
  H  H16  1  0.07441000  0.22363000  0.56238000  1.0
  H  H17  1  0.86040000  0.27639000  0.93753000  1.0
  H  H18  1  0.79799000  0.56254000  0.27647000  1.0
  H  H19  1  0.63694000  0.93746000  0.22369000  1.0
  H  H20  1  0.92558000  0.77638000  0.43762000  1.0
  H  H21  1  0.13959000  0.72361000  0.06248000  1.0
  H  H22  1  0.20201000  0.43746000  0.72353000  1.0
  H  H23  1  0.36307000  0.06254000  0.77631000  1.0
  H  H24  1  0.20481000  0.15299000  0.57949000  1.0
  H  H25  1  0.93692000  0.34719000  0.92061000  1.0
  H  H26  1  0.85761000  0.57962000  0.34720000  1.0
  H  H27  1  0.78439000  0.92049000  0.15304000  1.0
  H  H28  1  0.79518000  0.84701000  0.42051000  1.0
  H  H29  1  0.06308000  0.65281000  0.07939000  1.0
  H  H30  1  0.14239000  0.42038000  0.65280000  1.0
  H  H31  1  0.21560000  0.07950000  0.84697000  1.0
  H  H32  1  0.35475000  0.08519000  0.45552000  1.0
  H  H33  1  0.89506000  0.41494000  0.04457000  1.0
  H  H34  1  0.93996000  0.45546000  0.41499000  1.0
  H  H35  1  0.80981000  0.04455000  0.08515000  1.0
  H  H36  1  0.64525000  0.91481000  0.54448000  1.0
  H  H37  1  0.10495000  0.58506000  0.95542000  1.0
  H  H38  1  0.06004000  0.54454000  0.58501000  1.0
  H  H39  1  0.19019000  0.95545000  0.91485000  1.0
  H  H40  1  0.41956000  0.15261000  0.47519000  1.0
  H  H41  1  0.04689000  0.34750000  0.02497000  1.0
  H  H42  1  0.07212000  0.47519000  0.34757000  1.0
  H  H43  1  0.89454000  0.02482000  0.15244000  1.0
  H  H44  1  0.58043000  0.84739000  0.52481000  1.0
  H  H45  1  0.95312000  0.65250000  0.97503000  1.0
  H  H46  1  0.92788000  0.52481000  0.65243000  1.0
  H  H47  1  0.10546000  0.97518000  0.84755000  1.0
  H  H48  1  0.33007000  0.93780000  0.21821000  1.0
  H  H49  1  0.48644000  0.56224000  0.28168000  1.0
  H  H50  1  0.76870000  0.21820000  0.56238000  1.0
  H  H51  1  0.54801000  0.28196000  0.93794000  1.0
  H  H52  1  0.66992000  0.06220000  0.78180000  1.0
  H  H53  1  0.51356000  0.43776000  0.71832000  1.0
  H  H54  1  0.23129000  0.78180000  0.43763000  1.0
  H  H55  1  0.45199000  0.71804000  0.06206000  1.0
  H  H56  1  0.41510000  0.90476000  0.28406000  1.0
  H  H57  1  0.60426000  0.59518000  0.21568000  1.0
  H  H58  1  0.82019000  0.28447000  0.59517000  1.0
  H  H59  1  0.69885000  0.21613000  0.90482000  1.0
  H  H60  1  0.58491000  0.09525000  0.71594000  1.0
  H  H61  1  0.39574000  0.40482000  0.78432000  1.0
  H  H62  1  0.17980000  0.71553000  0.40484000  1.0
  H  H63  1  0.30115000  0.78387000  0.09518000  1.0
  H  H64  1  0.11795000  0.84021000  0.31734000  1.0
  H  H65  1  0.27550000  0.65982000  0.18283000  1.0
  H  H66  1  0.45867000  0.31690000  0.65969000  1.0
  H  H67  1  0.43498000  0.18301000  0.84020000  1.0
  H  H68  1  0.88205000  0.15979000  0.68266000  1.0
  H  H69  1  0.72449000  0.34018000  0.81717000  1.0
  H  H70  1  0.54133000  0.68310000  0.34031000  1.0
  H  H71  1  0.56504000  0.81699000  0.15979000  1.0
  H  H72  1  0.24236000  0.84142000  0.23485000  1.0
  H  H73  1  0.31908000  0.65844000  0.26523000  1.0
  H  H74  1  0.58460000  0.23446000  0.65827000  1.0
  H  H75  1  0.47715000  0.26543000  0.84151000  1.0
  H  H76  1  0.75764000  0.15858000  0.76516000  1.0
  H  H77  1  0.68092000  0.34155000  0.73477000  1.0
  H  H78  1  0.41539000  0.76554000  0.34173000  1.0
  H  H79  1  0.52286000  0.73457000  0.15849000  1.0
  H  H80  1  0.70856000  0.15371000  0.32121000  1.0
  H  H81  1  0.18344000  0.34625000  0.17899000  1.0
  H  H82  1  0.36221000  0.32104000  0.34646000  1.0
  H  H83  1  0.02993000  0.17899000  0.15354000  1.0
  H  H84  1  0.29145000  0.84628000  0.67878000  1.0
  H  H85  1  0.81656000  0.65375000  0.82101000  1.0
  H  H86  1  0.63779000  0.67896000  0.65354000  1.0
  H  H87  1  0.97007000  0.82101000  0.84646000  1.0
  H  H88  1  0.85816000  0.09547000  0.26792000  1.0
  H  H89  1  0.22165000  0.40454000  0.23218000  1.0
  H  H90  1  0.45373000  0.26792000  0.40475000  1.0
  H  H91  1  0.12665000  0.23206000  0.09517000  1.0
  H  H92  1  0.14184000  0.90452000  0.73208000  1.0
  H  H93  1  0.77837000  0.59545000  0.76781000  1.0
  H  H94  1  0.54628000  0.73208000  0.59525000  1.0
  H  H95  1  0.87335000  0.76794000  0.90483000  1.0
  H  H96  1  0.62470000  0.07424000  0.45123000  1.0
  H  H97  1  0.14973000  0.42574000  0.04900000  1.0
  H  H98  1  0.19872000  0.45109000  0.42579000  1.0
  H  H99  1  0.07580000  0.04877000  0.07443000  1.0
  H  H100  1  0.37530000  0.92576000  0.54877000  1.0
  H  H101  1  0.85027000  0.57426000  0.95100000  1.0
  H  H102  1  0.80129000  0.54891000  0.57421000  1.0
  H  H103  1  0.92419000  0.95123000  0.92558000  1.0
  H  H104  1  0.68303000  0.14870000  0.45618000  1.0
  H  H105  1  0.28770000  0.35137000  0.04383000  1.0
  H  H106  1  0.33138000  0.45624000  0.35140000  1.0
  H  H107  1  0.13947000  0.04372000  0.14875000  1.0
  H  H108  1  0.31698000  0.85130000  0.54381000  1.0
  H  H109  1  0.71230000  0.64863000  0.95617000  1.0
  H  H110  1  0.66861000  0.54376000  0.64861000  1.0
  H  H111  1  0.86053000  0.95628000  0.85125000  1.0
  H  H112  1  0.23282000  0.24714000  0.46973000  1.0
  H  H113  1  0.94932000  0.25297000  0.03039000  1.0
  H  H114  1  0.97992000  0.46989000  0.25307000  1.0
  H  H115  1  0.70258000  0.03030000  0.24711000  1.0
  H  H116  1  0.76717000  0.75286000  0.53027000  1.0
  H  H117  1  0.05068000  0.74703000  0.96961000  1.0
  H  H118  1  0.02008000  0.53011000  0.74693000  1.0
  H  H119  1  0.29742000  0.96969000  0.75289000  1.0
  H  H120  1  0.24715000  0.87950000  0.36355000  1.0
  H  H121  1  0.49008000  0.62048000  0.13637000  1.0
  H  H122  1  0.62665000  0.36347000  0.62049000  1.0
  H  H123  1  0.61034000  0.13663000  0.87954000  1.0
  H  H124  1  0.75286000  0.12050000  0.63645000  1.0
  H  H125  1  0.50990000  0.37952000  0.86364000  1.0
  H  H126  1  0.37335000  0.63653000  0.37952000  1.0
  H  H127  1  0.38967000  0.86337000  0.12046000  1.0
  H  H128  1  0.81015000  0.01764000  0.36041000  1.0
  H  H129  1  0.18801000  0.48234000  0.13976000  1.0
  H  H130  1  0.32786000  0.36042000  0.48244000  1.0
  H  H131  1  0.17069000  0.13947000  0.01759000  1.0
  H  H132  1  0.18985000  0.98236000  0.63959000  1.0
  H  H133  1  0.81199000  0.51766000  0.86025000  1.0
  H  H134  1  0.67214000  0.63958000  0.51756000  1.0
  H  H135  1  0.82931000  0.86053000  0.98241000  1.0
  C  C136  1  0.09139000  0.11672000  0.52699000  1.0
  C  C137  1  0.73476000  0.38323000  0.97296000  1.0
  C  C138  1  0.70794000  0.52709000  0.38329000  1.0
  C  C139  1  0.61838000  0.97286000  0.11678000  1.0
  C  C140  1  0.90860000  0.88328000  0.47301000  1.0
  C  C141  1  0.26524000  0.61676000  0.02704000  1.0
  C  C142  1  0.29206000  0.47292000  0.61671000  1.0
  C  C143  1  0.38163000  0.02714000  0.88322000  1.0
  C  C144  1  0.15212000  0.17389000  0.53862000  1.0
  C  C145  1  0.86434000  0.32617000  0.96138000  1.0
  C  C146  1  0.82585000  0.53876000  0.32625000  1.0
  C  C147  1  0.69075000  0.96127000  0.17393000  1.0
  C  C148  1  0.84787000  0.82612000  0.46138000  1.0
  C  C149  1  0.13566000  0.67383000  0.03862000  1.0
  C  C150  1  0.17415000  0.46124000  0.67375000  1.0
  C  C151  1  0.30925000  0.03873000  0.82607000  1.0
  C  C152  1  0.35913000  0.14288000  0.44442000  1.0
  C  C153  1  0.94597000  0.35726000  0.05570000  1.0
  C  C154  1  0.00191000  0.44445000  0.35729000  1.0
  C  C155  1  0.80329000  0.05561000  0.14279000  1.0
  C  C156  1  0.64087000  0.85712000  0.55558000  1.0
  C  C157  1  0.05403000  0.64274000  0.94430000  1.0
  C  C158  1  0.99809000  0.55555000  0.64271000  1.0
  C  C159  1  0.19671000  0.94439000  0.85721000  1.0
  C  C160  1  0.41643000  0.14666000  0.36121000  1.0
  C  C161  1  0.92398000  0.35342000  0.13889000  1.0
  C  C162  1  0.06311000  0.36124000  0.35335000  1.0
  C  C163  1  0.77748000  0.13881000  0.14663000  1.0
  C  C164  1  0.58356000  0.85334000  0.63879000  1.0
  C  C165  1  0.07602000  0.64659000  0.86111000  1.0
  C  C166  1  0.93689000  0.63876000  0.64665000  1.0
  C  C167  1  0.22252000  0.86119000  0.85337000  1.0
  C  C168  1  0.31556000  0.02006000  0.28990000  1.0
  C  C169  1  0.62564000  0.47989000  0.21005000  1.0
  C  C170  1  0.83585000  0.28997000  0.47990000  1.0
  C  C171  1  0.60539000  0.21013000  0.02012000  1.0
  C  C172  1  0.68444000  0.97994000  0.71010000  1.0
  C  C173  1  0.37435000  0.52011000  0.78995000  1.0
  C  C174  1  0.16414000  0.71003000  0.52010000  1.0
  C  C175  1  0.39461000  0.78987000  0.97989000  1.0
  C  C176  1  0.32434000  0.93997000  0.27734000  1.0
  C  C177  1  0.54188000  0.56000000  0.22253000  1.0
  C  C178  1  0.76477000  0.27741000  0.56002000  1.0
  C  C179  1  0.60142000  0.22281000  0.94007000  1.0
  C  C180  1  0.67566000  0.06003000  0.72266000  1.0
  C  C181  1  0.45812000  0.44000000  0.77747000  1.0
  C  C182  1  0.23523000  0.72259000  0.43998000  1.0
  C  C183  1  0.39857000  0.77719000  0.05994000  1.0
  C  C184  1  0.16795000  0.87645000  0.28012000  1.0
  C  C185  1  0.32472000  0.62351000  0.21993000  1.0
  C  C186  1  0.54497000  0.27984000  0.62338000  1.0
  C  C187  1  0.44792000  0.22013000  0.87647000  1.0
  C  C188  1  0.83206000  0.12355000  0.71988000  1.0
  C  C189  1  0.67528000  0.37649000  0.78007000  1.0
  C  C190  1  0.45502000  0.72016000  0.37662000  1.0
  C  C191  1  0.55210000  0.77987000  0.12352000  1.0
  C  C192  1  0.07044000  0.93387000  0.24782000  1.0
  C  C193  1  0.25232000  0.56609000  0.25226000  1.0
  C  C194  1  0.50491000  0.24760000  0.56591000  1.0
  C  C195  1  0.31817000  0.25248000  0.93385000  1.0
  C  C196  1  0.92957000  0.06613000  0.75217000  1.0
  C  C197  1  0.74767000  0.43390000  0.74775000  1.0
  C  C198  1  0.49509000  0.75241000  0.43409000  1.0
  C  C199  1  0.68184000  0.74753000  0.06613000  1.0
  C  C200  1  0.87551000  0.17650000  0.32832000  1.0
  C  C201  1  0.38028000  0.32351000  0.17174000  1.0
  C  C202  1  0.55193000  0.32830000  0.32354000  1.0
  C  C203  1  0.20405000  0.17169000  0.17640000  1.0
  C  C204  1  0.12448000  0.82349000  0.67168000  1.0
  C  C205  1  0.61972000  0.67648000  0.82826000  1.0
  C  C206  1  0.44807000  0.67170000  0.67646000  1.0
  C  C207  1  0.79595000  0.82831000  0.82360000  1.0
  C  C208  1  0.80520000  0.12327000  0.32182000  1.0
  C  C209  1  0.25025000  0.37672000  0.17830000  1.0
  C  C210  1  0.42847000  0.32177000  0.37683000  1.0
  C  C211  1  0.12726000  0.17823000  0.12314000  1.0
  C  C212  1  0.19480000  0.87673000  0.67817000  1.0
  C  C213  1  0.74976000  0.62327000  0.82170000  1.0
  C  C214  1  0.57152000  0.67823000  0.62318000  1.0
  C  C215  1  0.87274000  0.82177000  0.87686000  1.0
  C  C216  1  0.71056000  0.08786000  0.44973000  1.0
  C  C217  1  0.24776000  0.41219000  0.05041000  1.0
  C  C218  1  0.29815000  0.44970000  0.41222000  1.0
  C  C219  1  0.16030000  0.05023000  0.08793000  1.0
  C  C220  1  0.28944000  0.91214000  0.55027000  1.0
  C  C221  1  0.75224000  0.58781000  0.94959000  1.0
  C  C222  1  0.70185000  0.55030000  0.58778000  1.0
  C  C223  1  0.83970000  0.94977000  0.91207000  1.0
  C  C224  1  0.75311000  0.05335000  0.51694000  1.0
  C  C225  1  0.32271000  0.44688000  0.98322000  1.0
  C  C226  1  0.30595000  0.51696000  0.44679000  1.0
  C  C227  1  0.26989000  0.98298000  0.05334000  1.0
  C  C228  1  0.24690000  0.94666000  0.48305000  1.0
  C  C229  1  0.67730000  0.55312000  0.01678000  1.0
  C  C230  1  0.69405000  0.48304000  0.55321000  1.0
  C  C231  1  0.73013000  0.01701000  0.94665000  1.0
  N  N232  1  0.22969000  0.19404000  0.46722000  1.0
  N  N233  1  0.89056000  0.30606000  0.03285000  1.0
  N  N234  1  0.92360000  0.46735000  0.30613000  1.0
  N  N235  1  0.69680000  0.03275000  0.19404000  1.0
  N  N236  1  0.77031000  0.80596000  0.53278000  1.0
  N  N237  1  0.10944000  0.69394000  0.96715000  1.0
  N  N238  1  0.07639000  0.53265000  0.69388000  1.0
  N  N239  1  0.30321000  0.96725000  0.80596000  1.0
  N  N240  1  0.21843000  0.91371000  0.32328000  1.0
  N  N241  1  0.45551000  0.58623000  0.17665000  1.0
  N  N242  1  0.63245000  0.32318000  0.58621000  1.0
  N  N243  1  0.54143000  0.17688000  0.91378000  1.0
  N  N244  1  0.78157000  0.08629000  0.67672000  1.0
  N  N245  1  0.54448000  0.41377000  0.82336000  1.0
  N  N246  1  0.36755000  0.67682000  0.41379000  1.0
  N  N247  1  0.45857000  0.82313000  0.08622000  1.0
  N  N248  1  0.81137000  0.06601000  0.37958000  1.0
  N  N249  1  0.25675000  0.43398000  0.12055000  1.0
  N  N250  1  0.37733000  0.37958000  0.43403000  1.0
  N  N251  1  0.19101000  0.12037000  0.06600000  1.0
  N  N252  1  0.18864000  0.93399000  0.62041000  1.0
  N  N253  1  0.74326000  0.56601000  0.87945000  1.0
  N  N254  1  0.62267000  0.62042000  0.56598000  1.0
  N  N255  1  0.80899000  0.87963000  0.93400000  1.0
  O  O256  1  0.08754000  0.11009000  0.46106000  1.0
  O  O257  1  0.65836000  0.38986000  0.03887000  1.0
  O  O258  1  0.69755000  0.46114000  0.38990000  1.0
  O  O259  1  0.54855000  0.03876000  0.11013000  1.0
  O  O260  1  0.91245000  0.88991000  0.53894000  1.0
  O  O261  1  0.34164000  0.61013000  0.96113000  1.0
  O  O262  1  0.30245000  0.53887000  0.61010000  1.0
  O  O263  1  0.45145000  0.96124000  0.88987000  1.0
  O  O264  1  0.04816000  0.08032000  0.58286000  1.0
  O  O265  1  0.71099000  0.41961000  0.91705000  1.0
  O  O266  1  0.62820000  0.58296000  0.41966000  1.0
  O  O267  1  0.63110000  0.91695000  0.08036000  1.0
  O  O268  1  0.95184000  0.91968000  0.41713000  1.0
  O  O269  1  0.28901000  0.58039000  0.08295000  1.0
  O  O270  1  0.37180000  0.41704000  0.58034000  1.0
  O  O271  1  0.36890000  0.08305000  0.91964000  1.0
  O  O272  1  0.33979000  0.17840000  0.32258000  1.0
  O  O273  1  0.84067000  0.32153000  0.17750000  1.0
  O  O274  1  0.01835000  0.32263000  0.32149000  1.0
  O  O275  1  0.66228000  0.17742000  0.17849000  1.0
  O  O276  1  0.66020000  0.82160000  0.67742000  1.0
  O  O277  1  0.15934000  0.67848000  0.82249000  1.0
  O  O278  1  0.98165000  0.67737000  0.67851000  1.0
  O  O279  1  0.33772000  0.82258000  0.82151000  1.0
  O  O280  1  0.53174000  0.11810000  0.32899000  1.0
  O  O281  1  0.97842000  0.38204000  0.17115000  1.0
  O  O282  1  0.14994000  0.32900000  0.38188000  1.0
  O  O283  1  0.86058000  0.17103000  0.11801000  1.0
  O  O284  1  0.46826000  0.88189000  0.67101000  1.0
  O  O285  1  0.02158000  0.61797000  0.82884000  1.0
  O  O286  1  0.85007000  0.67100000  0.61811000  1.0
  O  O287  1  0.13942000  0.82897000  0.88199000  1.0
  O  O288  1  0.20876000  0.06517000  0.32320000  1.0
  O  O289  1  0.59727000  0.43477000  0.17672000  1.0
  O  O290  1  0.77405000  0.32330000  0.43482000  1.0
  O  O291  1  0.53203000  0.17670000  0.06519000  1.0
  O  O292  1  0.79124000  0.93483000  0.67680000  1.0
  O  O293  1  0.40273000  0.56523000  0.82328000  1.0
  O  O294  1  0.22593000  0.67670000  0.56519000  1.0
  O  O295  1  0.46797000  0.82331000  0.93481000  1.0
  O  O296  1  0.41683000  0.03697000  0.26145000  1.0
  O  O297  1  0.71521000  0.46299000  0.23864000  1.0
  O  O298  1  0.95402000  0.26151000  0.46295000  1.0
  O  O299  1  0.67817000  0.23860000  0.03704000  1.0
  O  O300  1  0.58317000  0.96303000  0.73855000  1.0
  O  O301  1  0.28479000  0.53701000  0.76136000  1.0
  O  O302  1  0.04598000  0.73849000  0.53705000  1.0
  O  O303  1  0.32182000  0.76140000  0.96297000  1.0
  O  O304  1  0.03437000  0.00038000  0.27515000  1.0
  O  O305  1  0.30990000  0.49961000  0.22487000  1.0
  O  O306  1  0.53496000  0.27515000  0.49949000  1.0
  O  O307  1  0.30925000  0.22491000  0.00028000  1.0
  O  O308  1  0.96564000  0.99962000  0.72485000  1.0
  O  O309  1  0.69011000  0.50039000  0.77513000  1.0
  O  O310  1  0.46504000  0.72485000  0.50051000  1.0
  O  O311  1  0.69074000  0.77510000  0.99971000  1.0
  O  O312  1  0.03279000  0.91388000  0.20053000  1.0
  O  O313  1  0.14757000  0.58609000  0.29967000  1.0
  O  O314  1  0.44765000  0.20011000  0.58577000  1.0
  O  O315  1  0.23347000  0.30004000  0.91390000  1.0
  O  O316  1  0.96721000  0.08612000  0.79947000  1.0
  O  O317  1  0.85243000  0.41390000  0.70033000  1.0
  O  O318  1  0.55234000  0.79990000  0.41423000  1.0
  O  O319  1  0.76655000  0.69997000  0.08608000  1.0
  O  O320  1  0.96296000  0.15120000  0.36056000  1.0
  O  O321  1  0.47461000  0.34884000  0.13949000  1.0
  O  O322  1  0.61415000  0.36051000  0.34882000  1.0
  O  O323  1  0.32368000  0.13940000  0.15111000  1.0
  O  O324  1  0.03703000  0.84880000  0.63944000  1.0
  O  O325  1  0.52539000  0.65115000  0.86052000  1.0
  O  O326  1  0.38585000  0.63949000  0.65118000  1.0
  O  O327  1  0.67632000  0.86060000  0.84889000  1.0
  O  O328  1  0.84945000  0.24002000  0.30061000  1.0
  O  O329  1  0.39006000  0.25999000  0.19943000  1.0
  O  O330  1  0.58922000  0.30059000  0.26005000  1.0
  O  O331  1  0.15029000  0.19940000  0.23990000  1.0
  O  O332  1  0.15054000  0.75998000  0.69939000  1.0
  O  O333  1  0.60995000  0.74000000  0.80057000  1.0
  O  O334  1  0.41078000  0.69941000  0.73995000  1.0
  O  O335  1  0.84971000  0.80060000  0.76010000  1.0
  O  O336  1  0.87158000  0.04640000  0.51207000  1.0
  O  O337  1  0.42955000  0.45369000  0.98795000  1.0
  O  O338  1  0.41753000  0.51218000  0.45367000  1.0
  O  O339  1  0.38357000  0.98782000  0.04624000  1.0
  O  O340  1  0.12842000  0.95360000  0.48793000  1.0
  O  O341  1  0.57045000  0.54631000  0.01206000  1.0
  O  O342  1  0.58248000  0.48782000  0.54633000  1.0
  O  O343  1  0.61644000  0.01218000  0.95376000  1.0
  O  O344  1  0.67672000  0.03587000  0.57211000  1.0
  O  O345  1  0.28362000  0.46463000  0.92820000  1.0
  O  O346  1  0.21193000  0.57203000  0.46437000  1.0
  O  O347  1  0.24842000  0.92783000  0.03599000  1.0
  O  O348  1  0.32327000  0.96414000  0.42790000  1.0
  O  O349  1  0.71639000  0.53537000  0.07180000  1.0
  O  O350  1  0.78807000  0.42797000  0.53563000  1.0
  O  O351  1  0.75159000  0.07217000  0.96401000  1.0
