# generated using pymatgen
data_ZnH22C19N2(ClO2)2
_symmetry_space_group_name_H-M   'P 1'
_cell_length_a   8.41652000
_cell_length_b   9.11981000
_cell_length_c   13.32810000
_cell_angle_alpha   97.31040000
_cell_angle_beta   94.53370000
_cell_angle_gamma   91.12230000
_symmetry_Int_Tables_number   1
_chemical_formula_structural   ZnH22C19N2(ClO2)2
_chemical_formula_sum   'Zn2 H44 C38 N4 Cl4 O8'
_cell_volume   1011.08026462
_cell_formula_units_Z   2
loop_
 _symmetry_equiv_pos_site_id
 _symmetry_equiv_pos_as_xyz
  1  'x, y, z'
loop_
 _atom_site_type_symbol
 _atom_site_label
 _atom_site_symmetry_multiplicity
 _atom_site_fract_x
 _atom_site_fract_y
 _atom_site_fract_z
 _atom_site_occupancy
  Zn  Zn0  1  0.50239000  0.35933000  0.97952000  1.0
  Zn  Zn1  1  0.00933000  0.75650000  0.49125000  1.0
  H  H2  1  0.21741000  0.39703000  0.04494000  1.0
  H  H3  1  0.95988000  0.29275000  0.08820000  1.0
  H  H4  1  0.19882000  0.12221000  0.34465000  1.0
  H  H5  1  0.74612000  0.29366000  0.33349000  1.0
  H  H6  1  0.74222000  0.37630000  0.16247000  1.0
  H  H7  1  0.00941000  0.95663000  0.29924000  1.0
  H  H8  1  0.79966000  0.99025000  0.29911000  1.0
  H  H9  1  0.94068000  0.10884000  0.38108000  1.0
  H  H10  1  0.43110000  0.06673000  0.40616000  1.0
  H  H11  1  0.28750000  0.26085000  0.47663000  1.0
  H  H12  1  0.38409000  0.49650000  0.45275000  1.0
  H  H13  1  0.58682000  0.45502000  0.48311000  1.0
  H  H14  1  0.70002000  0.25544000  0.62206000  1.0
  H  H15  1  0.61264000  0.26314000  0.73948000  1.0
  H  H16  1  0.70815000  0.51343000  0.64354000  1.0
  H  H17  1  0.59147000  0.51934000  0.75088000  1.0
  H  H18  1  0.42877000  0.11520000  0.60806000  1.0
  H  H19  1  0.31759000  0.29185000  0.74580000  1.0
  H  H20  1  0.18770000  0.26163000  0.63322000  1.0
  H  H21  1  0.32082000  0.53917000  0.73330000  1.0
  H  H22  1  0.29974000  0.75184000  0.44222000  1.0
  H  H23  1  0.55674000  0.81400000  0.37766000  1.0
  H  H24  1  0.34253000  0.75250000  0.07193000  1.0
  H  H25  1  0.78826000  0.62472000  0.12018000  1.0
  H  H26  1  0.78767000  0.64566000  0.30858000  1.0
  H  H27  1  0.61926000  0.79353000  0.04129000  1.0
  H  H28  1  0.72835000  0.95537000  0.10564000  1.0
  H  H29  1  0.51688000  0.96115000  0.07756000  1.0
  H  H30  1  0.11074000  0.57121000  0.98283000  1.0
  H  H31  1  0.20826000  0.81765000  0.98056000  1.0
  H  H32  1  0.04504000  0.00516000  0.03943000  1.0
  H  H33  1  0.86596000  0.91063000  0.98139000  1.0
  H  H34  1  0.82957000  0.70710000  0.81218000  1.0
  H  H35  1  0.91938000  0.73590000  0.70026000  1.0
  H  H36  1  0.75983000  0.95889000  0.82174000  1.0
  H  H37  1  0.89483000  0.99298000  0.72980000  1.0
  H  H38  1  0.12172000  0.63986000  0.81640000  1.0
  H  H39  1  0.20146000  0.85020000  0.71798000  1.0
  H  H40  1  0.32432000  0.84331000  0.83284000  1.0
  H  H41  1  0.13929000  0.08879000  0.77627000  1.0
  H  H42  1  0.46400000  0.62600000  0.60729000  1.0
  H  H43  1  0.95391000  0.12020000  0.90133000  1.0
  H  H44  1  0.66768000  0.05781000  0.48355000  1.0
  H  H45  1  0.84941000  0.51128000  0.95957000  1.0
  C  C46  1  0.35623000  0.31441000  0.16781000  1.0
  C  C47  1  0.21256000  0.33680000  0.11024000  1.0
  C  C48  1  0.07065000  0.28009000  0.13409000  1.0
  C  C49  1  0.06730000  0.19577000  0.21633000  1.0
  C  C50  1  0.20362000  0.18261000  0.27962000  1.0
  C  C51  1  0.35071000  0.24445000  0.25778000  1.0
  C  C52  1  0.49591000  0.23779000  0.31993000  1.0
  C  C53  1  0.63363000  0.29528000  0.28781000  1.0
  C  C54  1  0.63147000  0.34591000  0.19261000  1.0
  C  C55  1  0.91902000  0.04120000  0.30693000  1.0
  C  C56  1  0.49953000  0.17280000  0.41925000  1.0
  C  C57  1  0.41586000  0.27496000  0.49959000  1.0
  C  C58  1  0.46383000  0.43849000  0.50221000  1.0
  C  C59  1  0.59951000  0.29744000  0.66332000  1.0
  C  C60  1  0.60231000  0.46767000  0.67287000  1.0
  C  C61  1  0.43932000  0.23567000  0.60890000  1.0
  C  C62  1  0.30407000  0.30911000  0.66572000  1.0
  C  C63  1  0.30773000  0.47548000  0.65694000  1.0
  C  C64  1  0.15756000  0.53292000  0.60250000  1.0
  C  C65  1  0.16868000  0.72272000  0.29433000  1.0
  C  C66  1  0.30750000  0.75472000  0.36140000  1.0
  C  C67  1  0.44953000  0.79092000  0.32600000  1.0
  C  C68  1  0.45841000  0.79878000  0.22126000  1.0
  C  C69  1  0.32810000  0.75780000  0.15239000  1.0
  C  C70  1  0.17876000  0.72077000  0.18661000  1.0
  C  C71  1  0.03598000  0.68227000  0.12124000  1.0
  C  C72  1  0.89877000  0.65319000  0.16717000  1.0
  C  C73  1  0.89782000  0.66270000  0.27309000  1.0
  C  C74  1  0.61572000  0.89140000  0.09841000  1.0
  C  C75  1  0.02740000  0.66009000  0.00446000  1.0
  C  C76  1  0.08448000  0.79037000  0.95213000  1.0
  C  C77  1  0.99240000  0.93239000  0.97315000  1.0
  C  C78  1  0.91911000  0.77365000  0.78162000  1.0
  C  C79  1  0.87973000  0.93821000  0.79732000  1.0
  C  C80  1  0.08403000  0.75374000  0.83559000  1.0
  C  C81  1  0.20338000  0.86328000  0.80117000  1.0
  C  C82  1  0.15826000  0.02350000  0.83961000  1.0
  C  C83  1  0.28458000  0.10424000  0.91931000  1.0
  N  N84  1  0.49792000  0.35486000  0.13343000  1.0
  N  N85  1  0.45910000  0.51369000  0.60940000  1.0
  N  N86  1  0.02797000  0.69639000  0.33563000  1.0
  N  N87  1  0.99533000  0.01508000  0.88156000  1.0
  Cl  Cl88  1  0.44933000  0.57600000  0.92257000  1.0
  Cl  Cl89  1  0.75509000  0.28391000  0.94077000  1.0
  Cl  Cl90  1  0.10106000  0.99138000  0.54228000  1.0
  Cl  Cl91  1  0.74572000  0.75002000  0.51767000  1.0
  O  O92  1  0.92426000  0.13052000  0.22564000  1.0
  O  O93  1  0.66154000  0.14805000  0.45141000  1.0
  O  O94  1  0.18561000  0.64868000  0.55795000  1.0
  O  O95  1  0.02623000  0.47387000  0.60971000  1.0
  O  O96  1  0.60182000  0.84867000  0.19784000  1.0
  O  O97  1  0.86992000  0.61856000  0.96262000  1.0
  O  O98  1  0.33884000  0.22740000  0.89469000  1.0
  O  O99  1  0.32661000  0.04816000  0.99690000  1.0
