# generated using pymatgen
data_AlH15C21(NO2)3
_symmetry_space_group_name_H-M   'P 1'
_cell_length_a   3.95831000
_cell_length_b   24.59160000
_cell_length_c   24.59160000
_cell_angle_alpha   60.00000000
_cell_angle_beta   89.99990000
_cell_angle_gamma   90.00000000
_symmetry_Int_Tables_number   1
_chemical_formula_structural   AlH15C21(NO2)3
_chemical_formula_sum   'Al2 H30 C42 N6 O12'
_cell_volume   2073.07019350
_cell_formula_units_Z   2
loop_
 _symmetry_equiv_pos_site_id
 _symmetry_equiv_pos_as_xyz
  1  'x, y, z'
loop_
 _atom_site_type_symbol
 _atom_site_label
 _atom_site_symmetry_multiplicity
 _atom_site_fract_x
 _atom_site_fract_y
 _atom_site_fract_z
 _atom_site_occupancy
  Al  Al0  1  0.97158000  0.50000000  1.00000000  1.0
  Al  Al1  1  0.97239000  0.16666000  0.66667000  1.0
  H  H2  1  0.67630000  0.27607000  0.29498000  1.0
  H  H3  1  0.67638000  0.39081000  0.37174000  1.0
  H  H4  1  0.16417000  0.17971000  0.49629000  1.0
  H  H5  1  0.14640000  0.23426000  0.37931000  1.0
  H  H6  1  0.16369000  0.48712000  0.17035000  1.0
  H  H7  1  0.14632000  0.43265000  0.28733000  1.0
  H  H8  1  0.67630000  0.42895000  0.77607000  1.0
  H  H9  1  0.67637000  0.23745000  0.89081000  1.0
  H  H10  1  0.16415000  0.32400000  0.67971000  1.0
  H  H11  1  0.14638000  0.38643000  0.73426000  1.0
  H  H12  1  0.16367000  0.34253000  0.98712000  1.0
  H  H13  1  0.14629000  0.28002000  0.93265000  1.0
  H  H14  1  0.67626000  0.79497000  0.92897000  1.0
  H  H15  1  0.67635000  0.87174000  0.73745000  1.0
  H  H16  1  0.16419000  0.99629000  0.82401000  1.0
  H  H17  1  0.14642000  0.87930000  0.88644000  1.0
  H  H18  1  0.16371000  0.67035000  0.84253000  1.0
  H  H19  1  0.14633000  0.78733000  0.78002000  1.0
  H  H20  1  0.84262000  0.35518000  0.12891000  1.0
  H  H21  1  0.92779000  0.29123000  0.20110000  1.0
  H  H22  1  0.84324000  0.31157000  0.53780000  1.0
  H  H23  1  0.92815000  0.37557000  0.46564000  1.0
  H  H24  1  0.84263000  0.51590000  0.85519000  1.0
  H  H25  1  0.92780000  0.50767000  0.79123000  1.0
  H  H26  1  0.84325000  0.15063000  0.81158000  1.0
  H  H27  1  0.92815000  0.15879000  0.87558000  1.0
  H  H28  1  0.84258000  0.62891000  0.01591000  1.0
  H  H29  1  0.92773000  0.70109000  0.00769000  1.0
  H  H30  1  0.84322000  0.03779000  0.65064000  1.0
  H  H31  1  0.92810000  0.96563000  0.65879000  1.0
  C  C32  1  0.46492000  0.59741000  0.95079000  1.0
  C  C33  1  0.46492000  0.45181000  0.09741000  1.0
  C  C34  1  0.46492000  0.45078000  0.95181000  1.0
  C  C35  1  0.46567000  0.21494000  0.56926000  1.0
  C  C36  1  0.46567000  0.21580000  0.71494000  1.0
  C  C37  1  0.46567000  0.06925000  0.71581000  1.0
  C  C38  1  0.44925000  0.41513000  0.16645000  1.0
  C  C39  1  0.44975000  0.25168000  0.50022000  1.0
  C  C40  1  0.59978000  0.35463000  0.20167000  1.0
  C  C41  1  0.56313000  0.32258000  0.26748000  1.0
  C  C42  1  0.60014000  0.31219000  0.46503000  1.0
  C  C43  1  0.56326000  0.34430000  0.39921000  1.0
  C  C44  1  0.28263000  0.22549000  0.46819000  1.0
  C  C45  1  0.27224000  0.25584000  0.40322000  1.0
  C  C46  1  0.28227000  0.44135000  0.19847000  1.0
  C  C47  1  0.27210000  0.41105000  0.26343000  1.0
  C  C48  1  0.41106000  0.35038000  0.29861000  1.0
  C  C49  1  0.41111000  0.31652000  0.36807000  1.0
  C  C50  1  0.44924000  0.41842000  0.91513000  1.0
  C  C51  1  0.44975000  0.24810000  0.75168000  1.0
  C  C52  1  0.59978000  0.44370000  0.85464000  1.0
  C  C53  1  0.56312000  0.40994000  0.82258000  1.0
  C  C54  1  0.60014000  0.22278000  0.81219000  1.0
  C  C55  1  0.56325000  0.25649000  0.84430000  1.0
  C  C56  1  0.28262000  0.30632000  0.72549000  1.0
  C  C57  1  0.27222000  0.34094000  0.75584000  1.0
  C  C58  1  0.28225000  0.36018000  0.94135000  1.0
  C  C59  1  0.27208000  0.32552000  0.91105000  1.0
  C  C60  1  0.41104000  0.35102000  0.85037000  1.0
  C  C61  1  0.41109000  0.31541000  0.81652000  1.0
  C  C62  1  0.44924000  0.66645000  0.91842000  1.0
  C  C63  1  0.44975000  0.00022000  0.74810000  1.0
  C  C64  1  0.59976000  0.70166000  0.94371000  1.0
  C  C65  1  0.56310000  0.76748000  0.90995000  1.0
  C  C66  1  0.60013000  0.96503000  0.72278000  1.0
  C  C67  1  0.56324000  0.89921000  0.75650000  1.0
  C  C68  1  0.28264000  0.96818000  0.80633000  1.0
  C  C69  1  0.27225000  0.90322000  0.84094000  1.0
  C  C70  1  0.28227000  0.69847000  0.86018000  1.0
  C  C71  1  0.27210000  0.76344000  0.82551000  1.0
  C  C72  1  0.41105000  0.79861000  0.85102000  1.0
  C  C73  1  0.41110000  0.86807000  0.81541000  1.0
  N  N74  1  0.76294000  0.32567000  0.17361000  1.0
  N  N75  1  0.76339000  0.34111000  0.49312000  1.0
  N  N76  1  0.76295000  0.50072000  0.82567000  1.0
  N  N77  1  0.76339000  0.16577000  0.84112000  1.0
  N  N78  1  0.76289000  0.67360000  0.00073000  1.0
  N  N79  1  0.76335000  0.99312000  0.66576000  1.0
  O  O80  1  0.23856000  0.43834000  0.99369000  1.0
  O  O81  1  0.23857000  0.56797000  0.93834000  1.0
  O  O82  1  0.23856000  0.49369000  0.06797000  1.0
  O  O83  1  0.70558000  0.49043000  0.94017000  1.0
  O  O84  1  0.70558000  0.44017000  0.06940000  1.0
  O  O85  1  0.70558000  0.56940000  0.99043000  1.0
  O  O86  1  0.23944000  0.09869000  0.72829000  1.0
  O  O87  1  0.23944000  0.17302000  0.59869000  1.0
  O  O88  1  0.23944000  0.22829000  0.67302000  1.0
  O  O89  1  0.70646000  0.09727000  0.67619000  1.0
  O  O90  1  0.70646000  0.17619000  0.72654000  1.0
  O  O91  1  0.70645000  0.22653000  0.59728000  1.0
