# generated using pymatgen
data_Ag2H7C7(IN)2
_symmetry_space_group_name_H-M   'P 1'
_cell_length_a   4.42097000
_cell_length_b   11.84480000
_cell_length_c   12.15717282
_cell_angle_alpha   118.75036547
_cell_angle_beta   90.62159012
_cell_angle_gamma   98.16570000
_symmetry_Int_Tables_number   1
_chemical_formula_structural   Ag2H7C7(IN)2
_chemical_formula_sum   'Ag4 H14 C14 I4 N4'
_cell_volume   550.17445314
_cell_formula_units_Z   2
loop_
 _symmetry_equiv_pos_site_id
 _symmetry_equiv_pos_as_xyz
  1  'x, y, z'
loop_
 _atom_site_type_symbol
 _atom_site_label
 _atom_site_symmetry_multiplicity
 _atom_site_fract_x
 _atom_site_fract_y
 _atom_site_fract_z
 _atom_site_occupancy
  Ag  Ag0  1  0.81036000  0.75190000  0.07821000  1.0
  Ag  Ag1  1  0.18963000  0.24812000  0.92180000  1.0
  Ag  Ag2  1  0.31895000  0.90045000  0.02220000  1.0
  Ag  Ag3  1  0.68105000  0.09954000  0.97779000  1.0
  H  H4  1  0.28858000  0.59842000  0.18971000  1.0
  H  H5  1  0.71143000  0.40160000  0.81030000  1.0
  H  H6  1  0.92300000  0.94616000  0.39574000  1.0
  H  H7  1  0.07697000  0.05386000  0.60427000  1.0
  H  H8  1  0.57612000  0.89608000  0.56383000  1.0
  H  H9  1  0.42387000  0.10392000  0.43618000  1.0
  H  H10  1  0.97230000  0.59838000  0.36512000  1.0
  H  H11  1  0.02771000  0.40161000  0.63488000  1.0
  H  H12  1  0.06685000  0.73107000  0.52095000  1.0
  H  H13  1  0.93317000  0.26892000  0.47905000  1.0
  H  H14  1  0.46795000  0.72698000  0.66364000  1.0
  H  H15  1  0.53207000  0.27300000  0.33635000  1.0
  H  H16  1  0.22706000  0.40518000  0.28678000  1.0
  H  H17  1  0.77294000  0.59480000  0.71321000  1.0
  C  C18  1  0.41980000  0.68603000  0.26718000  1.0
  C  C19  1  0.58021000  0.31397000  0.73282000  1.0
  C  C20  1  0.74315000  0.86575000  0.37831000  1.0
  C  C21  1  0.25682000  0.13427000  0.62169000  1.0
  C  C22  1  0.57438000  0.84285000  0.46211000  1.0
  C  C23  1  0.42563000  0.15715000  0.53789000  1.0
  C  C24  1  0.16137000  0.65853000  0.43830000  1.0
  C  C25  1  0.83864000  0.34147000  0.56170000  1.0
  C  C26  1  0.32973000  0.57536000  0.47148000  1.0
  C  C27  1  0.67029000  0.42463000  0.52852000  1.0
  C  C28  1  0.48271000  0.62752000  0.59138000  1.0
  C  C29  1  0.51730000  0.37246000  0.40860000  1.0
  C  C30  1  0.34754000  0.44715000  0.38030000  1.0
  C  C31  1  0.65248000  0.55285000  0.61970000  1.0
  I  I32  1  0.87019000  0.05012000  0.18338000  1.0
  I  I33  1  0.12981000  0.94989000  0.81662000  1.0
  I  I34  1  0.23318000  0.62652000  0.91753000  1.0
  I  I35  1  0.76681000  0.37348000  0.08247000  1.0
  N  N36  1  0.64532000  0.76731000  0.25740000  1.0
  N  N37  1  0.35467000  0.23269000  0.74260000  1.0
  N  N38  1  0.36904000  0.72910000  0.38989000  1.0
  N  N39  1  0.63096000  0.27090000  0.61011000  1.0
