# generated using pymatgen
data_Ca3Tb2H42C42(NO6)6
_symmetry_space_group_name_H-M   'P 1'
_cell_length_a   9.60546000
_cell_length_b   15.40030000
_cell_length_c   23.07010000
_cell_angle_alpha   71.69600000
_cell_angle_beta   89.99960000
_cell_angle_gamma   89.99930000
_symmetry_Int_Tables_number   1
_chemical_formula_structural   Ca3Tb2H42C42(NO6)6
_chemical_formula_sum   'Ca6 Tb4 H84 C84 N12 O72'
_cell_volume   3240.01991175
_cell_formula_units_Z   2
loop_
 _symmetry_equiv_pos_site_id
 _symmetry_equiv_pos_as_xyz
  1  'x, y, z'
loop_
 _atom_site_type_symbol
 _atom_site_label
 _atom_site_symmetry_multiplicity
 _atom_site_fract_x
 _atom_site_fract_y
 _atom_site_fract_z
 _atom_site_occupancy
  Ca  Ca0  1  1.00000000  0.50001000  1.00000000  1.0
  Ca  Ca1  1  0.00000000  0.50000000  0.50000000  1.0
  Ca  Ca2  1  0.00000000  0.00000000  0.00000000  1.0
  Ca  Ca3  1  1.00000000  0.99999000  0.50000000  1.0
  Ca  Ca4  1  0.01470000  0.49999000  0.75000000  1.0
  Ca  Ca5  1  0.98529000  0.50000000  0.25000000  1.0
  Tb  Tb6  1  0.50985000  0.29411000  0.90130000  1.0
  Tb  Tb7  1  0.50985000  0.70589000  0.59870000  1.0
  Tb  Tb8  1  0.49015000  0.70590000  0.09871000  1.0
  Tb  Tb9  1  0.49015000  0.29411000  0.40130000  1.0
  H  H10  1  0.34022000  0.58986000  0.96815000  1.0
  H  H11  1  0.34021000  0.41013000  0.53186000  1.0
  H  H12  1  0.65979000  0.41015000  0.03185000  1.0
  H  H13  1  0.65979000  0.58986000  0.46815000  1.0
  H  H14  1  0.52672000  0.69932000  0.91304000  1.0
  H  H15  1  0.52671000  0.30068000  0.58696000  1.0
  H  H16  1  0.47329000  0.30069000  0.08695000  1.0
  H  H17  1  0.47330000  0.69932000  0.41304000  1.0
  H  H18  1  0.69860000  0.64754000  0.84761000  1.0
  H  H19  1  0.69859000  0.35246000  0.65238000  1.0
  H  H20  1  0.30140000  0.35247000  0.15238000  1.0
  H  H21  1  0.30142000  0.64753000  0.34762000  1.0
  H  H22  1  0.35262000  0.97397000  0.07301000  1.0
  H  H23  1  0.35259000  0.02602000  0.42699000  1.0
  H  H24  1  0.64742000  0.02602000  0.92699000  1.0
  H  H25  1  0.64742000  0.97398000  0.57301000  1.0
  H  H26  1  0.55404000  0.95906000  0.14645000  1.0
  H  H27  1  0.55402000  0.04093000  0.35355000  1.0
  H  H28  1  0.44600000  0.04095000  0.85355000  1.0
  H  H29  1  0.44600000  0.95906000  0.64646000  1.0
  H  H30  1  0.73140000  0.08647000  0.12337000  1.0
  H  H31  1  0.73139000  0.91354000  0.37662000  1.0
  H  H32  1  0.26864000  0.91354000  0.87662000  1.0
  H  H33  1  0.26863000  0.08646000  0.62338000  1.0
  H  H34  1  0.11897000  0.65882000  0.91098000  1.0
  H  H35  1  0.11895000  0.34118000  0.58902000  1.0
  H  H36  1  0.88105000  0.34120000  0.08902000  1.0
  H  H37  1  0.88105000  0.65881000  0.41098000  1.0
  H  H38  1  0.11053000  0.57889000  0.87878000  1.0
  H  H39  1  0.11051000  0.42111000  0.62121000  1.0
  H  H40  1  0.88949000  0.42113000  0.12122000  1.0
  H  H41  1  0.88949000  0.57888000  0.37878000  1.0
  H  H42  1  0.82863000  0.37489000  0.95079000  1.0
  H  H43  1  0.82863000  0.62511000  0.54921000  1.0
  H  H44  1  0.17137000  0.62512000  0.04921000  1.0
  H  H45  1  0.17137000  0.37488000  0.45079000  1.0
  H  H46  1  0.87896000  0.46273000  0.89704000  1.0
  H  H47  1  0.87896000  0.53728000  0.60296000  1.0
  H  H48  1  0.12104000  0.53729000  0.10296000  1.0
  H  H49  1  0.12104000  0.46271000  0.39704000  1.0
  H  H50  1  0.98026000  0.20379000  0.94487000  1.0
  H  H51  1  0.98026000  0.79620000  0.55512000  1.0
  H  H52  1  0.01972000  0.79622000  0.05513000  1.0
  H  H53  1  0.01975000  0.20379000  0.44489000  1.0
  H  H54  1  0.83406000  0.16834000  0.93074000  1.0
  H  H55  1  0.83405000  0.83166000  0.56926000  1.0
  H  H56  1  0.16594000  0.83167000  0.06926000  1.0
  H  H57  1  0.16595000  0.16833000  0.43075000  1.0
  H  H58  1  0.90553000  0.03890000  0.87148000  1.0
  H  H59  1  0.90551000  0.96108000  0.62852000  1.0
  H  H60  1  0.09447000  0.96110000  0.12851000  1.0
  H  H61  1  0.09449000  0.03891000  0.37149000  1.0
  H  H62  1  0.94292000  0.93321000  0.89077000  1.0
  H  H63  1  0.94291000  0.06677000  0.60924000  1.0
  H  H64  1  0.05710000  0.06679000  0.10922000  1.0
  H  H65  1  0.05709000  0.93322000  0.39077000  1.0
  H  H66  1  0.26564000  0.27409000  0.69044000  1.0
  H  H67  1  0.26560000  0.72590000  0.80956000  1.0
  H  H68  1  0.73435000  0.72593000  0.30956000  1.0
  H  H69  1  0.73437000  0.27410000  0.19044000  1.0
  H  H70  1  0.42988000  0.15994000  0.66966000  1.0
  H  H71  1  0.42986000  0.84006000  0.83034000  1.0
  H  H72  1  0.57009000  0.84009000  0.33033000  1.0
  H  H73  1  0.57013000  0.15994000  0.16966000  1.0
  H  H74  1  0.20874000  0.43688000  0.84645000  1.0
  H  H75  1  0.20873000  0.56311000  0.65355000  1.0
  H  H76  1  0.79124000  0.56313000  0.15356000  1.0
  H  H77  1  0.79126000  0.43688000  0.34645000  1.0
  H  H78  1  0.07012000  0.42346000  0.88514000  1.0
  H  H79  1  0.07012000  0.57653000  0.61486000  1.0
  H  H80  1  0.92987000  0.57655000  0.11487000  1.0
  H  H81  1  0.92988000  0.42346000  0.38513000  1.0
  H  H82  1  0.82908000  0.35006000  0.81417000  1.0
  H  H83  1  0.82907000  0.64992000  0.68583000  1.0
  H  H84  1  0.17092000  0.64993000  0.18584000  1.0
  H  H85  1  0.17093000  0.35007000  0.31417000  1.0
  H  H86  1  0.94306000  0.29009000  0.79415000  1.0
  H  H87  1  0.94306000  0.70990000  0.70584000  1.0
  H  H88  1  0.05694000  0.70990000  0.20587000  1.0
  H  H89  1  0.05694000  0.29010000  0.29415000  1.0
  H  H90  1  0.64302000  0.11169000  0.73664000  1.0
  H  H91  1  0.64302000  0.88831000  0.76336000  1.0
  H  H92  1  0.35696000  0.88833000  0.26335000  1.0
  H  H93  1  0.35698000  0.11169000  0.23664000  1.0
  C  C94  1  0.41305000  0.48296000  0.93409000  1.0
  C  C95  1  0.41304000  0.51703000  0.56592000  1.0
  C  C96  1  0.58696000  0.51704000  0.06591000  1.0
  C  C97  1  0.58696000  0.48297000  0.43408000  1.0
  C  C98  1  0.41524000  0.57114000  0.93882000  1.0
  C  C99  1  0.41524000  0.42885000  0.56119000  1.0
  C  C100  1  0.58476000  0.42887000  0.06118000  1.0
  C  C101  1  0.58476000  0.57114000  0.43882000  1.0
  C  C102  1  0.51855000  0.63158000  0.90784000  1.0
  C  C103  1  0.51855000  0.36841000  0.59215000  1.0
  C  C104  1  0.48144000  0.36843000  0.09215000  1.0
  C  C105  1  0.48145000  0.63158000  0.40784000  1.0
  C  C106  1  0.61442000  0.60361000  0.87184000  1.0
  C  C107  1  0.61442000  0.39639000  0.62815000  1.0
  C  C108  1  0.38557000  0.39640000  0.12815000  1.0
  C  C109  1  0.38558000  0.60360000  0.37185000  1.0
  C  C110  1  0.60311000  0.51500000  0.86859000  1.0
  C  C111  1  0.60311000  0.48499000  0.63141000  1.0
  C  C112  1  0.39689000  0.48501000  0.13141000  1.0
  C  C113  1  0.39689000  0.51500000  0.36859000  1.0
  C  C114  1  0.31255000  0.40875000  0.96886000  1.0
  C  C115  1  0.31256000  0.59125000  0.53114000  1.0
  C  C116  1  0.68745000  0.59126000  0.03114000  1.0
  C  C117  1  0.68744000  0.40874000  0.46887000  1.0
  C  C118  1  0.70410000  0.47477000  0.83395000  1.0
  C  C119  1  0.70409000  0.52522000  0.66604000  1.0
  C  C120  1  0.29589000  0.52523000  0.16604000  1.0
  C  C121  1  0.29591000  0.47478000  0.33395000  1.0
  C  C122  1  0.42843000  0.10102000  0.01255000  1.0
  C  C123  1  0.42844000  0.89898000  0.48744000  1.0
  C  C124  1  0.57156000  0.89898000  0.98744000  1.0
  C  C125  1  0.57156000  0.10102000  0.51256000  1.0
  C  C126  1  0.43278000  0.02611000  0.06570000  1.0
  C  C127  1  0.43278000  0.97389000  0.43430000  1.0
  C  C128  1  0.56723000  0.97389000  0.93430000  1.0
  C  C129  1  0.56723000  0.02611000  0.56570000  1.0
  C  C130  1  0.54355000  0.01892000  0.10612000  1.0
  C  C131  1  0.54353000  0.98107000  0.39388000  1.0
  C  C132  1  0.45650000  0.98108000  0.89388000  1.0
  C  C133  1  0.45650000  0.01892000  0.60612000  1.0
  C  C134  1  0.64235000  0.08875000  0.09369000  1.0
  C  C135  1  0.64235000  0.91125000  0.40631000  1.0
  C  C136  1  0.35767000  0.91126000  0.90631000  1.0
  C  C137  1  0.35766000  0.08874000  0.59369000  1.0
  C  C138  1  0.62655000  0.16349000  0.04087000  1.0
  C  C139  1  0.62655000  0.83651000  0.45912000  1.0
  C  C140  1  0.37346000  0.83651000  0.95912000  1.0
  C  C141  1  0.37345000  0.16349000  0.54088000  1.0
  C  C142  1  0.31895000  0.11269000  0.96344000  1.0
  C  C143  1  0.31896000  0.88731000  0.53656000  1.0
  C  C144  1  0.68106000  0.88732000  0.03656000  1.0
  C  C145  1  0.68104000  0.11268000  0.46344000  1.0
  C  C146  1  0.71887000  0.24679000  0.02593000  1.0
  C  C147  1  0.71887000  0.75322000  0.47406000  1.0
  C  C148  1  0.28115000  0.75322000  0.97406000  1.0
  C  C149  1  0.28113000  0.24678000  0.52594000  1.0
  C  C150  1  0.38595000  0.28288000  0.76709000  1.0
  C  C151  1  0.38593000  0.71711000  0.73291000  1.0
  C  C152  1  0.61403000  0.71713000  0.23291000  1.0
  C  C153  1  0.61405000  0.28289000  0.26709000  1.0
  C  C154  1  0.35732000  0.24972000  0.71859000  1.0
  C  C155  1  0.35730000  0.75028000  0.78141000  1.0
  C  C156  1  0.64266000  0.75030000  0.28141000  1.0
  C  C157  1  0.64269000  0.24972000  0.21859000  1.0
  C  C158  1  0.44922000  0.18672000  0.70733000  1.0
  C  C159  1  0.44921000  0.81328000  0.79266000  1.0
  C  C160  1  0.55075000  0.81330000  0.29267000  1.0
  C  C161  1  0.55078000  0.18673000  0.20733000  1.0
  C  C162  1  0.56686000  0.15961000  0.74397000  1.0
  C  C163  1  0.56685000  0.84039000  0.75602000  1.0
  C  C164  1  0.43312000  0.84041000  0.25603000  1.0
  C  C165  1  0.43314000  0.15961000  0.24397000  1.0
  C  C166  1  0.58586000  0.19462000  0.79244000  1.0
  C  C167  1  0.58585000  0.80537000  0.70755000  1.0
  C  C168  1  0.41413000  0.80540000  0.20755000  1.0
  C  C169  1  0.41414000  0.19462000  0.29245000  1.0
  C  C170  1  0.29649000  0.35338000  0.78241000  1.0
  C  C171  1  0.29647000  0.64662000  0.71759000  1.0
  C  C172  1  0.70350000  0.64663000  0.21760000  1.0
  C  C173  1  0.70352000  0.35338000  0.28241000  1.0
  C  C174  1  0.70403000  0.16482000  0.83754000  1.0
  C  C175  1  0.70403000  0.83516000  0.66246000  1.0
  C  C176  1  0.29597000  0.83519000  0.16245000  1.0
  C  C177  1  0.29597000  0.16482000  0.33754000  1.0
  N  N178  1  0.50599000  0.45631000  0.89990000  1.0
  N  N179  1  0.50599000  0.54369000  0.60010000  1.0
  N  N180  1  0.49401000  0.54370000  0.10010000  1.0
  N  N181  1  0.49401000  0.45631000  0.39990000  1.0
  N  N182  1  0.52428000  0.16746000  0.00063000  1.0
  N  N183  1  0.52428000  0.83253000  0.49937000  1.0
  N  N184  1  0.47572000  0.83254000  0.99937000  1.0
  N  N185  1  0.47571000  0.16746000  0.50063000  1.0
  N  N186  1  0.49636000  0.25408000  0.80362000  1.0
  N  N187  1  0.49635000  0.74591000  0.69638000  1.0
  N  N188  1  0.50362000  0.74593000  0.19637000  1.0
  N  N189  1  0.50364000  0.25408000  0.30363000  1.0
  O  O190  1  0.34051000  0.32853000  0.96742000  1.0
  O  O191  1  0.34052000  0.67147000  0.53258000  1.0
  O  O192  1  0.65948000  0.67148000  0.03258000  1.0
  O  O193  1  0.65948000  0.32852000  0.46742000  1.0
  O  O194  1  0.21250000  0.43060000  0.99674000  1.0
  O  O195  1  0.21251000  0.56939000  0.50326000  1.0
  O  O196  1  0.78750000  0.56940000  0.00326000  1.0
  O  O197  1  0.78749000  0.43060000  0.49674000  1.0
  O  O198  1  0.67489000  0.39420000  0.83239000  1.0
  O  O199  1  0.67489000  0.60579000  0.66761000  1.0
  O  O200  1  0.32511000  0.60580000  0.16761000  1.0
  O  O201  1  0.32510000  0.39420000  0.33239000  1.0
  O  O202  1  0.81336000  0.51904000  0.81302000  1.0
  O  O203  1  0.81336000  0.48096000  0.68698000  1.0
  O  O204  1  0.18664000  0.48097000  0.18698000  1.0
  O  O205  1  0.18664000  0.51904000  0.31302000  1.0
  O  O206  1  0.34059000  0.17613000  0.91354000  1.0
  O  O207  1  0.34060000  0.82386000  0.58647000  1.0
  O  O208  1  0.65940000  0.82386000  0.08646000  1.0
  O  O209  1  0.65940000  0.17614000  0.41354000  1.0
  O  O210  1  0.21707000  0.05841000  0.97527000  1.0
  O  O211  1  0.21708000  0.94158000  0.52473000  1.0
  O  O212  1  0.78294000  0.94159000  0.02473000  1.0
  O  O213  1  0.78293000  0.05841000  0.47526000  1.0
  O  O214  1  0.69855000  0.30570000  0.97250000  1.0
  O  O215  1  0.69856000  0.69429000  0.52749000  1.0
  O  O216  1  0.30146000  0.69431000  0.02750000  1.0
  O  O217  1  0.30147000  0.30568000  0.47251000  1.0
  O  O218  1  0.80134000  0.25476000  0.06594000  1.0
  O  O219  1  0.80134000  0.74525000  0.43405000  1.0
  O  O220  1  0.19868000  0.74526000  0.93405000  1.0
  O  O221  1  0.19865000  0.25474000  0.56595000  1.0
  O  O222  1  0.33357000  0.37322000  0.83040000  1.0
  O  O223  1  0.33357000  0.62678000  0.66960000  1.0
  O  O224  1  0.66643000  0.62678000  0.16962000  1.0
  O  O225  1  0.66642000  0.37322000  0.33040000  1.0
  O  O226  1  0.19620000  0.38756000  0.74825000  1.0
  O  O227  1  0.19618000  0.61243000  0.75174000  1.0
  O  O228  1  0.80380000  0.61244000  0.25175000  1.0
  O  O229  1  0.80381000  0.38757000  0.24825000  1.0
  O  O230  1  0.69382000  0.19023000  0.88557000  1.0
  O  O231  1  0.69382000  0.80977000  0.61443000  1.0
  O  O232  1  0.30617000  0.80978000  0.11443000  1.0
  O  O233  1  0.30618000  0.19022000  0.38558000  1.0
  O  O234  1  0.79956000  0.11721000  0.82587000  1.0
  O  O235  1  0.79956000  0.88277000  0.67413000  1.0
  O  O236  1  0.20042000  0.88279000  0.17413000  1.0
  O  O237  1  0.20044000  0.11721000  0.32587000  1.0
  O  O238  1  0.06193000  0.60860000  0.90511000  1.0
  O  O239  1  0.06191000  0.39140000  0.59488000  1.0
  O  O240  1  0.93810000  0.39141000  0.09489000  1.0
  O  O241  1  0.93811000  0.60859000  0.40511000  1.0
  O  O242  1  0.90763000  0.42013000  0.93662000  1.0
  O  O243  1  0.90763000  0.57988000  0.56338000  1.0
  O  O244  1  0.09237000  0.57989000  0.06338000  1.0
  O  O245  1  0.09237000  0.42011000  0.43662000  1.0
  O  O246  1  0.91641000  0.15244000  0.95898000  1.0
  O  O247  1  0.91641000  0.84755000  0.54101000  1.0
  O  O248  1  0.08358000  0.84756000  0.04101000  1.0
  O  O249  1  0.08360000  0.15243000  0.45900000  1.0
  O  O250  1  0.96438000  0.98946000  0.89946000  1.0
  O  O251  1  0.96435000  0.01053000  0.60054000  1.0
  O  O252  1  0.03562000  0.01055000  0.10053000  1.0
  O  O253  1  0.03565000  0.98946000  0.39947000  1.0
  O  O254  1  0.12241000  0.46922000  0.85331000  1.0
  O  O255  1  0.12241000  0.53077000  0.64669000  1.0
  O  O256  1  0.87757000  0.53079000  0.14669000  1.0
  O  O257  1  0.87759000  0.46922000  0.35331000  1.0
  O  O258  1  0.93027000  0.34377000  0.80710000  1.0
  O  O259  1  0.93026000  0.65622000  0.69290000  1.0
  O  O260  1  0.06973000  0.65623000  0.19291000  1.0
  O  O261  1  0.06974000  0.34378000  0.30709000  1.0
