# generated using pymatgen
data_ZnH12C16(NO2)2
_symmetry_space_group_name_H-M   'P 1'
_cell_length_a   8.91152000
_cell_length_b   11.41610000
_cell_length_c   13.75540000
_cell_angle_alpha   87.68430000
_cell_angle_beta   83.92760000
_cell_angle_gamma   67.07500000
_symmetry_Int_Tables_number   1
_chemical_formula_structural   ZnH12C16(NO2)2
_chemical_formula_sum   'Zn2 H24 C32 N4 O8'
_cell_volume   1281.63949187
_cell_formula_units_Z   2
loop_
 _symmetry_equiv_pos_site_id
 _symmetry_equiv_pos_as_xyz
  1  'x, y, z'
loop_
 _atom_site_type_symbol
 _atom_site_label
 _atom_site_symmetry_multiplicity
 _atom_site_fract_x
 _atom_site_fract_y
 _atom_site_fract_z
 _atom_site_occupancy
  Zn  Zn0  1  0.15038000  0.69856000  0.74994000  1.0
  Zn  Zn1  1  0.84962000  0.30144000  0.25006000  1.0
  H  H2  1  0.85913000  0.61074000  0.05408000  1.0
  H  H3  1  0.00785000  0.94199000  0.86188000  1.0
  H  H4  1  0.11186000  0.07425000  0.95700000  1.0
  H  H5  1  0.60157000  0.79711000  0.88007000  1.0
  H  H6  1  0.47793000  0.68170000  0.78510000  1.0
  H  H7  1  0.32620000  0.10706000  0.01794000  1.0
  H  H8  1  0.53018000  0.61083000  0.44614000  1.0
  H  H9  1  0.05015000  0.94186000  0.63809000  1.0
  H  H10  1  0.81438000  0.07392000  0.54289000  1.0
  H  H11  1  0.60063000  0.79735000  0.62000000  1.0
  H  H12  1  0.83930000  0.68207000  0.71500000  1.0
  H  H13  1  0.56732000  0.10684000  0.48201000  1.0
  H  H14  1  0.14087000  0.38925000  0.94592000  1.0
  H  H15  1  0.99215000  0.05801000  0.13812000  1.0
  H  H16  1  0.88814000  0.92575000  0.04300000  1.0
  H  H17  1  0.39843000  0.20289000  0.11993000  1.0
  H  H18  1  0.52207000  0.31830000  0.21491000  1.0
  H  H19  1  0.67380000  0.89294000  0.98207000  1.0
  H  H20  1  0.46984000  0.38915000  0.55387000  1.0
  H  H21  1  0.94985000  0.05814000  0.36190000  1.0
  H  H22  1  0.18562000  0.92609000  0.45711000  1.0
  H  H23  1  0.39936000  0.20266000  0.37999000  1.0
  H  H24  1  0.16069000  0.31794000  0.28500000  1.0
  H  H25  1  0.43269000  0.89316000  0.51798000  1.0
  C  C26  1  0.98533000  0.64315000  0.91491000  1.0
  C  C27  1  0.95588000  0.56264000  0.99670000  1.0
  C  C28  1  0.13822000  0.91567000  0.86685000  1.0
  C  C29  1  0.19615000  0.98714000  0.92004000  1.0
  C  C30  1  0.36525000  0.94551000  0.92841000  1.0
  C  C31  1  0.46923000  0.83338000  0.87803000  1.0
  C  C32  1  0.40186000  0.76876000  0.82510000  1.0
  C  C33  1  0.42191000  0.01847000  0.98892000  1.0
  C  C34  1  0.37106000  0.64310000  0.58513000  1.0
  C  C35  1  0.48141000  0.56266000  0.50339000  1.0
  C  C36  1  0.94603000  0.91557000  0.63313000  1.0
  C  C37  1  0.81690000  0.98695000  0.57989000  1.0
  C  C38  1  0.68926000  0.94541000  0.57153000  1.0
  C  C39  1  0.69685000  0.83353000  0.62201000  1.0
  C  C40  1  0.82864000  0.76898000  0.67495000  1.0
  C  C41  1  0.55982000  0.01834000  0.51103000  1.0
  C  C42  1  0.01467000  0.35685000  0.08509000  1.0
  C  C43  1  0.04413000  0.43735000  0.00330000  1.0
  C  C44  1  0.86178000  0.08433000  0.13315000  1.0
  C  C45  1  0.80385000  0.01286000  0.07996000  1.0
  C  C46  1  0.63475000  0.05450000  0.07160000  1.0
  C  C47  1  0.53077000  0.16662000  0.12198000  1.0
  C  C48  1  0.59814000  0.23124000  0.17490000  1.0
  C  C49  1  0.57809000  0.98153000  0.01108000  1.0
  C  C50  1  0.62895000  0.35689000  0.41487000  1.0
  C  C51  1  0.51860000  0.43733000  0.49662000  1.0
  C  C52  1  0.05396000  0.08443000  0.36686000  1.0
  C  C53  1  0.18310000  0.01306000  0.42011000  1.0
  C  C54  1  0.31074000  0.05459000  0.42846000  1.0
  C  C55  1  0.30314000  0.16648000  0.37798000  1.0
  C  C56  1  0.17135000  0.23102000  0.32505000  1.0
  C  C57  1  0.44018000  0.98166000  0.48896000  1.0
  N  N58  1  0.23891000  0.80774000  0.82024000  1.0
  N  N59  1  0.95282000  0.80781000  0.67979000  1.0
  N  N60  1  0.76108000  0.19226000  0.17976000  1.0
  N  N61  1  0.04717000  0.19219000  0.32021000  1.0
  O  O62  1  0.09379000  0.58457000  0.84391000  1.0
  O  O63  1  0.90607000  0.76176000  0.91880000  1.0
  O  O64  1  0.32111000  0.58445000  0.65602000  1.0
  O  O65  1  0.33147000  0.76177000  0.58135000  1.0
  O  O66  1  0.90621000  0.41544000  0.15609000  1.0
  O  O67  1  0.09392000  0.23824000  0.08120000  1.0
  O  O68  1  0.67889000  0.41555000  0.34398000  1.0
  O  O69  1  0.66854000  0.23823000  0.41865000  1.0
