# generated using pymatgen
data_MnH24C34N4O5
_symmetry_space_group_name_H-M   'P 1'
_cell_length_a   9.11205000
_cell_length_b   11.75050000
_cell_length_c   13.05430000
_cell_angle_alpha   89.99950000
_cell_angle_beta   87.76310000
_cell_angle_gamma   89.99980000
_symmetry_Int_Tables_number   1
_chemical_formula_structural   MnH24C34N4O5
_chemical_formula_sum   'Mn2 H48 C68 N8 O10'
_cell_volume   1396.67373288
_cell_formula_units_Z   2
loop_
 _symmetry_equiv_pos_site_id
 _symmetry_equiv_pos_as_xyz
  1  'x, y, z'
loop_
 _atom_site_type_symbol
 _atom_site_label
 _atom_site_symmetry_multiplicity
 _atom_site_fract_x
 _atom_site_fract_y
 _atom_site_fract_z
 _atom_site_occupancy
  Mn  Mn0  1  0.25000000  0.05794000  0.00000000  1.0
  Mn  Mn1  1  0.75000000  0.94206000  0.00000000  1.0
  H  H2  1  0.58789000  0.78544000  0.74341000  1.0
  H  H3  1  0.91211000  0.78544000  0.25659000  1.0
  H  H4  1  0.41211000  0.21456000  0.25659000  1.0
  H  H5  1  0.08789000  0.21456000  0.74341000  1.0
  H  H6  1  0.48147000  0.69047000  0.59065000  1.0
  H  H7  1  0.01853000  0.69047000  0.40936000  1.0
  H  H8  1  0.51854000  0.30953000  0.40935000  1.0
  H  H9  1  0.98147000  0.30953000  0.59065000  1.0
  H  H10  1  0.14489000  0.94725000  0.58535000  1.0
  H  H11  1  0.35511000  0.94725000  0.41465000  1.0
  H  H12  1  0.85512000  0.05275000  0.41465000  1.0
  H  H13  1  0.64489000  0.05275000  0.58535000  1.0
  H  H14  1  0.25227000  0.04082000  0.73784000  1.0
  H  H15  1  0.24774000  0.04082000  0.26215000  1.0
  H  H16  1  0.74773000  0.95918000  0.26216000  1.0
  H  H17  1  0.75227000  0.95917000  0.73785000  1.0
  H  H18  1  0.35729000  0.84804000  0.13659000  1.0
  H  H19  1  0.14271000  0.84805000  0.86341000  1.0
  H  H20  1  0.64270000  0.15196000  0.86341000  1.0
  H  H21  1  0.85729000  0.15196000  0.13659000  1.0
  H  H22  1  0.36536000  0.63872000  0.14260000  1.0
  H  H23  1  0.13464000  0.63872000  0.85740000  1.0
  H  H24  1  0.63464000  0.36128000  0.85740000  1.0
  H  H25  1  0.86536000  0.36128000  0.14260000  1.0
  H  H26  1  0.43914000  0.47333000  0.09501000  1.0
  H  H27  1  0.06087000  0.47333000  0.90500000  1.0
  H  H28  1  0.56086000  0.52667000  0.90499000  1.0
  H  H29  1  0.93913000  0.52667000  0.09501000  1.0
  H  H30  1  0.43316000  0.26099000  0.08762000  1.0
  H  H31  1  0.06684000  0.26099000  0.91238000  1.0
  H  H32  1  0.56684000  0.73901000  0.91238000  1.0
  H  H33  1  0.93316000  0.73901000  0.08762000  1.0
  H  H34  1  0.87110000  0.44625000  0.74577000  1.0
  H  H35  1  0.62890000  0.44625000  0.25423000  1.0
  H  H36  1  0.12890000  0.55375000  0.25423000  1.0
  H  H37  1  0.37110000  0.55375000  0.74577000  1.0
  H  H38  1  0.74720000  0.44358000  0.58086000  1.0
  H  H39  1  0.75280000  0.44358000  0.41914000  1.0
  H  H40  1  0.25280000  0.55642000  0.41914000  1.0
  H  H41  1  0.24720000  0.55642000  0.58086000  1.0
  H  H42  1  0.83687000  0.80446000  0.55577000  1.0
  H  H43  1  0.66312000  0.80447000  0.44423000  1.0
  H  H44  1  0.16312000  0.19554000  0.44423000  1.0
  H  H45  1  0.33687000  0.19553000  0.55577000  1.0
  H  H46  1  0.94888000  0.79273000  0.72544000  1.0
  H  H47  1  0.55112000  0.79273000  0.27456000  1.0
  H  H48  1  0.05112000  0.20727000  0.27455000  1.0
  H  H49  1  0.44888000  0.20727000  0.72544000  1.0
  C  C50  1  0.48312000  0.97284000  0.84416000  1.0
  C  C51  1  0.01688000  0.97284000  0.15584000  1.0
  C  C52  1  0.51687000  0.02717000  0.15584000  1.0
  C  C53  1  0.98313000  0.02717000  0.84417000  1.0
  C  C54  1  0.42630000  0.91928000  0.74948000  1.0
  C  C55  1  0.07370000  0.91928000  0.25051000  1.0
  C  C56  1  0.57371000  0.08072000  0.25052000  1.0
  C  C57  1  0.92630000  0.08072000  0.74949000  1.0
  C  C58  1  0.49108000  0.82033000  0.70826000  1.0
  C  C59  1  0.00892000  0.82033000  0.29173000  1.0
  C  C60  1  0.50892000  0.17967000  0.29174000  1.0
  C  C61  1  0.99108000  0.17966000  0.70827000  1.0
  C  C62  1  0.43278000  0.76739000  0.62361000  1.0
  C  C63  1  0.06723000  0.76740000  0.37639000  1.0
  C  C64  1  0.56723000  0.23260000  0.37639000  1.0
  C  C65  1  0.93277000  0.23260000  0.62361000  1.0
  C  C66  1  0.30869000  0.81367000  0.57997000  1.0
  C  C67  1  0.19131000  0.81366000  0.42003000  1.0
  C  C68  1  0.69131000  0.18634000  0.42003000  1.0
  C  C69  1  0.80870000  0.18633000  0.57997000  1.0
  C  C70  1  0.24292000  0.91290000  0.61937000  1.0
  C  C71  1  0.25709000  0.91290000  0.38063000  1.0
  C  C72  1  0.75709000  0.08710000  0.38063000  1.0
  C  C73  1  0.74292000  0.08709000  0.61937000  1.0
  C  C74  1  0.30298000  0.96534000  0.70352000  1.0
  C  C75  1  0.19702000  0.96534000  0.29648000  1.0
  C  C76  1  0.69702000  0.03466000  0.29648000  1.0
  C  C77  1  0.80299000  0.03466000  0.70352000  1.0
  C  C78  1  0.30877000  0.79853000  0.07633000  1.0
  C  C79  1  0.19123000  0.79853000  0.92367000  1.0
  C  C80  1  0.69123000  0.20147000  0.92367000  1.0
  C  C81  1  0.80877000  0.20147000  0.07633000  1.0
  C  C82  1  0.31204000  0.68026000  0.07923000  1.0
  C  C83  1  0.18796000  0.68026000  0.92077000  1.0
  C  C84  1  0.68795000  0.31974000  0.92077000  1.0
  C  C85  1  0.81204000  0.31974000  0.07923000  1.0
  C  C86  1  0.25000000  0.61807000  0.00000000  1.0
  C  C87  1  0.75000000  0.38193000  0.00000000  1.0
  C  C88  1  0.25000000  0.49251000  0.00000000  1.0
  C  C89  1  0.75000000  0.50749000  0.00000000  1.0
  C  C90  1  0.35434000  0.43027000  0.05295000  1.0
  C  C91  1  0.14567000  0.43027000  0.94705000  1.0
  C  C92  1  0.64566000  0.56973000  0.94705000  1.0
  C  C93  1  0.85433000  0.56973000  0.05295000  1.0
  C  C94  1  0.35177000  0.31208000  0.04948000  1.0
  C  C95  1  0.14823000  0.31208000  0.95052000  1.0
  C  C96  1  0.64823000  0.68792000  0.95052000  1.0
  C  C97  1  0.85177000  0.68792000  0.04948000  1.0
  C  C98  1  0.86207000  0.52487000  0.70159000  1.0
  C  C99  1  0.63792000  0.52487000  0.29841000  1.0
  C  C100  1  0.13793000  0.47513000  0.29841000  1.0
  C  C101  1  0.36207000  0.47513000  0.70159000  1.0
  C  C102  1  0.79327000  0.52304000  0.60810000  1.0
  C  C103  1  0.70673000  0.52304000  0.39190000  1.0
  C  C104  1  0.20673000  0.47696000  0.39190000  1.0
  C  C105  1  0.29327000  0.47696000  0.60810000  1.0
  C  C106  1  0.78357000  0.62386000  0.55081000  1.0
  C  C107  1  0.71643000  0.62386000  0.44919000  1.0
  C  C108  1  0.21642000  0.37614000  0.44919000  1.0
  C  C109  1  0.28357000  0.37614000  0.55080000  1.0
  C  C110  1  0.84072000  0.72267000  0.59496000  1.0
  C  C111  1  0.65927000  0.72267000  0.40504000  1.0
  C  C112  1  0.15927000  0.27733000  0.40504000  1.0
  C  C113  1  0.34072000  0.27733000  0.59496000  1.0
  C  C114  1  0.90611000  0.71608000  0.68976000  1.0
  C  C115  1  0.59389000  0.71608000  0.31024000  1.0
  C  C116  1  0.09389000  0.28392000  0.31024000  1.0
  C  C117  1  0.40610000  0.28392000  0.68976000  1.0
  N  N118  1  0.25000000  0.85822000  0.00000000  1.0
  N  N119  1  0.75000000  0.14179000  0.00000000  1.0
  N  N120  1  0.25001000  0.25296000  0.00000000  1.0
  N  N121  1  0.75000000  0.74704000  0.00000000  1.0
  N  N122  1  0.91961000  0.61880000  0.74275000  1.0
  N  N123  1  0.58038000  0.61881000  0.25725000  1.0
  N  N124  1  0.08039000  0.38120000  0.25725000  1.0
  N  N125  1  0.41961000  0.38120000  0.74275000  1.0
  O  O126  1  0.41455000  0.05892000  0.88141000  1.0
  O  O127  1  0.08545000  0.05893000  0.11859000  1.0
  O  O128  1  0.58546000  0.94107000  0.11859000  1.0
  O  O129  1  0.91455000  0.94107000  0.88142000  1.0
  O  O130  1  0.59721000  0.92847000  0.88073000  1.0
  O  O131  1  0.90279000  0.92847000  0.11927000  1.0
  O  O132  1  0.40280000  0.07152000  0.11927000  1.0
  O  O133  1  0.09720000  0.07153000  0.88073000  1.0
  O  O134  1  0.25000000  0.75351000  0.50000000  1.0
  O  O135  1  0.75000000  0.24648000  0.50000000  1.0
