# generated using pymatgen
data_KNiH42C55N5O13
_symmetry_space_group_name_H-M   'P 1'
_cell_length_a   12.49500000
_cell_length_b   14.53920000
_cell_length_c   17.89118841
_cell_angle_alpha   94.03543768
_cell_angle_beta   109.44360761
_cell_angle_gamma   93.57540000
_symmetry_Int_Tables_number   1
_chemical_formula_structural   KNiH42C55N5O13
_chemical_formula_sum   'K2 Ni2 H84 C110 N10 O26'
_cell_volume   3044.54086717
_cell_formula_units_Z   2
loop_
 _symmetry_equiv_pos_site_id
 _symmetry_equiv_pos_as_xyz
  1  'x, y, z'
loop_
 _atom_site_type_symbol
 _atom_site_label
 _atom_site_symmetry_multiplicity
 _atom_site_fract_x
 _atom_site_fract_y
 _atom_site_fract_z
 _atom_site_occupancy
  K  K0  1  0.65278000  0.50029000  0.08305000  1.0
  K  K1  1  0.34723000  0.49970000  0.91696000  1.0
  Ni  Ni2  1  0.30714000  0.02292000  0.51681000  1.0
  Ni  Ni3  1  0.69286000  0.97709000  0.48319000  1.0
  H  H4  1  0.31180000  0.38112000  0.55608000  1.0
  H  H5  1  0.51172000  0.34251000  0.65687000  1.0
  H  H6  1  0.73684000  0.04361000  0.68488000  1.0
  H  H7  1  0.67185000  0.85988000  0.64761000  1.0
  H  H8  1  0.26577000  0.66817000  0.53643000  1.0
  H  H9  1  0.06340000  0.70565000  0.43377000  1.0
  H  H10  1  0.91483000  0.99887000  0.29043000  1.0
  H  H11  1  0.98422000  0.18200000  0.31846000  1.0
  H  H12  1  0.68643000  0.28901000  0.60919000  1.0
  H  H13  1  0.85486000  0.38196000  0.70813000  1.0
  H  H14  1  0.80498000  0.23157000  0.89470000  1.0
  H  H15  1  0.64177000  0.13775000  0.79626000  1.0
  H  H16  1  0.97990000  0.28256000  0.94749000  1.0
  H  H17  1  0.92735000  0.38868000  0.97047000  1.0
  H  H18  1  0.23317000  0.44036000  0.06346000  1.0
  H  H19  1  0.54540000  0.80417000  0.73034000  1.0
  H  H20  1  0.61894000  0.66489000  0.79145000  1.0
  H  H21  1  0.50271000  0.51080000  0.55998000  1.0
  H  H22  1  0.43527000  0.65407000  0.49777000  1.0
  H  H23  1  0.73473000  0.54660000  0.80649000  1.0
  H  H24  1  0.68964000  0.42685000  0.79664000  1.0
  H  H25  1  0.04543000  0.76119000  0.28330000  1.0
  H  H26  1  0.87095000  0.67660000  0.18465000  1.0
  H  H27  1  0.66692000  0.81738000  0.30186000  1.0
  H  H28  1  0.84038000  0.90068000  0.39843000  1.0
  H  H29  1  0.56157000  0.80456000  0.16924000  1.0
  H  H30  1  0.52136000  0.70454000  0.20893000  1.0
  H  H31  1  0.31814000  0.69876000  0.01331000  1.0
  H  H32  1  0.27627000  0.38191000  0.41432000  1.0
  H  H33  1  0.18460000  0.52754000  0.38473000  1.0
  H  H34  1  0.87642000  0.39924000  0.40640000  1.0
  H  H35  1  0.96996000  0.25806000  0.44032000  1.0
  H  H36  1  0.86242000  0.64360000  0.37826000  1.0
  H  H37  1  0.85963000  0.54563000  0.43166000  1.0
  H  H38  1  0.60753000  0.51012000  0.26202000  1.0
  H  H39  1  0.85475000  0.22084000  0.06850000  1.0
  H  H40  1  0.92072000  0.46235000  0.15009000  1.0
  H  H41  1  0.06832000  0.44761000  0.17225000  1.0
  H  H42  1  0.99987000  0.42396000  0.24337000  1.0
  H  H43  1  0.01877000  0.19155000  0.14623000  1.0
  H  H44  1  0.07194000  0.26118000  0.23958000  1.0
  H  H45  1  0.12602000  0.28551000  0.16167000  1.0
  H  H46  1  0.68820000  0.61889000  0.44392000  1.0
  H  H47  1  0.48828000  0.65749000  0.34313000  1.0
  H  H48  1  0.26316000  0.95639000  0.31513000  1.0
  H  H49  1  0.32813000  0.14011000  0.35239000  1.0
  H  H50  1  0.73422000  0.33183000  0.46358000  1.0
  H  H51  1  0.93659000  0.29436000  0.56623000  1.0
  H  H52  1  0.08519000  0.00112000  0.70956000  1.0
  H  H53  1  0.01578000  0.81800000  0.68153000  1.0
  H  H54  1  0.31355000  0.71099000  0.39081000  1.0
  H  H55  1  0.14514000  0.61804000  0.29187000  1.0
  H  H56  1  0.19503000  0.76843000  0.10530000  1.0
  H  H57  1  0.35823000  0.86225000  0.20374000  1.0
  H  H58  1  0.02011000  0.71743000  0.05251000  1.0
  H  H59  1  0.07266000  0.61132000  0.02952000  1.0
  H  H60  1  0.76683000  0.55964000  0.93654000  1.0
  H  H61  1  0.45458000  0.19583000  0.26967000  1.0
  H  H62  1  0.38105000  0.33510000  0.20856000  1.0
  H  H63  1  0.49729000  0.48921000  0.44002000  1.0
  H  H64  1  0.56472000  0.34594000  0.50223000  1.0
  H  H65  1  0.26526000  0.45340000  0.19351000  1.0
  H  H66  1  0.31037000  0.57316000  0.20337000  1.0
  H  H67  1  0.95458000  0.23881000  0.71669000  1.0
  H  H68  1  0.12905000  0.32339000  0.81534000  1.0
  H  H69  1  0.33308000  0.18261000  0.69815000  1.0
  H  H70  1  0.15962000  0.09931000  0.60156000  1.0
  H  H71  1  0.43843000  0.19543000  0.83076000  1.0
  H  H72  1  0.47863000  0.29545000  0.79107000  1.0
  H  H73  1  0.68186000  0.30124000  0.98669000  1.0
  H  H74  1  0.72373000  0.61809000  0.58568000  1.0
  H  H75  1  0.81540000  0.47246000  0.61527000  1.0
  H  H76  1  0.12358000  0.60076000  0.59360000  1.0
  H  H77  1  0.03004000  0.74194000  0.55968000  1.0
  H  H78  1  0.13758000  0.35641000  0.62174000  1.0
  H  H79  1  0.14036000  0.45437000  0.56834000  1.0
  H  H80  1  0.39247000  0.48988000  0.73798000  1.0
  H  H81  1  0.14526000  0.77916000  0.93150000  1.0
  H  H82  1  0.07929000  0.53765000  0.84992000  1.0
  H  H83  1  0.93168000  0.55239000  0.82775000  1.0
  H  H84  1  0.00014000  0.57604000  0.75663000  1.0
  H  H85  1  0.98124000  0.80845000  0.85377000  1.0
  H  H86  1  0.92806000  0.73882000  0.76041000  1.0
  H  H87  1  0.87399000  0.71449000  0.83833000  1.0
  C  C88  1  0.28932000  0.22882000  0.51649000  1.0
  C  C89  1  0.34558000  0.31429000  0.56181000  1.0
  C  C90  1  0.44700000  0.29452000  0.61379000  1.0
  C  C91  1  0.45335000  0.19674000  0.60031000  1.0
  C  C92  1  0.54919000  0.15208000  0.63824000  1.0
  C  C93  1  0.55089000  0.05694000  0.62489000  1.0
  C  C94  1  0.65189000  0.00952000  0.65535000  1.0
  C  C95  1  0.61912000  0.91728000  0.63676000  1.0
  C  C96  1  0.49789000  0.90825000  0.59581000  1.0
  C  C97  1  0.43135000  0.82383000  0.57695000  1.0
  C  C98  1  0.31524000  0.81837000  0.53286000  1.0
  C  C99  1  0.24117000  0.73385000  0.51402000  1.0
  C  C100  1  0.13860000  0.75303000  0.46284000  1.0
  C  C101  1  0.14846000  0.84966000  0.45202000  1.0
  C  C102  1  0.06129000  0.89321000  0.40052000  1.0
  C  C103  1  0.07244000  0.98796000  0.39432000  1.0
  C  C104  1  0.98996000  0.03377000  0.33591000  1.0
  C  C105  1  0.02533000  0.12582000  0.35003000  1.0
  C  C106  1  0.12919000  0.13673000  0.41756000  1.0
  C  C107  1  0.18522000  0.22255000  0.45429000  1.0
  C  C108  1  0.65119000  0.20696000  0.69573000  1.0
  C  C109  1  0.71173000  0.27708000  0.67184000  1.0
  C  C110  1  0.80554000  0.32916000  0.72641000  1.0
  C  C111  1  0.84080000  0.31293000  0.80707000  1.0
  C  C112  1  0.78181000  0.24365000  0.83223000  1.0
  C  C113  1  0.68833000  0.19109000  0.77629000  1.0
  C  C114  1  0.97808000  0.35664000  0.93749000  1.0
  C  C115  1  0.10072000  0.39990000  0.96865000  1.0
  C  C116  1  0.48266000  0.73975000  0.60975000  1.0
  C  C117  1  0.53774000  0.74046000  0.69219000  1.0
  C  C118  1  0.57952000  0.66131000  0.72701000  1.0
  C  C119  1  0.56448000  0.57813000  0.67877000  1.0
  C  C120  1  0.51249000  0.57630000  0.59612000  1.0
  C  C121  1  0.47324000  0.65619000  0.56226000  1.0
  C  C122  1  0.65927000  0.49607000  0.78918000  1.0
  C  C123  1  0.59234000  0.51242000  0.84602000  1.0
  C  C124  1  0.95585000  0.83801000  0.34719000  1.0
  C  C125  1  0.96224000  0.77314000  0.28714000  1.0
  C  C126  1  0.86508000  0.72620000  0.23143000  1.0
  C  C127  1  0.75775000  0.74390000  0.23481000  1.0
  C  C128  1  0.74900000  0.80565000  0.29583000  1.0
  C  C129  1  0.84802000  0.85235000  0.35132000  1.0
  C  C130  1  0.55721000  0.72829000  0.16414000  1.0
  C  C131  1  0.47607000  0.69117000  0.08180000  1.0
  C  C132  1  0.13025000  0.30833000  0.43013000  1.0
  C  C133  1  0.18908000  0.38583000  0.41360000  1.0
  C  C134  1  0.13790000  0.46763000  0.39643000  1.0
  C  C135  1  0.02478000  0.47390000  0.39338000  1.0
  C  C136  1  0.96416000  0.39713000  0.40823000  1.0
  C  C137  1  0.01729000  0.31614000  0.42662000  1.0
  C  C138  1  0.87023000  0.56861000  0.37702000  1.0
  C  C139  1  0.77465000  0.52308000  0.30347000  1.0
  C  C140  1  0.86231000  0.29536000  0.08895000  1.0
  C  C141  1  0.98899000  0.42052000  0.17981000  1.0
  C  C142  1  0.04934000  0.26197000  0.17477000  1.0
  C  C143  1  0.71068000  0.77118000  0.48351000  1.0
  C  C144  1  0.65442000  0.68571000  0.43819000  1.0
  C  C145  1  0.55300000  0.70548000  0.38621000  1.0
  C  C146  1  0.54664000  0.80326000  0.39968000  1.0
  C  C147  1  0.45081000  0.84792000  0.36176000  1.0
  C  C148  1  0.44911000  0.94306000  0.37511000  1.0
  C  C149  1  0.34811000  0.99048000  0.34465000  1.0
  C  C150  1  0.38087000  0.08272000  0.36324000  1.0
  C  C151  1  0.50211000  0.09175000  0.40419000  1.0
  C  C152  1  0.56864000  0.17618000  0.42306000  1.0
  C  C153  1  0.68475000  0.18163000  0.46714000  1.0
  C  C154  1  0.75882000  0.26615000  0.48598000  1.0
  C  C155  1  0.86140000  0.24697000  0.53716000  1.0
  C  C156  1  0.85154000  0.15034000  0.54798000  1.0
  C  C157  1  0.93871000  0.10679000  0.59948000  1.0
  C  C158  1  0.92756000  0.01204000  0.60567000  1.0
  C  C159  1  0.01004000  0.96623000  0.66408000  1.0
  C  C160  1  0.97467000  0.87418000  0.64996000  1.0
  C  C161  1  0.87082000  0.86326000  0.58244000  1.0
  C  C162  1  0.81478000  0.77745000  0.54571000  1.0
  C  C163  1  0.34882000  0.79304000  0.30428000  1.0
  C  C164  1  0.28826000  0.72292000  0.32816000  1.0
  C  C165  1  0.19446000  0.67084000  0.27359000  1.0
  C  C166  1  0.15921000  0.68707000  0.19293000  1.0
  C  C167  1  0.21820000  0.75635000  0.16777000  1.0
  C  C168  1  0.31166000  0.80891000  0.22371000  1.0
  C  C169  1  0.02192000  0.64335000  0.06250000  1.0
  C  C170  1  0.89930000  0.60009000  0.03135000  1.0
  C  C171  1  0.51733000  0.26026000  0.39026000  1.0
  C  C172  1  0.46224000  0.25954000  0.30782000  1.0
  C  C173  1  0.42046000  0.33869000  0.27299000  1.0
  C  C174  1  0.43552000  0.42187000  0.32123000  1.0
  C  C175  1  0.48750000  0.42370000  0.40388000  1.0
  C  C176  1  0.52676000  0.34381000  0.43775000  1.0
  C  C177  1  0.34073000  0.50394000  0.21082000  1.0
  C  C178  1  0.40766000  0.48758000  0.15398000  1.0
  C  C179  1  0.04416000  0.16199000  0.65280000  1.0
  C  C180  1  0.03776000  0.22686000  0.71285000  1.0
  C  C181  1  0.13491000  0.27380000  0.76856000  1.0
  C  C182  1  0.24226000  0.25610000  0.76519000  1.0
  C  C183  1  0.25100000  0.19435000  0.70417000  1.0
  C  C184  1  0.15198000  0.14765000  0.64867000  1.0
  C  C185  1  0.44278000  0.27170000  0.83585000  1.0
  C  C186  1  0.52392000  0.30882000  0.91819000  1.0
  C  C187  1  0.86974000  0.69168000  0.56987000  1.0
  C  C188  1  0.81092000  0.61417000  0.58640000  1.0
  C  C189  1  0.86210000  0.53237000  0.60357000  1.0
  C  C190  1  0.97522000  0.52610000  0.60663000  1.0
  C  C191  1  0.03584000  0.60287000  0.59178000  1.0
  C  C192  1  0.98271000  0.68386000  0.57338000  1.0
  C  C193  1  0.12977000  0.43139000  0.62298000  1.0
  C  C194  1  0.22536000  0.47692000  0.69653000  1.0
  C  C195  1  0.13770000  0.70464000  0.91105000  1.0
  C  C196  1  0.01101000  0.57948000  0.82019000  1.0
  C  C197  1  0.95067000  0.73803000  0.82523000  1.0
  N  N198  1  0.35411000  0.15566000  0.54253000  1.0
  N  N199  1  0.45714000  0.99471000  0.58470000  1.0
  N  N200  1  0.25650000  0.89048000  0.49697000  1.0
  N  N201  1  0.16034000  0.05107000  0.44273000  1.0
  N  N202  1  0.96152000  0.32454000  0.14529000  1.0
  N  N203  1  0.64588000  0.84434000  0.45746000  1.0
  N  N204  1  0.54286000  0.00529000  0.41530000  1.0
  N  N205  1  0.74349000  0.10952000  0.50303000  1.0
  N  N206  1  0.83965000  0.94893000  0.55726000  1.0
  N  N207  1  0.03848000  0.67546000  0.85471000  1.0
  O  O208  1  0.93354000  0.36897000  0.85529000  1.0
  O  O209  1  0.15332000  0.41788000  0.92356000  1.0
  O  O210  1  0.14310000  0.41332000  0.04705000  1.0
  O  O211  1  0.59650000  0.49509000  0.70669000  1.0
  O  O212  1  0.48510000  0.50398000  0.82117000  1.0
  O  O213  1  0.65371000  0.53070000  0.91934000  1.0
  O  O214  1  0.66609000  0.69680000  0.17529000  1.0
  O  O215  1  0.37785000  0.72923000  0.06591000  1.0
  O  O216  1  0.49790000  0.63332000  0.03684000  1.0
  O  O217  1  0.98149000  0.55687000  0.37522000  1.0
  O  O218  1  0.67487000  0.52696000  0.31443000  1.0
  O  O219  1  0.78935000  0.49087000  0.24274000  1.0
  O  O220  1  0.78274000  0.34499000  0.05946000  1.0
  O  O221  1  0.06648000  0.63102000  0.14471000  1.0
  O  O222  1  0.84669000  0.58210000  0.07643000  1.0
  O  O223  1  0.85690000  0.58667000  0.95294000  1.0
  O  O224  1  0.40350000  0.50491000  0.29331000  1.0
  O  O225  1  0.51491000  0.49602000  0.17884000  1.0
  O  O226  1  0.34629000  0.46930000  0.08066000  1.0
  O  O227  1  0.33391000  0.30319000  0.82471000  1.0
  O  O228  1  0.62215000  0.27077000  0.93409000  1.0
  O  O229  1  0.50210000  0.36667000  0.96316000  1.0
  O  O230  1  0.01851000  0.44313000  0.62478000  1.0
  O  O231  1  0.32513000  0.47304000  0.68557000  1.0
  O  O232  1  0.21065000  0.50913000  0.75726000  1.0
  O  O233  1  0.21726000  0.65501000  0.94054000  1.0
