# generated using pymatgen
data_UH4C6N2O7
_symmetry_space_group_name_H-M   'P 1'
_cell_length_a   9.09220000
_cell_length_b   9.85182000
_cell_length_c   10.30530000
_cell_angle_alpha   90.00000000
_cell_angle_beta   90.00000000
_cell_angle_gamma   89.99990000
_symmetry_Int_Tables_number   1
_chemical_formula_structural   UH4C6N2O7
_chemical_formula_sum   'U4 H16 C24 N8 O28'
_cell_volume   923.09433938
_cell_formula_units_Z   4
loop_
 _symmetry_equiv_pos_site_id
 _symmetry_equiv_pos_as_xyz
  1  'x, y, z'
loop_
 _atom_site_type_symbol
 _atom_site_label
 _atom_site_symmetry_multiplicity
 _atom_site_fract_x
 _atom_site_fract_y
 _atom_site_fract_z
 _atom_site_occupancy
  U  U0  1  0.59525000  0.91572000  0.03987000  1.0
  U  U1  1  0.90475000  0.08427000  0.53987000  1.0
  U  U2  1  0.40475000  0.41573000  0.46013000  1.0
  U  U3  1  0.09525000  0.58427000  0.96013000  1.0
  H  H4  1  0.74719000  0.17877000  0.04562000  1.0
  H  H5  1  0.75280000  0.82123000  0.54562000  1.0
  H  H6  1  0.25281000  0.67878000  0.45438000  1.0
  H  H7  1  0.24720000  0.32123000  0.95438000  1.0
  H  H8  1  0.64107000  0.21119000  0.92738000  1.0
  H  H9  1  0.85893000  0.78881000  0.42738000  1.0
  H  H10  1  0.35893000  0.71118000  0.57262000  1.0
  H  H11  1  0.14107000  0.28882000  0.07262000  1.0
  H  H12  1  0.53263000  0.35369000  0.10325000  1.0
  H  H13  1  0.96737000  0.64630000  0.60325000  1.0
  H  H14  1  0.46737000  0.85370000  0.39675000  1.0
  H  H15  1  0.03263000  0.14630000  0.89675000  1.0
  H  H16  1  0.65834000  0.45603000  0.72575000  1.0
  H  H17  1  0.84166000  0.54396000  0.22575000  1.0
  H  H18  1  0.34166000  0.95604000  0.77425000  1.0
  H  H19  1  0.15834000  0.04396000  0.27425000  1.0
  C  C20  1  0.62604000  0.62556000  0.85696000  1.0
  C  C21  1  0.87396000  0.37444000  0.35696000  1.0
  C  C22  1  0.37396000  0.12557000  0.64304000  1.0
  C  C23  1  0.12604000  0.87444000  0.14304000  1.0
  C  C24  1  0.55405000  0.56877000  0.06385000  1.0
  C  C25  1  0.94595000  0.43123000  0.56385000  1.0
  C  C26  1  0.44595000  0.06877000  0.43615000  1.0
  C  C27  1  0.05405000  0.93123000  0.93615000  1.0
  C  C28  1  0.55975000  0.43131000  0.03157000  1.0
  C  C29  1  0.94024000  0.56869000  0.53157000  1.0
  C  C30  1  0.44025000  0.93131000  0.46843000  1.0
  C  C31  1  0.05975000  0.06869000  0.96843000  1.0
  C  C32  1  0.63054000  0.48754000  0.82419000  1.0
  C  C33  1  0.86946000  0.51245000  0.32419000  1.0
  C  C34  1  0.36946000  0.98755000  0.67581000  1.0
  C  C35  1  0.13054000  0.01245000  0.17581000  1.0
  C  C36  1  0.66125000  0.74225000  0.76803000  1.0
  C  C37  1  0.83875000  0.25775000  0.26802000  1.0
  C  C38  1  0.33875000  0.24225000  0.73197000  1.0
  C  C39  1  0.16125000  0.75775000  0.23197000  1.0
  C  C40  1  0.51004000  0.62490000  0.19282000  1.0
  C  C41  1  0.98996000  0.37510000  0.69282000  1.0
  C  C42  1  0.48996000  0.12490000  0.30718000  1.0
  C  C43  1  0.01004000  0.87510000  0.80718000  1.0
  N  N44  1  0.58959000  0.66377000  0.97687000  1.0
  N  N45  1  0.91041000  0.33622000  0.47687000  1.0
  N  N46  1  0.41041000  0.16378000  0.52313000  1.0
  N  N47  1  0.08959000  0.83622000  0.02313000  1.0
  N  N48  1  0.59951000  0.39143000  0.91204000  1.0
  N  N49  1  0.90049000  0.60857000  0.41204000  1.0
  N  N50  1  0.40049000  0.89143000  0.58796000  1.0
  N  N51  1  0.09951000  0.10857000  0.08796000  1.0
  O  O52  1  0.66334000  0.85841000  0.82589000  1.0
  O  O53  1  0.83665000  0.14158000  0.32590000  1.0
  O  O54  1  0.33665000  0.35842000  0.67411000  1.0
  O  O55  1  0.16335000  0.64158000  0.17411000  1.0
  O  O56  1  0.68372000  0.72049000  0.65040000  1.0
  O  O57  1  0.81627000  0.27950000  0.15040000  1.0
  O  O58  1  0.31627000  0.22050000  0.84960000  1.0
  O  O59  1  0.18373000  0.77950000  0.34960000  1.0
  O  O60  1  0.51103000  0.75339000  0.20254000  1.0
  O  O61  1  0.98897000  0.24661000  0.70254000  1.0
  O  O62  1  0.48897000  0.25339000  0.29745000  1.0
  O  O63  1  0.01103000  0.74661000  0.79746000  1.0
  O  O64  1  0.47568000  0.54414000  0.28310000  1.0
  O  O65  1  0.02432000  0.45586000  0.78310000  1.0
  O  O66  1  0.52432000  0.04414000  0.21690000  1.0
  O  O67  1  0.97568000  0.95586000  0.71690000  1.0
  O  O68  1  0.77854000  0.88877000  0.10176000  1.0
  O  O69  1  0.72145000  0.11123000  0.60177000  1.0
  O  O70  1  0.22145000  0.38878000  0.39823000  1.0
  O  O71  1  0.27855000  0.61123000  0.89823000  1.0
  O  O72  1  0.40944000  0.93372000  0.97982000  1.0
  O  O73  1  0.09055000  0.06628000  0.47982000  1.0
  O  O74  1  0.59055000  0.43372000  0.52018000  1.0
  O  O75  1  0.90945000  0.56628000  0.02019000  1.0
  O  O76  1  0.68711000  0.13296000  0.97462000  1.0
  O  O77  1  0.81289000  0.86704000  0.47462000  1.0
  O  O78  1  0.31289000  0.63296000  0.52538000  1.0
  O  O79  1  0.18711000  0.36704000  0.02538000  1.0
