# generated using pymatgen
data_CdH13C15(NO2)3
_symmetry_space_group_name_H-M   'P 1'
_cell_length_a   8.06999000
_cell_length_b   9.16028000
_cell_length_c   12.96005698
_cell_angle_alpha   110.65125801
_cell_angle_beta   107.20624361
_cell_angle_gamma   90.03630000
_symmetry_Int_Tables_number   1
_chemical_formula_structural   CdH13C15(NO2)3
_chemical_formula_sum   'Cd2 H26 C30 N6 O12'
_cell_volume   850.44512537
_cell_formula_units_Z   2
loop_
 _symmetry_equiv_pos_site_id
 _symmetry_equiv_pos_as_xyz
  1  'x, y, z'
loop_
 _atom_site_type_symbol
 _atom_site_label
 _atom_site_symmetry_multiplicity
 _atom_site_fract_x
 _atom_site_fract_y
 _atom_site_fract_z
 _atom_site_occupancy
  Cd  Cd0  1  0.90638000  0.88391000  0.32646000  1.0
  Cd  Cd1  1  0.09344000  0.55733000  0.67357000  1.0
  H  H2  1  0.91404000  0.56387000  0.39235000  1.0
  H  H3  1  0.08531000  0.17149000  0.60792000  1.0
  H  H4  1  0.73099000  0.31280000  0.33455000  1.0
  H  H5  1  0.26869000  0.97837000  0.66559000  1.0
  H  H6  1  0.35498000  0.44378000  0.07707000  1.0
  H  H7  1  0.64480000  0.36681000  0.92274000  1.0
  H  H8  1  0.54726000  0.69603000  0.15138000  1.0
  H  H9  1  0.45230000  0.54460000  0.84850000  1.0
  H  H10  1  0.49076000  0.14105000  0.21020000  1.0
  H  H11  1  0.50921000  0.93109000  0.78984000  1.0
  H  H12  1  0.20587000  0.91630000  0.84205000  1.0
  H  H13  1  0.79444000  0.07452000  0.15783000  1.0
  H  H14  1  0.14373000  0.51846000  0.91592000  1.0
  H  H15  1  0.85654000  0.60305000  0.08438000  1.0
  H  H16  1  0.21282000  0.68085000  0.13000000  1.0
  H  H17  1  0.78766000  0.55140000  0.87027000  1.0
  H  H18  1  0.29200000  0.96541000  0.19949000  1.0
  H  H19  1  0.70823000  0.76632000  0.80051000  1.0
  H  H20  1  0.40685000  0.09885000  0.45304000  1.0
  H  H21  1  0.59296000  0.64623000  0.54690000  1.0
  H  H22  1  0.49524000  0.36501000  0.59526000  1.0
  H  H23  1  0.50495000  0.77041000  0.40480000  1.0
  H  H24  1  0.94986000  0.22516000  0.43225000  1.0
  H  H25  1  0.05008000  0.79295000  0.56748000  1.0
  H  H26  1  0.11866000  0.21373000  0.39475000  1.0
  H  H27  1  0.88164000  0.81924000  0.60542000  1.0
  C  C28  1  0.78805000  0.53483000  0.32403000  1.0
  C  C29  1  0.21142000  0.21076000  0.67613000  1.0
  C  C30  1  0.68640000  0.39422000  0.29102000  1.0
  C  C31  1  0.31327000  0.10328000  0.70908000  1.0
  C  C32  1  0.52888000  0.35585000  0.19873000  1.0
  C  C33  1  0.47090000  0.15726000  0.80125000  1.0
  C  C34  1  0.47600000  0.46778000  0.14806000  1.0
  C  C35  1  0.52373000  0.31981000  0.85184000  1.0
  C  C36  1  0.58495000  0.60666000  0.18868000  1.0
  C  C37  1  0.41463000  0.41798000  0.81128000  1.0
  C  C38  1  0.30919000  0.13516000  0.05563000  1.0
  C  C39  1  0.69106000  0.07974000  0.94417000  1.0
  C  C40  1  0.26024000  0.96424000  0.02594000  1.0
  C  C41  1  0.74003000  0.93860000  0.97398000  1.0
  C  C42  1  0.21230000  0.86714000  0.90828000  1.0
  C  C43  1  0.78794000  0.95914000  0.09168000  1.0
  C  C44  1  0.17647000  0.64574000  0.95005000  1.0
  C  C45  1  0.82377000  0.69615000  0.05015000  1.0
  C  C46  1  0.21642000  0.73458667  0.06792000  1.0
  C  C47  1  0.78389000  0.66709000  0.93225000  1.0
  C  C48  1  0.26008000  0.89622000  0.10702000  1.0
  C  C49  1  0.74021000  0.78955000  0.89300000  1.0
  C  C50  1  0.65012000  0.05747000  0.41069000  1.0
  C  C51  1  0.34986000  0.64707000  0.58939000  1.0
  C  C52  1  0.53848000  0.15561000  0.47502000  1.0
  C  C53  1  0.46139000  0.68101000  0.52497000  1.0
  C  C54  1  0.58670000  0.30312000  0.55296000  1.0
  C  C55  1  0.41337000  0.75074000  0.44705000  1.0
  C  C56  1  0.76142000  0.39163000  0.59074000  1.0
  C  C57  1  0.23873000  0.80144000  0.40914000  1.0
  N  N58  1  0.74008000  0.64054000  0.27320000  1.0
  N  N59  1  0.25940000  0.36724000  0.72688000  1.0
  N  N60  1  0.43777000  0.20790000  0.16111000  1.0
  N  N61  1  0.56218000  0.04700000  0.83881000  1.0
  N  N62  1  0.17349000  0.71127000  0.87152000  1.0
  N  N63  1  0.82669000  0.84011000  0.12855000  1.0
  O  O64  1  0.24328000  0.19929000  0.98621000  1.0
  O  O65  1  0.75718000  0.21322000  0.01345000  1.0
  O  O66  1  0.76836000  0.99408000  0.46455000  1.0
  O  O67  1  0.23158000  0.52983000  0.53553000  1.0
  O  O68  1  0.61842000  0.03900000  0.30441000  1.0
  O  O69  1  0.38165000  0.73474000  0.69566000  1.0
  O  O70  1  0.80049000  0.51665000  0.68164000  1.0
  O  O71  1  0.19978000  0.83556000  0.31820000  1.0
  O  O72  1  0.86992000  0.34485000  0.53395000  1.0
  O  O73  1  0.13005000  0.81147000  0.46587000  1.0
  O  O74  1  0.00359000  0.15874000  0.37444000  1.0
  O  O75  1  0.99652000  0.78417000  0.62539000  1.0
