# generated using pymatgen
data_SmH20C24Cl3O10
_symmetry_space_group_name_H-M   'P 1'
_cell_length_a   7.87391000
_cell_length_b   12.51080000
_cell_length_c   13.85530000
_cell_angle_alpha   80.27720000
_cell_angle_beta   79.29170000
_cell_angle_gamma   75.48940000
_symmetry_Int_Tables_number   1
_chemical_formula_structural   SmH20C24Cl3O10
_chemical_formula_sum   'Sm2 H40 C48 Cl6 O20'
_cell_volume   1287.54331470
_cell_formula_units_Z   2
loop_
 _symmetry_equiv_pos_site_id
 _symmetry_equiv_pos_as_xyz
  1  'x, y, z'
loop_
 _atom_site_type_symbol
 _atom_site_label
 _atom_site_symmetry_multiplicity
 _atom_site_fract_x
 _atom_site_fract_y
 _atom_site_fract_z
 _atom_site_occupancy
  Sm  Sm0  1  0.27898000  0.97658000  0.46332000  1.0
  Sm  Sm1  1  0.72101000  0.02342000  0.53667000  1.0
  H  H2  1  0.03706000  0.89447000  0.35296000  1.0
  H  H3  1  0.96294000  0.10553000  0.64704000  1.0
  H  H4  1  0.22241000  0.80711000  0.33717000  1.0
  H  H5  1  0.77759000  0.19289000  0.66283000  1.0
  H  H6  1  0.22472000  0.78609000  0.69176000  1.0
  H  H7  1  0.77528000  0.21391000  0.30823000  1.0
  H  H8  1  0.09993000  0.88353000  0.77351000  1.0
  H  H9  1  0.90006000  0.11647000  0.22649000  1.0
  H  H10  1  0.86385000  0.59013000  0.90099000  1.0
  H  H11  1  0.13612000  0.40988000  0.09901000  1.0
  H  H12  1  0.84051000  0.41519000  0.84449000  1.0
  H  H13  1  0.15947000  0.58483000  0.15551000  1.0
  H  H14  1  0.14141000  0.50328000  0.56158000  1.0
  H  H15  1  0.85861000  0.49671000  0.43843000  1.0
  H  H16  1  0.16543000  0.67515000  0.61595000  1.0
  H  H17  1  0.83458000  0.32484000  0.38405000  1.0
  H  H18  1  0.79484000  0.81959000  0.20692000  1.0
  H  H19  1  0.20516000  0.18041000  0.79308000  1.0
  H  H20  1  0.69678000  0.96095000  0.16443000  1.0
  H  H21  1  0.30322000  0.03905000  0.83557000  1.0
  H  H22  1  0.92077000  0.82311000  0.05373000  1.0
  H  H23  1  0.07922000  0.17690000  0.94627000  1.0
  H  H24  1  0.16318000  0.76849000  0.91913000  1.0
  H  H25  1  0.83680000  0.23151000  0.08087000  1.0
  H  H26  1  0.50462000  0.91504000  0.04018000  1.0
  H  H27  1  0.49538000  0.08494000  0.95982000  1.0
  H  H28  1  0.25985000  0.97061000  0.17719000  1.0
  H  H29  1  0.74016000  0.02939000  0.82281000  1.0
  H  H30  1  0.79750000  0.70560000  0.50773000  1.0
  H  H31  1  0.20250000  0.29439000  0.49227000  1.0
  H  H32  1  0.73017000  0.69978000  0.63714000  1.0
  H  H33  1  0.26983000  0.30022000  0.36286000  1.0
  H  H34  1  0.58409000  0.39976000  0.56331000  1.0
  H  H35  1  0.41594000  0.60023000  0.43670000  1.0
  H  H36  1  0.43520000  0.29123000  0.70570000  1.0
  H  H37  1  0.56482000  0.70876000  0.29431000  1.0
  H  H38  1  0.37875000  0.55236000  0.88478000  1.0
  H  H39  1  0.62126000  0.44764000  0.11522000  1.0
  H  H40  1  0.52733000  0.66005000  0.74471000  1.0
  H  H41  1  0.47267000  0.33995000  0.25529000  1.0
  C  C42  1  0.96444000  0.87358000  0.65794000  1.0
  C  C43  1  0.03556000  0.12642000  0.34206000  1.0
  C  C44  1  0.09191000  0.81864000  0.73115000  1.0
  C  C45  1  0.90809000  0.18136000  0.26885000  1.0
  C  C46  1  0.01603000  0.64308000  0.76310000  1.0
  C  C47  1  0.98396000  0.35692000  0.23690000  1.0
  C  C48  1  0.92442000  0.56998000  0.82697000  1.0
  C  C49  1  0.07557000  0.43003000  0.17303000  1.0
  C  C50  1  0.91148000  0.47276000  0.79557000  1.0
  C  C51  1  0.08850000  0.52725000  0.20443000  1.0
  C  C52  1  0.99051000  0.45004000  0.70020000  1.0
  C  C53  1  0.00949000  0.54996000  0.29980000  1.0
  C  C54  1  0.07934000  0.52289000  0.63549000  1.0
  C  C55  1  0.92067000  0.47710000  0.36451000  1.0
  C  C56  1  0.09186000  0.62041000  0.66680000  1.0
  C  C57  1  0.90815000  0.37959000  0.33320000  1.0
  C  C58  1  0.69188000  0.92343000  0.32207000  1.0
  C  C59  1  0.30813000  0.07657000  0.67793000  1.0
  C  C60  1  0.78169000  0.90710000  0.21664000  1.0
  C  C61  1  0.21831000  0.09290000  0.78336000  1.0
  C  C62  1  0.07531000  0.90071000  0.12397000  1.0
  C  C63  1  0.92469000  0.09929000  0.87603000  1.0
  C  C64  1  0.04779000  0.84368000  0.05189000  1.0
  C  C65  1  0.95220000  0.15632000  0.94812000  1.0
  C  C66  1  0.18525000  0.81328000  0.97488000  1.0
  C  C67  1  0.81475000  0.18671000  0.02513000  1.0
  C  C68  1  0.34737000  0.84113000  0.97015000  1.0
  C  C69  1  0.65262000  0.15886000  0.02986000  1.0
  C  C70  1  0.37580000  0.89645000  0.04335000  1.0
  C  C71  1  0.62421000  0.10354000  0.95665000  1.0
  C  C72  1  0.23990000  0.92679000  0.12001000  1.0
  C  C73  1  0.76010000  0.07321000  0.87999000  1.0
  C  C74  1  0.53004000  0.78912000  0.54693000  1.0
  C  C75  1  0.46997000  0.21088000  0.45307000  1.0
  C  C76  1  0.68724000  0.69428000  0.56734000  1.0
  C  C77  1  0.31276000  0.30572000  0.43266000  1.0
  C  C78  1  0.56825000  0.53627000  0.64439000  1.0
  C  C79  1  0.43175000  0.46372000  0.35560000  1.0
  C  C80  1  0.54091000  0.43248000  0.63412000  1.0
  C  C81  1  0.45910000  0.56752000  0.36588000  1.0
  C  C82  1  0.45701000  0.37168000  0.71402000  1.0
  C  C83  1  0.54301000  0.62831000  0.28598000  1.0
  C  C84  1  0.39997000  0.41494000  0.80433000  1.0
  C  C85  1  0.60005000  0.58506000  0.19567000  1.0
  C  C86  1  0.42457000  0.51861000  0.81455000  1.0
  C  C87  1  0.57544000  0.48138000  0.18545000  1.0
  C  C88  1  0.50829000  0.57981000  0.73435000  1.0
  C  C89  1  0.49171000  0.42019000  0.26565000  1.0
  Cl  Cl90  1  0.29499000  0.33993000  0.90481000  1.0
  Cl  Cl91  1  0.70502000  0.66007000  0.09519000  1.0
  Cl  Cl92  1  0.51632000  0.81142000  0.87150000  1.0
  Cl  Cl93  1  0.48368000  0.18857000  0.12850000  1.0
  Cl  Cl94  1  0.98118000  0.32728000  0.66034000  1.0
  Cl  Cl95  1  0.01882000  0.67272000  0.33966000  1.0
  O  O96  1  0.79965000  0.88364000  0.68304000  1.0
  O  O97  1  0.20034000  0.11637000  0.31696000  1.0
  O  O98  1  0.16138000  0.87473000  0.36604000  1.0
  O  O99  1  0.83862000  0.12527000  0.63396000  1.0
  O  O100  1  0.78489000  0.93927000  0.38247000  1.0
  O  O101  1  0.21511000  0.06073000  0.61753000  1.0
  O  O102  1  0.02749000  0.91476000  0.57078000  1.0
  O  O103  1  0.97250000  0.08524000  0.42922000  1.0
  O  O104  1  0.02761000  0.73533000  0.80117000  1.0
  O  O105  1  0.97239000  0.26468000  0.19883000  1.0
  O  O106  1  0.53043000  0.91839000  0.34077000  1.0
  O  O107  1  0.46956000  0.08161000  0.65923000  1.0
  O  O108  1  0.95013000  0.93454000  0.20249000  1.0
  O  O109  1  0.04987000  0.06546000  0.79752000  1.0
  O  O110  1  0.39574000  0.77327000  0.51904000  1.0
  O  O111  1  0.60427000  0.22673000  0.48094000  1.0
  O  O112  1  0.54135000  0.88830000  0.55486000  1.0
  O  O113  1  0.45866000  0.11169000  0.44513000  1.0
  O  O114  1  0.65855000  0.58780000  0.56259000  1.0
  O  O115  1  0.34146000  0.41219000  0.43741000  1.0
