# generated using pymatgen
data_ErH22C27S2(NO2)7
_symmetry_space_group_name_H-M   'P 1'
_cell_length_a   9.53897000
_cell_length_b   12.88680000
_cell_length_c   14.59270000
_cell_angle_alpha   67.95850000
_cell_angle_beta   86.30030000
_cell_angle_gamma   75.60080000
_symmetry_Int_Tables_number   1
_chemical_formula_structural   ErH22C27S2(NO2)7
_chemical_formula_sum   'Er2 H44 C54 S4 N14 O28'
_cell_volume   1609.66622656
_cell_formula_units_Z   2
loop_
 _symmetry_equiv_pos_site_id
 _symmetry_equiv_pos_as_xyz
  1  'x, y, z'
loop_
 _atom_site_type_symbol
 _atom_site_label
 _atom_site_symmetry_multiplicity
 _atom_site_fract_x
 _atom_site_fract_y
 _atom_site_fract_z
 _atom_site_occupancy
  Er  Er0  1  0.23499000  0.54095000  0.49080000  1.0
  Er  Er1  1  0.76501000  0.45905000  0.50920000  1.0
  H  H2  1  0.96137000  0.69835000  0.47334000  1.0
  H  H3  1  0.03862000  0.30165000  0.52666000  1.0
  H  H4  1  0.05319000  0.76348000  0.51019000  1.0
  H  H5  1  0.94679000  0.23653000  0.48981000  1.0
  H  H6  1  0.43540000  0.59734000  0.60094000  1.0
  H  H7  1  0.56459000  0.40266000  0.39905000  1.0
  H  H8  1  0.32165000  0.71294000  0.55191000  1.0
  H  H9  1  0.67835000  0.28706000  0.44809000  1.0
  H  H10  1  0.26909000  0.12377000  0.54587000  1.0
  H  H11  1  0.73091000  0.87624000  0.45413000  1.0
  H  H12  1  0.39898000  0.98529000  0.31852000  1.0
  H  H13  1  0.60103000  0.01470000  0.68149000  1.0
  H  H14  1  0.42971000  0.17848000  0.20232000  1.0
  H  H15  1  0.57031000  0.82151000  0.79769000  1.0
  H  H16  1  0.39444000  0.34010000  0.26344000  1.0
  H  H17  1  0.60557000  0.65990000  0.73656000  1.0
  H  H18  1  0.74398000  0.56892000  0.23169000  1.0
  H  H19  1  0.25602000  0.43109000  0.76832000  1.0
  H  H20  1  0.80113000  0.80978000  0.94094000  1.0
  H  H21  1  0.19887000  0.19022000  0.05906000  1.0
  H  H22  1  0.02752000  0.83144000  0.00183000  1.0
  H  H23  1  0.97248000  0.16857000  0.99817000  1.0
  H  H24  1  0.11016000  0.71946000  0.17977000  1.0
  H  H25  1  0.88983000  0.28055000  0.82023000  1.0
  H  H26  1  0.71353000  0.76061000  0.32668000  1.0
  H  H27  1  0.28646000  0.23939000  0.67333000  1.0
  H  H28  1  0.54630000  0.05907000  0.06509000  1.0
  H  H29  1  0.45370000  0.94093000  0.93491000  1.0
  H  H30  1  0.31593000  0.99596000  0.07360000  1.0
  H  H31  1  0.68407000  0.00404000  0.92640000  1.0
  H  H32  1  0.28537000  0.81650000  0.21277000  1.0
  H  H33  1  0.71463000  0.18351000  0.78721000  1.0
  H  H34  1  0.08654000  0.62471000  0.68256000  1.0
  H  H35  1  0.91347000  0.37528000  0.31744000  1.0
  H  H36  1  0.07431000  0.64110000  0.79793000  1.0
  H  H37  1  0.92571000  0.35889000  0.20207000  1.0
  H  H38  1  0.95443000  0.08754000  0.62824000  1.0
  H  H39  1  0.04557000  0.91246000  0.37176000  1.0
  H  H40  1  0.39579000  0.70446000  0.92879000  1.0
  H  H41  1  0.60421000  0.29553000  0.07121000  1.0
  H  H42  1  0.25829000  0.75419000  0.83968000  1.0
  H  H43  1  0.74171000  0.24580000  0.16032000  1.0
  H  H44  1  0.13744000  0.39367000  0.16013000  1.0
  H  H45  1  0.86257000  0.60632000  0.83986000  1.0
  C  C46  1  0.32517000  0.24372000  0.40655000  1.0
  C  C47  1  0.67483000  0.75628000  0.59345000  1.0
  C  C48  1  0.30596000  0.13671000  0.47107000  1.0
  C  C49  1  0.69405000  0.86329000  0.52893000  1.0
  C  C50  1  0.33813000  0.04515000  0.43799000  1.0
  C  C51  1  0.66188000  0.95485000  0.56202000  1.0
  C  C52  1  0.37922000  0.05876000  0.34133000  1.0
  C  C53  1  0.62079000  0.94124000  0.65868000  1.0
  C  C54  1  0.39687000  0.16616000  0.27772000  1.0
  C  C55  1  0.60314000  0.83383000  0.72229000  1.0
  C  C56  1  0.37430000  0.25719000  0.31098000  1.0
  C  C57  1  0.62571000  0.74281000  0.68902000  1.0
  C  C58  1  0.29565000  0.34412000  0.43878000  1.0
  C  C59  1  0.70435000  0.65588000  0.56121000  1.0
  C  C60  1  0.93384000  0.63695000  0.21568000  1.0
  C  C61  1  0.06616000  0.36305000  0.78432000  1.0
  C  C62  1  0.80736000  0.62509000  0.18183000  1.0
  C  C63  1  0.19263000  0.37492000  0.81816000  1.0
  C  C64  1  0.76162000  0.68918000  0.08364000  1.0
  C  C65  1  0.23838000  0.31082000  0.91636000  1.0
  C  C66  1  0.83862000  0.76378000  0.01778000  1.0
  C  C67  1  0.16137000  0.23622000  0.98222000  1.0
  C  C68  1  0.96500000  0.77469000  0.05235000  1.0
  C  C69  1  0.03500000  0.22530000  0.94766000  1.0
  C  C70  1  0.01221000  0.71187000  0.15090000  1.0
  C  C71  1  0.98779000  0.28813000  0.84910000  1.0
  C  C72  1  0.98094000  0.57209000  0.32265000  1.0
  C  C73  1  0.01905000  0.42792000  0.67735000  1.0
  C  C74  1  0.49779000  0.77762000  0.27613000  1.0
  C  C75  1  0.50220000  0.22238000  0.72386000  1.0
  C  C76  1  0.62687000  0.81184000  0.27133000  1.0
  C  C77  1  0.37313000  0.18817000  0.72867000  1.0
  C  C78  1  0.64044000  0.91338000  0.19487000  1.0
  C  C79  1  0.35956000  0.08662000  0.80513000  1.0
  C  C80  1  0.53089000  0.98044000  0.12313000  1.0
  C  C81  1  0.46912000  0.01956000  0.87686000  1.0
  C  C82  1  0.40262000  0.94513000  0.12908000  1.0
  C  C83  1  0.59739000  0.05487000  0.87091000  1.0
  C  C84  1  0.38555000  0.84474000  0.20565000  1.0
  C  C85  1  0.61445000  0.15526000  0.79435000  1.0
  C  C86  1  0.47706000  0.66942000  0.35740000  1.0
  C  C87  1  0.52294000  0.33059000  0.64260000  1.0
  C  C88  1  0.00029000  0.96297000  0.55190000  1.0
  C  C89  1  0.99972000  0.03703000  0.44810000  1.0
  C  C90  1  0.97696000  0.00011000  0.62972000  1.0
  C  C91  1  0.02304000  0.99989000  0.37029000  1.0
  C  C92  1  0.02774000  0.79011000  0.67532000  1.0
  C  C93  1  0.97226000  0.20988000  0.32469000  1.0
  C  C94  1  0.06716000  0.51369000  0.00701000  1.0
  C  C95  1  0.93284000  0.48631000  0.99299000  1.0
  C  C96  1  0.15358000  0.46137000  0.09162000  1.0
  C  C97  1  0.84642000  0.53863000  0.90838000  1.0
  C  C98  1  0.23884000  0.61248000  0.95823000  1.0
  C  C99  1  0.76116000  0.38751000  0.04176000  1.0
  S  S100  1  0.99105000  0.88439000  0.74034000  1.0
  S  S101  1  0.00896000  0.11560000  0.25966000  1.0
  S  S102  1  0.30012000  0.52061000  0.07938000  1.0
  S  S103  1  0.69989000  0.47938000  0.92062000  1.0
  N  N104  1  0.33219000  0.93037000  0.50770000  1.0
  N  N105  1  0.66781000  0.06962000  0.49230000  1.0
  N  N106  1  0.62747000  0.67769000  0.05018000  1.0
  N  N107  1  0.37252000  0.32232000  0.94982000  1.0
  N  N108  1  0.77622000  0.95014000  0.18818000  1.0
  N  N109  1  0.22378000  0.04985000  0.81182000  1.0
  N  N110  1  0.02929000  0.84417000  0.57853000  1.0
  N  N111  1  0.97071000  0.15583000  0.42147000  1.0
  N  N112  1  0.04795000  0.67532000  0.72274000  1.0
  N  N113  1  0.95206000  0.32467000  0.27727000  1.0
  N  N114  1  0.11742000  0.59854000  0.93116000  1.0
  N  N115  1  0.88259000  0.40146000  0.06884000  1.0
  N  N116  1  0.31320000  0.68847000  0.89927000  1.0
  N  N117  1  0.68681000  0.31153000  0.10073000  1.0
  O  O118  1  0.05919000  0.71316000  0.46985000  1.0
  O  O119  1  0.94080000  0.28685000  0.53015000  1.0
  O  O120  1  0.33075000  0.62883000  0.58348000  1.0
  O  O121  1  0.66924000  0.37116000  0.41652000  1.0
  O  O122  1  0.36544000  0.42209000  0.40065000  1.0
  O  O123  1  0.63454000  0.57793000  0.59935000  1.0
  O  O124  1  0.20018000  0.35165000  0.50321000  1.0
  O  O125  1  0.79980000  0.64836000  0.49678000  1.0
  O  O126  1  0.31278000  0.91574000  0.59589000  1.0
  O  O127  1  0.68723000  0.08426000  0.40411000  1.0
  O  O128  1  0.35016000  0.85144000  0.47450000  1.0
  O  O129  1  0.64984000  0.14856000  0.52550000  1.0
  O  O130  1  0.09186000  0.58779000  0.35271000  1.0
  O  O131  1  0.90813000  0.41222000  0.64730000  1.0
  O  O132  1  0.90394000  0.50526000  0.37614000  1.0
  O  O133  1  0.09604000  0.49474000  0.62385000  1.0
  O  O134  1  0.57078000  0.60084000  0.10529000  1.0
  O  O135  1  0.42922000  0.39917000  0.89471000  1.0
  O  O136  1  0.57425000  0.74720000  0.96698000  1.0
  O  O137  1  0.42574000  0.25281000  0.03302000  1.0
  O  O138  1  0.34744000  0.66193000  0.37419000  1.0
  O  O139  1  0.65257000  0.33806000  0.62583000  1.0
  O  O140  1  0.58803000  0.59396000  0.40285000  1.0
  O  O141  1  0.41197000  0.40605000  0.59715000  1.0
  O  O142  1  0.79064000  0.03603000  0.11504000  1.0
  O  O143  1  0.20936000  0.96396000  0.88497000  1.0
  O  O144  1  0.86963000  0.89292000  0.25512000  1.0
  O  O145  1  0.13036000  0.10707000  0.74489000  1.0
