# generated using pymatgen
data_ZnH4C20NCl2O4F5
_symmetry_space_group_name_H-M   'P 1'
_cell_length_a   11.08590000
_cell_length_b   11.86550000
_cell_length_c   13.01708589
_cell_angle_alpha   92.46345476
_cell_angle_beta   114.66372549
_cell_angle_gamma   93.70050000
_symmetry_Int_Tables_number   1
_chemical_formula_structural   ZnH4C20NCl2O4F5
_chemical_formula_sum   'Zn2 H8 C40 N2 Cl4 O8 F10'
_cell_volume   1548.19297996
_cell_formula_units_Z   2
loop_
 _symmetry_equiv_pos_site_id
 _symmetry_equiv_pos_as_xyz
  1  'x, y, z'
loop_
 _atom_site_type_symbol
 _atom_site_label
 _atom_site_symmetry_multiplicity
 _atom_site_fract_x
 _atom_site_fract_y
 _atom_site_fract_z
 _atom_site_occupancy
  Zn  Zn0  1  0.42348000  0.55140000  0.55476000  1.0
  Zn  Zn1  1  0.57676000  0.44849000  0.44537000  1.0
  H  H2  1  0.20854000  0.69421000  0.42921000  1.0
  H  H3  1  0.79186000  0.30580000  0.57124000  1.0
  H  H4  1  0.54523000  0.07083000  0.33952000  1.0
  H  H5  1  0.45498000  0.92923000  0.66105000  1.0
  H  H6  1  0.97683000  0.20717000  0.40102000  1.0
  H  H7  1  0.02338000  0.79296000  0.59942000  1.0
  H  H8  1  0.24980000  0.44062000  0.64956000  1.0
  H  H9  1  0.75068000  0.55937000  0.35089000  1.0
  C  C10  1  0.32179000  0.45999000  0.28874000  1.0
  C  C11  1  0.67838000  0.54005000  0.71140000  1.0
  C  C12  1  0.94016000  0.13108000  0.42579000  1.0
  C  C13  1  0.06005000  0.86897000  0.57454000  1.0
  C  C14  1  0.80676000  0.11333000  0.39527000  1.0
  C  C15  1  0.19348000  0.88674000  0.60517000  1.0
  C  C16  1  0.80221000  0.54669000  0.82137000  1.0
  C  C17  1  0.19792000  0.45335000  0.17880000  1.0
  C  C18  1  0.00631000  0.34699000  0.03018000  1.0
  C  C19  1  0.99377000  0.65305000  0.97005000  1.0
  C  C20  1  0.12160000  0.34911000  0.12916000  1.0
  C  C21  1  0.87850000  0.65093000  0.87105000  1.0
  C  C22  1  0.15536000  0.55117000  0.12706000  1.0
  C  C23  1  0.84474000  0.44885000  0.87310000  1.0
  C  C24  1  0.03867000  0.55334000  0.02510000  1.0
  C  C25  1  0.96139000  0.44668000  0.97508000  1.0
  C  C26  1  0.97873000  0.38473000  0.58361000  1.0
  C  C27  1  0.02171000  0.61538000  0.41696000  1.0
  C  C28  1  0.84236000  0.36788000  0.53987000  1.0
  C  C29  1  0.15807000  0.63218000  0.46065000  1.0
  C  C30  1  0.81841000  0.50955000  0.41481000  1.0
  C  C31  1  0.18204000  0.49051000  0.58573000  1.0
  C  C32  1  0.55998000  0.70283000  0.46318000  1.0
  C  C33  1  0.44025000  0.29707000  0.53696000  1.0
  C  C34  1  0.95792000  0.53167000  0.45592000  1.0
  C  C35  1  0.04252000  0.46848000  0.54469000  1.0
  C  C36  1  0.62085000  0.81603000  0.45144000  1.0
  C  C37  1  0.37942000  0.18389000  0.54880000  1.0
  C  C38  1  0.60453000  0.00320000  0.38169000  1.0
  C  C39  1  0.39571000  0.99684000  0.61878000  1.0
  C  C40  1  0.54397000  0.90469000  0.39814000  1.0
  C  C41  1  0.45629000  0.09529000  0.60226000  1.0
  C  C42  1  0.75837000  0.83279000  0.48927000  1.0
  C  C43  1  0.24188000  0.16711000  0.51088000  1.0
  C  C44  1  0.82868000  0.93131000  0.47645000  1.0
  C  C45  1  0.17154000  0.06866000  0.52378000  1.0
  C  C46  1  0.74393000  0.01597000  0.41826000  1.0
  C  C47  1  0.25629000  0.98406000  0.58211000  1.0
  C  C48  1  0.97210000  0.94945000  0.51300000  1.0
  C  C49  1  0.02811000  0.05053000  0.48719000  1.0
  N  N50  1  0.23568000  0.56855000  0.54360000  1.0
  N  N51  1  0.76475000  0.43149000  0.45688000  1.0
  Cl  Cl52  1  0.62779000  0.11136000  0.65362000  1.0
  Cl  Cl53  1  0.37247000  0.88863000  0.34683000  1.0
  Cl  Cl54  1  0.83052000  0.77440000  0.80765000  1.0
  Cl  Cl55  1  0.16959000  0.22563000  0.19253000  1.0
  O  O56  1  0.30937000  0.50033000  0.37504000  1.0
  O  O57  1  0.69085000  0.49977000  0.62510000  1.0
  O  O58  1  0.42598000  0.42519000  0.28556000  1.0
  O  O59  1  0.57417000  0.57477000  0.71458000  1.0
  O  O60  1  0.48599000  0.70152000  0.51590000  1.0
  O  O61  1  0.51422000  0.29836000  0.48421000  1.0
  O  O62  1  0.58981000  0.61814000  0.41891000  1.0
  O  O63  1  0.41042000  0.38177000  0.58121000  1.0
  F  F64  1  0.72665000  0.19272000  0.33665000  1.0
  F  F65  1  0.27360000  0.80742000  0.66395000  1.0
  F  F66  1  0.05433000  0.32128000  0.66623000  1.0
  F  F67  1  0.94611000  0.67870000  0.33422000  1.0
  F  F68  1  0.17249000  0.25485000  0.45870000  1.0
  F  F69  1  0.82777000  0.74498000  0.54126000  1.0
  F  F70  1  0.76978000  0.35019000  0.82273000  1.0
  F  F71  1  0.23031000  0.64984000  0.17740000  1.0
  F  F72  1  0.93460000  0.24639000  0.98542000  1.0
  F  F73  1  0.06546000  0.75364000  0.01481000  1.0
