# generated using pymatgen
data_BaH6(C3O)4
_symmetry_space_group_name_H-M   'P 1'
_cell_length_a   8.19276000
_cell_length_b   8.32736000
_cell_length_c   15.46530000
_cell_angle_alpha   89.99980000
_cell_angle_beta   85.95700000
_cell_angle_gamma   89.99990000
_symmetry_Int_Tables_number   1
_chemical_formula_structural   BaH6(C3O)4
_chemical_formula_sum   'Ba4 H24 C48 O16'
_cell_volume   1052.47986761
_cell_formula_units_Z   4
loop_
 _symmetry_equiv_pos_site_id
 _symmetry_equiv_pos_as_xyz
  1  'x, y, z'
loop_
 _atom_site_type_symbol
 _atom_site_label
 _atom_site_symmetry_multiplicity
 _atom_site_fract_x
 _atom_site_fract_y
 _atom_site_fract_z
 _atom_site_occupancy
  Ba  Ba0  1  0.24780000  0.36736000  0.96186000  1.0
  Ba  Ba1  1  0.25220000  0.86736000  0.03814000  1.0
  Ba  Ba2  1  0.75220000  0.63264000  0.03814000  1.0
  Ba  Ba3  1  0.74780000  0.13264000  0.96186000  1.0
  H  H4  1  0.99780000  0.52028000  0.20079000  1.0
  H  H5  1  0.50219000  0.02028000  0.79921000  1.0
  H  H6  1  0.00219000  0.47972000  0.79921000  1.0
  H  H7  1  0.49781000  0.97972000  0.20079000  1.0
  H  H8  1  0.97990000  0.57579000  0.35865000  1.0
  H  H9  1  0.52010000  0.07579000  0.64135000  1.0
  H  H10  1  0.02010000  0.42421000  0.64135000  1.0
  H  H11  1  0.47990000  0.92421000  0.35865000  1.0
  H  H12  1  0.91764000  0.35426000  0.46348000  1.0
  H  H13  1  0.58236000  0.85426000  0.53652000  1.0
  H  H14  1  0.08236000  0.64574000  0.53652000  1.0
  H  H15  1  0.41764000  0.14574000  0.46348000  1.0
  H  H16  1  0.85479000  0.08047000  0.49462000  1.0
  H  H17  1  0.64521000  0.58047000  0.50538000  1.0
  H  H18  1  0.14521000  0.91953000  0.50538000  1.0
  H  H19  1  0.35479000  0.41953000  0.49462000  1.0
  H  H20  1  0.81976000  0.79800000  0.44709000  1.0
  H  H21  1  0.68024000  0.29800000  0.55291000  1.0
  H  H22  1  0.18024000  0.20200000  0.55291000  1.0
  H  H23  1  0.31976000  0.70200000  0.44709000  1.0
  H  H24  1  0.83458000  0.73534000  0.28925000  1.0
  H  H25  1  0.66542000  0.23535000  0.71075000  1.0
  H  H26  1  0.16542000  0.26466000  0.71075000  1.0
  H  H27  1  0.33458000  0.76466000  0.28925000  1.0
  C  C28  1  0.98693000  0.25080000  0.11819000  1.0
  C  C29  1  0.51307000  0.75080000  0.88181000  1.0
  C  C30  1  0.01307000  0.74920000  0.88181000  1.0
  C  C31  1  0.48693000  0.24920000  0.11819000  1.0
  C  C32  1  0.94735000  0.26936000  0.21399000  1.0
  C  C33  1  0.55265000  0.76937000  0.78601000  1.0
  C  C34  1  0.05265000  0.73064000  0.78601000  1.0
  C  C35  1  0.44735000  0.23064000  0.21399000  1.0
  C  C36  1  0.96557000  0.42341000  0.24616000  1.0
  C  C37  1  0.53443000  0.92342000  0.75383000  1.0
  C  C38  1  0.03443000  0.57658000  0.75383000  1.0
  C  C39  1  0.46557000  0.07658000  0.24617000  1.0
  C  C40  1  0.95606000  0.45497000  0.33584000  1.0
  C  C41  1  0.54394000  0.95498000  0.66416000  1.0
  C  C42  1  0.04395000  0.54503000  0.66416000  1.0
  C  C43  1  0.45606000  0.04503000  0.33584000  1.0
  C  C44  1  0.92338000  0.33219000  0.39378000  1.0
  C  C45  1  0.57662000  0.83219000  0.60622000  1.0
  C  C46  1  0.07662000  0.66781000  0.60622000  1.0
  C  C47  1  0.42338000  0.16781000  0.39378000  1.0
  C  C48  1  0.89760000  0.17362000  0.36432000  1.0
  C  C49  1  0.60240000  0.67362000  0.63568000  1.0
  C  C50  1  0.10240000  0.82638000  0.63568000  1.0
  C  C51  1  0.39760000  0.32638000  0.36432000  1.0
  C  C52  1  0.86289000  0.04986000  0.42588000  1.0
  C  C53  1  0.63711000  0.54987000  0.57412000  1.0
  C  C54  1  0.13711000  0.95014000  0.57412000  1.0
  C  C55  1  0.36289000  0.45013000  0.42588000  1.0
  C  C56  1  0.84325000  0.89361000  0.39969000  1.0
  C  C57  1  0.65675000  0.39361000  0.60031000  1.0
  C  C58  1  0.15675000  0.10640000  0.60031000  1.0
  C  C59  1  0.34325000  0.60639000  0.39969000  1.0
  C  C60  1  0.85370000  0.85800000  0.31065000  1.0
  C  C61  1  0.64630000  0.35801000  0.68935000  1.0
  C  C62  1  0.14630000  0.14200000  0.68935000  1.0
  C  C63  1  0.35370000  0.64200000  0.31065000  1.0
  C  C64  1  0.88362000  0.97562000  0.24799000  1.0
  C  C65  1  0.61637000  0.47563000  0.75201000  1.0
  C  C66  1  0.11637000  0.02438000  0.75201000  1.0
  C  C67  1  0.38363000  0.52437000  0.24799000  1.0
  C  C68  1  0.90973000  0.13860000  0.27260000  1.0
  C  C69  1  0.59027000  0.63861000  0.72740000  1.0
  C  C70  1  0.09027000  0.86139000  0.72740000  1.0
  C  C71  1  0.40973000  0.36139000  0.27260000  1.0
  C  C72  1  0.87534000  0.91439000  0.15709000  1.0
  C  C73  1  0.62466000  0.41439000  0.84290000  1.0
  C  C74  1  0.12465000  0.08561000  0.84291000  1.0
  C  C75  1  0.37534000  0.58561000  0.15709000  1.0
  O  O76  1  0.93630000  0.35782000  0.06659000  1.0
  O  O77  1  0.56370000  0.85783000  0.93341000  1.0
  O  O78  1  0.06370000  0.64217000  0.93341000  1.0
  O  O79  1  0.43630000  0.14217000  0.06659000  1.0
  O  O80  1  0.07716000  0.13495000  0.09042000  1.0
  O  O81  1  0.42283000  0.63495000  0.90958000  1.0
  O  O82  1  0.92283000  0.86505000  0.90958000  1.0
  O  O83  1  0.57717000  0.36505000  0.09042000  1.0
  O  O84  1  0.76704000  0.96891000  0.11010000  1.0
  O  O85  1  0.73296000  0.46891000  0.88990000  1.0
  O  O86  1  0.23296000  0.03109000  0.88990000  1.0
  O  O87  1  0.26704000  0.53109000  0.11010000  1.0
  O  O88  1  0.96824000  0.79516000  0.13479000  1.0
  O  O89  1  0.53176000  0.29516000  0.86521000  1.0
  O  O90  1  0.03176000  0.20484000  0.86521000  1.0
  O  O91  1  0.46825000  0.70484000  0.13479000  1.0
