# generated using pymatgen
data_ZnH7C12(NO2)2
_symmetry_space_group_name_H-M   'P 1'
_cell_length_a   10.50340000
_cell_length_b   10.50460000
_cell_length_c   11.50800000
_cell_angle_alpha   73.64670000
_cell_angle_beta   73.64480000
_cell_angle_gamma   80.60430000
_symmetry_Int_Tables_number   1
_chemical_formula_structural   ZnH7C12(NO2)2
_chemical_formula_sum   'Zn4 H28 C48 N8 O16'
_cell_volume   1164.18250591
_cell_formula_units_Z   4
loop_
 _symmetry_equiv_pos_site_id
 _symmetry_equiv_pos_as_xyz
  1  'x, y, z'
loop_
 _atom_site_type_symbol
 _atom_site_label
 _atom_site_symmetry_multiplicity
 _atom_site_fract_x
 _atom_site_fract_y
 _atom_site_fract_z
 _atom_site_occupancy
  Zn  Zn0  1  0.81599000  0.39212000  0.96603000  1.0
  Zn  Zn1  1  0.39211000  0.81601000  0.46604000  1.0
  Zn  Zn2  1  0.18401000  0.60788000  0.03397000  1.0
  Zn  Zn3  1  0.60789000  0.18399000  0.53395000  1.0
  H  H4  1  0.85289000  0.15798000  0.86931000  1.0
  H  H5  1  0.15792000  0.85288000  0.36933000  1.0
  H  H6  1  0.14710000  0.84203000  0.13069000  1.0
  H  H7  1  0.84208000  0.14712000  0.63067000  1.0
  H  H8  1  0.62479000  0.49335000  0.78867000  1.0
  H  H9  1  0.49331000  0.62479000  0.28870000  1.0
  H  H10  1  0.37521000  0.50666000  0.21132000  1.0
  H  H11  1  0.50669000  0.37521000  0.71130000  1.0
  H  H12  1  0.96636000  0.61395000  0.82609000  1.0
  H  H13  1  0.61395000  0.96636000  0.32607000  1.0
  H  H14  1  0.03364000  0.38605000  0.17391000  1.0
  H  H15  1  0.38605000  0.03364000  0.67393000  1.0
  H  H16  1  0.94046000  0.83188000  0.67425000  1.0
  H  H17  1  0.83188000  0.94044000  0.17423000  1.0
  H  H18  1  0.05954000  0.16812000  0.32575000  1.0
  H  H19  1  0.16812000  0.05956000  0.82577000  1.0
  H  H20  1  0.72124000  0.98256000  0.87114000  1.0
  H  H21  1  0.98251000  0.72121000  0.37114000  1.0
  H  H22  1  0.27876000  0.01745000  0.12887000  1.0
  H  H23  1  0.01749000  0.27879000  0.62886000  1.0
  H  H24  1  0.53675000  0.32652000  0.10234000  1.0
  H  H25  1  0.32653000  0.53679000  0.60234000  1.0
  H  H26  1  0.46325000  0.67348000  0.89766000  1.0
  H  H27  1  0.67347000  0.46321000  0.39766000  1.0
  H  H28  1  0.39159000  0.15286000  0.12331000  1.0
  H  H29  1  0.15289000  0.39161000  0.62331000  1.0
  H  H30  1  0.60841000  0.84714000  0.87669000  1.0
  H  H31  1  0.84712000  0.60839000  0.37669000  1.0
  C  C32  1  0.74923000  0.15340000  0.92245000  1.0
  C  C33  1  0.15336000  0.74923000  0.42247000  1.0
  C  C34  1  0.25077000  0.84660000  0.07755000  1.0
  C  C35  1  0.84664000  0.25077000  0.57753000  1.0
  C  C36  1  0.69520000  0.56893000  0.75845000  1.0
  C  C37  1  0.56892000  0.69519000  0.25846000  1.0
  C  C38  1  0.30480000  0.43106000  0.24155000  1.0
  C  C39  1  0.43109000  0.30480000  0.74154000  1.0
  C  C40  1  0.88461000  0.63769000  0.78043000  1.0
  C  C41  1  0.63768000  0.88459000  0.28043000  1.0
  C  C42  1  0.11540000  0.36231000  0.21957000  1.0
  C  C43  1  0.36232000  0.11541000  0.71957000  1.0
  C  C44  1  0.86960000  0.75850000  0.69522000  1.0
  C  C45  1  0.75849000  0.86958000  0.19522000  1.0
  C  C46  1  0.13040000  0.24150000  0.30477000  1.0
  C  C47  1  0.24151000  0.13042000  0.80478000  1.0
  C  C48  1  0.67416000  0.05559000  0.92465000  1.0
  C  C49  1  0.05556000  0.67415000  0.42466000  1.0
  C  C50  1  0.32583000  0.94441000  0.07535000  1.0
  C  C51  1  0.94444000  0.32585000  0.57535000  1.0
  C  C52  1  0.57248000  0.24642000  0.05512000  1.0
  C  C53  1  0.24642000  0.57251000  0.55512000  1.0
  C  C54  1  0.42752000  0.75358000  0.94488000  1.0
  C  C55  1  0.75358000  0.42750000  0.44488000  1.0
  C  C56  1  0.49220000  0.14992000  0.06366000  1.0
  C  C57  1  0.14993000  0.49222000  0.56365000  1.0
  C  C58  1  0.50780000  0.85008000  0.93635000  1.0
  C  C59  1  0.85008000  0.50779000  0.43634000  1.0
  C  C60  1  0.76150000  0.78615000  0.64056000  1.0
  C  C61  1  0.78614000  0.76148000  0.14056000  1.0
  C  C62  1  0.23850000  0.21385000  0.35944000  1.0
  C  C63  1  0.21386000  0.23852000  0.85944000  1.0
  C  C64  1  0.67375000  0.68721000  0.67035000  1.0
  C  C65  1  0.68720000  0.67375000  0.17036000  1.0
  C  C66  1  0.32625000  0.31279000  0.32964000  1.0
  C  C67  1  0.31281000  0.32625000  0.82964000  1.0
  C  C68  1  0.74381000  0.92215000  0.55527000  1.0
  C  C69  1  0.92216000  0.74379000  0.05528000  1.0
  C  C70  1  0.25619000  0.07784000  0.44473000  1.0
  C  C71  1  0.07784000  0.25621000  0.94472000  1.0
  C  C72  1  0.55883000  0.70048000  0.61245000  1.0
  C  C73  1  0.70047000  0.55883000  0.11244000  1.0
  C  C74  1  0.44117000  0.29952000  0.38755000  1.0
  C  C75  1  0.29954000  0.44116000  0.88756000  1.0
  C  C76  1  0.54163000  0.05184000  0.99691000  1.0
  C  C77  1  0.05184000  0.54164000  0.49691000  1.0
  C  C78  1  0.45836000  0.94816000  0.00309000  1.0
  C  C79  1  0.94816000  0.45836000  0.50309000  1.0
  N  N80  1  0.69941000  0.24813000  0.98610000  1.0
  N  N81  1  0.24811000  0.69942000  0.48611000  1.0
  N  N82  1  0.30059000  0.75187000  0.01390000  1.0
  N  N83  1  0.75190000  0.30058000  0.51389000  1.0
  N  N84  1  0.79631000  0.54568000  0.81384000  1.0
  N  N85  1  0.54566000  0.79630000  0.31385000  1.0
  N  N86  1  0.20370000  0.45432000  0.18616000  1.0
  N  N87  1  0.45434000  0.20370000  0.68615000  1.0
  O  O88  1  0.68100000  0.00807000  0.61812000  1.0
  O  O89  1  0.00807000  0.68098000  0.11813000  1.0
  O  O90  1  0.31900000  0.99193000  0.38188000  1.0
  O  O91  1  0.99193000  0.31902000  0.88188000  1.0
  O  O92  1  0.79269000  0.94289000  0.44082000  1.0
  O  O93  1  0.94290000  0.79268000  0.94083000  1.0
  O  O94  1  0.20731000  0.05711000  0.55917000  1.0
  O  O95  1  0.05710000  0.20732000  0.05917000  1.0
  O  O96  1  0.50030000  0.81917000  0.58125000  1.0
  O  O97  1  0.81918000  0.50033000  0.08121000  1.0
  O  O98  1  0.49970000  0.18082000  0.41875000  1.0
  O  O99  1  0.18083000  0.49967000  0.91879000  1.0
  O  O100  1  0.52742000  0.59831000  0.59550000  1.0
  O  O101  1  0.59829000  0.52741000  0.09551000  1.0
  O  O102  1  0.47258000  0.40168000  0.40450000  1.0
  O  O103  1  0.40171000  0.47258000  0.90450000  1.0
