# generated using pymatgen
data_CuH16C6N2O5
_symmetry_space_group_name_H-M   'P 1'
_cell_length_a   7.73669000
_cell_length_b   8.78997000
_cell_length_c   8.83792000
_cell_angle_alpha   105.65900000
_cell_angle_beta   94.54080000
_cell_angle_gamma   110.71900000
_symmetry_Int_Tables_number   1
_chemical_formula_structural   CuH16C6N2O5
_chemical_formula_sum   'Cu2 H32 C12 N4 O10'
_cell_volume   531.01395261
_cell_formula_units_Z   2
loop_
 _symmetry_equiv_pos_site_id
 _symmetry_equiv_pos_as_xyz
  1  'x, y, z'
loop_
 _atom_site_type_symbol
 _atom_site_label
 _atom_site_symmetry_multiplicity
 _atom_site_fract_x
 _atom_site_fract_y
 _atom_site_fract_z
 _atom_site_occupancy
  Cu  Cu0  1  0.00000000  0.00000000  0.00000000  1.0
  Cu  Cu1  1  0.00000000  0.49999000  0.00001000  1.0
  H  H2  1  0.80766000  0.78072000  0.11689000  1.0
  H  H3  1  0.19235000  0.21928000  0.88311000  1.0
  H  H4  1  0.65894000  0.84666000  0.03457000  1.0
  H  H5  1  0.34106000  0.15333000  0.96543000  1.0
  H  H6  1  0.88843000  0.71319000  0.77923000  1.0
  H  H7  1  0.11157000  0.28681000  0.22077000  1.0
  H  H8  1  0.73880000  0.80715000  0.75522000  1.0
  H  H9  1  0.26119000  0.19285000  0.24478000  1.0
  H  H10  1  0.76688000  0.52671000  0.52753000  1.0
  H  H11  1  0.23315000  0.47331000  0.47248000  1.0
  H  H12  1  0.61746000  0.30263000  0.44843000  1.0
  H  H13  1  0.38255000  0.69738000  0.55157000  1.0
  H  H14  1  0.85110000  0.37509000  0.41843000  1.0
  H  H15  1  0.14891000  0.62492000  0.58157000  1.0
  H  H16  1  0.59666000  0.68278000  0.25460000  1.0
  H  H17  1  0.40334000  0.31722000  0.74540000  1.0
  H  H18  1  0.54878000  0.52186000  0.35011000  1.0
  H  H19  1  0.45117000  0.47810000  0.64986000  1.0
  H  H20  1  0.39436000  0.48790000  0.17433000  1.0
  H  H21  1  0.60565000  0.51211000  0.82565000  1.0
  H  H22  1  0.95954000  0.79897000  0.54716000  1.0
  H  H23  1  0.04045000  0.20104000  0.45283000  1.0
  H  H24  1  0.92965000  0.99245000  0.63915000  1.0
  H  H25  1  0.07035000  0.00756000  0.36086000  1.0
  H  H26  1  0.27255000  0.04318000  0.65829000  1.0
  H  H27  1  0.72744000  0.95683000  0.34171000  1.0
  H  H28  1  0.24356000  0.89178000  0.76142000  1.0
  H  H29  1  0.75642000  0.10822000  0.23859000  1.0
  H  H30  1  0.26784000  0.79211000  0.00775000  1.0
  H  H31  1  0.73217000  0.20790000  0.99224000  1.0
  H  H32  1  0.19117000  0.81835000  0.17220000  1.0
  H  H33  1  0.80883000  0.18164000  0.82779000  1.0
  C  C34  1  0.76095000  0.39612000  0.50492000  1.0
  C  C35  1  0.23906000  0.60389000  0.49508000  1.0
  C  C36  1  0.54260000  0.54447000  0.23407000  1.0
  C  C37  1  0.45740000  0.45553000  0.76593000  1.0
  C  C38  1  0.01842000  0.10211000  0.33766000  1.0
  C  C39  1  0.98157000  0.89789000  0.66234000  1.0
  C  C40  1  0.65200000  0.45707000  0.13480000  1.0
  C  C41  1  0.34802000  0.54293000  0.86522000  1.0
  C  C42  1  0.81006000  0.01449000  0.26099000  1.0
  C  C43  1  0.18994000  0.98551000  0.73901000  1.0
  C  C44  1  0.82365000  0.36526000  0.65698000  1.0
  C  C45  1  0.17634000  0.63474000  0.34303000  1.0
  N  N46  1  0.78991000  0.88848000  0.10475000  1.0
  N  N47  1  0.21009000  0.11152000  0.89525000  1.0
  N  N48  1  0.12202000  0.17282000  0.22212000  1.0
  N  N49  1  0.87798000  0.82718000  0.77789000  1.0
  O  O50  1  0.17185000  0.82506000  0.06131000  1.0
  O  O51  1  0.82816000  0.17494000  0.93869000  1.0
  O  O52  1  0.79423000  0.55572000  0.09303000  1.0
  O  O53  1  0.20578000  0.44428000  0.90698000  1.0
  O  O54  1  0.59688000  0.29605000  0.09937000  1.0
  O  O55  1  0.40313000  0.70395000  0.90063000  1.0
  O  O56  1  0.89888000  0.50021000  0.78298000  1.0
  O  O57  1  0.10112000  0.49978000  0.21702000  1.0
  O  O58  1  0.79863000  0.21451000  0.65112000  1.0
  O  O59  1  0.20138000  0.78549000  0.34888000  1.0
