# generated using pymatgen
data_SnH12C10(OF)2
_symmetry_space_group_name_H-M   'P 1'
_cell_length_a   8.15667000
_cell_length_b   8.16542000
_cell_length_c   18.75710000
_cell_angle_alpha   80.05150000
_cell_angle_beta   80.01610000
_cell_angle_gamma   75.73970000
_symmetry_Int_Tables_number   1
_chemical_formula_structural   SnH12C10(OF)2
_chemical_formula_sum   'Sn4 H48 C40 O8 F8'
_cell_volume   1181.32166506
_cell_formula_units_Z   4
loop_
 _symmetry_equiv_pos_site_id
 _symmetry_equiv_pos_as_xyz
  1  'x, y, z'
loop_
 _atom_site_type_symbol
 _atom_site_label
 _atom_site_symmetry_multiplicity
 _atom_site_fract_x
 _atom_site_fract_y
 _atom_site_fract_z
 _atom_site_occupancy
  Sn  Sn0  1  0.09108000  0.34351000  0.72608000  1.0
  Sn  Sn1  1  0.65656000  0.90870000  0.77385000  1.0
  Sn  Sn2  1  0.90892000  0.65649000  0.27392000  1.0
  Sn  Sn3  1  0.34345000  0.09130000  0.22615000  1.0
  H  H4  1  0.11393000  0.99707000  0.56987000  1.0
  H  H5  1  0.00320000  0.88583000  0.93008000  1.0
  H  H6  1  0.88607000  0.00293000  0.43013000  1.0
  H  H7  1  0.99680000  0.11418000  0.06992000  1.0
  H  H8  1  0.46496000  0.62856000  0.44465000  1.0
  H  H9  1  0.37119000  0.53495000  0.05556000  1.0
  H  H10  1  0.53504000  0.37143000  0.55535000  1.0
  H  H11  1  0.62881000  0.46505000  0.94444000  1.0
  H  H12  1  0.64245000  0.83455000  0.60656000  1.0
  H  H13  1  0.16548000  0.35780000  0.89343000  1.0
  H  H14  1  0.35754000  0.16545000  0.39344000  1.0
  H  H15  1  0.83452000  0.64220000  0.10657000  1.0
  H  H16  1  0.76260000  0.49725000  0.70675000  1.0
  H  H17  1  0.50281000  0.23682000  0.79333000  1.0
  H  H18  1  0.23740000  0.50276000  0.29326000  1.0
  H  H19  1  0.49718000  0.76318000  0.20668000  1.0
  H  H20  1  0.84070000  0.32428000  0.65311000  1.0
  H  H21  1  0.67598000  0.15873000  0.84688000  1.0
  H  H22  1  0.15931000  0.67572000  0.34689000  1.0
  H  H23  1  0.32402000  0.84126000  0.15312000  1.0
  H  H24  1  0.89990000  0.52231000  0.62177000  1.0
  H  H25  1  0.47763000  0.09976000  0.87829000  1.0
  H  H26  1  0.10010000  0.47770000  0.37823000  1.0
  H  H27  1  0.52237000  0.90023000  0.12172000  1.0
  H  H28  1  0.20538000  0.11219000  0.84013000  1.0
  H  H29  1  0.88832000  0.79463000  0.65973000  1.0
  H  H30  1  0.79462000  0.88781000  0.15987000  1.0
  H  H31  1  0.11168000  0.20537000  0.34027000  1.0
  H  H32  1  0.05926000  0.03689000  0.80057000  1.0
  H  H33  1  0.96353000  0.94058000  0.69935000  1.0
  H  H34  1  0.94074000  0.96311000  0.19943000  1.0
  H  H35  1  0.03647000  0.05942000  0.30065000  1.0
  H  H36  1  0.97995000  0.19462000  0.86063000  1.0
  H  H37  1  0.80573000  0.01976000  0.63931000  1.0
  H  H38  1  0.02006000  0.80537000  0.13937000  1.0
  H  H39  1  0.19427000  0.98025000  0.36069000  1.0
  H  H40  1  0.30498000  0.52995000  0.74817000  1.0
  H  H41  1  0.46966000  0.69527000  0.75177000  1.0
  H  H42  1  0.69503000  0.47005000  0.25182000  1.0
  H  H43  1  0.53033000  0.30472000  0.24823000  1.0
  H  H44  1  0.26056000  0.58578000  0.65595000  1.0
  H  H45  1  0.41382000  0.73971000  0.84403000  1.0
  H  H46  1  0.73945000  0.41421000  0.34405000  1.0
  H  H47  1  0.58618000  0.26028000  0.15597000  1.0
  H  H48  1  0.41143000  0.39189000  0.68178000  1.0
  H  H49  1  0.60788000  0.58889000  0.81809000  1.0
  H  H50  1  0.58857000  0.60811000  0.31822000  1.0
  H  H51  1  0.39212000  0.41110000  0.18191000  1.0
  C  C52  1  0.33817000  0.05090000  0.64919000  1.0
  C  C53  1  0.94927000  0.66176000  0.85076000  1.0
  C  C54  1  0.66183000  0.94909000  0.35081000  1.0
  C  C55  1  0.05073000  0.33825000  0.14924000  1.0
  C  C56  1  0.37401000  0.92712000  0.59473000  1.0
  C  C57  1  0.07300000  0.62597000  0.90525000  1.0
  C  C58  1  0.62599000  0.07287000  0.40527000  1.0
  C  C59  1  0.92700000  0.37403000  0.09475000  1.0
  C  C60  1  0.24098000  0.91783000  0.55828000  1.0
  C  C61  1  0.08234000  0.75886000  0.94174000  1.0
  C  C62  1  0.75901000  0.08217000  0.44172000  1.0
  C  C63  1  0.91767000  0.24115000  0.05826000  1.0
  C  C64  1  0.27672000  0.80768000  0.50640000  1.0
  C  C65  1  0.19237000  0.72311000  0.99367000  1.0
  C  C66  1  0.72328000  0.19232000  0.49360000  1.0
  C  C67  1  0.80763000  0.27690000  0.00633000  1.0
  C  C68  1  0.43929000  0.71032000  0.48708000  1.0
  C  C69  1  0.28959000  0.56067000  0.01304000  1.0
  C  C70  1  0.56072000  0.28967000  0.51292000  1.0
  C  C71  1  0.71041000  0.43934000  0.98696000  1.0
  C  C72  1  0.56730000  0.72262000  0.52489000  1.0
  C  C73  1  0.27729000  0.43283000  0.97519000  1.0
  C  C74  1  0.43270000  0.27738000  0.47511000  1.0
  C  C75  1  0.72271000  0.56717000  0.02482000  1.0
  C  C76  1  0.53842000  0.82724000  0.57893000  1.0
  C  C77  1  0.17281000  0.46172000  0.92108000  1.0
  C  C78  1  0.46158000  0.17276000  0.42107000  1.0
  C  C79  1  0.82719000  0.53829000  0.07892000  1.0
  C  C80  1  0.87073000  0.43353000  0.67061000  1.0
  C  C81  1  0.56656000  0.12878000  0.82941000  1.0
  C  C82  1  0.12927000  0.56647000  0.32939000  1.0
  C  C83  1  0.43343000  0.87121000  0.17059000  1.0
  C  C84  1  0.08331000  0.14876000  0.81834000  1.0
  C  C85  1  0.85157000  0.91652000  0.68158000  1.0
  C  C86  1  0.91670000  0.85124000  0.18166000  1.0
  C  C87  1  0.14843000  0.08348000  0.31842000  1.0
  C  C88  1  0.29204000  0.47975000  0.69948000  1.0
  C  C89  1  0.51993000  0.70816000  0.80045000  1.0
  C  C90  1  0.70796000  0.52025000  0.30052000  1.0
  C  C91  1  0.48007000  0.29184000  0.19955000  1.0
  O  O92  1  0.19181000  0.15624000  0.64910000  1.0
  O  O93  1  0.84411000  0.80813000  0.85073000  1.0
  O  O94  1  0.80819000  0.84376000  0.35090000  1.0
  O  O95  1  0.15589000  0.19187000  0.14927000  1.0
  O  O96  1  0.44634000  0.05056000  0.68971000  1.0
  O  O97  1  0.94942000  0.55346000  0.81036000  1.0
  O  O98  1  0.55365000  0.94944000  0.31029000  1.0
  O  O99  1  0.05058000  0.44654000  0.18964000  1.0
  F  F100  1  0.14727000  0.79482000  0.47169000  1.0
  F  F101  1  0.20529000  0.85238000  0.02841000  1.0
  F  F102  1  0.85274000  0.20517000  0.52832000  1.0
  F  F103  1  0.79472000  0.14763000  0.97159000  1.0
  F  F104  1  0.72768000  0.62801000  0.50753000  1.0
  F  F105  1  0.37175000  0.27259000  0.99258000  1.0
  F  F106  1  0.27232000  0.37200000  0.49247000  1.0
  F  F107  1  0.62825000  0.72741000  0.00742000  1.0
