# generated using pymatgen
data_CuH10C6Br2(N4Cl)2
_symmetry_space_group_name_H-M   'P 1'
_cell_length_a   6.89248000
_cell_length_b   7.58817000
_cell_length_c   13.17370000
_cell_angle_alpha   87.64820000
_cell_angle_beta   89.99930000
_cell_angle_gamma   89.99980000
_symmetry_Int_Tables_number   1
_chemical_formula_structural   CuH10C6Br2(N4Cl)2
_chemical_formula_sum   'Cu2 H20 C12 Br4 N16 Cl4'
_cell_volume   688.42142383
_cell_formula_units_Z   2
loop_
 _symmetry_equiv_pos_site_id
 _symmetry_equiv_pos_as_xyz
  1  'x, y, z'
loop_
 _atom_site_type_symbol
 _atom_site_label
 _atom_site_symmetry_multiplicity
 _atom_site_fract_x
 _atom_site_fract_y
 _atom_site_fract_z
 _atom_site_occupancy
  Cu  Cu0  1  1.00000000  0.49999000  1.00000000  1.0
  Cu  Cu1  1  0.50001000  0.99999000  1.00000000  1.0
  H  H2  1  0.44170000  0.55108000  0.90869000  1.0
  H  H3  1  0.94169000  0.94893000  0.09132000  1.0
  H  H4  1  0.55831000  0.44893000  0.09131000  1.0
  H  H5  1  0.05831000  0.05106000  0.90869000  1.0
  H  H6  1  0.65782000  0.53653000  0.74997000  1.0
  H  H7  1  0.15781000  0.96347000  0.25003000  1.0
  H  H8  1  0.34217000  0.46348000  0.25002000  1.0
  H  H9  1  0.84219000  0.03652000  0.74998000  1.0
  H  H10  1  0.52478000  0.63845000  0.64630000  1.0
  H  H11  1  0.02477000  0.86156000  0.35371000  1.0
  H  H12  1  0.47522000  0.36156000  0.35370000  1.0
  H  H13  1  0.97522000  0.13844000  0.64630000  1.0
  H  H14  1  0.44386000  0.32777000  0.58770000  1.0
  H  H15  1  0.94385000  0.17223000  0.41231000  1.0
  H  H16  1  0.55616000  0.67224000  0.41229000  1.0
  H  H17  1  0.05615000  0.82777000  0.58770000  1.0
  H  H18  1  0.61261000  0.24213000  0.68087000  1.0
  H  H19  1  0.11261000  0.25788000  0.31913000  1.0
  H  H20  1  0.38739000  0.75788000  0.31913000  1.0
  H  H21  1  0.88739000  0.74212000  0.68087000  1.0
  C  C22  1  0.33117000  0.51713000  0.85423000  1.0
  C  C23  1  0.83117000  0.98287000  0.14577000  1.0
  C  C24  1  0.66882000  0.48288000  0.14576000  1.0
  C  C25  1  0.16885000  0.01712000  0.85424000  1.0
  C  C26  1  0.53955000  0.51890000  0.69553000  1.0
  C  C27  1  0.03954000  0.98110000  0.30447000  1.0
  C  C28  1  0.46045000  0.48111000  0.30446000  1.0
  C  C29  1  0.96047000  0.01889000  0.69554000  1.0
  C  C30  1  0.57228000  0.35746000  0.63279000  1.0
  C  C31  1  0.07228000  0.14255000  0.36721000  1.0
  C  C32  1  0.42772000  0.64256000  0.36721000  1.0
  C  C33  1  0.92772000  0.85745000  0.63279000  1.0
  Br  Br34  1  0.21262000  0.26651000  0.07785000  1.0
  Br  Br35  1  0.71262000  0.23348000  0.92214000  1.0
  Br  Br36  1  0.78738000  0.73348000  0.92214000  1.0
  Br  Br37  1  0.28737000  0.76652000  0.07786000  1.0
  N  N38  1  0.36120000  0.49785000  0.75479000  1.0
  N  N39  1  0.86120000  0.00215000  0.24520000  1.0
  N  N40  1  0.63879000  0.50216000  0.24520000  1.0
  N  N41  1  0.13878000  0.99784000  0.75479000  1.0
  N  N42  1  0.18973000  0.45844000  0.71000000  1.0
  N  N43  1  0.68973000  0.04156000  0.29000000  1.0
  N  N44  1  0.81026000  0.54156000  0.29000000  1.0
  N  N45  1  0.31027000  0.95843000  0.71000000  1.0
  N  N46  1  0.05896000  0.45463000  0.78066000  1.0
  N  N47  1  0.55895000  0.04536000  0.21934000  1.0
  N  N48  1  0.94104000  0.54536000  0.21933000  1.0
  N  N49  1  0.44105000  0.95463000  0.78067000  1.0
  N  N50  1  0.14303000  0.49093000  0.87109000  1.0
  N  N51  1  0.64303000  0.00907000  0.12891000  1.0
  N  N52  1  0.85697000  0.50906000  0.12891000  1.0
  N  N53  1  0.35697000  0.99092000  0.87108000  1.0
  Cl  Cl54  1  0.76561000  0.40379000  0.54549000  1.0
  Cl  Cl55  1  0.26561000  0.09621000  0.45451000  1.0
  Cl  Cl56  1  0.23441000  0.59621000  0.45452000  1.0
  Cl  Cl57  1  0.73440000  0.90379000  0.54549000  1.0
