# generated using pymatgen
data_AgH8C14NO2
_symmetry_space_group_name_H-M   'P 1'
_cell_length_a   8.06899000
_cell_length_b   9.18383000
_cell_length_c   17.57990000
_cell_angle_alpha   90.00010000
_cell_angle_beta   90.00050000
_cell_angle_gamma   89.99970000
_symmetry_Int_Tables_number   1
_chemical_formula_structural   AgH8C14NO2
_chemical_formula_sum   'Ag4 H32 C56 N4 O8'
_cell_volume   1302.74499566
_cell_formula_units_Z   4
loop_
 _symmetry_equiv_pos_site_id
 _symmetry_equiv_pos_as_xyz
  1  'x, y, z'
loop_
 _atom_site_type_symbol
 _atom_site_label
 _atom_site_symmetry_multiplicity
 _atom_site_fract_x
 _atom_site_fract_y
 _atom_site_fract_z
 _atom_site_occupancy
  Ag  Ag0  1  0.36400000  0.69819000  0.75902000  1.0
  Ag  Ag1  1  0.63600000  0.30181000  0.25902000  1.0
  Ag  Ag2  1  0.13600000  0.69819000  0.25902000  1.0
  Ag  Ag3  1  0.86400000  0.30181000  0.75902000  1.0
  H  H4  1  0.56409000  0.35085000  0.65476000  1.0
  H  H5  1  0.43591000  0.64915000  0.15476000  1.0
  H  H6  1  0.93590000  0.35085000  0.15476000  1.0
  H  H7  1  0.06410000  0.64915000  0.65476000  1.0
  H  H8  1  0.71595000  0.20874000  0.55663000  1.0
  H  H9  1  0.28405000  0.79126000  0.05663000  1.0
  H  H10  1  0.78405000  0.20874000  0.05663000  1.0
  H  H11  1  0.21595000  0.79126000  0.55663000  1.0
  H  H12  1  0.71442000  0.93718000  0.56125000  1.0
  H  H13  1  0.28557000  0.06282000  0.06125000  1.0
  H  H14  1  0.78557000  0.93718000  0.06125000  1.0
  H  H15  1  0.21442000  0.06282000  0.56125000  1.0
  H  H16  1  0.04403000  0.93296000  0.97502000  1.0
  H  H17  1  0.95597000  0.06704000  0.47502000  1.0
  H  H18  1  0.45597000  0.93296000  0.47502000  1.0
  H  H19  1  0.54404000  0.06703000  0.97502000  1.0
  H  H20  1  0.04441000  0.20410000  0.98139000  1.0
  H  H21  1  0.95559000  0.79590000  0.48140000  1.0
  H  H22  1  0.45559000  0.20410000  0.48140000  1.0
  H  H23  1  0.54442000  0.79589000  0.98139000  1.0
  H  H24  1  0.20342000  0.34801000  0.88722000  1.0
  H  H25  1  0.79659000  0.65200000  0.38722000  1.0
  H  H26  1  0.29659000  0.34801000  0.38722000  1.0
  H  H27  1  0.70342000  0.65199000  0.88722000  1.0
  H  H28  1  0.20082000  0.80365000  0.87451000  1.0
  H  H29  1  0.79918000  0.19635000  0.37451000  1.0
  H  H30  1  0.29918000  0.80365000  0.37451000  1.0
  H  H31  1  0.70082000  0.19635000  0.87451000  1.0
  H  H32  1  0.55776000  0.80676000  0.66141000  1.0
  H  H33  1  0.44224000  0.19323000  0.16141000  1.0
  H  H34  1  0.94224000  0.80677000  0.16141000  1.0
  H  H35  1  0.05776000  0.19324000  0.66142000  1.0
  C  C36  1  0.41038000  0.39822000  0.78101000  1.0
  C  C37  1  0.58962000  0.60178000  0.28101000  1.0
  C  C38  1  0.08962000  0.39822000  0.28101000  1.0
  C  C39  1  0.91038000  0.60178000  0.78101000  1.0
  C  C40  1  0.39079000  0.23608000  0.77303000  1.0
  C  C41  1  0.60921000  0.76392000  0.27303000  1.0
  C  C42  1  0.10921000  0.23608000  0.27303000  1.0
  C  C43  1  0.89079000  0.76392000  0.77303000  1.0
  C  C44  1  0.47354000  0.16002000  0.71479000  1.0
  C  C45  1  0.52645000  0.83998000  0.21479000  1.0
  C  C46  1  0.02645000  0.16002000  0.21479000  1.0
  C  C47  1  0.97355000  0.83998000  0.71479000  1.0
  C  C48  1  0.56479000  0.23214000  0.65616000  1.0
  C  C49  1  0.43520000  0.76786000  0.15616000  1.0
  C  C50  1  0.93520000  0.23214000  0.15616000  1.0
  C  C51  1  0.06480000  0.76786000  0.65616000  1.0
  C  C52  1  0.64695000  0.15316000  0.60135000  1.0
  C  C53  1  0.35305000  0.84684000  0.10135000  1.0
  C  C54  1  0.85305000  0.15316000  0.10135000  1.0
  C  C55  1  0.14695000  0.84684000  0.60135000  1.0
  C  C56  1  0.64493000  0.99871000  0.60358000  1.0
  C  C57  1  0.35507000  0.00129000  0.10358000  1.0
  C  C58  1  0.85507000  0.99871000  0.10358000  1.0
  C  C59  1  0.14493000  0.00129000  0.60358000  1.0
  C  C60  1  0.55814000  0.92582000  0.65902000  1.0
  C  C61  1  0.44185000  0.07418000  0.15901000  1.0
  C  C62  1  0.94185000  0.92582000  0.15901000  1.0
  C  C63  1  0.05814000  0.07419000  0.65902000  1.0
  C  C64  1  0.46826000  0.00341000  0.71556000  1.0
  C  C65  1  0.53174000  0.99659000  0.21556000  1.0
  C  C66  1  0.03174000  0.00341000  0.21556000  1.0
  C  C67  1  0.96826000  0.99659000  0.71556000  1.0
  C  C68  1  0.29570000  0.00170000  0.82310000  1.0
  C  C69  1  0.70430000  0.99829000  0.32310000  1.0
  C  C70  1  0.20430000  0.00171000  0.32310000  1.0
  C  C71  1  0.79570000  0.99829000  0.82310000  1.0
  C  C72  1  0.20321000  0.92254000  0.87812000  1.0
  C  C73  1  0.79679000  0.07746000  0.37812000  1.0
  C  C74  1  0.29679000  0.92254000  0.37812000  1.0
  C  C75  1  0.70321000  0.07746000  0.87812000  1.0
  C  C76  1  0.11608000  0.99489000  0.93368000  1.0
  C  C77  1  0.88392000  0.00512000  0.43368000  1.0
  C  C78  1  0.38393000  0.99488000  0.43368000  1.0
  C  C79  1  0.61608000  0.00511000  0.93368000  1.0
  C  C80  1  0.11618000  0.14933000  0.93742000  1.0
  C  C81  1  0.88382000  0.85068000  0.43742000  1.0
  C  C82  1  0.38382000  0.14932000  0.43742000  1.0
  C  C83  1  0.61619000  0.85067000  0.93742000  1.0
  C  C84  1  0.20473000  0.22936000  0.88540000  1.0
  C  C85  1  0.79527000  0.77064000  0.38540000  1.0
  C  C86  1  0.29527000  0.22936000  0.38540000  1.0
  C  C87  1  0.70473000  0.77064000  0.88540000  1.0
  C  C88  1  0.29741000  0.15824000  0.82712000  1.0
  C  C89  1  0.70259000  0.84176000  0.32712000  1.0
  C  C90  1  0.20259000  0.15824000  0.32712000  1.0
  C  C91  1  0.79741000  0.84176000  0.82712000  1.0
  N  N92  1  0.38129000  0.92841000  0.76875000  1.0
  N  N93  1  0.61871000  0.07159000  0.26875000  1.0
  N  N94  1  0.11871000  0.92841000  0.26875000  1.0
  N  N95  1  0.88129000  0.07159000  0.76875000  1.0
  O  O96  1  0.50130000  0.44307000  0.83353000  1.0
  O  O97  1  0.49869000  0.55692000  0.33353000  1.0
  O  O98  1  0.99870000  0.44308000  0.33352000  1.0
  O  O99  1  0.00131000  0.55692000  0.83353000  1.0
  O  O100  1  0.33076000  0.47518000  0.73200000  1.0
  O  O101  1  0.66924000  0.52482000  0.23200000  1.0
  O  O102  1  0.16924000  0.47518000  0.23200000  1.0
  O  O103  1  0.83076000  0.52482000  0.73200000  1.0
