# generated using pymatgen
data_AgH9C9SN2O3
_symmetry_space_group_name_H-M   'P 1'
_cell_length_a   7.07029000
_cell_length_b   8.25303000
_cell_length_c   9.14909000
_cell_angle_alpha   70.55630000
_cell_angle_beta   84.72220000
_cell_angle_gamma   80.90880000
_symmetry_Int_Tables_number   1
_chemical_formula_structural   AgH9C9SN2O3
_chemical_formula_sum   'Ag2 H18 C18 S2 N4 O6'
_cell_volume   496.64601236
_cell_formula_units_Z   2
loop_
 _symmetry_equiv_pos_site_id
 _symmetry_equiv_pos_as_xyz
  1  'x, y, z'
loop_
 _atom_site_type_symbol
 _atom_site_label
 _atom_site_symmetry_multiplicity
 _atom_site_fract_x
 _atom_site_fract_y
 _atom_site_fract_z
 _atom_site_occupancy
  Ag  Ag0  1  0.99244000  0.08466000  0.80475000  1.0
  Ag  Ag1  1  0.00756000  0.91534000  0.19525000  1.0
  H  H2  1  0.71545000  0.50651000  0.64280000  1.0
  H  H3  1  0.28454000  0.49349000  0.35720000  1.0
  H  H4  1  0.92513000  0.50428000  0.84866000  1.0
  H  H5  1  0.07487000  0.49572000  0.15134000  1.0
  H  H6  1  0.84618000  0.35327000  0.12695000  1.0
  H  H7  1  0.15382000  0.64672000  0.87306000  1.0
  H  H8  1  0.56654000  0.18655000  0.20320000  1.0
  H  H9  1  0.43346000  0.81345000  0.79681000  1.0
  H  H10  1  0.11229000  0.27916000  0.44626000  1.0
  H  H11  1  0.88771000  0.72084000  0.55374000  1.0
  H  H12  1  0.00156000  0.20650000  0.31605000  1.0
  H  H13  1  0.99845000  0.79351000  0.68395000  1.0
  H  H14  1  0.31927000  0.03611000  0.37878000  1.0
  H  H15  1  0.68073000  0.96389000  0.62121000  1.0
  H  H16  1  0.25514000  0.97840000  0.58072000  1.0
  H  H17  1  0.74486000  0.02161000  0.41928000  1.0
  H  H18  1  0.78710000  0.24184000  0.52607000  1.0
  H  H19  1  0.21290000  0.75816000  0.47393000  1.0
  C  C20  1  0.52762000  0.34751000  0.81156000  1.0
  C  C21  1  0.47238000  0.65248000  0.18844000  1.0
  C  C22  1  0.68432000  0.43750000  0.76451000  1.0
  C  C23  1  0.31568000  0.56250000  0.23549000  1.0
  C  C24  1  0.80006000  0.43605000  0.88142000  1.0
  C  C25  1  0.19993000  0.56395000  0.11858000  1.0
  C  C26  1  0.75688000  0.34904000  0.03782000  1.0
  C  C27  1  0.24312000  0.65096000  0.96218000  1.0
  C  C28  1  0.60004000  0.25662000  0.08208000  1.0
  C  C29  1  0.39995000  0.74338000  0.91792000  1.0
  C  C30  1  0.48604000  0.25578000  0.96622000  1.0
  C  C31  1  0.51395000  0.74422000  0.03378000  1.0
  C  C32  1  0.31540000  0.16408000  0.98395000  1.0
  C  C33  1  0.68459000  0.83592000  0.01605000  1.0
  C  C34  1  0.05024000  0.17044000  0.43572000  1.0
  C  C35  1  0.94977000  0.82957000  0.56427000  1.0
  C  C36  1  0.19934000  0.01110000  0.46383000  1.0
  C  C37  1  0.80066000  0.98890000  0.53617000  1.0
  S  S38  1  0.35021000  0.32192000  0.69941000  1.0
  S  S39  1  0.64979000  0.67809000  0.30059000  1.0
  N  N40  1  0.23698000  0.18970000  0.84696000  1.0
  N  N41  1  0.76302000  0.81030000  0.15304000  1.0
  N  N42  1  0.88793000  0.13405000  0.54940000  1.0
  N  N43  1  0.11207000  0.86595000  0.45060000  1.0
  O  O44  1  0.22459000  0.48388000  0.63518000  1.0
  O  O45  1  0.77542000  0.51611000  0.36482000  1.0
  O  O46  1  0.43449000  0.23589000  0.58944000  1.0
  O  O47  1  0.56552000  0.76411000  0.41056000  1.0
  O  O48  1  0.25710000  0.07305000  0.11448000  1.0
  O  O49  1  0.74289000  0.92696000  0.88552000  1.0
