# generated using pymatgen
data_TlH16(C5N2)4
_symmetry_space_group_name_H-M   'P 1'
_cell_length_a   3.85833000
_cell_length_b   15.82990000
_cell_length_c   15.83000000
_cell_angle_alpha   89.99900000
_cell_angle_beta   89.99980000
_cell_angle_gamma   89.99850000
_symmetry_Int_Tables_number   1
_chemical_formula_structural   TlH16(C5N2)4
_chemical_formula_sum   'Tl2 H32 C40 N16'
_cell_volume   966.84856232
_cell_formula_units_Z   2
loop_
 _symmetry_equiv_pos_site_id
 _symmetry_equiv_pos_as_xyz
  1  'x, y, z'
loop_
 _atom_site_type_symbol
 _atom_site_label
 _atom_site_symmetry_multiplicity
 _atom_site_fract_x
 _atom_site_fract_y
 _atom_site_fract_z
 _atom_site_occupancy
  Tl  Tl0  1  0.88853000  0.25001000  0.75001000  1.0
  Tl  Tl1  1  0.11146000  0.74999000  0.24999000  1.0
  H  H2  1  0.00027000  0.35154000  0.15979000  1.0
  H  H3  1  0.00029000  0.65978000  0.64846000  1.0
  H  H4  1  0.00027000  0.14846000  0.34021000  1.0
  H  H5  1  0.00021000  0.84022000  0.85154000  1.0
  H  H6  1  0.99972000  0.64845000  0.84021000  1.0
  H  H7  1  0.99972000  0.34022000  0.35155000  1.0
  H  H8  1  0.99973000  0.85153000  0.65979000  1.0
  H  H9  1  0.99978000  0.15978000  0.14846000  1.0
  H  H10  1  0.01752000  0.44986000  0.21563000  1.0
  H  H11  1  0.01753000  0.71564000  0.55015000  1.0
  H  H12  1  0.01752000  0.05016000  0.28437000  1.0
  H  H13  1  0.01746000  0.78436000  0.94984000  1.0
  H  H14  1  0.98247000  0.55014000  0.78436000  1.0
  H  H15  1  0.98247000  0.28437000  0.44985000  1.0
  H  H16  1  0.98247000  0.94984000  0.71564000  1.0
  H  H17  1  0.98252000  0.21564000  0.05016000  1.0
  H  H18  1  0.61727000  0.40928000  0.17708000  1.0
  H  H19  1  0.61730000  0.67708000  0.59073000  1.0
  H  H20  1  0.61730000  0.09074000  0.32292000  1.0
  H  H21  1  0.61724000  0.82294000  0.90927000  1.0
  H  H22  1  0.38273000  0.59072000  0.82292000  1.0
  H  H23  1  0.38270000  0.32292000  0.40927000  1.0
  H  H24  1  0.38271000  0.90926000  0.67708000  1.0
  H  H25  1  0.38275000  0.17707000  0.09073000  1.0
  H  H26  1  0.75259000  0.43694000  0.86833000  1.0
  H  H27  1  0.75256000  0.36833000  0.56306000  1.0
  H  H28  1  0.75260000  0.06306000  0.63167000  1.0
  H  H29  1  0.75264000  0.13168000  0.93694000  1.0
  H  H30  1  0.24742000  0.56305000  0.13166000  1.0
  H  H31  1  0.24743000  0.63168000  0.43694000  1.0
  H  H32  1  0.24740000  0.93694000  0.36833000  1.0
  H  H33  1  0.24736000  0.86832000  0.06306000  1.0
  C  C34  1  0.86491000  0.46556000  0.92481000  1.0
  C  C35  1  0.86491000  0.42482000  0.53443000  1.0
  C  C36  1  0.86492000  0.03443000  0.57519000  1.0
  C  C37  1  0.86494000  0.07520000  0.96556000  1.0
  C  C38  1  0.13511000  0.53444000  0.07518000  1.0
  C  C39  1  0.13509000  0.57519000  0.46557000  1.0
  C  C40  1  0.13507000  0.96557000  0.42481000  1.0
  C  C41  1  0.13507000  0.92481000  0.03444000  1.0
  C  C42  1  0.80689000  0.42464000  0.00454000  1.0
  C  C43  1  0.80687000  0.50454000  0.57536000  1.0
  C  C44  1  0.80689000  0.07536000  0.49546000  1.0
  C  C45  1  0.80689000  0.99547000  0.92464000  1.0
  C  C46  1  0.19313000  0.57536000  0.99546000  1.0
  C  C47  1  0.19314000  0.49547000  0.42463000  1.0
  C  C48  1  0.19310000  0.92464000  0.50454000  1.0
  C  C49  1  0.19310000  0.00453000  0.07536000  1.0
  C  C50  1  0.49032000  0.31068000  0.95127000  1.0
  C  C51  1  0.49029000  0.45126000  0.68931000  1.0
  C  C52  1  0.49030000  0.18932000  0.54874000  1.0
  C  C53  1  0.49031000  0.04875000  0.81068000  1.0
  C  C54  1  0.50970000  0.68932000  0.04873000  1.0
  C  C55  1  0.50971000  0.54874000  0.31068000  1.0
  C  C56  1  0.50970000  0.81068000  0.45125000  1.0
  C  C57  1  0.50970000  0.95125000  0.18932000  1.0
  C  C58  1  0.94941000  0.46099000  0.08142000  1.0
  C  C59  1  0.94939000  0.58142000  0.53901000  1.0
  C  C60  1  0.94940000  0.03902000  0.41858000  1.0
  C  C61  1  0.94937000  0.91858000  0.96098000  1.0
  C  C62  1  0.05061000  0.53900000  0.91858000  1.0
  C  C63  1  0.05061000  0.41859000  0.46099000  1.0
  C  C64  1  0.05060000  0.96098000  0.58143000  1.0
  C  C65  1  0.05063000  0.08142000  0.03902000  1.0
  C  C66  1  0.89483000  0.41601000  0.16333000  1.0
  C  C67  1  0.89485000  0.66333000  0.58400000  1.0
  C  C68  1  0.89484000  0.08400000  0.33667000  1.0
  C  C69  1  0.89479000  0.83667000  0.91600000  1.0
  C  C70  1  0.10516000  0.58398000  0.83667000  1.0
  C  C71  1  0.10516000  0.33667000  0.41600000  1.0
  C  C72  1  0.10515000  0.91600000  0.66334000  1.0
  C  C73  1  0.10520000  0.16333000  0.08400000  1.0
  N  N74  1  0.62511000  0.35330000  0.01327000  1.0
  N  N75  1  0.62509000  0.51326000  0.64670000  1.0
  N  N76  1  0.62508000  0.14671000  0.48674000  1.0
  N  N77  1  0.62511000  0.98675000  0.85330000  1.0
  N  N78  1  0.37491000  0.64669000  0.98673000  1.0
  N  N79  1  0.37491000  0.48674000  0.35330000  1.0
  N  N80  1  0.37492000  0.85329000  0.51326000  1.0
  N  N81  1  0.37489000  0.01325000  0.14670000  1.0
  N  N82  1  0.35730000  0.26330000  0.90330000  1.0
  N  N83  1  0.35725000  0.40329000  0.73670000  1.0
  N  N84  1  0.35727000  0.23670000  0.59671000  1.0
  N  N85  1  0.35726000  0.09672000  0.76329000  1.0
  N  N86  1  0.64271000  0.73670000  0.09670000  1.0
  N  N87  1  0.64274000  0.59671000  0.26330000  1.0
  N  N88  1  0.64273000  0.76330000  0.40329000  1.0
  N  N89  1  0.64275000  0.90328000  0.23671000  1.0
