# generated using pymatgen
data_H4PbC7SO4
_symmetry_space_group_name_H-M   'P 1'
_cell_length_a   7.89161000
_cell_length_b   8.80998000
_cell_length_c   12.28300000
_cell_angle_alpha   89.99890000
_cell_angle_beta   73.90700000
_cell_angle_gamma   89.99780000
_symmetry_Int_Tables_number   1
_chemical_formula_structural   H4PbC7SO4
_chemical_formula_sum   'H16 Pb4 C28 S4 O16'
_cell_volume   820.50998671
_cell_formula_units_Z   4
loop_
 _symmetry_equiv_pos_site_id
 _symmetry_equiv_pos_as_xyz
  1  'x, y, z'
loop_
 _atom_site_type_symbol
 _atom_site_label
 _atom_site_symmetry_multiplicity
 _atom_site_fract_x
 _atom_site_fract_y
 _atom_site_fract_z
 _atom_site_occupancy
  H  H0  1  0.88203000  0.50195000  0.12026000  1.0
  H  H1  1  0.61797000  0.00196000  0.87974000  1.0
  H  H2  1  0.11799000  0.49805000  0.87973000  1.0
  H  H3  1  0.38204000  0.99804000  0.12027000  1.0
  H  H4  1  0.88170000  0.65849000  0.94905000  1.0
  H  H5  1  0.61829000  0.15850000  0.05095000  1.0
  H  H6  1  0.11831000  0.34151000  0.05094000  1.0
  H  H7  1  0.38170000  0.84150000  0.94906000  1.0
  H  H8  1  0.84321000  0.93829000  0.96850000  1.0
  H  H9  1  0.65679000  0.43828000  0.03150000  1.0
  H  H10  1  0.15680000  0.06172000  0.03149000  1.0
  H  H11  1  0.34318000  0.56172000  0.96851000  1.0
  H  H12  1  0.80541000  0.06060000  0.15749000  1.0
  H  H13  1  0.69460000  0.56061000  0.84251000  1.0
  H  H14  1  0.19460000  0.93940000  0.84251000  1.0
  H  H15  1  0.30538000  0.43939000  0.15750000  1.0
  Pb  Pb16  1  0.47643000  0.71012000  0.57177000  1.0
  Pb  Pb17  1  0.02356000  0.21012000  0.42820000  1.0
  Pb  Pb18  1  0.52353000  0.28988000  0.42822000  1.0
  Pb  Pb19  1  0.97642000  0.78989000  0.57178000  1.0
  C  C20  1  0.83674000  0.69291000  0.23158000  1.0
  C  C21  1  0.66326000  0.19293000  0.76842000  1.0
  C  C22  1  0.16325000  0.30708000  0.76842000  1.0
  C  C23  1  0.33673000  0.80707000  0.23158000  1.0
  C  C24  1  0.86277000  0.62453000  0.12612000  1.0
  C  C25  1  0.63723000  0.12454000  0.87388000  1.0
  C  C26  1  0.13724000  0.37547000  0.87388000  1.0
  C  C27  1  0.36278000  0.87546000  0.12612000  1.0
  C  C28  1  0.86296000  0.71225000  0.03149000  1.0
  C  C29  1  0.63704000  0.21225000  0.96851000  1.0
  C  C30  1  0.13705000  0.28775000  0.96851000  1.0
  C  C31  1  0.36296000  0.78775000  0.03149000  1.0
  C  C32  1  0.84121000  0.86917000  0.04229000  1.0
  C  C33  1  0.65880000  0.36917000  0.95771000  1.0
  C  C34  1  0.15881000  0.13083000  0.95770000  1.0
  C  C35  1  0.34120000  0.63083000  0.04230000  1.0
  C  C36  1  0.81990000  0.93798000  0.14728000  1.0
  C  C37  1  0.68012000  0.43798000  0.85271000  1.0
  C  C38  1  0.18012000  0.06202000  0.85271000  1.0
  C  C39  1  0.31988000  0.56201000  0.14730000  1.0
  C  C40  1  0.81561000  0.85136000  0.24374000  1.0
  C  C41  1  0.68441000  0.35138000  0.75626000  1.0
  C  C42  1  0.18440000  0.14864000  0.75626000  1.0
  C  C43  1  0.31559000  0.64862000  0.24375000  1.0
  C  C44  1  0.78788000  0.93063000  0.35499000  1.0
  C  C45  1  0.71213000  0.43064000  0.64501000  1.0
  C  C46  1  0.21212000  0.06938000  0.64500000  1.0
  C  C47  1  0.28788000  0.56936000  0.35500000  1.0
  S  S48  1  0.82918000  0.56819000  0.35143000  1.0
  S  S49  1  0.67081000  0.06822000  0.64857000  1.0
  S  S50  1  0.17081000  0.43181000  0.64857000  1.0
  S  S51  1  0.32916000  0.93179000  0.35144000  1.0
  O  O52  1  0.62331000  0.56245000  0.40157000  1.0
  O  O53  1  0.87669000  0.06249000  0.59841000  1.0
  O  O54  1  0.37668000  0.43753000  0.59844000  1.0
  O  O55  1  0.12331000  0.93752000  0.40157000  1.0
  O  O56  1  0.88081000  0.41425000  0.29655000  1.0
  O  O57  1  0.61922000  0.91427000  0.70344000  1.0
  O  O58  1  0.11920000  0.58576000  0.70345000  1.0
  O  O59  1  0.38077000  0.08573000  0.29656000  1.0
  O  O60  1  0.75143000  0.85030000  0.44508000  1.0
  O  O61  1  0.74858000  0.35031000  0.55491000  1.0
  O  O62  1  0.24856000  0.14971000  0.55491000  1.0
  O  O63  1  0.25144000  0.64969000  0.44509000  1.0
  O  O64  1  0.80149000  0.07528000  0.35412000  1.0
  O  O65  1  0.69851000  0.57529000  0.64587000  1.0
  O  O66  1  0.19850000  0.92472000  0.64587000  1.0
  O  O67  1  0.30150000  0.42471000  0.35413000  1.0
