# generated using pymatgen
data_CdH6C12N2(ClO2)2
_symmetry_space_group_name_H-M   'P 1'
_cell_length_a   9.87830000
_cell_length_b   11.16360000
_cell_length_c   13.09720000
_cell_angle_alpha   107.89600000
_cell_angle_beta   90.00000000
_cell_angle_gamma   90.00000000
_symmetry_Int_Tables_number   1
_chemical_formula_structural   CdH6C12N2(ClO2)2
_chemical_formula_sum   'Cd4 H24 C48 N8 Cl8 O16'
_cell_volume   1374.44260494
_cell_formula_units_Z   4
loop_
 _symmetry_equiv_pos_site_id
 _symmetry_equiv_pos_as_xyz
  1  'x, y, z'
loop_
 _atom_site_type_symbol
 _atom_site_label
 _atom_site_symmetry_multiplicity
 _atom_site_fract_x
 _atom_site_fract_y
 _atom_site_fract_z
 _atom_site_occupancy
  Cd  Cd0  1  0.87689000  0.41068000  0.59455000  1.0
  Cd  Cd1  1  0.37689000  0.08932000  0.90545000  1.0
  Cd  Cd2  1  0.12311000  0.58932000  0.40545000  1.0
  Cd  Cd3  1  0.62311000  0.91068000  0.09455000  1.0
  H  H4  1  0.79527000  0.52738000  0.99880000  1.0
  H  H5  1  0.29527000  0.97262000  0.50120000  1.0
  H  H6  1  0.20473000  0.47262000  0.00120000  1.0
  H  H7  1  0.70473000  0.02738000  0.49880000  1.0
  H  H8  1  0.48465000  0.32161000  0.10761000  1.0
  H  H9  1  0.98465000  0.17839000  0.39239000  1.0
  H  H10  1  0.51535000  0.67839000  0.89239000  1.0
  H  H11  1  0.01535000  0.82161000  0.60761000  1.0
  H  H12  1  0.59202000  0.20535000  0.78500000  1.0
  H  H13  1  0.09202000  0.29465000  0.71500000  1.0
  H  H14  1  0.40798000  0.79465000  0.21500000  1.0
  H  H15  1  0.90798000  0.70535000  0.28500000  1.0
  H  H16  1  0.78928000  0.65131000  0.78083000  1.0
  H  H17  1  0.28928000  0.84868000  0.71917000  1.0
  H  H18  1  0.21072000  0.34869000  0.21917000  1.0
  H  H19  1  0.71072000  0.15131000  0.28083000  1.0
  H  H20  1  0.68107000  0.53775000  0.45876000  1.0
  H  H21  1  0.18107000  0.96225000  0.04124000  1.0
  H  H22  1  0.31893000  0.46225000  0.54124000  1.0
  H  H23  1  0.81893000  0.03775000  0.95876000  1.0
  H  H24  1  0.51277000  0.88387000  0.66947000  1.0
  H  H25  1  0.01277000  0.61613000  0.83053000  1.0
  H  H26  1  0.48723000  0.11613000  0.33053000  1.0
  H  H27  1  0.98723000  0.38387000  0.16947000  1.0
  C  C28  1  0.77950000  0.38437000  0.78674000  1.0
  C  C29  1  0.27950000  0.11564000  0.71326000  1.0
  C  C30  1  0.22050000  0.61563000  0.21326000  1.0
  C  C31  1  0.72050000  0.88437000  0.28674000  1.0
  C  C32  1  0.70277000  0.36848000  0.88095000  1.0
  C  C33  1  0.20277000  0.13152000  0.61905000  1.0
  C  C34  1  0.29723000  0.63152000  0.11905000  1.0
  C  C35  1  0.79723000  0.86848000  0.38095000  1.0
  C  C36  1  0.72146000  0.45138000  0.98443000  1.0
  C  C37  1  0.22146000  0.04863000  0.51557000  1.0
  C  C38  1  0.27854000  0.54863000  0.01557000  1.0
  C  C39  1  0.77853000  0.95138000  0.48443000  1.0
  C  C40  1  0.64238000  0.43394000  0.06701000  1.0
  C  C41  1  0.14238000  0.06606000  0.43299000  1.0
  C  C42  1  0.35762000  0.56606000  0.93299000  1.0
  C  C43  1  0.85762000  0.93394000  0.56701000  1.0
  C  C44  1  0.54904000  0.33538000  0.04469000  1.0
  C  C45  1  0.04904000  0.16462000  0.45531000  1.0
  C  C46  1  0.45096000  0.66462000  0.95531000  1.0
  C  C47  1  0.95096000  0.83538000  0.54469000  1.0
  C  C48  1  0.60816000  0.27125000  0.86488000  1.0
  C  C49  1  0.10816000  0.22875000  0.63512000  1.0
  C  C50  1  0.39184000  0.72875000  0.13512000  1.0
  C  C51  1  0.89184000  0.77125000  0.36488000  1.0
  C  C52  1  0.63885000  0.86364000  0.85280000  1.0
  C  C53  1  0.13885000  0.63635000  0.64720000  1.0
  C  C54  1  0.36115000  0.13636000  0.14720000  1.0
  C  C55  1  0.86115000  0.36364000  0.35280000  1.0
  C  C56  1  0.65004000  0.77838000  0.73888000  1.0
  C  C57  1  0.15004000  0.72162000  0.76112000  1.0
  C  C58  1  0.34997000  0.22162000  0.26112000  1.0
  C  C59  1  0.84996000  0.27838000  0.23888000  1.0
  C  C60  1  0.73225000  0.67162000  0.71695000  1.0
  C  C61  1  0.23225000  0.82838000  0.78305000  1.0
  C  C62  1  0.26775000  0.32838000  0.28305000  1.0
  C  C63  1  0.76775000  0.17162000  0.21695000  1.0
  C  C64  1  0.67101000  0.60771000  0.53743000  1.0
  C  C65  1  0.17101000  0.89230000  0.96257000  1.0
  C  C66  1  0.32899000  0.39230000  0.46257000  1.0
  C  C67  1  0.82899000  0.10770000  0.03743000  1.0
  C  C68  1  0.58642000  0.71225000  0.55355000  1.0
  C  C69  1  0.08642000  0.78775000  0.94645000  1.0
  C  C70  1  0.41358000  0.28775000  0.44645000  1.0
  C  C71  1  0.91358000  0.21225000  0.05355000  1.0
  C  C72  1  0.57646000  0.80046000  0.65532000  1.0
  C  C73  1  0.07646000  0.69954000  0.84468000  1.0
  C  C74  1  0.42354000  0.19954000  0.34468000  1.0
  C  C75  1  0.92354000  0.30046000  0.15532000  1.0
  N  N76  1  0.53365000  0.25513000  0.94539000  1.0
  N  N77  1  0.03365000  0.24487000  0.55461000  1.0
  N  N78  1  0.46635000  0.74487000  0.05461000  1.0
  N  N79  1  0.96635000  0.75513000  0.44539000  1.0
  N  N80  1  0.74305000  0.58904000  0.61813000  1.0
  N  N81  1  0.24305000  0.91096000  0.88187000  1.0
  N  N82  1  0.25695000  0.41096000  0.38187000  1.0
  N  N83  1  0.75695000  0.08904000  0.11813000  1.0
  Cl  Cl84  1  0.65536000  0.53190000  0.19708000  1.0
  Cl  Cl85  1  0.15536000  0.96810000  0.30292000  1.0
  Cl  Cl86  1  0.34464000  0.46810000  0.80292000  1.0
  Cl  Cl87  1  0.84464000  0.03190000  0.69708000  1.0
  Cl  Cl88  1  0.49320000  0.72791000  0.44755000  1.0
  Cl  Cl89  1  0.99320000  0.77209000  0.05245000  1.0
  Cl  Cl90  1  0.50680000  0.27209000  0.55245000  1.0
  Cl  Cl91  1  0.00680000  0.22791000  0.94755000  1.0
  O  O92  1  0.74002000  0.31795000  0.69361000  1.0
  O  O93  1  0.24002000  0.18205000  0.80639000  1.0
  O  O94  1  0.25998000  0.68205000  0.30639000  1.0
  O  O95  1  0.75998000  0.81795000  0.19361000  1.0
  O  O96  1  0.87560000  0.46309000  0.80318000  1.0
  O  O97  1  0.37560000  0.03691000  0.69682000  1.0
  O  O98  1  0.12440000  0.53691000  0.19682000  1.0
  O  O99  1  0.62440000  0.96309000  0.30318000  1.0
  O  O100  1  0.70057000  0.82545000  0.92289000  1.0
  O  O101  1  0.20057000  0.67455000  0.57711000  1.0
  O  O102  1  0.29943000  0.17455000  0.07711000  1.0
  O  O103  1  0.79943000  0.32545000  0.42289000  1.0
  O  O104  1  0.57073000  0.96376000  0.87264000  1.0
  O  O105  1  0.07073000  0.53624000  0.62737000  1.0
  O  O106  1  0.42927000  0.03624000  0.12736000  1.0
  O  O107  1  0.92927000  0.46376000  0.37264000  1.0
