# generated using pymatgen
data_Zn4H34(C9O2)7
_symmetry_space_group_name_H-M   'P 1'
_cell_length_a   15.21010000
_cell_length_b   15.23200000
_cell_length_c   17.73910000
_cell_angle_alpha   80.32880000
_cell_angle_beta   81.42410000
_cell_angle_gamma   89.76020000
_symmetry_Int_Tables_number   1
_chemical_formula_structural   Zn4H34(C9O2)7
_chemical_formula_sum   'Zn4 H34 C63 O14'
_cell_volume   4005.17492991
_cell_formula_units_Z   1
loop_
 _symmetry_equiv_pos_site_id
 _symmetry_equiv_pos_as_xyz
  1  'x, y, z'
loop_
 _atom_site_type_symbol
 _atom_site_label
 _atom_site_symmetry_multiplicity
 _atom_site_fract_x
 _atom_site_fract_y
 _atom_site_fract_z
 _atom_site_occupancy
  Zn  Zn0  1  0.55488000  0.56614000  0.56668000  1.0
  Zn  Zn1  1  0.59330000  0.44297000  0.44047000  1.0
  Zn  Zn2  1  0.42991000  0.58846000  0.43686000  1.0
  Zn  Zn3  1  0.41435000  0.40646000  0.55393000  1.0
  H  H4  1  0.71838000  0.67959000  0.06475000  1.0
  H  H5  1  0.00638000  0.33048000  0.46397000  1.0
  H  H6  1  0.16963000  0.34125000  0.46692000  1.0
  H  H7  1  0.14441000  0.61334000  0.50101000  1.0
  H  H8  1  0.68663000  0.65394000  0.93947000  1.0
  H  H9  1  0.33352000  0.26614000  0.93253000  1.0
  H  H10  1  0.35294000  0.30974000  0.78956000  1.0
  H  H11  1  0.52545000  0.52634000  0.80105000  1.0
  H  H12  1  0.44013000  0.37841000  0.13706000  1.0
  H  H13  1  0.60113000  0.57984000  0.86052000  1.0
  H  H14  1  0.46823000  0.19602000  0.10801000  1.0
  H  H15  1  0.38588000  0.14180000  0.51899000  1.0
  H  H16  1  0.37957000  0.06338000  0.18027000  1.0
  H  H17  1  0.21460000  0.06073000  0.18780000  1.0
  H  H18  1  0.13926000  0.19174000  0.12309000  1.0
  H  H19  1  0.22850000  0.32365000  0.05057000  1.0
  H  H20  1  0.35911000  0.58546000  0.13117000  1.0
  H  H21  1  0.20680000  0.53252000  0.19223000  1.0
  H  H22  1  0.18575000  0.40721000  0.30387000  1.0
  H  H23  1  0.31846000  0.33691000  0.35466000  1.0
  H  H24  1  0.47034000  0.38946000  0.29277000  1.0
  H  H25  1  0.92803000  0.69263000  0.64408000  1.0
  H  H26  1  0.67018000  0.17140000  0.46483000  1.0
  H  H27  1  0.98357000  0.83880000  0.66472000  1.0
  H  H28  1  0.08494000  0.93381000  0.55955000  1.0
  H  H29  1  0.13066000  0.88141000  0.43393000  1.0
  H  H30  1  0.07513000  0.73542000  0.41385000  1.0
  H  H31  1  0.67699000  0.65520000  0.28187000  1.0
  H  H32  1  0.31381000  0.99299000  0.52796000  1.0
  H  H33  1  0.68456000  0.00690000  0.47378000  1.0
  H  H34  1  0.32767000  0.83054000  0.52445000  1.0
  H  H35  1  0.61286000  0.85544000  0.49742000  1.0
  H  H36  1  0.85889000  0.39749000  0.47523000  1.0
  H  H37  1  0.82612000  0.65751000  0.53748000  1.0
  C  C38  1  0.51843000  0.26275000  0.49150000  1.0
  C  C39  1  0.58516000  0.56496000  0.92329000  1.0
  C  C40  1  0.63284000  0.60679000  0.96688000  1.0
  C  C41  1  0.47913000  0.73712000  0.51027000  1.0
  C  C42  1  0.61327000  0.59109000  0.04929000  1.0
  C  C43  1  0.54150000  0.53130000  0.08718000  1.0
  C  C44  1  0.66325000  0.63451000  0.09315000  1.0
  C  C45  1  0.64426000  0.62073000  0.17320000  1.0
  C  C46  1  0.51408000  0.52777000  0.16858000  1.0
  C  C47  1  0.52661000  0.16510000  0.49258000  1.0
  C  C48  1  0.47170000  0.83444000  0.51159000  1.0
  C  C49  1  0.38557000  0.34760000  0.82477000  1.0
  C  C50  1  0.37908000  0.96298000  0.51992000  1.0
  C  C51  1  0.38643000  0.87319000  0.51883000  1.0
  C  C52  1  0.54799000  0.88655000  0.50282000  1.0
  C  C53  1  0.73588000  0.51647000  0.50918000  1.0
  C  C54  1  0.54245000  0.97996000  0.49838000  1.0
  C  C55  1  0.45615000  0.01872000  0.50917000  1.0
  C  C56  1  0.45059000  0.11150000  0.50815000  1.0
  C  C57  1  0.61171000  0.12735000  0.47826000  1.0
  C  C58  1  0.61927000  0.03664000  0.48283000  1.0
  C  C59  1  0.83379000  0.52607000  0.50663000  1.0
  C  C60  1  0.48388000  0.46989000  0.83189000  1.0
  C  C61  1  0.16528000  0.47930000  0.48266000  1.0
  C  C62  1  0.03686000  0.39200000  0.47272000  1.0
  C  C63  1  0.12681000  0.39784000  0.47356000  1.0
  C  C64  1  0.11299000  0.55213000  0.49313000  1.0
  C  C65  1  0.26262000  0.48558000  0.48443000  1.0
  C  C66  1  0.01948000  0.54673000  0.49706000  1.0
  C  C67  1  0.98107000  0.46494000  0.48514000  1.0
  C  C68  1  0.88822000  0.45774000  0.48748000  1.0
  C  C69  1  0.87086000  0.60499000  0.52235000  1.0
  C  C70  1  0.96200000  0.61773000  0.51533000  1.0
  C  C71  1  0.47391000  0.44779000  0.91316000  1.0
  C  C72  1  0.54672000  0.55488000  0.29716000  1.0
  C  C73  1  0.45339000  0.44830000  0.70239000  1.0
  C  C74  1  0.44051000  0.42176000  0.78806000  1.0
  C  C75  1  0.56805000  0.56857000  0.21032000  1.0
  C  C76  1  0.37487000  0.32394000  0.90409000  1.0
  C  C77  1  0.35437000  0.26843000  0.07417000  1.0
  C  C78  1  0.39602000  0.19478000  0.11147000  1.0
  C  C79  1  0.34606000  0.12033000  0.15199000  1.0
  C  C80  1  0.25365000  0.11883000  0.15621000  1.0
  C  C81  1  0.21146000  0.19213000  0.11965000  1.0
  C  C82  1  0.41715000  0.37320000  0.95017000  1.0
  C  C83  1  0.26146000  0.26622000  0.07869000  1.0
  C  C84  1  0.42497000  0.49126000  0.20773000  1.0
  C  C85  1  0.34971000  0.53080000  0.18016000  1.0
  C  C86  1  0.26434000  0.50086000  0.21449000  1.0
  C  C87  1  0.25258000  0.43076000  0.27720000  1.0
  C  C88  1  0.32689000  0.39161000  0.30566000  1.0
  C  C89  1  0.41259000  0.42163000  0.27133000  1.0
  C  C90  1  0.99789000  0.70391000  0.52768000  1.0
  C  C91  1  0.97223000  0.73441000  0.59799000  1.0
  C  C92  1  0.00357000  0.81644000  0.60949000  1.0
  C  C93  1  0.51933000  0.49813000  0.95879000  1.0
  C  C94  1  0.06073000  0.86959000  0.55066000  1.0
  C  C95  1  0.08657000  0.84005000  0.48038000  1.0
  C  C96  1  0.05569000  0.75780000  0.46909000  1.0
  C  C97  1  0.69938000  0.66570000  0.21808000  1.0
  C  C98  1  0.50125000  0.47740000  0.04075000  1.0
  C  C99  1  0.44844000  0.39965000  0.07481000  1.0
  C  C100  1  0.40762000  0.34845000  0.03271000  1.0
  O  O101  1  0.49799000  0.50185000  0.49889000  1.0
  O  O102  1  0.59427000  0.49653000  0.33128000  1.0
  O  O103  1  0.40961000  0.40329000  0.66515000  1.0
  O  O104  1  0.48564000  0.60082000  0.32757000  1.0
  O  O105  1  0.50723000  0.51363000  0.67321000  1.0
  O  O106  1  0.76535000  0.71239000  0.18949000  1.0
  O  O107  1  0.68588000  0.56399000  0.54981000  1.0
  O  O108  1  0.29784000  0.41658000  0.51831000  1.0
  O  O109  1  0.58274000  0.31285000  0.45306000  1.0
  O  O110  1  0.42518000  0.70362000  0.47369000  1.0
  O  O111  1  0.44781000  0.28864000  0.52916000  1.0
  O  O112  1  0.53868000  0.69575000  0.54499000  1.0
  O  O113  1  0.70996000  0.46100000  0.47004000  1.0
  O  O114  1  0.30232000  0.55904000  0.45287000  1.0
