# generated using pymatgen
data_InH17C15S2
_symmetry_space_group_name_H-M   'P 1'
_cell_length_a   7.32549000
_cell_length_b   13.92610000
_cell_length_c   14.62500000
_cell_angle_alpha   90.00000000
_cell_angle_beta   90.00000000
_cell_angle_gamma   99.63940000
_symmetry_Int_Tables_number   1
_chemical_formula_structural   InH17C15S2
_chemical_formula_sum   'In4 H68 C60 S8'
_cell_volume   1470.91174404
_cell_formula_units_Z   4
loop_
 _symmetry_equiv_pos_site_id
 _symmetry_equiv_pos_as_xyz
  1  'x, y, z'
loop_
 _atom_site_type_symbol
 _atom_site_label
 _atom_site_symmetry_multiplicity
 _atom_site_fract_x
 _atom_site_fract_y
 _atom_site_fract_z
 _atom_site_occupancy
  In  In0  1  0.39930000  0.73799000  0.19489000  1.0
  In  In1  1  0.60070000  0.26201000  0.69489000  1.0
  In  In2  1  0.93842000  0.75949000  0.30499000  1.0
  In  In3  1  0.06158000  0.24051000  0.80499000  1.0
  H  H4  1  0.28311000  0.70131000  0.01904000  1.0
  H  H5  1  0.71687000  0.29869000  0.51903000  1.0
  H  H6  1  0.53189000  0.73413000  0.02221000  1.0
  H  H7  1  0.46808000  0.26587000  0.52222000  1.0
  H  H8  1  0.38752000  0.82627000  0.03040000  1.0
  H  H9  1  0.61246000  0.17373000  0.53040000  1.0
  H  H10  1  0.77017000  0.77664000  0.46682000  1.0
  H  H11  1  0.22983000  0.22336000  0.96682000  1.0
  H  H12  1  0.01211000  0.82659000  0.48029000  1.0
  H  H13  1  0.98789000  0.17341000  0.98028000  1.0
  H  H14  1  0.93738000  0.69737000  0.48163000  1.0
  H  H15  1  0.06263000  0.30263000  0.98162000  1.0
  H  H16  1  0.57987000  0.30270000  0.36610000  1.0
  H  H17  1  0.42013000  0.69730000  0.86609000  1.0
  H  H18  1  0.41911000  0.24112000  0.22351000  1.0
  H  H19  1  0.58088000  0.75889000  0.72350000  1.0
  H  H20  1  0.34621000  0.35947000  0.10516000  1.0
  H  H21  1  0.65379000  0.64054000  0.60515000  1.0
  H  H22  1  0.42268000  0.53624000  0.13442000  1.0
  H  H23  1  0.57733000  0.46377000  0.63441000  1.0
  H  H24  1  0.72115000  0.43042000  0.46148000  1.0
  H  H25  1  0.27886000  0.56959000  0.96146000  1.0
  H  H26  1  0.59443000  0.52924000  0.46346000  1.0
  H  H27  1  0.40557000  0.47077000  0.96346000  1.0
  H  H28  1  0.81072000  0.54158000  0.40677000  1.0
  H  H29  1  0.18928000  0.45842000  0.90675000  1.0
  H  H30  1  0.40095000  0.04987000  0.56686000  1.0
  H  H31  1  0.59905000  0.95013000  0.06685000  1.0
  H  H32  1  0.45970000  0.90655000  0.65428000  1.0
  H  H33  1  0.54031000  0.09345000  0.15428000  1.0
  H  H34  1  0.44740000  0.74623000  0.57399000  1.0
  H  H35  1  0.55260000  0.25377000  0.07399000  1.0
  H  H36  1  0.38010000  0.73373000  0.40877000  1.0
  H  H37  1  0.61990000  0.26627000  0.90877000  1.0
  H  H38  1  0.16976000  0.04883000  0.36068000  1.0
  H  H39  1  0.83024000  0.95117000  0.86068000  1.0
  H  H40  1  0.40350000  0.08087000  0.32865000  1.0
  H  H41  1  0.59650000  0.91914000  0.82865000  1.0
  H  H42  1  0.32494000  0.12632000  0.43304000  1.0
  H  H43  1  0.67506000  0.87368000  0.93303000  1.0
  H  H44  1  0.80463000  0.39312000  0.99229000  1.0
  H  H45  1  0.19537000  0.60688000  0.49229000  1.0
  H  H46  1  0.76681000  0.52266000  0.88100000  1.0
  H  H47  1  0.23320000  0.47734000  0.38100000  1.0
  H  H48  1  0.84613000  0.69759000  0.92753000  1.0
  H  H49  1  0.15387000  0.30241000  0.42753000  1.0
  H  H50  1  0.97442000  0.73976000  0.08180000  1.0
  H  H51  1  0.02557000  0.26023000  0.58180000  1.0
  H  H52  1  0.84722000  0.41395000  0.22549000  1.0
  H  H53  1  0.15278000  0.58605000  0.72549000  1.0
  H  H54  1  0.07720000  0.41546000  0.18950000  1.0
  H  H55  1  0.92279000  0.58454000  0.68950000  1.0
  H  H56  1  0.89215000  0.33903000  0.13259000  1.0
  H  H57  1  0.10784000  0.66097000  0.63258000  1.0
  H  H58  1  0.12693000  0.18238000  0.14655000  1.0
  H  H59  1  0.87306000  0.81762000  0.64656000  1.0
  H  H60  1  0.98910000  0.24898000  0.28245000  1.0
  H  H61  1  0.01091000  0.75102000  0.78245000  1.0
  H  H62  1  0.76807000  0.13822000  0.38168000  1.0
  H  H63  1  0.23194000  0.86177000  0.88168000  1.0
  H  H64  1  0.68430000  0.96308000  0.34068000  1.0
  H  H65  1  0.31571000  0.03692000  0.84069000  1.0
  H  H66  1  0.96985000  0.96681000  0.03250000  1.0
  H  H67  1  0.03015000  0.03318000  0.53251000  1.0
  H  H68  1  0.15001000  0.93879000  0.10235000  1.0
  H  H69  1  0.84998000  0.06120000  0.60236000  1.0
  H  H70  1  0.17238000  0.05532000  0.05031000  1.0
  H  H71  1  0.82762000  0.94468000  0.55032000  1.0
  C  C72  1  0.40035000  0.75114000  0.04765000  1.0
  C  C73  1  0.59963000  0.24885000  0.54765000  1.0
  C  C74  1  0.91247000  0.76647000  0.45241000  1.0
  C  C75  1  0.08753000  0.23353000  0.95241000  1.0
  C  C76  1  0.53671000  0.51978000  0.26891000  1.0
  C  C77  1  0.46331000  0.48023000  0.76890000  1.0
  C  C78  1  0.58653000  0.45385000  0.33451000  1.0
  C  C79  1  0.41348000  0.54615000  0.83451000  1.0
  C  C80  1  0.54280000  0.35404000  0.31586000  1.0
  C  C81  1  0.45721000  0.64596000  0.81584000  1.0
  C  C82  1  0.45409000  0.31934000  0.23506000  1.0
  C  C83  1  0.54592000  0.68066000  0.73505000  1.0
  C  C84  1  0.41248000  0.38523000  0.16947000  1.0
  C  C85  1  0.58753000  0.61477000  0.66946000  1.0
  C  C86  1  0.45449000  0.48508000  0.18614000  1.0
  C  C87  1  0.54553000  0.51493000  0.68614000  1.0
  C  C88  1  0.68291000  0.49028000  0.42129000  1.0
  C  C89  1  0.31710000  0.50972000  0.92128000  1.0
  C  C90  1  0.35025000  0.88461000  0.39379000  1.0
  C  C91  1  0.64976000  0.11540000  0.89380000  1.0
  C  C92  1  0.35631000  0.97546000  0.43806000  1.0
  C  C93  1  0.64369000  0.02454000  0.93806000  1.0
  C  C94  1  0.39884000  0.98069000  0.53157000  1.0
  C  C95  1  0.60116000  0.01931000  0.03157000  1.0
  C  C96  1  0.43198000  0.89979000  0.58108000  1.0
  C  C97  1  0.56802000  0.10021000  0.08108000  1.0
  C  C98  1  0.42541000  0.81083000  0.53644000  1.0
  C  C99  1  0.57459000  0.18917000  0.03644000  1.0
  C  C100  1  0.38556000  0.80357000  0.44323000  1.0
  C  C101  1  0.61444000  0.19643000  0.94323000  1.0
  C  C102  1  0.31168000  0.06266000  0.38791000  1.0
  C  C103  1  0.68832000  0.93734000  0.88791000  1.0
  C  C104  1  0.96605000  0.59027000  0.12379000  1.0
  C  C105  1  0.03394000  0.40973000  0.62378000  1.0
  C  C106  1  0.91514000  0.49105000  0.09957000  1.0
  C  C107  1  0.08485000  0.50894000  0.59957000  1.0
  C  C108  1  0.84331000  0.46956000  0.01165000  1.0
  C  C109  1  0.15669000  0.53044000  0.51165000  1.0
  C  C110  1  0.82010000  0.54219000  0.94923000  1.0
  C  C111  1  0.17991000  0.45780000  0.44923000  1.0
  C  C112  1  0.86588000  0.63979000  0.97504000  1.0
  C  C113  1  0.13411000  0.36020000  0.47504000  1.0
  C  C114  1  0.93875000  0.66353000  0.06184000  1.0
  C  C115  1  0.06124000  0.33647000  0.56184000  1.0
  C  C116  1  0.93432000  0.41039000  0.16484000  1.0
  C  C117  1  0.06567000  0.58960000  0.66484000  1.0
  C  C118  1  0.85810000  0.97444000  0.22090000  1.0
  C  C119  1  0.14190000  0.02556000  0.72091000  1.0
  C  C120  1  0.98682000  0.03555000  0.16546000  1.0
  C  C121  1  0.01319000  0.96445000  0.66547000  1.0
  C  C122  1  0.03051000  0.13414000  0.18970000  1.0
  C  C123  1  0.96949000  0.86586000  0.68971000  1.0
  C  C124  1  0.95266000  0.17178000  0.26606000  1.0
  C  C125  1  0.04734000  0.82822000  0.76607000  1.0
  C  C126  1  0.82877000  0.11012000  0.32123000  1.0
  C  C127  1  0.17124000  0.88987000  0.82124000  1.0
  C  C128  1  0.78195000  0.01174000  0.29856000  1.0
  C  C129  1  0.21806000  0.98825000  0.79857000  1.0
  C  C130  1  0.07429000  0.99759000  0.08313000  1.0
  C  C131  1  0.92571000  0.00240000  0.58314000  1.0
  S  S132  1  0.57597000  0.64420000  0.29880000  1.0
  S  S133  1  0.42403000  0.35581000  0.79880000  1.0
  S  S134  1  0.27876000  0.87611000  0.27751000  1.0
  S  S135  1  0.72125000  0.12389000  0.77751000  1.0
  S  S136  1  0.07303000  0.61844000  0.23229000  1.0
  S  S137  1  0.92697000  0.38156000  0.73228000  1.0
  S  S138  1  0.78625000  0.85096000  0.18841000  1.0
  S  S139  1  0.21375000  0.14903000  0.68841000  1.0
