# generated using pymatgen
data_HgH16C22N6(Cl2O)2
_symmetry_space_group_name_H-M   'P 1'
_cell_length_a   3.80937000
_cell_length_b   14.84680000
_cell_length_c   20.95500000
_cell_angle_alpha   90.70280000
_cell_angle_beta   90.00000000
_cell_angle_gamma   90.00000000
_symmetry_Int_Tables_number   1
_chemical_formula_structural   HgH16C22N6(Cl2O)2
_chemical_formula_sum   'Hg2 H32 C44 N12 Cl8 O4'
_cell_volume   1185.06182467
_cell_formula_units_Z   2
loop_
 _symmetry_equiv_pos_site_id
 _symmetry_equiv_pos_as_xyz
  1  'x, y, z'
loop_
 _atom_site_type_symbol
 _atom_site_label
 _atom_site_symmetry_multiplicity
 _atom_site_fract_x
 _atom_site_fract_y
 _atom_site_fract_z
 _atom_site_occupancy
  Hg  Hg0  1  0.00000000  0.00000000  0.00000000  1.0
  Hg  Hg1  1  0.49999000  0.50000000  0.50001000  1.0
  H  H2  1  0.37655000  0.17508000  0.76945000  1.0
  H  H3  1  0.87655000  0.32492000  0.73055000  1.0
  H  H4  1  0.62345000  0.82492000  0.23055000  1.0
  H  H5  1  0.12345000  0.67508000  0.26945000  1.0
  H  H6  1  0.28141000  0.04697000  0.84746000  1.0
  H  H7  1  0.78142000  0.45303000  0.65254000  1.0
  H  H8  1  0.71859000  0.95303000  0.15254000  1.0
  H  H9  1  0.21859000  0.54697000  0.34746000  1.0
  H  H10  1  0.81313000  0.22538000  0.97571000  1.0
  H  H11  1  0.31313000  0.27462000  0.52429000  1.0
  H  H12  1  0.18687000  0.77462000  0.02429000  1.0
  H  H13  1  0.68688000  0.72538000  0.47571000  1.0
  H  H14  1  0.10594000  0.71441000  0.76897000  1.0
  H  H15  1  0.60594000  0.78559000  0.73103000  1.0
  H  H16  1  0.89406000  0.28560000  0.23103000  1.0
  H  H17  1  0.39405000  0.21440000  0.26897000  1.0
  H  H18  1  0.83001000  0.79565000  0.86122000  1.0
  H  H19  1  0.33000000  0.70435000  0.63878000  1.0
  H  H20  1  0.16999000  0.20435000  0.13878000  1.0
  H  H21  1  0.66999000  0.29565000  0.36122000  1.0
  H  H22  1  0.61275000  0.70773000  0.95420000  1.0
  H  H23  1  0.11275000  0.79227000  0.54580000  1.0
  H  H24  1  0.38725000  0.29227000  0.04580000  1.0
  H  H25  1  0.88724000  0.20773000  0.45420000  1.0
  H  H26  1  0.67863000  0.54273000  0.95597000  1.0
  H  H27  1  0.17863000  0.95727000  0.54403000  1.0
  H  H28  1  0.32137000  0.45727000  0.04403000  1.0
  H  H29  1  0.82136000  0.04273000  0.45597000  1.0
  H  H30  1  0.12195000  0.41576000  0.82510000  1.0
  H  H31  1  0.62195000  0.08424000  0.67490000  1.0
  H  H32  1  0.87806000  0.58424000  0.17490000  1.0
  H  H33  1  0.37805000  0.91576000  0.32510000  1.0
  C  C34  1  0.24820000  0.18619000  0.81553000  1.0
  C  C35  1  0.74820000  0.31381000  0.68447000  1.0
  C  C36  1  0.75180000  0.81381000  0.18447000  1.0
  C  C37  1  0.25180000  0.68619000  0.31553000  1.0
  C  C38  1  0.19600000  0.11573000  0.85812000  1.0
  C  C39  1  0.69601000  0.38427000  0.64188000  1.0
  C  C40  1  0.80399000  0.88427000  0.14188000  1.0
  C  C41  1  0.30400000  0.61573000  0.35812000  1.0
  C  C42  1  0.93696000  0.21398000  0.92936000  1.0
  C  C43  1  0.43696000  0.28603000  0.57064000  1.0
  C  C44  1  0.06304000  0.78602000  0.07064000  1.0
  C  C45  1  0.56305000  0.71397000  0.42936000  1.0
  C  C46  1  0.98840000  0.28433000  0.88639000  1.0
  C  C47  1  0.48840000  0.21567000  0.61361000  1.0
  C  C48  1  0.01160000  0.71567000  0.11361000  1.0
  C  C49  1  0.51160000  0.78433000  0.38639000  1.0
  C  C50  1  0.86150000  0.37743000  0.90369000  1.0
  C  C51  1  0.36150000  0.12257000  0.59631000  1.0
  C  C52  1  0.13850000  0.62257000  0.09631000  1.0
  C  C53  1  0.63851000  0.87743000  0.40369000  1.0
  C  C54  1  0.92740000  0.53411000  0.86371000  1.0
  C  C55  1  0.42739000  0.96589000  0.63629000  1.0
  C  C56  1  0.07261000  0.46589000  0.13629000  1.0
  C  C57  1  0.57260000  0.03411000  0.36371000  1.0
  C  C58  1  0.04440000  0.58455000  0.81118000  1.0
  C  C59  1  0.54440000  0.91546000  0.68882000  1.0
  C  C60  1  0.95560000  0.41545000  0.18881000  1.0
  C  C61  1  0.45560000  0.08454000  0.31118000  1.0
  C  C62  1  0.01083000  0.67771000  0.81017000  1.0
  C  C63  1  0.51082000  0.82229000  0.68983000  1.0
  C  C64  1  0.98917000  0.32229000  0.18983000  1.0
  C  C65  1  0.48918000  0.17771000  0.31016000  1.0
  C  C66  1  0.85723000  0.72266000  0.86190000  1.0
  C  C67  1  0.35722000  0.77734000  0.63810000  1.0
  C  C68  1  0.14277000  0.27734000  0.13810000  1.0
  C  C69  1  0.64277000  0.22266000  0.36190000  1.0
  C  C70  1  0.73900000  0.67370000  0.91406000  1.0
  C  C71  1  0.23899000  0.82631000  0.58594000  1.0
  C  C72  1  0.26100000  0.32630000  0.08594000  1.0
  C  C73  1  0.76100000  0.17370000  0.41406000  1.0
  C  C74  1  0.77235000  0.58042000  0.91534000  1.0
  C  C75  1  0.27234000  0.91959000  0.58466000  1.0
  C  C76  1  0.22766000  0.41958000  0.08466000  1.0
  C  C77  1  0.72765000  0.08042000  0.41534000  1.0
  N  N78  1  0.14663000  0.27042000  0.82980000  1.0
  N  N79  1  0.64662000  0.22958000  0.67020000  1.0
  N  N80  1  0.85338000  0.72958000  0.17020000  1.0
  N  N81  1  0.35338000  0.77042000  0.32980000  1.0
  N  N82  1  0.04222000  0.13036000  0.91481000  1.0
  N  N83  1  0.54222000  0.36964000  0.58519000  1.0
  N  N84  1  0.95778000  0.86964000  0.08519000  1.0
  N  N85  1  0.45778000  0.63036000  0.41481000  1.0
  N  N86  1  0.97444000  0.44090000  0.86200000  1.0
  N  N87  1  0.47444000  0.05910000  0.63800000  1.0
  N  N88  1  0.02556000  0.55910000  0.13800000  1.0
  N  N89  1  0.52556000  0.94090000  0.36200000  1.0
  Cl  Cl90  1  0.40053000  0.91002000  0.93540000  1.0
  Cl  Cl91  1  0.90053000  0.58998000  0.56460000  1.0
  Cl  Cl92  1  0.59947000  0.08998000  0.06460000  1.0
  Cl  Cl93  1  0.09948000  0.41002000  0.43540000  1.0
  Cl  Cl94  1  0.23241000  0.52954000  0.74573000  1.0
  Cl  Cl95  1  0.73241000  0.97047000  0.75427000  1.0
  Cl  Cl96  1  0.76759000  0.47046000  0.25427000  1.0
  Cl  Cl97  1  0.26759000  0.02953000  0.24572000  1.0
  O  O98  1  0.67053000  0.38993000  0.95074000  1.0
  O  O99  1  0.17052000  0.11008000  0.54926000  1.0
  O  O100  1  0.32948000  0.61007000  0.04926000  1.0
  O  O101  1  0.82948000  0.88992000  0.45074000  1.0
