# generated using pymatgen
data_TbH20C21N4O9
_symmetry_space_group_name_H-M   'P 1'
_cell_length_a   9.89792000
_cell_length_b   11.42820000
_cell_length_c   13.47500000
_cell_angle_alpha   67.51440000
_cell_angle_beta   86.42260000
_cell_angle_gamma   76.37900000
_symmetry_Int_Tables_number   1
_chemical_formula_structural   TbH20C21N4O9
_chemical_formula_sum   'Tb2 H40 C42 N8 O18'
_cell_volume   1368.09141906
_cell_formula_units_Z   2
loop_
 _symmetry_equiv_pos_site_id
 _symmetry_equiv_pos_as_xyz
  1  'x, y, z'
loop_
 _atom_site_type_symbol
 _atom_site_label
 _atom_site_symmetry_multiplicity
 _atom_site_fract_x
 _atom_site_fract_y
 _atom_site_fract_z
 _atom_site_occupancy
  Tb  Tb0  1  0.23631000  0.52953000  0.00264000  1.0
  Tb  Tb1  1  0.76369000  0.47047000  0.99736000  1.0
  H  H2  1  0.00577000  0.87528000  0.54352000  1.0
  H  H3  1  0.99423000  0.12473000  0.45647000  1.0
  H  H4  1  0.96264000  0.75108000  0.73495000  1.0
  H  H5  1  0.03736000  0.24892000  0.26504000  1.0
  H  H6  1  0.54632000  0.99202000  0.68418000  1.0
  H  H7  1  0.45367000  0.00797000  0.31582000  1.0
  H  H8  1  0.70392000  0.16578000  0.33371000  1.0
  H  H9  1  0.29608000  0.83422000  0.66629000  1.0
  H  H10  1  0.29401000  0.41737000  0.29469000  1.0
  H  H11  1  0.70599000  0.58264000  0.70531000  1.0
  H  H12  1  0.26694000  0.30791000  0.49301000  1.0
  H  H13  1  0.73306000  0.69209000  0.50698000  1.0
  H  H14  1  0.24439000  0.63429000  0.20649000  1.0
  H  H15  1  0.75560000  0.36571000  0.79351000  1.0
  H  H16  1  0.25740000  0.86807000  0.28551000  1.0
  H  H17  1  0.74259000  0.13193000  0.71449000  1.0
  H  H18  1  0.43187000  0.77466000  0.30557000  1.0
  H  H19  1  0.56813000  0.22534000  0.69443000  1.0
  H  H20  1  0.28991000  0.69520000  0.32885000  1.0
  H  H21  1  0.71009000  0.30480000  0.67115000  1.0
  H  H22  1  0.49067000  0.88881000  0.10930000  1.0
  H  H23  1  0.50933000  0.11119000  0.89070000  1.0
  H  H24  1  0.32193000  0.99292000  0.08638000  1.0
  H  H25  1  0.67808000  0.00708000  0.91363000  1.0
  H  H26  1  0.37762000  0.89369000  0.00814000  1.0
  H  H27  1  0.62238000  0.10632000  0.99187000  1.0
  H  H28  1  0.90209000  0.44884000  0.66815000  1.0
  H  H29  1  0.09791000  0.55114000  0.33185000  1.0
  H  H30  1  0.25436000  0.57111000  0.73509000  1.0
  H  H31  1  0.74564000  0.42888000  0.26491000  1.0
  H  H32  1  0.32254000  0.61223000  0.54433000  1.0
  H  H33  1  0.67746000  0.38777000  0.45567000  1.0
  H  H34  1  0.96036000  0.70991000  0.91460000  1.0
  H  H35  1  0.03964000  0.29009000  0.08540000  1.0
  H  H36  1  0.04788000  0.78316000  0.95819000  1.0
  H  H37  1  0.95212000  0.21684000  0.04181000  1.0
  H  H38  1  0.48944000  0.39466000  0.93682000  1.0
  H  H39  1  0.51056000  0.60534000  0.06318000  1.0
  H  H40  1  0.41037000  0.28704000  0.01112000  1.0
  H  H41  1  0.58963000  0.71297000  0.98888000  1.0
  C  C42  1  0.71385000  0.78811000  0.83815000  1.0
  C  C43  1  0.28615000  0.21189000  0.16185000  1.0
  C  C44  1  0.90420000  0.89831000  0.57689000  1.0
  C  C45  1  0.09580000  0.10169000  0.42310000  1.0
  C  C46  1  0.88057000  0.82873000  0.68421000  1.0
  C  C47  1  0.11943000  0.17128000  0.31579000  1.0
  C  C48  1  0.74981000  0.86209000  0.72466000  1.0
  C  C49  1  0.25019000  0.13791000  0.27534000  1.0
  C  C50  1  0.64957000  0.96409000  0.65589000  1.0
  C  C51  1  0.35043000  0.03591000  0.34410000  1.0
  C  C52  1  0.68326000  0.02983000  0.54952000  1.0
  C  C53  1  0.31674000  0.97017000  0.45047000  1.0
  C  C54  1  0.57950000  0.14079000  0.47531000  1.0
  C  C55  1  0.42050000  0.85921000  0.52469000  1.0
  C  C56  1  0.60565000  0.19999000  0.36585000  1.0
  C  C57  1  0.39435000  0.80001000  0.63415000  1.0
  C  C58  1  0.50301000  0.30229000  0.29961000  1.0
  C  C59  1  0.49699000  0.69771000  0.70039000  1.0
  C  C60  1  0.37778000  0.34101000  0.34493000  1.0
  C  C61  1  0.62222000  0.65899000  0.65507000  1.0
  C  C62  1  0.36240000  0.27834000  0.45494000  1.0
  C  C63  1  0.63759000  0.72167000  0.54506000  1.0
  C  C64  1  0.52549000  0.37233000  0.18228000  1.0
  C  C65  1  0.47451000  0.62767000  0.81771000  1.0
  C  C66  1  0.28082000  0.70970000  0.13870000  1.0
  C  C67  1  0.71917000  0.29030000  0.86130000  1.0
  C  C68  1  0.32698000  0.78176000  0.27781000  1.0
  C  C69  1  0.67302000  0.21824000  0.72219000  1.0
  C  C70  1  0.38237000  0.89864000  0.08733000  1.0
  C  C71  1  0.61763000  0.10136000  0.91268000  1.0
  C  C72  1  0.02119000  0.48522000  0.82782000  1.0
  C  C73  1  0.97881000  0.51477000  0.17218000  1.0
  C  C74  1  0.04053000  0.51076000  0.53901000  1.0
  C  C75  1  0.95947000  0.48923000  0.46099000  1.0
  C  C76  1  0.99603000  0.48482000  0.64414000  1.0
  C  C77  1  0.00398000  0.51517000  0.35587000  1.0
  C  C78  1  0.07230000  0.50638000  0.71628000  1.0
  C  C79  1  0.92770000  0.49361000  0.28372000  1.0
  C  C80  1  0.19276000  0.55227000  0.68109000  1.0
  C  C81  1  0.80724000  0.44772000  0.31892000  1.0
  C  C82  1  0.22945000  0.57548000  0.57460000  1.0
  C  C83  1  0.77055000  0.42452000  0.42540000  1.0
  N  N84  1  0.80894000  0.99687000  0.51033000  1.0
  N  N85  1  0.19106000  0.00314000  0.48966000  1.0
  N  N86  1  0.46022000  0.18104000  0.51939000  1.0
  N  N87  1  0.53978000  0.81896000  0.48061000  1.0
  N  N88  1  0.32833000  0.79323000  0.16627000  1.0
  N  N89  1  0.67167000  0.20677000  0.83373000  1.0
  N  N90  1  0.15618000  0.55617000  0.50424000  1.0
  N  N91  1  0.84381000  0.44382000  0.49577000  1.0
  O  O92  1  0.80450000  0.68434000  0.89375000  1.0
  O  O93  1  0.19550000  0.31565000  0.10624000  1.0
  O  O94  1  0.59844000  0.82874000  0.87251000  1.0
  O  O95  1  0.40156000  0.17127000  0.12749000  1.0
  O  O96  1  0.64677000  0.35246000  0.14706000  1.0
  O  O97  1  0.35323000  0.64754000  0.85294000  1.0
  O  O98  1  0.42030000  0.45397000  0.12530000  1.0
  O  O99  1  0.57971000  0.54604000  0.87470000  1.0
  O  O100  1  0.90304000  0.45776000  0.84951000  1.0
  O  O101  1  0.09696000  0.54223000  0.15049000  1.0
  O  O102  1  0.09703000  0.49843000  0.89324000  1.0
  O  O103  1  0.90297000  0.50157000  0.10676000  1.0
  O  O104  1  0.27575000  0.71299000  0.04445000  1.0
  O  O105  1  0.72424000  0.28702000  0.95555000  1.0
  O  O106  1  0.05503000  0.72421000  0.92091000  1.0
  O  O107  1  0.94497000  0.27579000  0.07909000  1.0
  O  O108  1  0.39861000  0.37211000  0.94682000  1.0
  O  O109  1  0.60140000  0.62789000  0.05319000  1.0
