# generated using pymatgen
data_CuH12C6IN2
_symmetry_space_group_name_H-M   'P 1'
_cell_length_a   8.53281000
_cell_length_b   8.53283000
_cell_length_c   11.69550000
_cell_angle_alpha   90.00000000
_cell_angle_beta   89.99980000
_cell_angle_gamma   94.23450000
_symmetry_Int_Tables_number   1
_chemical_formula_structural   CuH12C6IN2
_chemical_formula_sum   'Cu4 H48 C24 I4 N8'
_cell_volume   849.21332940
_cell_formula_units_Z   4
loop_
 _symmetry_equiv_pos_site_id
 _symmetry_equiv_pos_as_xyz
  1  'x, y, z'
loop_
 _atom_site_type_symbol
 _atom_site_label
 _atom_site_symmetry_multiplicity
 _atom_site_fract_x
 _atom_site_fract_y
 _atom_site_fract_z
 _atom_site_occupancy
  Cu  Cu0  1  0.89800000  0.10200000  0.98393000  1.0
  Cu  Cu1  1  0.60200000  0.39800000  0.48393000  1.0
  Cu  Cu2  1  0.10200000  0.89800000  0.01607000  1.0
  Cu  Cu3  1  0.39799000  0.60199000  0.51607000  1.0
  H  H4  1  0.60733000  0.03538000  0.13826000  1.0
  H  H5  1  0.89267000  0.46463000  0.63826000  1.0
  H  H6  1  0.03537000  0.60733000  0.86174000  1.0
  H  H7  1  0.46462000  0.89267000  0.36174000  1.0
  H  H8  1  0.39267000  0.96462000  0.86174000  1.0
  H  H9  1  0.10733000  0.53537000  0.36174000  1.0
  H  H10  1  0.96463000  0.39267000  0.13826000  1.0
  H  H11  1  0.53538000  0.10733000  0.63826000  1.0
  H  H12  1  0.57319000  0.21608000  0.07170000  1.0
  H  H13  1  0.92682000  0.28392000  0.57170000  1.0
  H  H14  1  0.21608000  0.57318000  0.92830000  1.0
  H  H15  1  0.28392000  0.92681000  0.42830000  1.0
  H  H16  1  0.42681000  0.78392000  0.92830000  1.0
  H  H17  1  0.07319000  0.71608000  0.42830000  1.0
  H  H18  1  0.78393000  0.42681000  0.07170000  1.0
  H  H19  1  0.71608000  0.07319000  0.57170000  1.0
  H  H20  1  0.00148000  0.15191000  0.22965000  1.0
  H  H21  1  0.49853000  0.34809000  0.72965000  1.0
  H  H22  1  0.15191000  0.00147000  0.77035000  1.0
  H  H23  1  0.34808000  0.49853000  0.27035000  1.0
  H  H24  1  0.99852000  0.84808000  0.77035000  1.0
  H  H25  1  0.50147000  0.65191000  0.27035000  1.0
  H  H26  1  0.84809000  0.99853000  0.22965000  1.0
  H  H27  1  0.65192000  0.50148000  0.72965000  1.0
  H  H28  1  0.75206000  0.09457000  0.40156000  1.0
  H  H29  1  0.74794000  0.40544000  0.90156000  1.0
  H  H30  1  0.09457000  0.75206000  0.59844000  1.0
  H  H31  1  0.40543000  0.74794000  0.09844000  1.0
  H  H32  1  0.24794000  0.90543000  0.59844000  1.0
  H  H33  1  0.25205000  0.59457000  0.09844000  1.0
  H  H34  1  0.90544000  0.24794000  0.40156000  1.0
  H  H35  1  0.59457000  0.25206000  0.90156000  1.0
  H  H36  1  0.47688000  0.31259000  0.24234000  1.0
  H  H37  1  0.02312000  0.18741000  0.74234000  1.0
  H  H38  1  0.31259000  0.47688000  0.75766000  1.0
  H  H39  1  0.18740000  0.02312000  0.25766000  1.0
  H  H40  1  0.52312000  0.68741000  0.75766000  1.0
  H  H41  1  0.97688000  0.81259000  0.25766000  1.0
  H  H42  1  0.68741000  0.52312000  0.24234000  1.0
  H  H43  1  0.81259000  0.97688000  0.74234000  1.0
  H  H44  1  0.50809000  0.13489000  0.31198000  1.0
  H  H45  1  0.99192000  0.36512000  0.81198000  1.0
  H  H46  1  0.13489000  0.50808000  0.68802000  1.0
  H  H47  1  0.36511000  0.99192000  0.18802000  1.0
  H  H48  1  0.49192000  0.86511000  0.68802000  1.0
  H  H49  1  0.00808000  0.63489000  0.18802000  1.0
  H  H50  1  0.86512000  0.49192000  0.31198000  1.0
  H  H51  1  0.63489000  0.00809000  0.81198000  1.0
  C  C52  1  0.62889000  0.16355000  0.14542000  1.0
  C  C53  1  0.87112000  0.33645000  0.64542000  1.0
  C  C54  1  0.16355000  0.62888000  0.85458000  1.0
  C  C55  1  0.33645000  0.87112000  0.35458000  1.0
  C  C56  1  0.37112000  0.83645000  0.85458000  1.0
  C  C57  1  0.12888000  0.66355000  0.35458000  1.0
  C  C58  1  0.83645000  0.37112000  0.14542000  1.0
  C  C59  1  0.66355000  0.12888000  0.64542000  1.0
  C  C60  1  0.87398000  0.12602000  0.23722000  1.0
  C  C61  1  0.62602000  0.37398000  0.73722000  1.0
  C  C62  1  0.12602000  0.87398000  0.76277000  1.0
  C  C63  1  0.37398000  0.62602000  0.26278000  1.0
  C  C64  1  0.80995000  0.19005000  0.35050000  1.0
  C  C65  1  0.69005000  0.30995000  0.85050000  1.0
  C  C66  1  0.19005000  0.80995000  0.64950000  1.0
  C  C67  1  0.30995000  0.69005000  0.14950000  1.0
  C  C68  1  0.56470000  0.22789000  0.25851000  1.0
  C  C69  1  0.93530000  0.27211000  0.75851000  1.0
  C  C70  1  0.22788000  0.56469000  0.74149000  1.0
  C  C71  1  0.27211000  0.93530000  0.24149000  1.0
  C  C72  1  0.43530000  0.77211000  0.74149000  1.0
  C  C73  1  0.06469000  0.72789000  0.24149000  1.0
  C  C74  1  0.77212000  0.43530000  0.25851000  1.0
  C  C75  1  0.72789000  0.06470000  0.75851000  1.0
  I  I76  1  0.80001000  0.80000000  0.00001000  1.0
  I  I77  1  0.70000000  0.69999000  0.50000000  1.0
  I  I78  1  0.20000000  0.20000000  0.00000000  1.0
  I  I79  1  0.30000000  0.30001000  0.50000000  1.0
  N  N80  1  0.80121000  0.19879000  0.13721000  1.0
  N  N81  1  0.69879000  0.30121000  0.63721000  1.0
  N  N82  1  0.19879000  0.80120000  0.86279000  1.0
  N  N83  1  0.30121000  0.69879000  0.36279000  1.0
  N  N84  1  0.69302000  0.30699000  0.32774000  1.0
  N  N85  1  0.80699000  0.19302000  0.82775000  1.0
  N  N86  1  0.30698000  0.69301000  0.67226000  1.0
  N  N87  1  0.19301000  0.80698000  0.17226000  1.0
