# generated using pymatgen
data_CdH12C9N2O5
_symmetry_space_group_name_H-M   'P 1'
_cell_length_a   8.39875000
_cell_length_b   10.28980000
_cell_length_c   16.24870000
_cell_angle_alpha   94.44450000
_cell_angle_beta   89.99920000
_cell_angle_gamma   89.99700000
_symmetry_Int_Tables_number   1
_chemical_formula_structural   CdH12C9N2O5
_chemical_formula_sum   'Cd4 H48 C36 N8 O20'
_cell_volume   1400.01361159
_cell_formula_units_Z   4
loop_
 _symmetry_equiv_pos_site_id
 _symmetry_equiv_pos_as_xyz
  1  'x, y, z'
loop_
 _atom_site_type_symbol
 _atom_site_label
 _atom_site_symmetry_multiplicity
 _atom_site_fract_x
 _atom_site_fract_y
 _atom_site_fract_z
 _atom_site_occupancy
  Cd  Cd0  1  0.03175000  0.50547000  0.19170000  1.0
  Cd  Cd1  1  0.53175000  0.49453000  0.30831000  1.0
  Cd  Cd2  1  0.96826000  0.49454000  0.80829000  1.0
  Cd  Cd3  1  0.46825000  0.50546000  0.69169000  1.0
  H  H4  1  0.77809000  0.74626000  0.24457000  1.0
  H  H5  1  0.27813000  0.25374000  0.25545000  1.0
  H  H6  1  0.22190000  0.25375000  0.75545000  1.0
  H  H7  1  0.72186000  0.74628000  0.74454000  1.0
  H  H8  1  0.73967000  0.92350000  0.35829000  1.0
  H  H9  1  0.23969000  0.07651000  0.14173000  1.0
  H  H10  1  0.26032000  0.07650000  0.64173000  1.0
  H  H11  1  0.76028000  0.92354000  0.85824000  1.0
  H  H12  1  0.21812000  0.84639000  0.43981000  1.0
  H  H13  1  0.71812000  0.15358000  0.06019000  1.0
  H  H14  1  0.78188000  0.15361000  0.56020000  1.0
  H  H15  1  0.28190000  0.84639000  0.93982000  1.0
  H  H16  1  0.23908000  0.67696000  0.32236000  1.0
  H  H17  1  0.73909000  0.32298000  0.17765000  1.0
  H  H18  1  0.76093000  0.32305000  0.67765000  1.0
  H  H19  1  0.26093000  0.67696000  0.82237000  1.0
  H  H20  1  0.98844000  0.10194000  0.02687000  1.0
  H  H21  1  0.48841000  0.89806000  0.47313000  1.0
  H  H22  1  0.01154000  0.89808000  0.97311000  1.0
  H  H23  1  0.51154000  0.10193000  0.52688000  1.0
  H  H24  1  0.16930000  0.15510000  0.98191000  1.0
  H  H25  1  0.66928000  0.84490000  0.51809000  1.0
  H  H26  1  0.83069000  0.84493000  0.01808000  1.0
  H  H27  1  0.33067000  0.15508000  0.48192000  1.0
  H  H28  1  0.98647000  0.21157000  0.94604000  1.0
  H  H29  1  0.48644000  0.78843000  0.55397000  1.0
  H  H30  1  0.01353000  0.78845000  0.05396000  1.0
  H  H31  1  0.51352000  0.21154000  0.44603000  1.0
  H  H32  1  0.46798000  0.65271000  0.03647000  1.0
  H  H33  1  0.96799000  0.34727000  0.46353000  1.0
  H  H34  1  0.53208000  0.34725000  0.96352000  1.0
  H  H35  1  0.03206000  0.65278000  0.53647000  1.0
  H  H36  1  0.32552000  0.75080000  0.09334000  1.0
  H  H37  1  0.82554000  0.24918000  0.40666000  1.0
  H  H38  1  0.67452000  0.24916000  0.90663000  1.0
  H  H39  1  0.17451000  0.75085000  0.59337000  1.0
  H  H40  1  0.26715000  0.59543000  0.04725000  1.0
  H  H41  1  0.76715000  0.40456000  0.45275000  1.0
  H  H42  1  0.73290000  0.40452000  0.95272000  1.0
  H  H43  1  0.23290000  0.59548000  0.54727000  1.0
  H  H44  1  0.85167000  0.58709000  0.05191000  1.0
  H  H45  1  0.35167000  0.41291000  0.44810000  1.0
  H  H46  1  0.14832000  0.41293000  0.94809000  1.0
  H  H47  1  0.64831000  0.58707000  0.55190000  1.0
  H  H48  1  0.72847000  0.58929000  0.13073000  1.0
  H  H49  1  0.22847000  0.41070000  0.36926000  1.0
  H  H50  1  0.27153000  0.41071000  0.86927000  1.0
  H  H51  1  0.77153000  0.58929000  0.63072000  1.0
  C  C52  1  0.87298000  0.77243000  0.28857000  1.0
  C  C53  1  0.37300000  0.22756000  0.21145000  1.0
  C  C54  1  0.12700000  0.22758000  0.71144000  1.0
  C  C55  1  0.62698000  0.77245000  0.78854000  1.0
  C  C56  1  0.85174000  0.87041000  0.35175000  1.0
  C  C57  1  0.35176000  0.12959000  0.14827000  1.0
  C  C58  1  0.14826000  0.12959000  0.64828000  1.0
  C  C59  1  0.64821000  0.87045000  0.85171000  1.0
  C  C60  1  0.97578000  0.89719000  0.40816000  1.0
  C  C61  1  0.47578000  0.10282000  0.09184000  1.0
  C  C62  1  0.02423000  0.10281000  0.59185000  1.0
  C  C63  1  0.52422000  0.89719000  0.90815000  1.0
  C  C64  1  0.11849000  0.82718000  0.39789000  1.0
  C  C65  1  0.61851000  0.17280000  0.10211000  1.0
  C  C66  1  0.88151000  0.17282000  0.60212000  1.0
  C  C67  1  0.38149000  0.82718000  0.89789000  1.0
  C  C68  1  0.12978000  0.73255000  0.33263000  1.0
  C  C69  1  0.62981000  0.26740000  0.16738000  1.0
  C  C70  1  0.87021000  0.26745000  0.66738000  1.0
  C  C71  1  0.37021000  0.73256000  0.83264000  1.0
  C  C72  1  0.05663000  0.30014000  0.06496000  1.0
  C  C73  1  0.55661000  0.69986000  0.43503000  1.0
  C  C74  1  0.94337000  0.69987000  0.93503000  1.0
  C  C75  1  0.44337000  0.30013000  0.56497000  1.0
  C  C76  1  0.04857000  0.18427000  0.00162000  1.0
  C  C77  1  0.54855000  0.81573000  0.49838000  1.0
  C  C78  1  0.95141000  0.81575000  0.99837000  1.0
  C  C79  1  0.45140000  0.18426000  0.50163000  1.0
  C  C80  1  0.40916000  0.59095000  0.15695000  1.0
  C  C81  1  0.90917000  0.40904000  0.34306000  1.0
  C  C82  1  0.59086000  0.40904000  0.84305000  1.0
  C  C83  1  0.09086000  0.59097000  0.65694000  1.0
  C  C84  1  0.36534000  0.64994000  0.07793000  1.0
  C  C85  1  0.86534000  0.35004000  0.42207000  1.0
  C  C86  1  0.63471000  0.35003000  0.92205000  1.0
  C  C87  1  0.13470000  0.64999000  0.57794000  1.0
  N  N88  1  0.00950000  0.70479000  0.27906000  1.0
  N  N89  1  0.50953000  0.29518000  0.22095000  1.0
  N  N90  1  0.99050000  0.29522000  0.72095000  1.0
  N  N91  1  0.49047000  0.70480000  0.77906000  1.0
  N  N92  1  0.94648000  0.99535000  0.47251000  1.0
  N  N93  1  0.44649000  0.00466000  0.02750000  1.0
  N  N94  1  0.05352000  0.00465000  0.52750000  1.0
  N  N95  1  0.55349000  0.99535000  0.97249000  1.0
  O  O96  1  0.30156000  0.54816000  0.20334000  1.0
  O  O97  1  0.80157000  0.45181000  0.29666000  1.0
  O  O98  1  0.69845000  0.45183000  0.79666000  1.0
  O  O99  1  0.19844000  0.54817000  0.70334000  1.0
  O  O100  1  0.12052000  0.40586000  0.04504000  1.0
  O  O101  1  0.62052000  0.59415000  0.45495000  1.0
  O  O102  1  0.87946000  0.59415000  0.95495000  1.0
  O  O103  1  0.37946000  0.40584000  0.54504000  1.0
  O  O104  1  0.99896000  0.28912000  0.13662000  1.0
  O  O105  1  0.49893000  0.71088000  0.36337000  1.0
  O  O106  1  0.00103000  0.71089000  0.86337000  1.0
  O  O107  1  0.50105000  0.28912000  0.63664000  1.0
  O  O108  1  0.55518000  0.58715000  0.17853000  1.0
  O  O109  1  0.05518000  0.41282000  0.32147000  1.0
  O  O110  1  0.44483000  0.41283000  0.82147000  1.0
  O  O111  1  0.94484000  0.58719000  0.67851000  1.0
  O  O112  1  0.84245000  0.59265000  0.11408000  1.0
  O  O113  1  0.34244000  0.40735000  0.38592000  1.0
  O  O114  1  0.15755000  0.40736000  0.88592000  1.0
  O  O115  1  0.65755000  0.59264000  0.61407000  1.0
