# generated using pymatgen
data_VH12C12SO6
_symmetry_space_group_name_H-M   'P 1'
_cell_length_a   6.75252000
_cell_length_b   12.52010000
_cell_length_c   16.86990000
_cell_angle_alpha   89.99990000
_cell_angle_beta   89.99990000
_cell_angle_gamma   89.99870000
_symmetry_Int_Tables_number   1
_chemical_formula_structural   VH12C12SO6
_chemical_formula_sum   'V4 H48 C48 S4 O24'
_cell_volume   1426.21889216
_cell_formula_units_Z   4
loop_
 _symmetry_equiv_pos_site_id
 _symmetry_equiv_pos_as_xyz
  1  'x, y, z'
loop_
 _atom_site_type_symbol
 _atom_site_label
 _atom_site_symmetry_multiplicity
 _atom_site_fract_x
 _atom_site_fract_y
 _atom_site_fract_z
 _atom_site_occupancy
  V  V0  1  0.93119000  0.76860000  0.99876000  1.0
  V  V1  1  0.56881000  0.23141000  0.49876000  1.0
  V  V2  1  0.06885000  0.26859000  0.50124000  1.0
  V  V3  1  0.43118000  0.73141000  0.00123000  1.0
  H  H4  1  0.55036000  0.94405000  0.17329000  1.0
  H  H5  1  0.94958000  0.05595000  0.67329000  1.0
  H  H6  1  0.44962000  0.44405000  0.32671000  1.0
  H  H7  1  0.05040000  0.55597000  0.82670000  1.0
  H  H8  1  0.57784000  0.05367000  0.29611000  1.0
  H  H9  1  0.92215000  0.94633000  0.79611000  1.0
  H  H10  1  0.42216000  0.55367000  0.20389000  1.0
  H  H11  1  0.07783000  0.44633000  0.70388000  1.0
  H  H12  1  0.93460000  0.03041000  0.15169000  1.0
  H  H13  1  0.56537000  0.96959000  0.65167000  1.0
  H  H14  1  0.06539000  0.53040000  0.34832000  1.0
  H  H15  1  0.43463000  0.46959000  0.84832000  1.0
  H  H16  1  0.96289000  0.14199000  0.27504000  1.0
  H  H17  1  0.53710000  0.85802000  0.77503000  1.0
  H  H18  1  0.03712000  0.64197000  0.22497000  1.0
  H  H19  1  0.46291000  0.35801000  0.72498000  1.0
  H  H20  1  0.01253000  0.78028000  0.38501000  1.0
  H  H21  1  0.48745000  0.21968000  0.88500000  1.0
  H  H22  1  0.98747000  0.28029000  0.11499000  1.0
  H  H23  1  0.51251000  0.71971000  0.61497000  1.0
  H  H24  1  0.08462000  0.89869000  0.33274000  1.0
  H  H25  1  0.41540000  0.10126000  0.83275000  1.0
  H  H26  1  0.91539000  0.39870000  0.16726000  1.0
  H  H27  1  0.58462000  0.60131000  0.66724000  1.0
  H  H28  1  0.92533000  0.01240000  0.43656000  1.0
  H  H29  1  0.57467000  0.98757000  0.93658000  1.0
  H  H30  1  0.07468000  0.51241000  0.06343000  1.0
  H  H31  1  0.42530000  0.48760000  0.56342000  1.0
  H  H32  1  0.09966000  0.92379000  0.48075000  1.0
  H  H33  1  0.40035000  0.07619000  0.98076000  1.0
  H  H34  1  0.90035000  0.42380000  0.01925000  1.0
  H  H35  1  0.59963000  0.57621000  0.51923000  1.0
  H  H36  1  0.50794000  0.81356000  0.32489000  1.0
  H  H37  1  0.99207000  0.18642000  0.82489000  1.0
  H  H38  1  0.49209000  0.31357000  0.17511000  1.0
  H  H39  1  0.00793000  0.68646000  0.67510000  1.0
  H  H40  1  0.67293000  0.73064000  0.38060000  1.0
  H  H41  1  0.82705000  0.26934000  0.88058000  1.0
  H  H42  1  0.32709000  0.23064000  0.11941000  1.0
  H  H43  1  0.17291000  0.76938000  0.61940000  1.0
  H  H44  1  0.44823000  0.82697000  0.47133000  1.0
  H  H45  1  0.05176000  0.17303000  0.97133000  1.0
  H  H46  1  0.55178000  0.32697000  0.02867000  1.0
  H  H47  1  0.94819000  0.67304000  0.52867000  1.0
  H  H48  1  0.52184000  0.95335000  0.43059000  1.0
  H  H49  1  0.97817000  0.04664000  0.93059000  1.0
  H  H50  1  0.47815000  0.45335000  0.06941000  1.0
  H  H51  1  0.02184000  0.54666000  0.56942000  1.0
  C  C52  1  0.22227000  0.90392000  0.08963000  1.0
  C  C53  1  0.27773000  0.09608000  0.58962000  1.0
  C  C54  1  0.77772000  0.40393000  0.41039000  1.0
  C  C55  1  0.72227000  0.59609000  0.91038000  1.0
  C  C56  1  0.24053000  0.98036000  0.15619000  1.0
  C  C57  1  0.25944000  0.01962000  0.65617000  1.0
  C  C58  1  0.75946000  0.48039000  0.34383000  1.0
  C  C59  1  0.74056000  0.51962000  0.84383000  1.0
  C  C60  1  0.42337000  0.98860000  0.19548000  1.0
  C  C61  1  0.07661000  0.01139000  0.69548000  1.0
  C  C62  1  0.57664000  0.48860000  0.30452000  1.0
  C  C63  1  0.92339000  0.51140000  0.80451000  1.0
  C  C64  1  0.43852000  0.05003000  0.26370000  1.0
  C  C65  1  0.06147000  0.94996000  0.76369000  1.0
  C  C66  1  0.56148000  0.55004000  0.23631000  1.0
  C  C67  1  0.93851000  0.44997000  0.73630000  1.0
  C  C68  1  0.07449000  0.03701000  0.18362000  1.0
  C  C69  1  0.42550000  0.96299000  0.68361000  1.0
  C  C70  1  0.92550000  0.53702000  0.31639000  1.0
  C  C71  1  0.57450000  0.46299000  0.81639000  1.0
  C  C72  1  0.09025000  0.09882000  0.25172000  1.0
  C  C73  1  0.40975000  0.90119000  0.75170000  1.0
  C  C74  1  0.90975000  0.59882000  0.24830000  1.0
  C  C75  1  0.59025000  0.40118000  0.74830000  1.0
  C  C76  1  0.27088000  0.10346000  0.29293000  1.0
  C  C77  1  0.22912000  0.89654000  0.79292000  1.0
  C  C78  1  0.72912000  0.60346000  0.20708000  1.0
  C  C79  1  0.77088000  0.39655000  0.70708000  1.0
  C  C80  1  0.28249000  0.15983000  0.36996000  1.0
  C  C81  1  0.21753000  0.84017000  0.86995000  1.0
  C  C82  1  0.71753000  0.65985000  0.13005000  1.0
  C  C83  1  0.78248000  0.34016000  0.63006000  1.0
  C  C84  1  0.97139000  0.86402000  0.37189000  1.0
  C  C85  1  0.52861000  0.13595000  0.87189000  1.0
  C  C86  1  0.02862000  0.36403000  0.12811000  1.0
  C  C87  1  0.47138000  0.63598000  0.62809000  1.0
  C  C88  1  0.95845000  0.92801000  0.44851000  1.0
  C  C89  1  0.54155000  0.07198000  0.94851000  1.0
  C  C90  1  0.04156000  0.42801000  0.05149000  1.0
  C  C91  1  0.45843000  0.57199000  0.55148000  1.0
  C  C92  1  0.63157000  0.81428000  0.36734000  1.0
  C  C93  1  0.86843000  0.18571000  0.86733000  1.0
  C  C94  1  0.36844000  0.31428000  0.13267000  1.0
  C  C95  1  0.13156000  0.68574000  0.63266000  1.0
  C  C96  1  0.57025000  0.87121000  0.44320000  1.0
  C  C97  1  0.92975000  0.12878000  0.94320000  1.0
  C  C98  1  0.42975000  0.37121000  0.05681000  1.0
  C  C99  1  0.07023000  0.62880000  0.55680000  1.0
  S  S100  1  0.77068000  0.87472000  0.51472000  1.0
  S  S101  1  0.72933000  0.12528000  0.01472000  1.0
  S  S102  1  0.22933000  0.37472000  0.98528000  1.0
  S  S103  1  0.27066000  0.62529000  0.48527000  1.0
  O  O104  1  0.70169000  0.81048000  0.98874000  1.0
  O  O105  1  0.79830000  0.18952000  0.48875000  1.0
  O  O106  1  0.29833000  0.31048000  0.51126000  1.0
  O  O107  1  0.20169000  0.68952000  0.01125000  1.0
  O  O108  1  0.45268000  0.16766000  0.40260000  1.0
  O  O109  1  0.04734000  0.83234000  0.90259000  1.0
  O  O110  1  0.54734000  0.66768000  0.09741000  1.0
  O  O111  1  0.95267000  0.33234000  0.59741000  1.0
  O  O112  1  0.04919000  0.88316000  0.06308000  1.0
  O  O113  1  0.45080000  0.11684000  0.56308000  1.0
  O  O114  1  0.95081000  0.38316000  0.43693000  1.0
  O  O115  1  0.54921000  0.61684000  0.93693000  1.0
  O  O116  1  0.12033000  0.19395000  0.39986000  1.0
  O  O117  1  0.37971000  0.80606000  0.89984000  1.0
  O  O118  1  0.87968000  0.69396000  0.10015000  1.0
  O  O119  1  0.62033000  0.30605000  0.60016000  1.0
  O  O120  1  0.38260000  0.86109000  0.06487000  1.0
  O  O121  1  0.11741000  0.13892000  0.56486000  1.0
  O  O122  1  0.61741000  0.36108000  0.43515000  1.0
  O  O123  1  0.88261000  0.63892000  0.93514000  1.0
  O  O124  1  0.79144000  0.86637000  0.32712000  1.0
  O  O125  1  0.70856000  0.13360000  0.82712000  1.0
  O  O126  1  0.20855000  0.36638000  0.17288000  1.0
  O  O127  1  0.29143000  0.63363000  0.67286000  1.0
