# generated using pymatgen
data_BaP3H10C3NO9
_symmetry_space_group_name_H-M   'P 1'
_cell_length_a   7.61596000
_cell_length_b   8.46908000
_cell_length_c   9.14522000
_cell_angle_alpha   101.72600000
_cell_angle_beta   95.49190000
_cell_angle_gamma   107.24800000
_symmetry_Int_Tables_number   1
_chemical_formula_structural   BaP3H10C3NO9
_chemical_formula_sum   'Ba2 P6 H20 C6 N2 O18'
_cell_volume   543.85919095
_cell_formula_units_Z   2
loop_
 _symmetry_equiv_pos_site_id
 _symmetry_equiv_pos_as_xyz
  1  'x, y, z'
loop_
 _atom_site_type_symbol
 _atom_site_label
 _atom_site_symmetry_multiplicity
 _atom_site_fract_x
 _atom_site_fract_y
 _atom_site_fract_z
 _atom_site_occupancy
  Ba  Ba0  1  0.39138000  0.22439000  0.55794000  1.0
  Ba  Ba1  1  0.60862000  0.77561000  0.44206000  1.0
  P  P2  1  0.21032000  0.83686000  0.17727000  1.0
  P  P3  1  0.78968000  0.16314000  0.82273000  1.0
  P  P4  1  0.12814000  0.81323000  0.59312000  1.0
  P  P5  1  0.87186000  0.18677000  0.40688000  1.0
  P  P6  1  0.51762000  0.61007000  0.81633000  1.0
  P  P7  1  0.48238000  0.38993000  0.18367000  1.0
  H  H8  1  0.99330000  0.79679000  0.95057000  1.0
  H  H9  1  0.00670000  0.20321000  0.04943000  1.0
  H  H10  1  0.20662000  0.96237000  0.95986000  1.0
  H  H11  1  0.79338000  0.03763000  0.04014000  1.0
  H  H12  1  0.94818000  0.61861000  0.72522000  1.0
  H  H13  1  0.05182000  0.38139000  0.27478000  1.0
  H  H14  1  0.12534000  0.54865000  0.64852000  1.0
  H  H15  1  0.87467000  0.45135000  0.35148000  1.0
  H  H16  1  0.47729000  0.84421000  0.98908000  1.0
  H  H17  1  0.52271000  0.15579000  0.01092000  1.0
  H  H18  1  0.44417000  0.87366000  0.79955000  1.0
  H  H19  1  0.55583000  0.12634000  0.20045000  1.0
  H  H20  1  0.18582000  0.59932000  0.90071000  1.0
  H  H21  1  0.81418000  0.40068000  0.09929000  1.0
  H  H22  1  0.01016000  0.69931000  0.30271000  1.0
  H  H23  1  0.98984000  0.30069000  0.69729000  1.0
  H  H24  1  0.98784000  0.99268000  0.71171000  1.0
  H  H25  1  0.01216000  0.00732000  0.28829000  1.0
  H  H26  1  0.67155000  0.62064000  0.03741000  1.0
  H  H27  1  0.32845000  0.37936000  0.96259000  1.0
  C  C28  1  0.14586000  0.83457000  0.97758000  1.0
  C  C29  1  0.85414000  0.16543000  0.02242000  1.0
  C  C30  1  0.09513000  0.66005000  0.71130000  1.0
  C  C31  1  0.90487000  0.33995000  0.28870000  1.0
  C  C32  1  0.41688000  0.78176000  0.87019000  1.0
  C  C33  1  0.58312000  0.21824000  0.12981000  1.0
  N  N34  1  0.20963000  0.71310000  0.86741000  1.0
  N  N35  1  0.79037000  0.28690000  0.13259000  1.0
  O  O36  1  0.19284000  0.00301000  0.26892000  1.0
  O  O37  1  0.80716000  0.99699000  0.73108000  1.0
  O  O38  1  0.39882000  0.81420000  0.20005000  1.0
  O  O39  1  0.60118000  0.18581000  0.79995000  1.0
  O  O40  1  0.04735000  0.67815000  0.19724000  1.0
  O  O41  1  0.95265000  0.32185000  0.80276000  1.0
  O  O42  1  0.31822000  0.85046000  0.54644000  1.0
  O  O43  1  0.68178000  0.14955000  0.45356000  1.0
  O  O44  1  0.95976000  0.73100000  0.46625000  1.0
  O  O45  1  0.04025000  0.26900000  0.53375000  1.0
  O  O46  1  0.12216000  0.98720000  0.69307000  1.0
  O  O47  1  0.87784000  0.01280000  0.30693000  1.0
  O  O48  1  0.36802000  0.44917000  0.83033000  1.0
  O  O49  1  0.63198000  0.55083000  0.16967000  1.0
  O  O50  1  0.69814000  0.66379000  0.94003000  1.0
  O  O51  1  0.30186000  0.33621000  0.05997000  1.0
  O  O52  1  0.57145000  0.59622000  0.66086000  1.0
  O  O53  1  0.42855000  0.40378000  0.33914000  1.0
