# generated using pymatgen
data_Zn4H12C28S2Br2O13
_symmetry_space_group_name_H-M   'P 1'
_cell_length_a   18.51210000
_cell_length_b   19.71480000
_cell_length_c   32.77200000
_cell_angle_alpha   85.92150000
_cell_angle_beta   73.59080000
_cell_angle_gamma   61.98970000
_symmetry_Int_Tables_number   1
_chemical_formula_structural   Zn4H12C28S2Br2O13
_chemical_formula_sum   'Zn16 H48 C112 S8 Br8 O52'
_cell_volume   10102.63928549
_cell_formula_units_Z   4
loop_
 _symmetry_equiv_pos_site_id
 _symmetry_equiv_pos_as_xyz
  1  'x, y, z'
loop_
 _atom_site_type_symbol
 _atom_site_label
 _atom_site_symmetry_multiplicity
 _atom_site_fract_x
 _atom_site_fract_y
 _atom_site_fract_z
 _atom_site_occupancy
  Zn  Zn0  1  0.87531000  0.55566000  0.51863000  1.0
  Zn  Zn1  1  0.03793000  0.48675000  0.43781000  1.0
  Zn  Zn2  1  0.04024000  0.39804000  0.52389000  1.0
  Zn  Zn3  1  0.04783000  0.55889000  0.51912000  1.0
  Zn  Zn4  1  0.62455000  0.19328000  0.73185000  1.0
  Zn  Zn5  1  0.46334000  0.34972000  0.72518000  1.0
  Zn  Zn6  1  0.45979000  0.26510000  0.81293000  1.0
  Zn  Zn7  1  0.45213000  0.19184000  0.73012000  1.0
  Zn  Zn8  1  0.46304000  0.76196000  0.31232000  1.0
  Zn  Zn9  1  0.45111000  0.69353000  0.23103000  1.0
  Zn  Zn10  1  0.62593000  0.69201000  0.22989000  1.0
  Zn  Zn11  1  0.46020000  0.85191000  0.22607000  1.0
  Zn  Zn12  1  0.03620000  0.90032000  0.02485000  1.0
  Zn  Zn13  1  0.05043000  0.05580000  0.01842000  1.0
  Zn  Zn14  1  0.87437000  0.05899000  0.01957000  1.0
  Zn  Zn15  1  0.03785000  0.98490000  0.93704000  1.0
  H  H16  1  0.90804000  0.29175000  0.60453000  1.0
  H  H17  1  0.81307000  0.24420000  0.65200000  1.0
  H  H18  1  0.54061000  0.48467000  0.62150000  1.0
  H  H19  1  0.54584000  0.52474000  0.66701000  1.0
  H  H20  1  0.64222000  0.57307000  0.61880000  1.0
  H  H21  1  0.63687000  0.53295000  0.57335000  1.0
  H  H22  1  0.19593000  0.55289000  0.34366000  1.0
  H  H23  1  0.29093000  0.60039000  0.29618000  1.0
  H  H24  1  0.35338000  0.67471000  0.43171000  1.0
  H  H25  1  0.26252000  0.76302000  0.42900000  1.0
  H  H26  1  0.16600000  0.71487000  0.47723000  1.0
  H  H27  1  0.25691000  0.62660000  0.47990000  1.0
  H  H28  1  0.90765000  0.55285000  0.34365000  1.0
  H  H29  1  0.81275000  0.60036000  0.29613000  1.0
  H  H30  1  0.54549000  0.76313000  0.42894000  1.0
  H  H31  1  0.54017000  0.67485000  0.43162000  1.0
  H  H32  1  0.63657000  0.62657000  0.47979000  1.0
  H  H33  1  0.64199000  0.71478000  0.47718000  1.0
  H  H34  1  0.20912000  0.50586000  0.59794000  1.0
  H  H35  1  0.30413000  0.45833000  0.64542000  1.0
  H  H36  1  0.33393000  0.17706000  0.63117000  1.0
  H  H37  1  0.24303000  0.21714000  0.67663000  1.0
  H  H38  1  0.14664000  0.26535000  0.62849000  1.0
  H  H39  1  0.23750000  0.22526000  0.58302000  1.0
  H  H40  1  0.59204000  0.19724000  0.90657000  1.0
  H  H41  1  0.68719000  0.14974000  0.95398000  1.0
  H  H42  1  0.95937000  0.07546000  0.81838000  1.0
  H  H43  1  0.95415000  0.98718000  0.82105000  1.0
  H  H44  1  0.85771000  0.03531000  0.77287000  1.0
  H  H45  1  0.86299000  0.12358000  0.77023000  1.0
  H  H46  1  0.29078000  0.10022000  0.79607000  1.0
  H  H47  1  0.19577000  0.05274000  0.84355000  1.0
  H  H48  1  0.16592000  0.21467000  0.97714000  1.0
  H  H49  1  0.25687000  0.12642000  0.97979000  1.0
  H  H50  1  0.35325000  0.17455000  0.93161000  1.0
  H  H51  1  0.26240000  0.26282000  0.92894000  1.0
  H  H52  1  0.29078000  0.74444000  0.15203000  1.0
  H  H53  1  0.19585000  0.79184000  0.10453000  1.0
  H  H54  1  0.25695000  0.03307000  0.07327000  1.0
  H  H55  1  0.16591000  0.07319000  0.11869000  1.0
  H  H56  1  0.26227000  0.02499000  0.16693000  1.0
  H  H57  1  0.35321000  0.98486000  0.12149000  1.0
  H  H58  1  0.59194000  0.95835000  0.14545000  1.0
  H  H59  1  0.68694000  0.00581000  0.09793000  1.0
  H  H60  1  0.95414000  0.72522000  0.08298000  1.0
  H  H61  1  0.95940000  0.76538000  0.12845000  1.0
  H  H62  1  0.86316000  0.71717000  0.17663000  1.0
  H  H63  1  0.85784000  0.67694000  0.13122000  1.0
  C  C64  1  0.86270000  0.56844000  0.43030000  1.0
  C  C65  1  0.12284000  0.31612000  0.43862000  1.0
  C  C66  1  0.86331000  0.42944000  0.56897000  1.0
  C  C67  1  0.13851000  0.43221000  0.56894000  1.0
  C  C68  1  0.87695000  0.68364000  0.56100000  1.0
  C  C69  1  0.13801000  0.56901000  0.43030000  1.0
  C  C70  1  0.63987000  0.31781000  0.68094000  1.0
  C  C71  1  0.37755000  0.43397000  0.81102000  1.0
  C  C72  1  0.63659000  0.18159000  0.81994000  1.0
  C  C73  1  0.36141000  0.18047000  0.81840000  1.0
  C  C74  1  0.62290000  0.06624000  0.68873000  1.0
  C  C75  1  0.36237000  0.32020000  0.68054000  1.0
  C  C76  1  0.36194000  0.68013000  0.31864000  1.0
  C  C77  1  0.62244000  0.56615000  0.18860000  1.0
  C  C78  1  0.63950000  0.68008000  0.31840000  1.0
  C  C79  1  0.63667000  0.82040000  0.18074000  1.0
  C  C80  1  0.37743000  0.93308000  0.31153000  1.0
  C  C81  1  0.36125000  0.81827000  0.18098000  1.0
  C  C82  1  0.13814000  0.92970000  0.06907000  1.0
  C  C83  1  0.87869000  0.18361000  0.06119000  1.0
  C  C84  1  0.86013000  0.93232000  0.06925000  1.0
  C  C85  1  0.86040000  0.06976000  0.93149000  1.0
  C  C86  1  0.12193000  0.81606000  0.93904000  1.0
  C  C87  1  0.13827000  0.06825000  0.93018000  1.0
  C  C88  1  0.73750000  0.80293000  0.60093000  1.0
  C  C89  1  0.76245000  0.94677000  0.64904000  1.0
  C  C90  1  0.82556000  0.75837000  0.58609000  1.0
  C  C91  1  0.67436000  0.99134000  0.66383000  1.0
  C  C92  1  0.78555000  0.87812000  0.62609000  1.0
  C  C93  1  0.71442000  0.87159000  0.62385000  1.0
  C  C94  1  0.20206000  0.22690000  0.36885000  1.0
  C  C95  1  0.29820000  0.02246000  0.38126000  1.0
  C  C96  1  0.17250000  0.24211000  0.41290000  1.0
  C  C97  1  0.32778000  0.00717000  0.33722000  1.0
  C  C98  1  0.25237000  0.10248000  0.39283000  1.0
  C  C99  1  0.24790000  0.14687000  0.35728000  1.0
  C  C100  1  0.69624000  0.34654000  0.65245000  1.0
  C  C101  1  0.80609000  0.40153000  0.59749000  1.0
  C  C102  1  0.66420000  0.41909000  0.63647000  1.0
  C  C103  1  0.83908000  0.32792000  0.61353000  1.0
  C  C104  1  0.71753000  0.44582000  0.60978000  1.0
  C  C105  1  0.78588000  0.30128000  0.64014000  1.0
  C  C106  1  0.58347000  0.49214000  0.63594000  1.0
  C  C107  1  0.64385000  0.52241000  0.60574000  1.0
  C  C108  1  0.30499000  0.65210000  0.34720000  1.0
  C  C109  1  0.19503000  0.59733000  0.40209000  1.0
  C  C110  1  0.28043000  0.66443000  0.39144000  1.0
  C  C111  1  0.21968000  0.58448000  0.35726000  1.0
  C  C112  1  0.22700000  0.63781000  0.41812000  1.0
  C  C113  1  0.27293000  0.61106000  0.33066000  1.0
  C  C114  1  0.28860000  0.70012000  0.42824000  1.0
  C  C115  1  0.22812000  0.66994000  0.45846000  1.0
  C  C116  1  0.69586000  0.65213000  0.34706000  1.0
  C  C117  1  0.80561000  0.59719000  0.40206000  1.0
  C  C118  1  0.66377000  0.66448000  0.39133000  1.0
  C  C119  1  0.83869000  0.58446000  0.35724000  1.0
  C  C120  1  0.71709000  0.63779000  0.41803000  1.0
  C  C121  1  0.78552000  0.61111000  0.33060000  1.0
  C  C122  1  0.58306000  0.70021000  0.42815000  1.0
  C  C123  1  0.64349000  0.66995000  0.45837000  1.0
  C  C124  1  0.30505000  0.34847000  0.65239000  1.0
  C  C125  1  0.19508000  0.40352000  0.59747000  1.0
  C  C126  1  0.27295000  0.30428000  0.64017000  1.0
  C  C127  1  0.22713000  0.44878000  0.60981000  1.0
  C  C128  1  0.21955000  0.33099000  0.61348000  1.0
  C  C129  1  0.28037000  0.42215000  0.63641000  1.0
  C  C130  1  0.27183000  0.22770000  0.64425000  1.0
  C  C131  1  0.21139000  0.25792000  0.61406000  1.0
  C  C132  1  0.29815000  0.58323000  0.82082000  1.0
  C  C133  1  0.20186000  0.66681000  0.92925000  1.0
  C  C134  1  0.32766000  0.50954000  0.83521000  1.0
  C  C135  1  0.17220000  0.74050000  0.91485000  1.0
  C  C136  1  0.24776000  0.60945000  0.89502000  1.0
  C  C137  1  0.25225000  0.64059000  0.85505000  1.0
  C  C138  1  0.80391000  0.09797000  0.90294000  1.0
  C  C139  1  0.69385000  0.15290000  0.84810000  1.0
  C  C140  1  0.83584000  0.08566000  0.85868000  1.0
  C  C141  1  0.66098000  0.16562000  0.89292000  1.0
  C  C142  1  0.78240000  0.11235000  0.83202000  1.0
  C  C143  1  0.71428000  0.13905000  0.91950000  1.0
  C  C144  1  0.91650000  0.05008000  0.82187000  1.0
  C  C145  1  0.85608000  0.08023000  0.79167000  1.0
  C  C146  1  0.19489000  0.09707000  0.90198000  1.0
  C  C147  1  0.30476000  0.15207000  0.84704000  1.0
  C  C148  1  0.22688000  0.13759000  0.91800000  1.0
  C  C149  1  0.27272000  0.11097000  0.83055000  1.0
  C  C150  1  0.28024000  0.16432000  0.89131000  1.0
  C  C151  1  0.21949000  0.08435000  0.85715000  1.0
  C  C152  1  0.22804000  0.16974000  0.95834000  1.0
  C  C153  1  0.28848000  0.19992000  0.92813000  1.0
  C  C154  1  0.64206000  0.44679000  0.14895000  1.0
  C  C155  1  0.85899000  0.30294000  0.10091000  1.0
  C  C156  1  0.67086000  0.49127000  0.16375000  1.0
  C  C157  1  0.83028000  0.25843000  0.08610000  1.0
  C  C158  1  0.79049000  0.37156000  0.12383000  1.0
  C  C159  1  0.71056000  0.37811000  0.12605000  1.0
  C  C160  1  0.19501000  0.90166000  0.09743000  1.0
  C  C161  1  0.30474000  0.84686000  0.15244000  1.0
  C  C162  1  0.22697000  0.94596000  0.10968000  1.0
  C  C163  1  0.27277000  0.80150000  0.14013000  1.0
  C  C164  1  0.28024000  0.91933000  0.13642000  1.0
  C  C165  1  0.21959000  0.82807000  0.11350000  1.0
  C  C166  1  0.22805000  0.02256000  0.10564000  1.0
  C  C167  1  0.28842000  0.99235000  0.13588000  1.0
  C  C168  1  0.80373000  0.90347000  0.09753000  1.0
  C  C169  1  0.69389000  0.84849000  0.15242000  1.0
  C  C170  1  0.83580000  0.83091000  0.11347000  1.0
  C  C171  1  0.66089000  0.92213000  0.13642000  1.0
  C  C172  1  0.78245000  0.80418000  0.14015000  1.0
  C  C173  1  0.71410000  0.94875000  0.10982000  1.0
  C  C174  1  0.91652000  0.75788000  0.11403000  1.0
  C  C175  1  0.85616000  0.72764000  0.14425000  1.0
  S  S176  1  0.88029000  0.80062000  0.60025000  1.0
  S  S177  1  0.61966000  0.94911000  0.64965000  1.0
  S  S178  1  0.20080000  0.15830000  0.44022000  1.0
  S  S179  1  0.29950000  0.09097000  0.30990000  1.0
  S  S180  1  0.29930000  0.51044000  0.89077000  1.0
  S  S181  1  0.20062000  0.73960000  0.85929000  1.0
  S  S182  1  0.78197000  0.44900000  0.14964000  1.0
  S  S183  1  0.71915000  0.30065000  0.10022000  1.0
  Br  Br184  1  0.65391000  0.78040000  0.59336000  1.0
  Br  Br185  1  0.84602000  0.96923000  0.65664000  1.0
  Br  Br186  1  0.18699000  0.29882000  0.32712000  1.0
  Br  Br187  1  0.31335000  0.95052000  0.42304000  1.0
  Br  Br188  1  0.31337000  0.60996000  0.76399000  1.0
  Br  Br189  1  0.18668000  0.64012000  0.98607000  1.0
  Br  Br190  1  0.52845000  0.46942000  0.15643000  1.0
  Br  Br191  1  0.97273000  0.28026000  0.09337000  1.0
  O  O192  1  0.00059000  0.49970000  0.50033000  1.0
  O  O193  1  0.82623000  0.58308000  0.47041000  1.0
  O  O194  1  0.10217000  0.37691000  0.41849000  1.0
  O  O195  1  0.94351000  0.38439000  0.55947000  1.0
  O  O196  1  0.94286000  0.53174000  0.41242000  1.0
  O  O197  1  0.82650000  0.49694000  0.55631000  1.0
  O  O198  1  0.10505000  0.31216000  0.47919000  1.0
  O  O199  1  0.11408000  0.38606000  0.55945000  1.0
  O  O200  1  0.95803000  0.65665000  0.55168000  1.0
  O  O201  1  0.11918000  0.49981000  0.55635000  1.0
  O  O202  1  0.83684000  0.65290000  0.55090000  1.0
  O  O203  1  0.11294000  0.53192000  0.41233000  1.0
  O  O204  1  0.11879000  0.58446000  0.47036000  1.0
  O  O205  1  0.49936000  0.24967000  0.75028000  1.0
  O  O206  1  0.67550000  0.25051000  0.69386000  1.0
  O  O207  1  0.39872000  0.43371000  0.77054000  1.0
  O  O208  1  0.55636000  0.21857000  0.83765000  1.0
  O  O209  1  0.55972000  0.36361000  0.69014000  1.0
  O  O210  1  0.67346000  0.16644000  0.77988000  1.0
  O  O211  1  0.39504000  0.37516000  0.83332000  1.0
  O  O212  1  0.38585000  0.21779000  0.83671000  1.0
  O  O213  1  0.54180000  0.09397000  0.69745000  1.0
  O  O214  1  0.38075000  0.16553000  0.77830000  1.0
  O  O215  1  0.66309000  0.09648000  0.69925000  1.0
  O  O216  1  0.38792000  0.36546000  0.68993000  1.0
  O  O217  1  0.38132000  0.25247000  0.69293000  1.0
  O  O218  1  0.50068000  0.75031000  0.24971000  1.0
  O  O219  1  0.38743000  0.71661000  0.33687000  1.0
  O  O220  1  0.54152000  0.59646000  0.19889000  1.0
  O  O221  1  0.67510000  0.66566000  0.27831000  1.0
  O  O222  1  0.38072000  0.66563000  0.27857000  1.0
  O  O223  1  0.55933000  0.71645000  0.33680000  1.0
  O  O224  1  0.66694000  0.59386000  0.19753000  1.0
  O  O225  1  0.67337000  0.75255000  0.19297000  1.0
  O  O226  1  0.39503000  0.93732000  0.27099000  1.0
  O  O227  1  0.55647000  0.86574000  0.19042000  1.0
  O  O228  1  0.39807000  0.87218000  0.33159000  1.0
  O  O229  1  0.38045000  0.75066000  0.19349000  1.0
  O  O230  1  0.38580000  0.86421000  0.19061000  1.0
  O  O231  1  0.99946000  0.00028000  0.99965000  1.0
  O  O232  1  0.11204000  0.88477000  0.05988000  1.0
  O  O233  1  0.95968000  0.15284000  0.05096000  1.0
  O  O234  1  0.82468000  0.00000000  0.05678000  1.0
  O  O235  1  0.12013000  0.99707000  0.05625000  1.0
  O  O236  1  0.94025000  0.88617000  0.05986000  1.0
  O  O237  1  0.83381000  0.15646000  0.05219000  1.0
  O  O238  1  0.82474000  0.08524000  0.97154000  1.0
  O  O239  1  0.10349000  0.87482000  0.91669000  1.0
  O  O240  1  0.94049000  0.03213000  0.91318000  1.0
  O  O241  1  0.10143000  0.81633000  0.97950000  1.0
  O  O242  1  0.12032000  0.08293000  0.97026000  1.0
  O  O243  1  0.11253000  0.03156000  0.91241000  1.0
