# generated using pymatgen
data_ZnH17C21NO7
_symmetry_space_group_name_H-M   'P 1'
_cell_length_a   9.13210000
_cell_length_b   9.52034000
_cell_length_c   14.55230000
_cell_angle_alpha   107.16200000
_cell_angle_beta   93.48770000
_cell_angle_gamma   113.00100000
_symmetry_Int_Tables_number   1
_chemical_formula_structural   ZnH17C21NO7
_chemical_formula_sum   'Zn2 H34 C42 N2 O14'
_cell_volume   1090.20563296
_cell_formula_units_Z   2
loop_
 _symmetry_equiv_pos_site_id
 _symmetry_equiv_pos_as_xyz
  1  'x, y, z'
loop_
 _atom_site_type_symbol
 _atom_site_label
 _atom_site_symmetry_multiplicity
 _atom_site_fract_x
 _atom_site_fract_y
 _atom_site_fract_z
 _atom_site_occupancy
  Zn  Zn0  1  0.31521000  0.39112000  0.28957000  1.0
  Zn  Zn1  1  0.68479000  0.60888000  0.71043000  1.0
  H  H2  1  0.38011000  0.68487000  0.39510000  1.0
  H  H3  1  0.61991000  0.31513000  0.60490000  1.0
  H  H4  1  0.52309000  0.65722000  0.44657000  1.0
  H  H5  1  0.47692000  0.34278000  0.55343000  1.0
  H  H6  1  0.34781000  0.88178000  0.05415000  1.0
  H  H7  1  0.65219000  0.11822000  0.94585000  1.0
  H  H8  1  0.53500000  0.74751000  0.00911000  1.0
  H  H9  1  0.46500000  0.25250000  0.99088000  1.0
  H  H10  1  0.92749000  0.16165000  0.22490000  1.0
  H  H11  1  0.07250000  0.83835000  0.77510000  1.0
  H  H12  1  0.74029000  0.29198000  0.26956000  1.0
  H  H13  1  0.25971000  0.70801000  0.73044000  1.0
  H  H14  1  0.79550000  0.76010000  0.01853000  1.0
  H  H15  1  0.20450000  0.23990000  0.98147000  1.0
  H  H16  1  0.97102000  0.94680000  0.08354000  1.0
  H  H17  1  0.02898000  0.05320000  0.91646000  1.0
  H  H18  1  0.63204000  0.65162000  0.14784000  1.0
  H  H19  1  0.36796000  0.34838000  0.85216000  1.0
  H  H20  1  0.67525000  0.52671000  0.26870000  1.0
  H  H21  1  0.32475000  0.47329000  0.73130000  1.0
  H  H22  1  0.96093000  0.61074000  0.35343000  1.0
  H  H23  1  0.03907000  0.38926000  0.64657000  1.0
  H  H24  1  0.19291000  0.81502000  0.30948000  1.0
  H  H25  1  0.80709000  0.18498000  0.69052000  1.0
  H  H26  1  0.13039000  0.92946000  0.18488000  1.0
  H  H27  1  0.86960000  0.07054000  0.81512000  1.0
  H  H28  1  0.29799000  0.10793000  0.55529000  1.0
  H  H29  1  0.70202000  0.89207000  0.44472000  1.0
  H  H30  1  0.89190000  0.09795000  0.38328000  1.0
  H  H31  1  0.10810000  0.90205000  0.61673000  1.0
  H  H32  1  0.90243000  0.37705000  0.12604000  1.0
  H  H33  1  0.09757000  0.62295000  0.87396000  1.0
  H  H34  1  0.29092000  0.59414000  0.98972000  1.0
  H  H35  1  0.70908000  0.40586000  0.01029000  1.0
  C  C36  1  0.41989000  0.17328000  0.18913000  1.0
  C  C37  1  0.58011000  0.82671000  0.81086000  1.0
  C  C38  1  0.53257000  0.09413000  0.16457000  1.0
  C  C39  1  0.46743000  0.90586000  0.83543000  1.0
  C  C40  1  0.47452000  0.94037000  0.09159000  1.0
  C  C41  1  0.52549000  0.05964000  0.90840000  1.0
  C  C42  1  0.57818000  0.86613000  0.06696000  1.0
  C  C43  1  0.42181000  0.13387000  0.93303000  1.0
  C  C44  1  0.74115000  0.94481000  0.11479000  1.0
  C  C45  1  0.25884000  0.05519000  0.88521000  1.0
  C  C46  1  0.80019000  0.09899000  0.18783000  1.0
  C  C47  1  0.19981000  0.90101000  0.81217000  1.0
  C  C48  1  0.69607000  0.17257000  0.21265000  1.0
  C  C49  1  0.30392000  0.82742000  0.78735000  1.0
  C  C50  1  0.85120000  0.86236000  0.08828000  1.0
  C  C51  1  0.14880000  0.13764000  0.91172000  1.0
  C  C52  1  0.75369000  0.68472000  0.18609000  1.0
  C  C53  1  0.24631000  0.31528000  0.81391000  1.0
  C  C54  1  0.77975000  0.61773000  0.25443000  1.0
  C  C55  1  0.22024000  0.38227000  0.74558000  1.0
  C  C56  1  0.93838000  0.66353000  0.30017000  1.0
  C  C57  1  0.06161000  0.33647000  0.69983000  1.0
  C  C58  1  0.06716000  0.77621000  0.27629000  1.0
  C  C59  1  0.93284000  0.22380000  0.72372000  1.0
  C  C60  1  0.03590000  0.84059000  0.20755000  1.0
  C  C61  1  0.96410000  0.15941000  0.79245000  1.0
  C  C62  1  0.22039000  0.23555000  0.42477000  1.0
  C  C63  1  0.77962000  0.76445000  0.57523000  1.0
  C  C64  1  0.10692000  0.11594000  0.46505000  1.0
  C  C65  1  0.89308000  0.88406000  0.53495000  1.0
  C  C66  1  0.16734000  0.05963000  0.53054000  1.0
  C  C67  1  0.83266000  0.94038000  0.46946000  1.0
  C  C68  1  0.93832000  0.05522000  0.43496000  1.0
  C  C69  1  0.06168000  0.94478000  0.56504000  1.0
  C  C70  1  0.22679000  0.47200000  0.13456000  1.0
  C  C71  1  0.77321000  0.52800000  0.86544000  1.0
  C  C72  1  0.10878000  0.48609000  0.06524000  1.0
  C  C73  1  0.89122000  0.51391000  0.93476000  1.0
  C  C74  1  0.94418000  0.43123000  0.07087000  1.0
  C  C75  1  0.05582000  0.56878000  0.92914000  1.0
  C  C76  1  0.16314000  0.55414000  0.99366000  1.0
  C  C77  1  0.83686000  0.44585000  0.00634000  1.0
  N  N78  1  0.88128000  0.79423000  0.16414000  1.0
  N  N79  1  0.11872000  0.20577000  0.83586000  1.0
  O  O80  1  0.45040000  0.63004000  0.38088000  1.0
  O  O81  1  0.54961000  0.36995000  0.61912000  1.0
  O  O82  1  0.48222000  0.31440000  0.25881000  1.0
  O  O83  1  0.51778000  0.68560000  0.74119000  1.0
  O  O84  1  0.27428000  0.10359000  0.14458000  1.0
  O  O85  1  0.72572000  0.89642000  0.85541000  1.0
  O  O86  1  0.15427000  0.26136000  0.35449000  1.0
  O  O87  1  0.84573000  0.73864000  0.64551000  1.0
  O  O88  1  0.37169000  0.30269000  0.45712000  1.0
  O  O89  1  0.62831000  0.69731000  0.54288000  1.0
  O  O90  1  0.17317000  0.44052000  0.21037000  1.0
  O  O91  1  0.82683000  0.55948000  0.78963000  1.0
  O  O92  1  0.36368000  0.48803000  0.11646000  1.0
  O  O93  1  0.63632000  0.51196000  0.88354000  1.0
