# generated using pymatgen
data_CdH10(C5O2)3
_symmetry_space_group_name_H-M   'P 1'
_cell_length_a   6.39833000
_cell_length_b   7.09854000
_cell_length_c   14.82190000
_cell_angle_alpha   77.05200000
_cell_angle_beta   89.92490000
_cell_angle_gamma   89.91740000
_symmetry_Int_Tables_number   1
_chemical_formula_structural   CdH10(C5O2)3
_chemical_formula_sum   'Cd2 H20 C30 O12'
_cell_volume   656.07519136
_cell_formula_units_Z   2
loop_
 _symmetry_equiv_pos_site_id
 _symmetry_equiv_pos_as_xyz
  1  'x, y, z'
loop_
 _atom_site_type_symbol
 _atom_site_label
 _atom_site_symmetry_multiplicity
 _atom_site_fract_x
 _atom_site_fract_y
 _atom_site_fract_z
 _atom_site_occupancy
  Cd  Cd0  1  0.33009000  0.75056000  0.49997000  1.0
  Cd  Cd1  1  0.66989000  0.24947000  0.50003000  1.0
  H  H2  1  0.41401000  0.59505000  0.03295000  1.0
  H  H3  1  0.41353000  0.90451000  0.96722000  1.0
  H  H4  1  0.58599000  0.40491000  0.96704000  1.0
  H  H5  1  0.58647000  0.09548000  0.03279000  1.0
  H  H6  1  0.03575000  0.64406000  0.32029000  1.0
  H  H7  1  0.03710000  0.85631000  0.67973000  1.0
  H  H8  1  0.96422000  0.35593000  0.67968000  1.0
  H  H9  1  0.96294000  0.14369000  0.32025000  1.0
  H  H10  1  0.58290000  0.48248000  0.18560000  1.0
  H  H11  1  0.58300000  0.01741000  0.81459000  1.0
  H  H12  1  0.41710000  0.51751000  0.81440000  1.0
  H  H13  1  0.41702000  0.98259000  0.18542000  1.0
  H  H14  1  0.86506000  0.75773000  0.16644000  1.0
  H  H15  1  0.86591000  0.74222000  0.83357000  1.0
  H  H16  1  0.13492000  0.24226000  0.83353000  1.0
  H  H17  1  0.13411000  0.25776000  0.16641000  1.0
  H  H18  1  0.88765000  0.85254000  0.46601000  1.0
  H  H19  1  0.88780000  0.64927000  0.53563000  1.0
  H  H20  1  0.11233000  0.14752000  0.53404000  1.0
  H  H21  1  0.11220000  0.35078000  0.46442000  1.0
  C  C22  1  0.32016000  0.55600000  0.26224000  1.0
  C  C23  1  0.32093000  0.94411000  0.73792000  1.0
  C  C24  1  0.67984000  0.44397000  0.73777000  1.0
  C  C25  1  0.67910000  0.05592000  0.26206000  1.0
  C  C26  1  0.42257000  0.48220000  0.35351000  1.0
  C  C27  1  0.42389000  0.01829000  0.64678000  1.0
  C  C28  1  0.57741000  0.51782000  0.64648000  1.0
  C  C29  1  0.57612000  0.98173000  0.35323000  1.0
  C  C30  1  0.11741000  0.63388000  0.25701000  1.0
  C  C31  1  0.11838000  0.86630000  0.74305000  1.0
  C  C32  1  0.88260000  0.36611000  0.74298000  1.0
  C  C33  1  0.88167000  0.13371000  0.25694000  1.0
  C  C34  1  0.33119000  0.60927000  0.09516000  1.0
  C  C35  1  0.33114000  0.89048000  0.90499000  1.0
  C  C36  1  0.66880000  0.39071000  0.90483000  1.0
  C  C37  1  0.66885000  0.10949000  0.09501000  1.0
  C  C38  1  0.12860000  0.68770000  0.08945000  1.0
  C  C39  1  0.12881000  0.81199000  0.91065000  1.0
  C  C40  1  0.87137000  0.31226000  0.91053000  1.0
  C  C41  1  0.87118000  0.18798000  0.08936000  1.0
  C  C42  1  0.02275000  0.69834000  0.17145000  1.0
  C  C43  1  0.02344000  0.80158000  0.82862000  1.0
  C  C44  1  0.97725000  0.30165000  0.82854000  1.0
  C  C45  1  0.97656000  0.19840000  0.17137000  1.0
  C  C46  1  0.42622000  0.54399000  0.18085000  1.0
  C  C47  1  0.42647000  0.95593000  0.81931000  1.0
  C  C48  1  0.57376000  0.45600000  0.81915000  1.0
  C  C49  1  0.57355000  0.04405000  0.18068000  1.0
  C  C50  1  0.01350000  0.74976000  0.00005000  1.0
  C  C51  1  0.98649000  0.25020000  0.99993000  1.0
  O  O52  1  0.32083000  0.48003000  0.42887000  1.0
  O  O53  1  0.32275000  0.02168000  0.57127000  1.0
  O  O54  1  0.67917000  0.52002000  0.57112000  1.0
  O  O55  1  0.67731000  0.97836000  0.42873000  1.0
  O  O56  1  0.60857000  0.41789000  0.35496000  1.0
  O  O57  1  0.60999000  0.08186000  0.64550000  1.0
  O  O58  1  0.39141000  0.58211000  0.64505000  1.0
  O  O59  1  0.39003000  0.91815000  0.35450000  1.0
  O  O60  1  0.81969000  0.74965000  0.00008000  1.0
  O  O61  1  0.18031000  0.25031000  0.99991000  1.0
  O  O62  1  0.98283000  0.75258000  0.50215000  1.0
  O  O63  1  0.01717000  0.24753000  0.49793000  1.0
