# generated using pymatgen
data_ZnH2C3N4O
_symmetry_space_group_name_H-M   'P 1'
_cell_length_a   10.99220000
_cell_length_b   11.01160000
_cell_length_c   13.26268778
_cell_angle_alpha   105.09062387
_cell_angle_beta   99.17968788
_cell_angle_gamma   118.56300000
_symmetry_Int_Tables_number   1
_chemical_formula_structural   ZnH2C3N4O
_chemical_formula_sum   'Zn12 H24 C36 N48 O12'
_cell_volume   1282.71448912
_cell_formula_units_Z   12
loop_
 _symmetry_equiv_pos_site_id
 _symmetry_equiv_pos_as_xyz
  1  'x, y, z'
loop_
 _atom_site_type_symbol
 _atom_site_label
 _atom_site_symmetry_multiplicity
 _atom_site_fract_x
 _atom_site_fract_y
 _atom_site_fract_z
 _atom_site_occupancy
  Zn  Zn0  1  0.17590000  0.09714000  0.49802000  1.0
  Zn  Zn1  1  0.59692000  0.17721000  0.99964000  1.0
  Zn  Zn2  1  0.82410000  0.90286000  0.50198000  1.0
  Zn  Zn3  1  0.40308000  0.82279000  0.00036000  1.0
  Zn  Zn4  1  0.10171000  0.16910000  0.71272000  1.0
  Zn  Zn5  1  0.45376000  0.88791000  0.78671000  1.0
  Zn  Zn6  1  0.89829000  0.83090000  0.28728000  1.0
  Zn  Zn7  1  0.54624000  0.11209000  0.21329000  1.0
  Zn  Zn8  1  0.22523000  0.87685000  0.25381000  1.0
  Zn  Zn9  1  0.62341000  0.47083000  0.24568000  1.0
  Zn  Zn10  1  0.77477000  0.12315000  0.74619000  1.0
  Zn  Zn11  1  0.37659000  0.52917000  0.75432000  1.0
  H  H12  1  0.89615000  0.70696000  0.61475000  1.0
  H  H13  1  0.09241000  0.78147000  0.88700000  1.0
  H  H14  1  0.10386000  0.29305000  0.38526000  1.0
  H  H15  1  0.90759000  0.21853000  0.11300000  1.0
  H  H16  1  0.46935000  0.38382000  0.61165000  1.0
  H  H17  1  0.77024000  0.35660000  0.88623000  1.0
  H  H18  1  0.53066000  0.61618000  0.38835000  1.0
  H  H19  1  0.22976000  0.64339000  0.11376000  1.0
  H  H20  1  0.79182000  0.27122000  0.59740000  1.0
  H  H21  1  0.67154000  0.69272000  0.90247000  1.0
  H  H22  1  0.20819000  0.72878000  0.40260000  1.0
  H  H23  1  0.32846000  0.30728000  0.09753000  1.0
  H  H24  1  0.15219000  0.31616000  0.58397000  1.0
  H  H25  1  0.72916000  0.06654000  0.91570000  1.0
  H  H26  1  0.84781000  0.68384000  0.41603000  1.0
  H  H27  1  0.27084000  0.93346000  0.08430000  1.0
  H  H28  1  0.10001000  0.82247000  0.40730000  1.0
  H  H29  1  0.41646000  0.19374000  0.09503000  1.0
  H  H30  1  0.89999000  0.17753000  0.59270000  1.0
  H  H31  1  0.58354000  0.80626000  0.90497000  1.0
  H  H32  1  0.09327000  0.92842000  0.61594000  1.0
  H  H33  1  0.31155000  0.97720000  0.88570000  1.0
  H  H34  1  0.90673000  0.07158000  0.38406000  1.0
  H  H35  1  0.68845000  0.02280000  0.11430000  1.0
  C  C36  1  0.81585000  0.59370000  0.60562000  1.0
  C  C37  1  0.98733000  0.70968000  0.89526000  1.0
  C  C38  1  0.18415000  0.40630000  0.39438000  1.0
  C  C39  1  0.01267000  0.29032000  0.10474000  1.0
  C  C40  1  0.63628000  0.66453000  0.62520000  1.0
  C  C41  1  0.03860000  0.51056000  0.87499000  1.0
  C  C42  1  0.36372000  0.33548000  0.37480000  1.0
  C  C43  1  0.96140000  0.48944000  0.12501000  1.0
  C  C44  1  0.67506000  0.55362000  0.60658000  1.0
  C  C45  1  0.94582000  0.56767000  0.89327000  1.0
  C  C46  1  0.32494000  0.44638000  0.39342000  1.0
  C  C47  1  0.05417000  0.43232000  0.10672000  1.0
  C  C48  1  0.61892000  0.31126000  0.60165000  1.0
  C  C49  1  0.70719000  0.51557000  0.89697000  1.0
  C  C50  1  0.38108000  0.68874000  0.39835000  1.0
  C  C51  1  0.29281000  0.48443000  0.10303000  1.0
  C  C52  1  0.52393000  0.17515000  0.61695000  1.0
  C  C53  1  0.55611000  0.40530000  0.88136000  1.0
  C  C54  1  0.47607000  0.82485000  0.38305000  1.0
  C  C55  1  0.44389000  0.59470000  0.11864000  1.0
  C  C56  1  0.57666000  0.41280000  0.60545000  1.0
  C  C57  1  0.80533000  0.46992000  0.89308000  1.0
  C  C58  1  0.42334000  0.58721000  0.39455000  1.0
  C  C59  1  0.19468000  0.53008000  0.10692000  1.0
  C  C60  1  0.85867000  0.49229000  0.60365000  1.0
  C  C61  1  0.88742000  0.75403000  0.89710000  1.0
  C  C62  1  0.14133000  0.50771000  0.39635000  1.0
  C  C63  1  0.11258000  0.24597000  0.10290000  1.0
  C  C64  1  0.75867000  0.34980000  0.59843000  1.0
  C  C65  1  0.74922000  0.65859000  0.90128000  1.0
  C  C66  1  0.24133000  0.65020000  0.40157000  1.0
  C  C67  1  0.25078000  0.34141000  0.09872000  1.0
  C  C68  1  0.01315000  0.54546000  0.62541000  1.0
  C  C69  1  0.91906000  0.88716000  0.87559000  1.0
  C  C70  1  0.98685000  0.45454000  0.37459000  1.0
  C  C71  1  0.08094000  0.11284000  0.12441000  1.0
  N  N72  1  0.69964000  0.79176000  0.60583000  1.0
  N  N73  1  0.18479000  0.59229000  0.89433000  1.0
  N  N74  1  0.30036000  0.20824000  0.39417000  1.0
  N  N75  1  0.81521000  0.40771000  0.10567000  1.0
  N  N76  1  0.54084000  0.78496000  0.68523000  1.0
  N  N77  1  0.09988000  0.35620000  0.81517000  1.0
  N  N78  1  0.45916000  0.21504000  0.31477000  1.0
  N  N79  1  0.90012000  0.64380000  0.18483000  1.0
  N  N80  1  0.53618000  0.65861000  0.67470000  1.0
  N  N81  1  0.98400000  0.36235000  0.82582000  1.0
  N  N82  1  0.46382000  0.34139000  0.32530000  1.0
  N  N83  1  0.01600000  0.63765000  0.17418000  1.0
  N  N84  1  0.37669000  0.10565000  0.59190000  1.0
  N  N85  1  0.51183000  0.28252000  0.90612000  1.0
  N  N86  1  0.62331000  0.89435000  0.40810000  1.0
  N  N87  1  0.48817000  0.71748000  0.09388000  1.0
  N  N88  1  0.63694000  0.86402000  0.64508000  1.0
  N  N89  1  0.21847000  0.49111000  0.85514000  1.0
  N  N90  1  0.36306000  0.13598000  0.35492000  1.0
  N  N91  1  0.78153000  0.50889000  0.14486000  1.0
  N  N92  1  0.45100000  0.99877000  0.67671000  1.0
  N  N93  1  0.32126000  0.27327000  0.82218000  1.0
  N  N94  1  0.54900000  0.00123000  0.32329000  1.0
  N  N95  1  0.67874000  0.72672000  0.17782000  1.0
  N  N96  1  0.33461000  0.99541000  0.62982000  1.0
  N  N97  1  0.36446000  0.20294000  0.86858000  1.0
  N  N98  1  0.66539000  0.00460000  0.37018000  1.0
  N  N99  1  0.63554000  0.79706000  0.13142000  1.0
  N  N100  1  0.57279000  0.10978000  0.67018000  1.0
  N  N101  1  0.43818000  0.40170000  0.82860000  1.0
  N  N102  1  0.42722000  0.89023000  0.32983000  1.0
  N  N103  1  0.56182000  0.59830000  0.17140000  1.0
  N  N104  1  0.07162000  0.46182000  0.62464000  1.0
  N  N105  1  0.83482000  0.94491000  0.87574000  1.0
  N  N106  1  0.92838000  0.53818000  0.37536000  1.0
  N  N107  1  0.16518000  0.05509000  0.12426000  1.0
  N  N108  1  0.11843000  0.69315000  0.66496000  1.0
  N  N109  1  0.02864000  0.95465000  0.83628000  1.0
  N  N110  1  0.88157000  0.30684000  0.33504000  1.0
  N  N111  1  0.97136000  0.04535000  0.16372000  1.0
  N  N112  1  0.24312000  0.69925000  0.68921000  1.0
  N  N113  1  0.01008000  0.05483000  0.81163000  1.0
  N  N114  1  0.75688000  0.30075000  0.31079000  1.0
  N  N115  1  0.98992000  0.94517000  0.18837000  1.0
  N  N116  1  0.21674000  0.56240000  0.66565000  1.0
  N  N117  1  0.89516000  0.05005000  0.83462000  1.0
  N  N118  1  0.78326000  0.43760000  0.33435000  1.0
  N  N119  1  0.10484000  0.94995000  0.16538000  1.0
  O  O120  1  0.05267000  0.97946000  0.58724000  1.0
  O  O121  1  0.39141000  0.96526000  0.91364000  1.0
  O  O122  1  0.94733000  0.02054000  0.41276000  1.0
  O  O123  1  0.60859000  0.03474000  0.08636000  1.0
  O  O124  1  0.12196000  0.89600000  0.37350000  1.0
  O  O125  1  0.52339000  0.24864000  0.12588000  1.0
  O  O126  1  0.87805000  0.10401000  0.62651000  1.0
  O  O127  1  0.47661000  0.75136000  0.87412000  1.0
  O  O128  1  0.22026000  0.29556000  0.62122000  1.0
  O  O129  1  0.67313000  0.09825000  0.87735000  1.0
  O  O130  1  0.77974000  0.70445000  0.37879000  1.0
  O  O131  1  0.32687000  0.90175000  0.12265000  1.0
