# generated using pymatgen
data_NdCdH7C5SN2O11
_symmetry_space_group_name_H-M   'P 1'
_cell_length_a   8.69819000
_cell_length_b   10.60440000
_cell_length_c   13.87250000
_cell_angle_alpha   90.00000000
_cell_angle_beta   101.62100000
_cell_angle_gamma   90.00000000
_symmetry_Int_Tables_number   1
_chemical_formula_structural   NdCdH7C5SN2O11
_chemical_formula_sum   'Nd4 Cd4 H28 C20 S4 N8 O44'
_cell_volume   1253.35709331
_cell_formula_units_Z   4
loop_
 _symmetry_equiv_pos_site_id
 _symmetry_equiv_pos_as_xyz
  1  'x, y, z'
loop_
 _atom_site_type_symbol
 _atom_site_label
 _atom_site_symmetry_multiplicity
 _atom_site_fract_x
 _atom_site_fract_y
 _atom_site_fract_z
 _atom_site_occupancy
  Nd  Nd0  1  0.93406000  0.89335000  0.11114000  1.0
  Nd  Nd1  1  0.06594000  0.39335000  0.38886000  1.0
  Nd  Nd2  1  0.06594000  0.10665000  0.88886000  1.0
  Nd  Nd3  1  0.93406000  0.60665000  0.61114000  1.0
  Cd  Cd4  1  0.61815000  0.48604000  0.13422000  1.0
  Cd  Cd5  1  0.38185000  0.98604000  0.36577000  1.0
  Cd  Cd6  1  0.38185000  0.51396000  0.86577000  1.0
  Cd  Cd7  1  0.61815000  0.01396000  0.63422000  1.0
  H  H8  1  0.62557000  0.26260000  0.33615000  1.0
  H  H9  1  0.37443000  0.76260000  0.16385000  1.0
  H  H10  1  0.37443000  0.73740000  0.66385000  1.0
  H  H11  1  0.62557000  0.23740000  0.83615000  1.0
  H  H12  1  0.01041000  0.89936000  0.34253000  1.0
  H  H13  1  0.98959000  0.39936000  0.15748000  1.0
  H  H14  1  0.98959000  0.10064000  0.65747000  1.0
  H  H15  1  0.01041000  0.60064000  0.84252000  1.0
  H  H16  1  0.82477000  0.91287000  0.31709000  1.0
  H  H17  1  0.17523000  0.41287000  0.18291000  1.0
  H  H18  1  0.17523000  0.08713000  0.68291000  1.0
  H  H19  1  0.82477000  0.58713000  0.81709000  1.0
  H  H20  1  0.01577000  0.62588000  0.17461000  1.0
  H  H21  1  0.98423000  0.12588000  0.32539000  1.0
  H  H22  1  0.98423000  0.37412000  0.82539000  1.0
  H  H23  1  0.01577000  0.87411000  0.67461000  1.0
  H  H24  1  0.05554000  0.68684000  0.27822000  1.0
  H  H25  1  0.94445000  0.18684000  0.22178000  1.0
  H  H26  1  0.94445000  0.31316000  0.72177000  1.0
  H  H27  1  0.05555000  0.81316000  0.77823000  1.0
  H  H28  1  0.55431000  0.88646000  0.07020000  1.0
  H  H29  1  0.44569000  0.38646000  0.42980000  1.0
  H  H30  1  0.44569000  0.11354000  0.92980000  1.0
  H  H31  1  0.55431000  0.61354000  0.57020000  1.0
  H  H32  1  0.62123000  0.02526000  0.08246000  1.0
  H  H33  1  0.37877000  0.52526000  0.41754000  1.0
  H  H34  1  0.37877000  0.97474000  0.91754000  1.0
  H  H35  1  0.62123000  0.47474000  0.58246000  1.0
  C  C36  1  0.53002000  0.24566000  0.27392000  1.0
  C  C37  1  0.46998000  0.74566000  0.22608000  1.0
  C  C38  1  0.46998000  0.75434000  0.72608000  1.0
  C  C39  1  0.53002000  0.25434000  0.77392000  1.0
  C  C40  1  0.33203000  0.15709000  0.17712000  1.0
  C  C41  1  0.66798000  0.65709000  0.32288000  1.0
  C  C42  1  0.66797000  0.84291000  0.82288000  1.0
  C  C43  1  0.33202000  0.34291000  0.67711000  1.0
  C  C44  1  0.37494000  0.26556000  0.13052000  1.0
  C  C45  1  0.62506000  0.76557000  0.36947000  1.0
  C  C46  1  0.62506000  0.73443000  0.86947000  1.0
  C  C47  1  0.37494000  0.23443000  0.63052000  1.0
  C  C48  1  0.21452000  0.05876000  0.14803000  1.0
  C  C49  1  0.78548000  0.55876000  0.35197000  1.0
  C  C50  1  0.78548000  0.94124000  0.85197000  1.0
  C  C51  1  0.21452000  0.44124000  0.64803000  1.0
  C  C52  1  0.31607000  0.32651000  0.03403000  1.0
  C  C53  1  0.68393000  0.82652000  0.46597000  1.0
  C  C54  1  0.68393000  0.67348000  0.96597000  1.0
  C  C55  1  0.31607000  0.17348000  0.53403000  1.0
  S  S56  1  0.78886000  0.22029000  0.04242000  1.0
  S  S57  1  0.21114000  0.72029000  0.45758000  1.0
  S  S58  1  0.21114000  0.77971000  0.95758000  1.0
  S  S59  1  0.78886000  0.27971000  0.54242000  1.0
  N  N60  1  0.49996000  0.31909000  0.19342000  1.0
  N  N61  1  0.50004000  0.81909000  0.30658000  1.0
  N  N62  1  0.50003000  0.68091000  0.80658000  1.0
  N  N63  1  0.49996000  0.18091000  0.69342000  1.0
  N  N64  1  0.42989000  0.14803000  0.26816000  1.0
  N  N65  1  0.57011000  0.64803000  0.23184000  1.0
  N  N66  1  0.57011000  0.85197000  0.73184000  1.0
  N  N67  1  0.42989000  0.35197000  0.76816000  1.0
  O  O68  1  0.18649000  0.98186000  0.21388000  1.0
  O  O69  1  0.81352000  0.48186000  0.28612000  1.0
  O  O70  1  0.81351000  0.01814000  0.78612000  1.0
  O  O71  1  0.18648000  0.51814000  0.71388000  1.0
  O  O72  1  0.13854000  0.04645000  0.05953000  1.0
  O  O73  1  0.86146000  0.54645000  0.44047000  1.0
  O  O74  1  0.86146000  0.95355000  0.94047000  1.0
  O  O75  1  0.13854000  0.45355000  0.55953000  1.0
  O  O76  1  0.20631000  0.27954000  0.97087000  1.0
  O  O77  1  0.79369000  0.77954000  0.52913000  1.0
  O  O78  1  0.79369000  0.72046000  0.02913000  1.0
  O  O79  1  0.20630000  0.22046000  0.47088000  1.0
  O  O80  1  0.38247000  0.43084000  0.01898000  1.0
  O  O81  1  0.61753000  0.93084000  0.48102000  1.0
  O  O82  1  0.61753000  0.56916000  0.98102000  1.0
  O  O83  1  0.38247000  0.06916000  0.51898000  1.0
  O  O84  1  0.62094000  0.18613000  0.01465000  1.0
  O  O85  1  0.37906000  0.68613000  0.48535000  1.0
  O  O86  1  0.37906000  0.81387000  0.98535000  1.0
  O  O87  1  0.62094000  0.31387000  0.51465000  1.0
  O  O88  1  0.81110000  0.34626000  0.09200000  1.0
  O  O89  1  0.18890000  0.84626000  0.40800000  1.0
  O  O90  1  0.18890000  0.65374000  0.90800000  1.0
  O  O91  1  0.81110000  0.15374000  0.59200000  1.0
  O  O92  1  0.86959000  0.12453000  0.11622000  1.0
  O  O93  1  0.13041000  0.62453000  0.38378000  1.0
  O  O94  1  0.13041000  0.87547000  0.88378000  1.0
  O  O95  1  0.86959000  0.37547000  0.61622000  1.0
  O  O96  1  0.86340000  0.22254000  0.95536000  1.0
  O  O97  1  0.13660000  0.72254000  0.54464000  1.0
  O  O98  1  0.13660000  0.77746000  0.04464000  1.0
  O  O99  1  0.86340000  0.27746000  0.45536000  1.0
  O  O100  1  0.92031000  0.93870000  0.29583000  1.0
  O  O101  1  0.07970000  0.43870000  0.20417000  1.0
  O  O102  1  0.07969000  0.06130000  0.70417000  1.0
  O  O103  1  0.92031000  0.56130000  0.79583000  1.0
  O  O104  1  0.00256000  0.70472000  0.20870000  1.0
  O  O105  1  0.99744000  0.20472000  0.29130000  1.0
  O  O106  1  0.99744000  0.29528000  0.79130000  1.0
  O  O107  1  0.00256000  0.79528000  0.70870000  1.0
  O  O108  1  0.64393000  0.93730000  0.10387000  1.0
  O  O109  1  0.35607000  0.43730000  0.39613000  1.0
  O  O110  1  0.35607000  0.06270000  0.89613000  1.0
  O  O111  1  0.64393000  0.56270000  0.60387000  1.0
