# generated using pymatgen
data_Cu3H10C6N3Cl4
_symmetry_space_group_name_H-M   'P 1'
_cell_length_a   8.87794000
_cell_length_b   9.92607000
_cell_length_c   14.25400000
_cell_angle_alpha   90.00020000
_cell_angle_beta   90.00010000
_cell_angle_gamma   85.77390000
_symmetry_Int_Tables_number   1
_chemical_formula_structural   Cu3H10C6N3Cl4
_chemical_formula_sum   'Cu12 H40 C24 N12 Cl16'
_cell_volume   1252.69067241
_cell_formula_units_Z   4
loop_
 _symmetry_equiv_pos_site_id
 _symmetry_equiv_pos_as_xyz
  1  'x, y, z'
loop_
 _atom_site_type_symbol
 _atom_site_label
 _atom_site_symmetry_multiplicity
 _atom_site_fract_x
 _atom_site_fract_y
 _atom_site_fract_z
 _atom_site_occupancy
  Cu  Cu0  1  0.61340000  0.30706000  0.64419000  1.0
  Cu  Cu1  1  0.88660000  0.19294000  0.14420000  1.0
  Cu  Cu2  1  0.38660000  0.69294000  0.35581000  1.0
  Cu  Cu3  1  0.11340000  0.80706000  0.85580000  1.0
  Cu  Cu4  1  0.56800000  0.47471000  0.79288000  1.0
  Cu  Cu5  1  0.93200000  0.02530000  0.29288000  1.0
  Cu  Cu6  1  0.43200000  0.52529000  0.20712000  1.0
  Cu  Cu7  1  0.06800000  0.97471000  0.70712000  1.0
  Cu  Cu8  1  0.41960000  0.64540000  0.97505000  1.0
  Cu  Cu9  1  0.08039000  0.85460000  0.47505000  1.0
  Cu  Cu10  1  0.58040000  0.35460000  0.02495000  1.0
  Cu  Cu11  1  0.91961000  0.14540000  0.52495000  1.0
  H  H12  1  0.32700000  0.97455000  0.26382000  1.0
  H  H13  1  0.17300000  0.52545000  0.76382000  1.0
  H  H14  1  0.67300000  0.02545000  0.73618000  1.0
  H  H15  1  0.82700000  0.47455000  0.23618000  1.0
  H  H16  1  0.49028000  0.92433000  0.21497000  1.0
  H  H17  1  0.00971000  0.57566000  0.71497000  1.0
  H  H18  1  0.50972000  0.07567000  0.78503000  1.0
  H  H19  1  0.99029000  0.42434000  0.28503000  1.0
  H  H20  1  0.34894000  0.23396000  0.34961000  1.0
  H  H21  1  0.15106000  0.26604000  0.84961000  1.0
  H  H22  1  0.65106000  0.76603000  0.65039000  1.0
  H  H23  1  0.84893000  0.73397000  0.15039000  1.0
  H  H24  1  0.31395000  0.08297000  0.41006000  1.0
  H  H25  1  0.18605000  0.41703000  0.91006000  1.0
  H  H26  1  0.68605000  0.91703000  0.58994000  1.0
  H  H27  1  0.81394000  0.58297000  0.08993000  1.0
  H  H28  1  0.60108000  0.12417000  0.29251000  1.0
  H  H29  1  0.89892000  0.37583000  0.79251000  1.0
  H  H30  1  0.39892000  0.87583000  0.70749000  1.0
  H  H31  1  0.10108000  0.62417000  0.20749000  1.0
  H  H32  1  0.56719000  0.97528000  0.35618000  1.0
  H  H33  1  0.93281000  0.52472000  0.85618000  1.0
  H  H34  1  0.43281000  0.02472000  0.64382000  1.0
  H  H35  1  0.06719000  0.47529000  0.14382000  1.0
  H  H36  1  0.50721000  0.12856000  0.13031000  1.0
  H  H37  1  0.99279000  0.37144000  0.63031000  1.0
  H  H38  1  0.49280000  0.87145000  0.86969000  1.0
  H  H39  1  0.00721000  0.62856000  0.36969000  1.0
  H  H40  1  0.34554000  0.20405000  0.19032000  1.0
  H  H41  1  0.15447000  0.29595000  0.69032000  1.0
  H  H42  1  0.65446000  0.79595000  0.80968000  1.0
  H  H43  1  0.84553000  0.70405000  0.30968000  1.0
  H  H44  1  0.17642000  0.04942000  0.11962000  1.0
  H  H45  1  0.32357000  0.45058000  0.61962000  1.0
  H  H46  1  0.82358000  0.95058000  0.88037000  1.0
  H  H47  1  0.67643000  0.54941000  0.38038000  1.0
  H  H48  1  0.27767000  0.12756000  0.03033000  1.0
  H  H49  1  0.22232000  0.37244000  0.53033000  1.0
  H  H50  1  0.72233000  0.87244000  0.96967000  1.0
  H  H51  1  0.77768000  0.62756000  0.46967000  1.0
  C  C52  1  0.47903000  0.19457000  0.46719000  1.0
  C  C53  1  0.02096000  0.30543000  0.96719000  1.0
  C  C54  1  0.52096000  0.80543000  0.53281000  1.0
  C  C55  1  0.97904000  0.69457000  0.03282000  1.0
  C  C56  1  0.40419000  0.14507000  0.38553000  1.0
  C  C57  1  0.09581000  0.35493000  0.88553000  1.0
  C  C58  1  0.59580000  0.85493000  0.61447000  1.0
  C  C59  1  0.90420000  0.64506000  0.11447000  1.0
  C  C60  1  0.51291000  0.06348000  0.32027000  1.0
  C  C61  1  0.98709000  0.43653000  0.82027000  1.0
  C  C62  1  0.48709000  0.93652000  0.67973000  1.0
  C  C63  1  0.01292000  0.56348000  0.17973000  1.0
  C  C64  1  0.39792000  0.10971000  0.16130000  1.0
  C  C65  1  0.10208000  0.39029000  0.66130000  1.0
  C  C66  1  0.60208000  0.89029000  0.83870000  1.0
  C  C67  1  0.89791000  0.60971000  0.33870000  1.0
  C  C68  1  0.29007000  0.05576000  0.08910000  1.0
  C  C69  1  0.20992000  0.44425000  0.58910000  1.0
  C  C70  1  0.70993000  0.94424000  0.91089000  1.0
  C  C71  1  0.79008000  0.55575000  0.41090000  1.0
  C  C72  1  0.34131000  0.92438000  0.05234000  1.0
  C  C73  1  0.15868000  0.57562000  0.55234000  1.0
  C  C74  1  0.65870000  0.07562000  0.94765000  1.0
  C  C75  1  0.84132000  0.42437000  0.44765000  1.0
  N  N76  1  0.53470000  0.23707000  0.53403000  1.0
  N  N77  1  0.96530000  0.26293000  0.03403000  1.0
  N  N78  1  0.46530000  0.76292000  0.46597000  1.0
  N  N79  1  0.03470000  0.73708000  0.96597000  1.0
  N  N80  1  0.42813000  0.01139000  0.23913000  1.0
  N  N81  1  0.07186000  0.48861000  0.73913000  1.0
  N  N82  1  0.57186000  0.98861000  0.76087000  1.0
  N  N83  1  0.92814000  0.51139000  0.26086000  1.0
  N  N84  1  0.38237000  0.81676000  0.02587000  1.0
  N  N85  1  0.11762000  0.68324000  0.52586000  1.0
  N  N86  1  0.61765000  0.18324000  0.97413000  1.0
  N  N87  1  0.88237000  0.31675000  0.47414000  1.0
  Cl  Cl88  1  0.83270000  0.14938000  0.68698000  1.0
  Cl  Cl89  1  0.66730000  0.35062000  0.18698000  1.0
  Cl  Cl90  1  0.16731000  0.85062000  0.31302000  1.0
  Cl  Cl91  1  0.33270000  0.64938000  0.81302000  1.0
  Cl  Cl92  1  0.70066000  0.51915000  0.65988000  1.0
  Cl  Cl93  1  0.79935000  0.98085000  0.15988000  1.0
  Cl  Cl94  1  0.29934000  0.48085000  0.34012000  1.0
  Cl  Cl95  1  0.20066000  0.01916000  0.84012000  1.0
  Cl  Cl96  1  0.33873000  0.46200000  0.06314000  1.0
  Cl  Cl97  1  0.16127000  0.03799000  0.56314000  1.0
  Cl  Cl98  1  0.66127000  0.53800000  0.93686000  1.0
  Cl  Cl99  1  0.83872000  0.96200000  0.43686000  1.0
  Cl  Cl100  1  0.43670000  0.28660000  0.77226000  1.0
  Cl  Cl101  1  0.06330000  0.21340000  0.27226000  1.0
  Cl  Cl102  1  0.56330000  0.71340000  0.22774000  1.0
  Cl  Cl103  1  0.93670000  0.78660000  0.72774000  1.0
