# generated using pymatgen
data_CuH14C20(NO2)2
_symmetry_space_group_name_H-M   'P 1'
_cell_length_a   9.59960000
_cell_length_b   9.92692000
_cell_length_c   9.92675000
_cell_angle_alpha   81.27230000
_cell_angle_beta   79.34870000
_cell_angle_gamma   79.34880000
_symmetry_Int_Tables_number   1
_chemical_formula_structural   CuH14C20(NO2)2
_chemical_formula_sum   'Cu2 H28 C40 N4 O8'
_cell_volume   906.85281971
_cell_formula_units_Z   2
loop_
 _symmetry_equiv_pos_site_id
 _symmetry_equiv_pos_as_xyz
  1  'x, y, z'
loop_
 _atom_site_type_symbol
 _atom_site_label
 _atom_site_symmetry_multiplicity
 _atom_site_fract_x
 _atom_site_fract_y
 _atom_site_fract_z
 _atom_site_occupancy
  Cu  Cu0  1  0.25000000  0.11247000  0.88752000  1.0
  Cu  Cu1  1  0.75000000  0.88753000  0.11247000  1.0
  H  H2  1  0.03885000  0.29804000  0.74214000  1.0
  H  H3  1  0.53885000  0.74215000  0.29804000  1.0
  H  H4  1  0.96116000  0.70196000  0.25785000  1.0
  H  H5  1  0.46117000  0.25785000  0.70196000  1.0
  H  H6  1  0.35275000  0.96662000  0.64066000  1.0
  H  H7  1  0.85276000  0.64066000  0.96662000  1.0
  H  H8  1  0.64725000  0.03338000  0.35934000  1.0
  H  H9  1  0.14726000  0.35933000  0.03338000  1.0
  H  H10  1  0.28224000  0.97481000  0.40775000  1.0
  H  H11  1  0.78226000  0.40775000  0.97482000  1.0
  H  H12  1  0.71774000  0.02519000  0.59225000  1.0
  H  H13  1  0.21775000  0.59224000  0.02519000  1.0
  H  H14  1  0.87575000  0.42001000  0.57786000  1.0
  H  H15  1  0.37575000  0.57787000  0.42001000  1.0
  H  H16  1  0.12425000  0.57999000  0.42214000  1.0
  H  H17  1  0.62426000  0.42214000  0.57998000  1.0
  H  H18  1  0.79428000  0.43913000  0.34972000  1.0
  H  H19  1  0.29427000  0.34974000  0.43913000  1.0
  H  H20  1  0.20572000  0.56088000  0.65027000  1.0
  H  H21  1  0.70573000  0.65027000  0.56087000  1.0
  H  H22  1  0.91386000  0.27318000  0.18213000  1.0
  H  H23  1  0.41386000  0.18214000  0.27319000  1.0
  H  H24  1  0.08614000  0.72682000  0.81787000  1.0
  H  H25  1  0.58614000  0.81786000  0.72681000  1.0
  H  H26  1  0.11671000  0.09270000  0.23660000  1.0
  H  H27  1  0.61673000  0.23660000  0.09271000  1.0
  H  H28  1  0.88327000  0.90730000  0.76340000  1.0
  H  H29  1  0.38328000  0.76339000  0.90730000  1.0
  C  C30  1  0.04869000  0.92891000  0.98741000  1.0
  C  C31  1  0.54868000  0.98741000  0.92890000  1.0
  C  C32  1  0.95131000  0.07110000  0.01259000  1.0
  C  C33  1  0.45131000  0.01259000  0.07110000  1.0
  C  C34  1  0.08988000  0.22953000  0.66459000  1.0
  C  C35  1  0.58988000  0.66459000  0.22954000  1.0
  C  C36  1  0.91012000  0.77047000  0.33541000  1.0
  C  C37  1  0.41013000  0.33541000  0.77047000  1.0
  C  C38  1  0.26521000  0.04254000  0.60609000  1.0
  C  C39  1  0.76522000  0.60609000  0.04255000  1.0
  C  C40  1  0.73479000  0.95745000  0.39391000  1.0
  C  C41  1  0.23479000  0.39390000  0.95745000  1.0
  C  C42  1  0.22457000  0.04703000  0.47949000  1.0
  C  C43  1  0.72458000  0.47950000  0.04704000  1.0
  C  C44  1  0.77542000  0.95296000  0.52050000  1.0
  C  C45  1  0.27543000  0.52050000  0.95297000  1.0
  C  C46  1  0.10922000  0.14834000  0.44079000  1.0
  C  C47  1  0.60923000  0.44079000  0.14835000  1.0
  C  C48  1  0.89077000  0.85166000  0.55922000  1.0
  C  C49  1  0.39077000  0.55921000  0.85166000  1.0
  C  C50  1  0.03989000  0.24306000  0.53735000  1.0
  C  C51  1  0.53990000  0.53736000  0.24307000  1.0
  C  C52  1  0.96010000  0.75693000  0.46265000  1.0
  C  C53  1  0.46011000  0.46264000  0.75693000  1.0
  C  C54  1  0.92586000  0.34818000  0.50331000  1.0
  C  C55  1  0.42586000  0.50331000  0.34818000  1.0
  C  C56  1  0.07413000  0.65182000  0.49669000  1.0
  C  C57  1  0.57414000  0.49669000  0.65182000  1.0
  C  C58  1  0.88164000  0.35839000  0.37720000  1.0
  C  C59  1  0.38163000  0.37721000  0.35839000  1.0
  C  C60  1  0.11837000  0.64161000  0.62280000  1.0
  C  C61  1  0.61837000  0.62280000  0.64161000  1.0
  C  C62  1  0.94939000  0.26449000  0.28164000  1.0
  C  C63  1  0.44940000  0.28165000  0.26449000  1.0
  C  C64  1  0.05060000  0.73552000  0.71836000  1.0
  C  C65  1  0.55061000  0.71835000  0.73551000  1.0
  C  C66  1  0.06119000  0.16172000  0.31209000  1.0
  C  C67  1  0.56120000  0.31210000  0.16173000  1.0
  C  C68  1  0.93880000  0.83828000  0.68791000  1.0
  C  C69  1  0.43880000  0.68790000  0.83828000  1.0
  N  N70  1  0.19804000  0.13354000  0.69747000  1.0
  N  N71  1  0.69804000  0.69748000  0.13354000  1.0
  N  N72  1  0.80196000  0.86646000  0.30252000  1.0
  N  N73  1  0.30196000  0.30252000  0.86646000  1.0
  O  O74  1  0.17885000  0.93110000  0.92957000  1.0
  O  O75  1  0.67885000  0.92956000  0.93109000  1.0
  O  O76  1  0.82115000  0.06890000  0.07042000  1.0
  O  O77  1  0.32115000  0.07043000  0.06891000  1.0
  O  O78  1  0.99480000  0.82031000  0.02385000  1.0
  O  O79  1  0.49479000  0.02385000  0.82030000  1.0
  O  O80  1  0.00521000  0.17970000  0.97614000  1.0
  O  O81  1  0.50521000  0.97615000  0.17970000  1.0
