# generated using pymatgen
data_CdH18C18N4O5
_symmetry_space_group_name_H-M   'P 1'
_cell_length_a   9.49313000
_cell_length_b   9.50561000
_cell_length_c   11.54740000
_cell_angle_alpha   81.44380000
_cell_angle_beta   74.12290000
_cell_angle_gamma   66.19020000
_symmetry_Int_Tables_number   1
_chemical_formula_structural   CdH18C18N4O5
_chemical_formula_sum   'Cd2 H36 C36 N8 O10'
_cell_volume   916.08963406
_cell_formula_units_Z   2
loop_
 _symmetry_equiv_pos_site_id
 _symmetry_equiv_pos_as_xyz
  1  'x, y, z'
loop_
 _atom_site_type_symbol
 _atom_site_label
 _atom_site_symmetry_multiplicity
 _atom_site_fract_x
 _atom_site_fract_y
 _atom_site_fract_z
 _atom_site_occupancy
  Cd  Cd0  1  0.30305000  0.69803000  0.10539000  1.0
  Cd  Cd1  1  0.69695000  0.30197000  0.89461000  1.0
  H  H2  1  0.74170000  0.21536000  0.61092000  1.0
  H  H3  1  0.25830000  0.78464000  0.38908000  1.0
  H  H4  1  0.56215000  0.48044000  0.38919000  1.0
  H  H5  1  0.43785000  0.51956000  0.61081000  1.0
  H  H6  1  0.91512000  0.04063000  0.46263000  1.0
  H  H7  1  0.08488000  0.95937000  0.53737000  1.0
  H  H8  1  0.88866000  0.19640000  0.09618000  1.0
  H  H9  1  0.11134000  0.80360000  0.90382000  1.0
  H  H10  1  0.67100000  0.96488000  0.77905000  1.0
  H  H11  1  0.32900000  0.03512000  0.22095000  1.0
  H  H12  1  0.65202000  0.71920000  0.94293000  1.0
  H  H13  1  0.34798000  0.28080000  0.05707000  1.0
  H  H14  1  0.18948000  0.02836000  0.92607000  1.0
  H  H15  1  0.81052000  0.97164000  0.07393000  1.0
  H  H16  1  0.27765000  0.26732000  0.80243000  1.0
  H  H17  1  0.72235000  0.73268000  0.19757000  1.0
  H  H18  1  0.47326000  0.20373000  0.71364000  1.0
  H  H19  1  0.52674000  0.79626000  0.28636000  1.0
  H  H20  1  0.20021000  0.12251000  0.69066000  1.0
  H  H21  1  0.79979000  0.87749000  0.30934000  1.0
  H  H22  1  0.39679000  0.02887000  0.60980000  1.0
  H  H23  1  0.60321000  0.97113000  0.39020000  1.0
  H  H24  1  0.06890000  0.26395000  0.53322000  1.0
  H  H25  1  0.93110000  0.73605000  0.46678000  1.0
  H  H26  1  0.24101000  0.13688000  0.43855000  1.0
  H  H27  1  0.75899000  0.86312000  0.56145000  1.0
  H  H28  1  0.22801000  0.38067000  0.59312000  1.0
  H  H29  1  0.77199000  0.61933000  0.40688000  1.0
  H  H30  1  0.40297000  0.26305000  0.49540000  1.0
  H  H31  1  0.59703000  0.73695000  0.50460000  1.0
  H  H32  1  0.99260000  0.31486000  0.31640000  1.0
  H  H33  1  0.00740000  0.68515000  0.68360000  1.0
  H  H34  1  0.02797000  0.53996000  0.13921000  1.0
  H  H35  1  0.97203000  0.46005000  0.86079000  1.0
  H  H36  1  0.32250000  0.47867000  0.37184000  1.0
  H  H37  1  0.67750000  0.52133000  0.62816000  1.0
  C  C38  1  0.66083000  0.37404000  0.35802000  1.0
  C  C39  1  0.33917000  0.62596000  0.64198000  1.0
  C  C40  1  0.86018000  0.12780000  0.39868000  1.0
  C  C41  1  0.13982000  0.87220000  0.60132000  1.0
  C  C42  1  0.73243000  0.26286000  0.44077000  1.0
  C  C43  1  0.26757000  0.73714000  0.55923000  1.0
  C  C44  1  0.91594000  0.10418000  0.27486000  1.0
  C  C45  1  0.08406000  0.89582000  0.72514000  1.0
  C  C46  1  0.84449000  0.21504000  0.19234000  1.0
  C  C47  1  0.15551000  0.78496000  0.80766000  1.0
  C  C48  1  0.71690000  0.35015000  0.23434000  1.0
  C  C49  1  0.28310000  0.64985000  0.76566000  1.0
  C  C50  1  0.63525000  0.46943000  0.14740000  1.0
  C  C51  1  0.36475000  0.53057000  0.85260000  1.0
  C  C52  1  0.05423000  0.96039000  0.23007000  1.0
  C  C53  1  0.94577000  0.03961000  0.76993000  1.0
  C  C54  1  0.57098000  0.93792000  0.83264000  1.0
  C  C55  1  0.42902000  0.06208000  0.16736000  1.0
  C  C56  1  0.55990000  0.82053000  0.91519000  1.0
  C  C57  1  0.44010000  0.17947000  0.08481000  1.0
  C  C58  1  0.31784000  0.97719000  0.91088000  1.0
  C  C59  1  0.68216000  0.02281000  0.08912000  1.0
  C  C60  1  0.37076000  0.17101000  0.74977000  1.0
  C  C61  1  0.62924000  0.82899000  0.25023000  1.0
  C  C62  1  0.31194000  0.13879000  0.64985000  1.0
  C  C63  1  0.68806000  0.86121000  0.35015000  1.0
  C  C64  1  0.18652000  0.25200000  0.47605000  1.0
  C  C65  1  0.81348000  0.74800000  0.52395000  1.0
  C  C66  1  0.28724000  0.26784000  0.55189000  1.0
  C  C67  1  0.71276000  0.73216000  0.44811000  1.0
  C  C68  1  0.06370000  0.38356000  0.30145000  1.0
  C  C69  1  0.93629000  0.61644000  0.69855000  1.0
  C  C70  1  0.08188000  0.49515000  0.21531000  1.0
  C  C71  1  0.91813000  0.50485000  0.78469000  1.0
  C  C72  1  0.23760000  0.46526000  0.33259000  1.0
  C  C73  1  0.76240000  0.53474000  0.66741000  1.0
  N  N74  1  0.41699000  0.03596000  0.83122000  1.0
  N  N75  1  0.58301000  0.96404000  0.16878000  1.0
  N  N76  1  0.40172000  0.84670000  0.96318000  1.0
  N  N77  1  0.59828000  0.15330000  0.03682000  1.0
  N  N78  1  0.18994000  0.54536000  0.23599000  1.0
  N  N79  1  0.81006000  0.45463000  0.76401000  1.0
  N  N80  1  0.16283000  0.36606000  0.37544000  1.0
  N  N81  1  0.83717000  0.63394000  0.62456000  1.0
  O  O82  1  0.50959000  0.57984000  0.19450000  1.0
  O  O83  1  0.49041000  0.42016000  0.80550000  1.0
  O  O84  1  0.69449000  0.45510000  0.03492000  1.0
  O  O85  1  0.30551000  0.54490000  0.96508000  1.0
  O  O86  1  0.16366000  0.90053000  0.28762000  1.0
  O  O87  1  0.83634000  0.09947000  0.71238000  1.0
  O  O88  1  0.05623000  0.90685000  0.13456000  1.0
  O  O89  1  0.94377000  0.09315000  0.86544000  1.0
  O  O90  1  0.67359000  0.29206000  0.55975000  1.0
  O  O91  1  0.32641000  0.70794000  0.44025000  1.0
