# generated using pymatgen
data_CuBH10(C3N2)3
_symmetry_space_group_name_H-M   'P 1'
_cell_length_a   8.98687000
_cell_length_b   9.21564000
_cell_length_c   15.69680000
_cell_angle_alpha   103.54500000
_cell_angle_beta   90.93180000
_cell_angle_gamma   116.04800000
_symmetry_Int_Tables_number   1
_chemical_formula_structural   CuBH10(C3N2)3
_chemical_formula_sum   'Cu4 B4 H40 C36 N24'
_cell_volume   1124.86646862
_cell_formula_units_Z   4
loop_
 _symmetry_equiv_pos_site_id
 _symmetry_equiv_pos_as_xyz
  1  'x, y, z'
loop_
 _atom_site_type_symbol
 _atom_site_label
 _atom_site_symmetry_multiplicity
 _atom_site_fract_x
 _atom_site_fract_y
 _atom_site_fract_z
 _atom_site_occupancy
  Cu  Cu0  1  0.30222000  0.94310000  0.98179000  1.0
  Cu  Cu1  1  0.69778000  0.05690000  0.01821000  1.0
  Cu  Cu2  1  0.87038000  0.75881000  0.42719000  1.0
  Cu  Cu3  1  0.12963000  0.24119000  0.57280000  1.0
  B  B4  1  0.41972000  0.87454000  0.63754000  1.0
  B  B5  1  0.58028000  0.12546000  0.36246000  1.0
  B  B6  1  0.31787000  0.53336000  0.18634000  1.0
  B  B7  1  0.68213000  0.46664000  0.81366000  1.0
  H  H8  1  0.48819000  0.61176000  0.35894000  1.0
  H  H9  1  0.51181000  0.38824000  0.64106000  1.0
  H  H10  1  0.42652000  0.05796000  0.81136000  1.0
  H  H11  1  0.57348000  0.94204000  0.18863000  1.0
  H  H12  1  0.16055000  0.94421000  0.58317000  1.0
  H  H13  1  0.83944000  0.05579000  0.41683000  1.0
  H  H14  1  0.05041000  0.51898000  0.37110000  1.0
  H  H15  1  0.94959000  0.48102000  0.62890000  1.0
  H  H16  1  0.59647000  0.88715000  0.48807000  1.0
  H  H17  1  0.40353000  0.11284000  0.51193000  1.0
  H  H18  1  0.06467000  0.07875000  0.92789000  1.0
  H  H19  1  0.93533000  0.92124000  0.07211000  1.0
  H  H20  1  0.35649000  0.64847000  0.02532000  1.0
  H  H21  1  0.64351000  0.35153000  0.97468000  1.0
  H  H22  1  0.05686000  0.35897000  0.03608000  1.0
  H  H23  1  0.94314000  0.64102000  0.96393000  1.0
  H  H24  1  0.47005000  0.30972000  0.13267000  1.0
  H  H25  1  0.52995000  0.69028000  0.86733000  1.0
  H  H26  1  0.24173000  0.54643000  0.67505000  1.0
  H  H27  1  0.75827000  0.45356000  0.32495000  1.0
  H  H28  1  0.62889000  0.67080000  0.10908000  1.0
  H  H29  1  0.37111000  0.32920000  0.89092000  1.0
  H  H30  1  0.17044000  0.96284000  0.17131000  1.0
  H  H31  1  0.82956000  0.03717000  0.82869000  1.0
  H  H32  1  0.31894000  0.57444000  0.48613000  1.0
  H  H33  1  0.68106000  0.42556000  0.51387000  1.0
  H  H34  1  0.61786000  0.75588000  0.72623000  1.0
  H  H35  1  0.38214000  0.24413000  0.27377000  1.0
  H  H36  1  0.18279000  0.75205000  0.26977000  1.0
  H  H37  1  0.81721000  0.24796000  0.73023000  1.0
  H  H38  1  0.86328000  0.72151000  0.63069000  1.0
  H  H39  1  0.13672000  0.27849000  0.36931000  1.0
  H  H40  1  0.17482000  0.57316000  0.84811000  1.0
  H  H41  1  0.82517000  0.42684000  0.15189000  1.0
  H  H42  1  0.91312000  0.80413000  0.23025000  1.0
  H  H43  1  0.08688000  0.19587000  0.76975000  1.0
  H  H44  1  0.46520000  0.02441000  0.65377000  1.0
  H  H45  1  0.53480000  0.97559000  0.34623000  1.0
  H  H46  1  0.23698000  0.49254000  0.24534000  1.0
  H  H47  1  0.76302000  0.50746000  0.75466000  1.0
  C  C48  1  0.56739000  0.64739000  0.30861000  1.0
  C  C49  1  0.43261000  0.35261000  0.69139000  1.0
  C  C50  1  0.36790000  0.92305000  0.79944000  1.0
  C  C51  1  0.63211000  0.07695000  0.20056000  1.0
  C  C52  1  0.16503000  0.83520000  0.54064000  1.0
  C  C53  1  0.83497000  0.16479000  0.45936000  1.0
  C  C54  1  0.11342000  0.61649000  0.43205000  1.0
  C  C55  1  0.88658000  0.38351000  0.56795000  1.0
  C  C56  1  0.63713000  0.84603000  0.53917000  1.0
  C  C57  1  0.36287000  0.15396000  0.46083000  1.0
  C  C58  1  0.14852000  0.16884000  0.98647000  1.0
  C  C59  1  0.85148000  0.83115000  0.01354000  1.0
  C  C60  1  0.30604000  0.70510000  0.07780000  1.0
  C  C61  1  0.69397000  0.29490000  0.92220000  1.0
  C  C62  1  0.14424000  0.30818000  0.03967000  1.0
  C  C63  1  0.85575000  0.69181000  0.96034000  1.0
  C  C64  1  0.35843000  0.28349000  0.09135000  1.0
  C  C65  1  0.64158000  0.71651000  0.90865000  1.0
  C  C66  1  0.27028000  0.65647000  0.72927000  1.0
  C  C67  1  0.72972000  0.34353000  0.27072000  1.0
  C  C68  1  0.64202000  0.67814000  0.17890000  1.0
  C  C69  1  0.35797000  0.32186000  0.82110000  1.0
  C  C70  1  0.20901000  0.86461000  0.15494000  1.0
  C  C71  1  0.79099000  0.13539000  0.84506000  1.0
  C  C72  1  0.24753000  0.64388000  0.48834000  1.0
  C  C73  1  0.75247000  0.35612000  0.51166000  1.0
  C  C74  1  0.65052000  0.77793000  0.66278000  1.0
  C  C75  1  0.34948000  0.22207000  0.33721000  1.0
  C  C76  1  0.21457000  0.76133000  0.20426000  1.0
  C  C77  1  0.78543000  0.23868000  0.79574000  1.0
  C  C78  1  0.77169000  0.76135000  0.61475000  1.0
  C  C79  1  0.22831000  0.23866000  0.38525000  1.0
  C  C80  1  0.23843000  0.67103000  0.81549000  1.0
  C  C81  1  0.76156000  0.32897000  0.18451000  1.0
  C  C82  1  0.78279000  0.74572000  0.23963000  1.0
  C  C83  1  0.21721000  0.25428000  0.76036000  1.0
  N  N84  1  0.50564000  0.61536000  0.22329000  1.0
  N  N85  1  0.49436000  0.38464000  0.77671000  1.0
  N  N86  1  0.06190000  0.73734000  0.46559000  1.0
  N  N87  1  0.93810000  0.26265000  0.53441000  1.0
  N  N88  1  0.35284000  0.81764000  0.71983000  1.0
  N  N89  1  0.64716000  0.18236000  0.28017000  1.0
  N  N90  1  0.26681000  0.82843000  0.07546000  1.0
  N  N91  1  0.73319000  0.17158000  0.92454000  1.0
  N  N92  1  0.56510000  0.83155000  0.61400000  1.0
  N  N93  1  0.43490000  0.16845000  0.38600000  1.0
  N  N94  1  0.27891000  0.38152000  0.10583000  1.0
  N  N95  1  0.72108000  0.61848000  0.89417000  1.0
  N  N96  1  0.28053000  0.78425000  0.55669000  1.0
  N  N97  1  0.71947000  0.21575000  0.44331000  1.0
  N  N98  1  0.73505000  0.72569000  0.32140000  1.0
  N  N99  1  0.26495000  0.27431000  0.67860000  1.0
  N  N100  1  0.76198000  0.80412000  0.53667000  1.0
  N  N101  1  0.23802000  0.19588000  0.46333000  1.0
  N  N102  1  0.27610000  0.66000000  0.15473000  1.0
  N  N103  1  0.72390000  0.34000000  0.84527000  1.0
  N  N104  1  0.30110000  0.83983000  0.85939000  1.0
  N  N105  1  0.69890000  0.16017000  0.14061000  1.0
  N  N106  1  0.28293000  0.15319000  0.01962000  1.0
  N  N107  1  0.71707000  0.84681000  0.98038000  1.0
