# generated using pymatgen
data_ZnH9C7N2ClO5
_symmetry_space_group_name_H-M   'P 1'
_cell_length_a   5.77076000
_cell_length_b   10.45880000
_cell_length_c   19.10960000
_cell_angle_alpha   74.36500000
_cell_angle_beta   89.99960000
_cell_angle_gamma   89.99980000
_symmetry_Int_Tables_number   1
_chemical_formula_structural   ZnH9C7N2ClO5
_chemical_formula_sum   'Zn4 H36 C28 N8 Cl4 O20'
_cell_volume   1110.68755019
_cell_formula_units_Z   4
loop_
 _symmetry_equiv_pos_site_id
 _symmetry_equiv_pos_as_xyz
  1  'x, y, z'
loop_
 _atom_site_type_symbol
 _atom_site_label
 _atom_site_symmetry_multiplicity
 _atom_site_fract_x
 _atom_site_fract_y
 _atom_site_fract_z
 _atom_site_occupancy
  Zn  Zn0  1  0.44216000  0.44013000  0.88842000  1.0
  Zn  Zn1  1  0.94216000  0.05986000  0.61157000  1.0
  Zn  Zn2  1  0.55785000  0.55986000  0.11158000  1.0
  Zn  Zn3  1  0.05782000  0.94013000  0.38843000  1.0
  H  H4  1  0.87187000  0.64879000  0.95812000  1.0
  H  H5  1  0.37185000  0.85122000  0.54187000  1.0
  H  H6  1  0.12815000  0.35121000  0.04188000  1.0
  H  H7  1  0.62813000  0.14877000  0.45812000  1.0
  H  H8  1  0.08639000  0.70017000  0.01101000  1.0
  H  H9  1  0.58637000  0.79983000  0.48898000  1.0
  H  H10  1  0.91363000  0.29983000  0.98898000  1.0
  H  H11  1  0.41361000  0.20016000  0.51102000  1.0
  H  H12  1  0.63664000  0.82738000  0.87143000  1.0
  H  H13  1  0.13661000  0.67265000  0.62857000  1.0
  H  H14  1  0.36338000  0.17263000  0.12858000  1.0
  H  H15  1  0.86338000  0.32735000  0.37143000  1.0
  H  H16  1  0.25721000  0.94582000  0.95611000  1.0
  H  H17  1  0.75718000  0.55417000  0.54389000  1.0
  H  H18  1  0.74280000  0.05418000  0.04389000  1.0
  H  H19  1  0.24281000  0.44582000  0.45611000  1.0
  H  H20  1  0.02423000  0.17227000  0.87324000  1.0
  H  H21  1  0.52414000  0.32774000  0.62676000  1.0
  H  H22  1  0.97580000  0.82774000  0.12677000  1.0
  H  H23  1  0.47583000  0.67226000  0.37324000  1.0
  H  H24  1  0.64671000  0.20740000  0.80693000  1.0
  H  H25  1  0.14659000  0.29263000  0.69306000  1.0
  H  H26  1  0.35335000  0.79261000  0.19308000  1.0
  H  H27  1  0.85337000  0.70738000  0.30694000  1.0
  H  H28  1  0.44523000  0.07447000  0.82428000  1.0
  H  H29  1  0.94518000  0.42559000  0.67572000  1.0
  H  H30  1  0.55479000  0.92556000  0.17573000  1.0
  H  H31  1  0.05480000  0.57441000  0.32428000  1.0
  H  H32  1  0.85448000  0.48193000  0.84044000  1.0
  H  H33  1  0.35449000  0.01809000  0.65956000  1.0
  H  H34  1  0.14554000  0.51808000  0.15956000  1.0
  H  H35  1  0.64549000  0.98192000  0.34044000  1.0
  H  H36  1  0.70120000  0.61126000  0.80994000  1.0
  H  H37  1  0.20122000  0.88877000  0.69007000  1.0
  H  H38  1  0.29880000  0.38875000  0.19007000  1.0
  H  H39  1  0.79877000  0.11124000  0.30993000  1.0
  C  C40  1  0.21578000  0.66084000  0.91310000  1.0
  C  C41  1  0.71576000  0.83916000  0.58689000  1.0
  C  C42  1  0.78423000  0.33915000  0.08690000  1.0
  C  C43  1  0.28422000  0.16084000  0.41309000  1.0
  C  C44  1  0.02609000  0.71079000  0.95534000  1.0
  C  C45  1  0.52607000  0.78922000  0.54466000  1.0
  C  C46  1  0.97392000  0.28922000  0.04466000  1.0
  C  C47  1  0.47390000  0.21078000  0.45534000  1.0
  C  C48  1  0.77637000  0.88964000  0.88211000  1.0
  C  C49  1  0.27633000  0.61038000  0.61788000  1.0
  C  C50  1  0.22365000  0.11036000  0.11788000  1.0
  C  C51  1  0.72365000  0.38962000  0.38212000  1.0
  C  C52  1  0.09822000  0.95715000  0.92499000  1.0
  C  C53  1  0.59818000  0.54284000  0.57501000  1.0
  C  C54  1  0.90179000  0.04284000  0.07501000  1.0
  C  C55  1  0.40181000  0.45716000  0.42498000  1.0
  C  C56  1  0.98478000  0.06729000  0.88482000  1.0
  C  C57  1  0.48471000  0.43272000  0.61518000  1.0
  C  C58  1  0.01525000  0.93272000  0.11518000  1.0
  C  C59  1  0.51529000  0.56728000  0.38482000  1.0
  C  C60  1  0.62325000  0.10314000  0.80700000  1.0
  C  C61  1  0.12317000  0.39689000  0.69299000  1.0
  C  C62  1  0.37678000  0.89687000  0.19301000  1.0
  C  C63  1  0.87682000  0.60312000  0.30701000  1.0
  C  C64  1  0.65992000  0.09095000  0.72981000  1.0
  C  C65  1  0.15988000  0.40906000  0.77019000  1.0
  C  C66  1  0.34006000  0.90905000  0.27019000  1.0
  C  C67  1  0.84012000  0.59094000  0.22981000  1.0
  N  N68  1  0.96549000  0.84847000  0.92253000  1.0
  N  N69  1  0.46548000  0.65154000  0.57746000  1.0
  N  N70  1  0.03452000  0.15153000  0.07747000  1.0
  N  N71  1  0.53450000  0.34846000  0.42253000  1.0
  N  N72  1  0.78520000  0.02284000  0.85882000  1.0
  N  N73  1  0.28513000  0.47718000  0.64118000  1.0
  N  N74  1  0.21482000  0.97717000  0.14118000  1.0
  N  N75  1  0.71486000  0.52282000  0.35883000  1.0
  Cl  Cl76  1  0.48518000  0.22726000  0.94814000  1.0
  Cl  Cl77  1  0.98518000  0.27273000  0.55186000  1.0
  Cl  Cl78  1  0.51483000  0.77273000  0.05188000  1.0
  Cl  Cl79  1  0.01481000  0.72726000  0.44813000  1.0
  O  O80  1  0.25554000  0.53595000  0.94172000  1.0
  O  O81  1  0.75554000  0.96405000  0.55826000  1.0
  O  O82  1  0.74448000  0.46405000  0.05827000  1.0
  O  O83  1  0.24443000  0.03595000  0.44173000  1.0
  O  O84  1  0.31193000  0.73453000  0.85858000  1.0
  O  O85  1  0.81190000  0.76548000  0.64141000  1.0
  O  O86  1  0.68810000  0.26549000  0.14141000  1.0
  O  O87  1  0.18811000  0.23452000  0.35858000  1.0
  O  O88  1  0.49310000  0.12744000  0.68624000  1.0
  O  O89  1  0.99309000  0.37256000  0.81376000  1.0
  O  O90  1  0.50686000  0.87256000  0.31377000  1.0
  O  O91  1  0.00692000  0.62744000  0.18624000  1.0
  O  O92  1  0.85573000  0.04794000  0.71534000  1.0
  O  O93  1  0.35573000  0.45204000  0.78466000  1.0
  O  O94  1  0.14424000  0.95205000  0.28466000  1.0
  O  O95  1  0.64429000  0.54794000  0.21533000  1.0
  O  O96  1  0.74312000  0.54517000  0.85487000  1.0
  O  O97  1  0.24314000  0.95484000  0.64513000  1.0
  O  O98  1  0.25688000  0.45484000  0.14513000  1.0
  O  O99  1  0.75684000  0.04516000  0.35487000  1.0
