# generated using pymatgen
data_Zn2H19C22N3O8
_symmetry_space_group_name_H-M   'P 1'
_cell_length_a   9.85406000
_cell_length_b   11.03480000
_cell_length_c   11.14430000
_cell_angle_alpha   97.96110000
_cell_angle_beta   91.90040000
_cell_angle_gamma   97.10950000
_symmetry_Int_Tables_number   1
_chemical_formula_structural   Zn2H19C22N3O8
_chemical_formula_sum   'Zn2 H19 C22 N3 O8'
_cell_volume   1189.33685100
_cell_formula_units_Z   1
loop_
 _symmetry_equiv_pos_site_id
 _symmetry_equiv_pos_as_xyz
  1  'x, y, z'
loop_
 _atom_site_type_symbol
 _atom_site_label
 _atom_site_symmetry_multiplicity
 _atom_site_fract_x
 _atom_site_fract_y
 _atom_site_fract_z
 _atom_site_occupancy
  Zn  Zn0  1  0.35977000  0.47747000  0.49831000  1.0
  Zn  Zn1  1  0.64659000  0.50997000  0.50576000  1.0
  H  H2  1  0.61583000  0.10898000  0.35582000  1.0
  H  H3  1  0.40175000  0.53923000  0.90437000  1.0
  H  H4  1  0.87132000  0.48760000  0.33019000  1.0
  H  H5  1  0.91131000  0.54737000  0.59352000  1.0
  H  H6  1  0.38200000  0.22588000  0.71732000  1.0
  H  H7  1  0.28503000  0.11441000  0.87867000  1.0
  H  H8  1  0.28222000  0.88605000  0.86354000  1.0
  H  H9  1  0.38108000  0.77065000  0.68941000  1.0
  H  H10  1  0.61890000  0.88142000  0.34474000  1.0
  H  H11  1  0.69581000  0.52930000  0.12405000  1.0
  H  H12  1  0.70371000  0.49490000  0.89913000  1.0
  H  H13  1  0.07744000  0.64145000  0.30342000  1.0
  H  H14  1  0.23919000  0.62810000  0.36438000  1.0
  H  H15  1  0.14856000  0.30568000  0.57869000  1.0
  H  H16  1  0.09842000  0.43451000  0.67071000  1.0
  H  H17  1  0.98124000  0.34741000  0.55439000  1.0
  H  H18  1  0.32178000  0.30836000  0.12072000  1.0
  H  H19  1  0.28053000  0.44818000  0.08032000  1.0
  H  H20  1  0.36776000  0.35184000  0.97622000  1.0
  C  C21  1  0.51037000  0.52654000  0.73681000  1.0
  C  C22  1  0.43913000  0.06329000  0.60847000  1.0
  C  C23  1  0.50205000  0.12481000  0.51562000  1.0
  C  C24  1  0.56632000  0.05936000  0.42397000  1.0
  C  C25  1  0.56774000  0.93132000  0.41768000  1.0
  C  C26  1  0.50441000  0.86823000  0.50366000  1.0
  C  C27  1  0.60111000  0.49504000  0.06932000  1.0
  C  C28  1  0.49422000  0.44795000  0.12987000  1.0
  C  C29  1  0.60547000  0.50264000  0.94083000  1.0
  C  C30  1  0.50065000  0.52362000  0.86860000  1.0
  C  C31  1  0.07953000  0.51844000  0.42382000  1.0
  C  C32  1  0.50152000  0.25999000  0.51197000  1.0
  C  C33  1  0.92695000  0.50846000  0.41923000  1.0
  C  C34  1  0.50976000  0.45977000  0.26568000  1.0
  C  C35  1  0.50637000  0.73162000  0.49542000  1.0
  C  C36  1  0.38165000  0.12651000  0.71062000  1.0
  C  C37  1  0.32700000  0.06383000  0.80032000  1.0
  C  C38  1  0.32578000  0.93468000  0.79207000  1.0
  C  C39  1  0.38096000  0.87014000  0.69477000  1.0
  C  C40  1  0.43983000  0.93217000  0.60156000  1.0
  C  C41  1  0.08931000  0.38346000  0.57790000  1.0
  C  C42  1  0.35929000  0.38524000  0.07273000  1.0
  N  N43  1  0.15103000  0.46287000  0.49425000  1.0
  N  N44  1  0.85598000  0.52678000  0.51209000  1.0
  N  N45  1  0.13800000  0.59131000  0.34619000  1.0
  O  O46  1  0.39954000  0.54113000  0.68006000  1.0
  O  O47  1  0.62387000  0.51219000  0.68852000  1.0
  O  O48  1  0.39013000  0.30492000  0.53397000  1.0
  O  O49  1  0.61228000  0.31976000  0.48437000  1.0
  O  O50  1  0.40067000  0.42954000  0.31907000  1.0
  O  O51  1  0.62652000  0.50118000  0.31882000  1.0
  O  O52  1  0.39360000  0.66219000  0.46331000  1.0
  O  O53  1  0.61877000  0.69475000  0.52158000  1.0
