# generated using pymatgen
data_Sn2H18C12O5
_symmetry_space_group_name_H-M   'P 1'
_cell_length_a   8.40200000
_cell_length_b   12.96380000
_cell_length_c   14.93650000
_cell_angle_alpha   90.00030000
_cell_angle_beta   90.00030000
_cell_angle_gamma   83.35850000
_symmetry_Int_Tables_number   1
_chemical_formula_structural   Sn2H18C12O5
_chemical_formula_sum   'Sn8 H72 C48 O20'
_cell_volume   1615.99339013
_cell_formula_units_Z   4
loop_
 _symmetry_equiv_pos_site_id
 _symmetry_equiv_pos_as_xyz
  1  'x, y, z'
loop_
 _atom_site_type_symbol
 _atom_site_label
 _atom_site_symmetry_multiplicity
 _atom_site_fract_x
 _atom_site_fract_y
 _atom_site_fract_z
 _atom_site_occupancy
  Sn  Sn0  1  0.62206000  0.01289000  0.20980000  1.0
  Sn  Sn1  1  0.62204000  0.51289000  0.29020000  1.0
  Sn  Sn2  1  0.37795000  0.98711000  0.79020000  1.0
  Sn  Sn3  1  0.37795000  0.48711000  0.70980000  1.0
  Sn  Sn4  1  0.66058000  0.41204000  0.51232000  1.0
  Sn  Sn5  1  0.66058000  0.91205000  0.98768000  1.0
  Sn  Sn6  1  0.33942000  0.58795000  0.48768000  1.0
  Sn  Sn7  1  0.33943000  0.08795000  0.01232000  1.0
  H  H8  1  0.18962000  0.26659000  0.18559000  1.0
  H  H9  1  0.18961000  0.76658000  0.31441000  1.0
  H  H10  1  0.81037000  0.73341000  0.81441000  1.0
  H  H11  1  0.81039000  0.23341000  0.68559000  1.0
  H  H12  1  0.97279000  0.27689000  0.49489000  1.0
  H  H13  1  0.97278000  0.77688000  0.00511000  1.0
  H  H14  1  0.02722000  0.72312000  0.50511000  1.0
  H  H15  1  0.02723000  0.22311000  0.99489000  1.0
  H  H16  1  0.22785000  0.16506000  0.45885000  1.0
  H  H17  1  0.22784000  0.66506000  0.04115000  1.0
  H  H18  1  0.77214000  0.83493000  0.54114000  1.0
  H  H19  1  0.77216000  0.33494000  0.95885000  1.0
  H  H20  1  0.90294000  0.47094000  0.09323000  1.0
  H  H21  1  0.90294000  0.97094000  0.40677000  1.0
  H  H22  1  0.09706000  0.52907000  0.90677000  1.0
  H  H23  1  0.09706000  0.02907000  0.59323000  1.0
  H  H24  1  0.10175000  0.44343000  0.13815000  1.0
  H  H25  1  0.10175000  0.94343000  0.36185000  1.0
  H  H26  1  0.89825000  0.55657000  0.86185000  1.0
  H  H27  1  0.89825000  0.05657000  0.63815000  1.0
  H  H28  1  0.00389000  0.34166000  0.08787000  1.0
  H  H29  1  0.00389000  0.84167000  0.41213000  1.0
  H  H30  1  0.99611000  0.65834000  0.91213000  1.0
  H  H31  1  0.99611000  0.15834000  0.58787000  1.0
  H  H32  1  0.56131000  0.81469000  0.22669000  1.0
  H  H33  1  0.56131000  0.31468000  0.27331000  1.0
  H  H34  1  0.43869000  0.18532000  0.77331000  1.0
  H  H35  1  0.43869000  0.68532000  0.72669000  1.0
  H  H36  1  0.39843000  0.90083000  0.27252000  1.0
  H  H37  1  0.39843000  0.40082000  0.22748000  1.0
  H  H38  1  0.60157000  0.09918000  0.72748000  1.0
  H  H39  1  0.60156000  0.59918000  0.77253000  1.0
  H  H40  1  0.57879000  0.87065000  0.33600000  1.0
  H  H41  1  0.57879000  0.37064000  0.16400000  1.0
  H  H42  1  0.42121000  0.12936000  0.66400000  1.0
  H  H43  1  0.42120000  0.62936000  0.83601000  1.0
  H  H44  1  0.76874000  0.17914000  0.17087000  1.0
  H  H45  1  0.76874000  0.67913000  0.32913000  1.0
  H  H46  1  0.23126000  0.82087000  0.82913000  1.0
  H  H47  1  0.23127000  0.32086000  0.67087000  1.0
  H  H48  1  0.91293000  0.08365000  0.22174000  1.0
  H  H49  1  0.91293000  0.58364000  0.27827000  1.0
  H  H50  1  0.08707000  0.91636000  0.77826000  1.0
  H  H51  1  0.08708000  0.41635000  0.72174000  1.0
  H  H52  1  0.76913000  0.16142000  0.28980000  1.0
  H  H53  1  0.76913000  0.66141000  0.21020000  1.0
  H  H54  1  0.23087000  0.83859000  0.71020000  1.0
  H  H55  1  0.23088000  0.33858000  0.78980000  1.0
  H  H56  1  0.54339000  0.24093000  0.57065000  1.0
  H  H57  1  0.54339000  0.74093000  0.92934000  1.0
  H  H58  1  0.45661000  0.75907000  0.42935000  1.0
  H  H59  1  0.45661000  0.25908000  0.07066000  1.0
  H  H60  1  0.51707000  0.24913000  0.45138000  1.0
  H  H61  1  0.51707000  0.74913000  0.04862000  1.0
  H  H62  1  0.48293000  0.75087000  0.54862000  1.0
  H  H63  1  0.48293000  0.25087000  0.95138000  1.0
  H  H64  1  0.70733000  0.20180000  0.49634000  1.0
  H  H65  1  0.70734000  0.70180000  0.00366000  1.0
  H  H66  1  0.29267000  0.79821000  0.50366000  1.0
  H  H67  1  0.29266000  0.29820000  0.99634000  1.0
  H  H68  1  0.81668000  0.56264000  0.57984000  1.0
  H  H69  1  0.81668000  0.06264000  0.92015000  1.0
  H  H70  1  0.18332000  0.43736000  0.42015000  1.0
  H  H71  1  0.18332000  0.93736000  0.07985000  1.0
  H  H72  1  0.82909000  0.45558000  0.65641000  1.0
  H  H73  1  0.82909000  0.95558000  0.84358000  1.0
  H  H74  1  0.17091000  0.54442000  0.34359000  1.0
  H  H75  1  0.17091000  0.04442000  0.15641000  1.0
  H  H76  1  0.96064000  0.45184000  0.56115000  1.0
  H  H77  1  0.96064000  0.95184000  0.93885000  1.0
  H  H78  1  0.03936000  0.54816000  0.43885000  1.0
  H  H79  1  0.03936000  0.04816000  0.06115000  1.0
  C  C80  1  0.37397000  0.14185000  0.29896000  1.0
  C  C81  1  0.37396000  0.64185000  0.20104000  1.0
  C  C82  1  0.62602000  0.85815000  0.70104000  1.0
  C  C83  1  0.62604000  0.35815000  0.79896000  1.0
  C  C84  1  0.22314000  0.20846000  0.31997000  1.0
  C  C85  1  0.22313000  0.70846000  0.18003000  1.0
  C  C86  1  0.77685000  0.79153000  0.68003000  1.0
  C  C87  1  0.77687000  0.29154000  0.81997000  1.0
  C  C88  1  0.13975000  0.26927000  0.25291000  1.0
  C  C89  1  0.13974000  0.76927000  0.24709000  1.0
  C  C90  1  0.86024000  0.73073000  0.74709000  1.0
  C  C91  1  0.86026000  0.23073000  0.75291000  1.0
  C  C92  1  0.99886000  0.33180000  0.27272000  1.0
  C  C93  1  0.99886000  0.83180000  0.22727000  1.0
  C  C94  1  0.00113000  0.66820000  0.72727000  1.0
  C  C95  1  0.00114000  0.16820000  0.77272000  1.0
  C  C96  1  0.93403000  0.33473000  0.36107000  1.0
  C  C97  1  0.93402000  0.83473000  0.13893000  1.0
  C  C98  1  0.06597000  0.66527000  0.63893000  1.0
  C  C99  1  0.06598000  0.16527000  0.86107000  1.0
  C  C100  1  0.01917000  0.27291000  0.42666000  1.0
  C  C101  1  0.01916000  0.77290000  0.07334000  1.0
  C  C102  1  0.98083000  0.72709000  0.57334000  1.0
  C  C103  1  0.98085000  0.22710000  0.92666000  1.0
  C  C104  1  0.16180000  0.21140000  0.40710000  1.0
  C  C105  1  0.16179000  0.71140000  0.09290000  1.0
  C  C106  1  0.83819000  0.78859000  0.59289000  1.0
  C  C107  1  0.83821000  0.28860000  0.90711000  1.0
  C  C108  1  0.98586000  0.41301000  0.12820000  1.0
  C  C109  1  0.98586000  0.91301000  0.37180000  1.0
  C  C110  1  0.01414000  0.58699000  0.87180000  1.0
  C  C111  1  0.01414000  0.08699000  0.62820000  1.0
  C  C112  1  0.52890000  0.88297000  0.26870000  1.0
  C  C113  1  0.52890000  0.38297000  0.23130000  1.0
  C  C114  1  0.47110000  0.11703000  0.73130000  1.0
  C  C115  1  0.47109000  0.61703000  0.76870000  1.0
  C  C116  1  0.79060000  0.12241000  0.22518000  1.0
  C  C117  1  0.79060000  0.62241000  0.27482000  1.0
  C  C118  1  0.20940000  0.87759000  0.77482000  1.0
  C  C119  1  0.20941000  0.37759000  0.72518000  1.0
  C  C120  1  0.59995000  0.25691000  0.50690000  1.0
  C  C121  1  0.59995000  0.75691000  0.99311000  1.0
  C  C122  1  0.40005000  0.74309000  0.49311000  1.0
  C  C123  1  0.40005000  0.24309000  0.00690000  1.0
  C  C124  1  0.84057000  0.47812000  0.58632000  1.0
  C  C125  1  0.84057000  0.97812000  0.91367000  1.0
  C  C126  1  0.15943000  0.52189000  0.41367000  1.0
  C  C127  1  0.15943000  0.02188000  0.08633000  1.0
  O  O128  1  0.46359000  0.09931000  0.35899000  1.0
  O  O129  1  0.46358000  0.59931000  0.14101000  1.0
  O  O130  1  0.53641000  0.90069000  0.64101000  1.0
  O  O131  1  0.53642000  0.40069000  0.85899000  1.0
  O  O132  1  0.40914000  0.12828000  0.21388000  1.0
  O  O133  1  0.40914000  0.62827000  0.28612000  1.0
  O  O134  1  0.59085000  0.87173000  0.78612000  1.0
  O  O135  1  0.59087000  0.37173000  0.71388000  1.0
  O  O136  1  0.91176000  0.39502000  0.21195000  1.0
  O  O137  1  0.91176000  0.89502000  0.28804000  1.0
  O  O138  1  0.08823000  0.60498000  0.78804000  1.0
  O  O139  1  0.08824000  0.10498000  0.71195000  1.0
  O  O140  1  0.80032000  0.39631000  0.37982000  1.0
  O  O141  1  0.80032000  0.89632000  0.12018000  1.0
  O  O142  1  0.19968000  0.60369000  0.62018000  1.0
  O  O143  1  0.19969000  0.10369000  0.87982000  1.0
  O  O144  1  0.54840000  0.01569000  0.07828000  1.0
  O  O145  1  0.54840000  0.51569000  0.42172000  1.0
  O  O146  1  0.45160000  0.98431000  0.92172000  1.0
  O  O147  1  0.45160000  0.48431000  0.57828000  1.0
