# generated using pymatgen
data_KH3C7(NO3)2
_symmetry_space_group_name_H-M   'P 1'
_cell_length_a   7.00637000
_cell_length_b   7.50345000
_cell_length_c   10.10270000
_cell_angle_alpha   110.35200000
_cell_angle_beta   108.84900000
_cell_angle_gamma   93.59620000
_symmetry_Int_Tables_number   1
_chemical_formula_structural   KH3C7(NO3)2
_chemical_formula_sum   'K2 H6 C14 N4 O12'
_cell_volume   461.99288459
_cell_formula_units_Z   2
loop_
 _symmetry_equiv_pos_site_id
 _symmetry_equiv_pos_as_xyz
  1  'x, y, z'
loop_
 _atom_site_type_symbol
 _atom_site_label
 _atom_site_symmetry_multiplicity
 _atom_site_fract_x
 _atom_site_fract_y
 _atom_site_fract_z
 _atom_site_occupancy
  K  K0  1  0.79614000  0.54540000  0.09240000  1.0
  K  K1  1  0.20385000  0.45455000  0.90759000  1.0
  H  H2  1  0.79440000  0.15400000  0.54338000  1.0
  H  H3  1  0.24998000  0.38916000  0.54321000  1.0
  H  H4  1  0.20560000  0.84601000  0.45661000  1.0
  H  H5  1  0.75003000  0.61084000  0.45679000  1.0
  H  H6  1  0.30855000  0.05798000  0.11647000  1.0
  H  H7  1  0.69144000  0.94204000  0.88353000  1.0
  C  C8  1  0.61766000  0.36742000  0.73427000  1.0
  C  C9  1  0.38235000  0.63257000  0.26573000  1.0
  C  C10  1  0.53116000  0.28063000  0.56128000  1.0
  C  C11  1  0.46884000  0.71937000  0.43872000  1.0
  C  C12  1  0.64438000  0.17515000  0.48162000  1.0
  C  C13  1  0.33809000  0.30619000  0.48142000  1.0
  C  C14  1  0.35563000  0.82485000  0.51838000  1.0
  C  C15  1  0.66192000  0.69381000  0.51859000  1.0
  C  C16  1  0.56063000  0.09477000  0.32320000  1.0
  C  C17  1  0.26317000  0.22782000  0.32306000  1.0
  C  C18  1  0.43936000  0.90522000  0.67680000  1.0
  C  C19  1  0.73683000  0.77218000  0.67695000  1.0
  C  C20  1  0.37027000  0.11961000  0.23990000  1.0
  C  C21  1  0.62972000  0.88039000  0.76011000  1.0
  N  N22  1  0.67477000  0.97429000  0.24058000  1.0
  N  N23  1  0.06637000  0.26557000  0.24026000  1.0
  N  N24  1  0.32522000  0.02571000  0.75942000  1.0
  N  N25  1  0.93364000  0.73445000  0.75975000  1.0
  O  O26  1  0.80005000  0.35204000  0.79897000  1.0
  O  O27  1  0.50009000  0.44769000  0.79899000  1.0
  O  O28  1  0.19996000  0.64796000  0.20103000  1.0
  O  O29  1  0.49991000  0.55229000  0.20101000  1.0
  O  O30  1  0.59380000  0.89495000  0.10008000  1.0
  O  O31  1  0.00700000  0.20456000  0.09973000  1.0
  O  O32  1  0.40617000  0.10504000  0.89991000  1.0
  O  O33  1  0.99301000  0.79546000  0.90028000  1.0
  O  O34  1  0.84576000  0.95455000  0.31593000  1.0
  O  O35  1  0.97057000  0.36044000  0.31546000  1.0
  O  O36  1  0.15424000  0.04545000  0.68405000  1.0
  O  O37  1  0.02944000  0.63957000  0.68455000  1.0
