# generated using pymatgen
data_ZnH12C10(NO2)2
_symmetry_space_group_name_H-M   'P 1'
_cell_length_a   10.20640000
_cell_length_b   17.60830560
_cell_length_c   17.61240000
_cell_angle_alpha   119.99907264
_cell_angle_beta   90.00010000
_cell_angle_gamma   89.99999999
_symmetry_Int_Tables_number   1
_chemical_formula_structural   ZnH12C10(NO2)2
_chemical_formula_sum   'Zn6 H72 C60 N12 O24'
_cell_volume   2741.21678240
_cell_formula_units_Z   6
loop_
 _symmetry_equiv_pos_site_id
 _symmetry_equiv_pos_as_xyz
  1  'x, y, z'
loop_
 _atom_site_type_symbol
 _atom_site_label
 _atom_site_symmetry_multiplicity
 _atom_site_fract_x
 _atom_site_fract_y
 _atom_site_fract_z
 _atom_site_occupancy
  Zn  Zn0  1  0.99045000  0.92252000  0.45829000  1.0
  Zn  Zn1  1  0.82365000  0.45851000  0.53587000  1.0
  Zn  Zn2  1  0.65715000  0.53592000  0.07743000  1.0
  Zn  Zn3  1  0.49044000  0.07748000  0.54170000  1.0
  Zn  Zn4  1  0.32364000  0.54149000  0.46413000  1.0
  Zn  Zn5  1  0.15715000  0.46408000  0.92257000  1.0
  H  H6  1  0.21882000  0.90130000  0.33585000  1.0
  H  H7  1  0.05188000  0.33613000  0.43466000  1.0
  H  H8  1  0.88533000  0.43466000  0.09875000  1.0
  H  H9  1  0.71882000  0.09870000  0.66415000  1.0
  H  H10  1  0.55188000  0.66387000  0.56534000  1.0
  H  H11  1  0.38533000  0.56534000  0.90125000  1.0
  H  H12  1  0.28056000  0.79508000  0.18016000  1.0
  H  H13  1  0.11366000  0.18042000  0.38522000  1.0
  H  H14  1  0.94691000  0.38525000  0.20503000  1.0
  H  H15  1  0.78056000  0.20492000  0.81984000  1.0
  H  H16  1  0.61366000  0.81958000  0.61478000  1.0
  H  H17  1  0.44691000  0.61475000  0.79497000  1.0
  H  H18  1  0.91042000  0.66441000  0.15348000  1.0
  H  H19  1  0.74360000  0.15373000  0.48925000  1.0
  H  H20  1  0.57673000  0.48933000  0.33555000  1.0
  H  H21  1  0.41042000  0.33559000  0.84652000  1.0
  H  H22  1  0.24361000  0.84627000  0.51075000  1.0
  H  H23  1  0.07673000  0.51067000  0.66445000  1.0
  H  H24  1  0.86631000  0.77334000  0.30999000  1.0
  H  H25  1  0.69950000  0.31028000  0.53685000  1.0
  H  H26  1  0.53290000  0.53698000  0.22664000  1.0
  H  H27  1  0.36631000  0.22666000  0.69001000  1.0
  H  H28  1  0.19950000  0.68972000  0.46314000  1.0
  H  H29  1  0.03290000  0.46302000  0.77336000  1.0
  H  H30  1  0.06442000  0.64885000  0.01509000  1.0
  H  H31  1  0.89742000  0.01532000  0.36630000  1.0
  H  H32  1  0.73065000  0.36636000  0.35111000  1.0
  H  H33  1  0.56442000  0.35115000  0.98491000  1.0
  H  H34  1  0.39742000  0.98468000  0.63370000  1.0
  H  H35  1  0.23065000  0.63364000  0.64889000  1.0
  H  H36  1  0.23390000  0.66056000  0.04392000  1.0
  H  H37  1  0.06695000  0.04403000  0.38329000  1.0
  H  H38  1  0.90014000  0.38336000  0.33933000  1.0
  H  H39  1  0.73390000  0.33944000  0.95608000  1.0
  H  H40  1  0.56695000  0.95597000  0.61671000  1.0
  H  H41  1  0.40014000  0.61664000  0.66067000  1.0
  H  H42  1  0.25679000  0.61469000  0.16543000  1.0
  H  H43  1  0.09013000  0.16543000  0.55067000  1.0
  H  H44  1  0.92345000  0.55075000  0.38530000  1.0
  H  H45  1  0.75679000  0.38531000  0.83457000  1.0
  H  H46  1  0.59014000  0.83457000  0.44933000  1.0
  H  H47  1  0.42346000  0.44924000  0.61469000  1.0
  H  H48  1  0.09749000  0.52550000  0.19024000  1.0
  H  H49  1  0.93088000  0.19021000  0.66467000  1.0
  H  H50  1  0.76414000  0.66477000  0.47446000  1.0
  H  H51  1  0.59749000  0.47450000  0.80976000  1.0
  H  H52  1  0.43088000  0.80979000  0.33533000  1.0
  H  H53  1  0.26414000  0.33523000  0.52554000  1.0
  H  H54  1  0.25624000  0.47992000  0.17936000  1.0
  H  H55  1  0.08967000  0.17930000  0.69929000  1.0
  H  H56  1  0.92290000  0.69948000  0.52006000  1.0
  H  H57  1  0.75623000  0.52008000  0.82064000  1.0
  H  H58  1  0.58967000  0.82070000  0.30071000  1.0
  H  H59  1  0.42289000  0.30052000  0.47994000  1.0
  H  H60  1  0.14191000  0.42967000  0.09010000  1.0
  H  H61  1  0.97534000  0.09002000  0.66029000  1.0
  H  H62  1  0.80853000  0.66043000  0.57027000  1.0
  H  H63  1  0.64191000  0.57033000  0.90990000  1.0
  H  H64  1  0.47534000  0.90998000  0.33971000  1.0
  H  H65  1  0.30853000  0.33957000  0.42974000  1.0
  H  H66  1  0.90617000  0.85624000  0.62815000  1.0
  H  H67  1  0.73914000  0.62821000  0.77189000  1.0
  H  H68  1  0.57264000  0.77206000  0.14387000  1.0
  H  H69  1  0.40617000  0.14377000  0.37186000  1.0
  H  H70  1  0.23914000  0.37179000  0.22811000  1.0
  H  H71  1  0.07264000  0.22794000  0.85612000  1.0
  H  H72  1  0.03817000  0.54903000  0.06592000  1.0
  H  H73  1  0.87146000  0.06592000  0.51688000  1.0
  H  H74  1  0.70473000  0.51702000  0.45102000  1.0
  H  H75  1  0.53817000  0.45097000  0.93408000  1.0
  H  H76  1  0.37146000  0.93408000  0.48312000  1.0
  H  H77  1  0.20473000  0.48298000  0.54898000  1.0
  C  C78  1  0.15457000  0.84688000  0.29334000  1.0
  C  C79  1  0.98769000  0.29363000  0.44663000  1.0
  C  C80  1  0.82109000  0.44666000  0.15318000  1.0
  C  C81  1  0.65457000  0.15312000  0.70666000  1.0
  C  C82  1  0.48769000  0.70637000  0.55337000  1.0
  C  C83  1  0.32109000  0.55334000  0.84682000  1.0
  C  C84  1  0.18746000  0.78806000  0.20644000  1.0
  C  C85  1  0.02060000  0.20673000  0.41857000  1.0
  C  C86  1  0.85387000  0.41860000  0.21203000  1.0
  C  C87  1  0.68745000  0.21194000  0.79356000  1.0
  C  C88  1  0.52061000  0.79327000  0.58143000  1.0
  C  C89  1  0.35387000  0.58140000  0.78797000  1.0
  C  C90  1  0.10162000  0.71967000  0.15423000  1.0
  C  C91  1  0.93479000  0.15448000  0.43473000  1.0
  C  C92  1  0.76797000  0.43479000  0.28038000  1.0
  C  C93  1  0.60161000  0.28033000  0.84577000  1.0
  C  C94  1  0.43480000  0.84552000  0.56527000  1.0
  C  C95  1  0.26797000  0.56521000  0.71962000  1.0
  C  C96  1  0.98309000  0.71464000  0.19158000  1.0
  C  C97  1  0.81629000  0.19183000  0.47713000  1.0
  C  C98  1  0.64950000  0.47721000  0.28538000  1.0
  C  C99  1  0.48309000  0.28536000  0.80842000  1.0
  C  C100  1  0.31629000  0.80817000  0.52287000  1.0
  C  C101  1  0.14950000  0.52279000  0.71462000  1.0
  C  C102  1  0.95744000  0.77475000  0.27862000  1.0
  C  C103  1  0.79063000  0.27889000  0.50408000  1.0
  C  C104  1  0.62398000  0.50418000  0.22528000  1.0
  C  C105  1  0.45744000  0.22525000  0.72138000  1.0
  C  C106  1  0.29062000  0.72111000  0.49592000  1.0
  C  C107  1  0.12398000  0.49582000  0.77472000  1.0
  C  C108  1  0.13576000  0.64931000  0.06215000  1.0
  C  C109  1  0.96888000  0.06231000  0.41286000  1.0
  C  C110  1  0.80207000  0.41294000  0.35066000  1.0
  C  C111  1  0.63576000  0.35069000  0.93785000  1.0
  C  C112  1  0.46888000  0.93769000  0.58714000  1.0
  C  C113  1  0.30207000  0.58706000  0.64934000  1.0
  C  C114  1  0.23029000  0.55042000  0.10920000  1.0
  C  C115  1  0.06362000  0.10918000  0.55867000  1.0
  C  C116  1  0.89691000  0.55879000  0.44955000  1.0
  C  C117  1  0.73029000  0.44958000  0.89080000  1.0
  C  C118  1  0.56362000  0.89083000  0.44134000  1.0
  C  C119  1  0.39691000  0.44121000  0.55045000  1.0
  C  C120  1  0.35762000  0.51230000  0.05734000  1.0
  C  C121  1  0.19093000  0.05730000  0.54494000  1.0
  C  C122  1  0.02419000  0.54500000  0.48767000  1.0
  C  C123  1  0.85762000  0.48770000  0.94266000  1.0
  C  C124  1  0.69093000  0.94270000  0.45506000  1.0
  C  C125  1  0.52420000  0.45500000  0.51233000  1.0
  C  C126  1  0.17829000  0.49226000  0.14405000  1.0
  C  C127  1  0.01168000  0.14400000  0.65167000  1.0
  C  C128  1  0.84494000  0.65182000  0.50770000  1.0
  C  C129  1  0.67829000  0.50774000  0.85595000  1.0
  C  C130  1  0.51168000  0.85600000  0.34833000  1.0
  C  C131  1  0.34494000  0.34818000  0.49230000  1.0
  C  C132  1  0.90836000  0.89370000  0.59252000  1.0
  C  C133  1  0.74156000  0.59258000  0.69883000  1.0
  C  C134  1  0.57494000  0.69896000  0.10639000  1.0
  C  C135  1  0.40835000  0.10630000  0.40748000  1.0
  C  C136  1  0.24156000  0.40742000  0.30118000  1.0
  C  C137  1  0.07493000  0.30104000  0.89361000  1.0
  N  N138  1  0.13247000  0.56121000  0.05369000  1.0
  N  N139  1  0.96573000  0.05372000  0.49241000  1.0
  N  N140  1  0.79898000  0.49254000  0.43877000  1.0
  N  N141  1  0.63247000  0.43879000  0.94631000  1.0
  N  N142  1  0.46574000  0.94628000  0.50759000  1.0
  N  N143  1  0.29898000  0.50746000  0.56123000  1.0
  N  N144  1  0.04216000  0.83951000  0.32932000  1.0
  N  N145  1  0.87530000  0.32960000  0.48999000  1.0
  N  N146  1  0.70874000  0.49006000  0.16052000  1.0
  N  N147  1  0.54216000  0.16048000  0.67067000  1.0
  N  N148  1  0.37530000  0.67040000  0.51001000  1.0
  N  N149  1  0.20874000  0.50994000  0.83948000  1.0
  O  O150  1  0.35442000  0.47418000  0.97387000  1.0
  O  O151  1  0.18773000  0.97381000  0.49959000  1.0
  O  O152  1  0.02094000  0.49965000  0.52580000  1.0
  O  O153  1  0.85442000  0.52582000  0.02613000  1.0
  O  O154  1  0.68773000  0.02619000  0.50041000  1.0
  O  O155  1  0.52094000  0.50035000  0.47420000  1.0
  O  O156  1  0.45756000  0.52052000  0.10315000  1.0
  O  O157  1  0.29083000  0.10315000  0.58260000  1.0
  O  O158  1  0.12416000  0.58258000  0.47945000  1.0
  O  O159  1  0.95756000  0.47948000  0.89685000  1.0
  O  O160  1  0.79082000  0.89685000  0.41740000  1.0
  O  O161  1  0.62416000  0.41742000  0.52055000  1.0
  O  O162  1  0.98759000  0.86073000  0.52624000  1.0
  O  O163  1  0.82075000  0.52627000  0.66559000  1.0
  O  O164  1  0.65419000  0.66566000  0.13936000  1.0
  O  O165  1  0.48759000  0.13927000  0.47376000  1.0
  O  O166  1  0.32075000  0.47373000  0.33441000  1.0
  O  O167  1  0.15419000  0.33434000  0.86064000  1.0
  O  O168  1  0.83838000  0.96008000  0.61839000  1.0
  O  O169  1  0.67186000  0.61849000  0.65824000  1.0
  O  O170  1  0.50507000  0.65842000  0.03998000  1.0
  O  O171  1  0.33838000  0.03993000  0.38161000  1.0
  O  O172  1  0.17186000  0.38151000  0.34175000  1.0
  O  O173  1  0.00507000  0.34158000  0.96002000  1.0
