# generated using pymatgen
data_CdH10C12(NO)4
_symmetry_space_group_name_H-M   'P 1'
_cell_length_a   9.21200000
_cell_length_b   9.21200000
_cell_length_c   14.96310000
_cell_angle_alpha   93.69420000
_cell_angle_beta   93.69410000
_cell_angle_gamma   95.25340000
_symmetry_Int_Tables_number   1
_chemical_formula_structural   CdH10C12(NO)4
_chemical_formula_sum   'Cd4 H40 C48 N16 O16'
_cell_volume   1258.65767026
_cell_formula_units_Z   4
loop_
 _symmetry_equiv_pos_site_id
 _symmetry_equiv_pos_as_xyz
  1  'x, y, z'
loop_
 _atom_site_type_symbol
 _atom_site_label
 _atom_site_symmetry_multiplicity
 _atom_site_fract_x
 _atom_site_fract_y
 _atom_site_fract_z
 _atom_site_occupancy
  Cd  Cd0  1  0.42125000  0.54662000  0.38622000  1.0
  Cd  Cd1  1  0.45338000  0.57874000  0.11378000  1.0
  Cd  Cd2  1  0.57874000  0.45338000  0.61378000  1.0
  Cd  Cd3  1  0.54662000  0.42126000  0.88622000  1.0
  H  H4  1  0.46867000  0.86597000  0.29794000  1.0
  H  H5  1  0.13403000  0.53133000  0.20206000  1.0
  H  H6  1  0.53133000  0.13403000  0.70206000  1.0
  H  H7  1  0.86597000  0.46867000  0.79794000  1.0
  H  H8  1  0.10359000  0.70557000  0.42925000  1.0
  H  H9  1  0.29443000  0.89641000  0.07074000  1.0
  H  H10  1  0.89640000  0.29443000  0.57074000  1.0
  H  H11  1  0.70557000  0.10360000  0.92926000  1.0
  H  H12  1  0.19973000  0.19055000  0.31615000  1.0
  H  H13  1  0.80945000  0.80027000  0.18385000  1.0
  H  H14  1  0.80027000  0.80945000  0.68385000  1.0
  H  H15  1  0.19055000  0.19973000  0.81615000  1.0
  H  H16  1  0.46179000  0.09361000  0.21782000  1.0
  H  H17  1  0.90639000  0.53821000  0.28218000  1.0
  H  H18  1  0.53821000  0.90639000  0.78218000  1.0
  H  H19  1  0.09361000  0.46179000  0.71782000  1.0
  H  H20  1  0.00061000  0.27614000  0.35298000  1.0
  H  H21  1  0.72386000  0.99939000  0.14702000  1.0
  H  H22  1  0.99939000  0.72386000  0.64702000  1.0
  H  H23  1  0.27614000  0.00061000  0.85298000  1.0
  H  H24  1  0.56362000  0.16611000  0.40984000  1.0
  H  H25  1  0.83389000  0.43638000  0.09016000  1.0
  H  H26  1  0.43638000  0.83389000  0.59016000  1.0
  H  H27  1  0.16611000  0.56362000  0.90984000  1.0
  H  H28  1  0.58776000  0.88491000  0.45543000  1.0
  H  H29  1  0.11510000  0.41224000  0.04457000  1.0
  H  H30  1  0.41224000  0.11509000  0.54457000  1.0
  H  H31  1  0.88491000  0.58776000  0.95543000  1.0
  H  H32  1  0.90071000  0.79356000  0.46570000  1.0
  H  H33  1  0.20644000  0.09929000  0.03430000  1.0
  H  H34  1  0.09929000  0.20644000  0.53429000  1.0
  H  H35  1  0.79356000  0.90071000  0.96570000  1.0
  H  H36  1  0.05194000  0.96587000  0.38228000  1.0
  H  H37  1  0.03413000  0.94806000  0.11772000  1.0
  H  H38  1  0.94806000  0.03413000  0.61772000  1.0
  H  H39  1  0.96587000  0.05194000  0.88228000  1.0
  H  H40  1  0.74169000  0.36407000  0.36142000  1.0
  H  H41  1  0.63593000  0.25832000  0.13858000  1.0
  H  H42  1  0.25832000  0.63592000  0.63858000  1.0
  H  H43  1  0.36408000  0.74168000  0.86142000  1.0
  C  C44  1  0.26550000  0.97146000  0.32757000  1.0
  C  C45  1  0.02854000  0.73450000  0.17243000  1.0
  C  C46  1  0.73450000  0.02854000  0.67243000  1.0
  C  C47  1  0.97146000  0.26550000  0.82757000  1.0
  C  C48  1  0.36352000  0.86559000  0.32643000  1.0
  C  C49  1  0.13442000  0.63648000  0.17357000  1.0
  C  C50  1  0.63648000  0.13442000  0.67357000  1.0
  C  C51  1  0.86558000  0.36352000  0.82643000  1.0
  C  C52  1  0.17588000  0.77877000  0.39445000  1.0
  C  C53  1  0.22123000  0.82412000  0.10555000  1.0
  C  C54  1  0.82412000  0.22123000  0.60555000  1.0
  C  C55  1  0.77877000  0.17588000  0.89445000  1.0
  C  C56  1  0.27808000  0.11520000  0.29555000  1.0
  C  C57  1  0.88481000  0.72192000  0.20445000  1.0
  C  C58  1  0.72193000  0.88481000  0.70445000  1.0
  C  C59  1  0.11519000  0.27807000  0.79555000  1.0
  C  C60  1  0.38331000  0.16523000  0.24308000  1.0
  C  C61  1  0.83477000  0.61669000  0.25692000  1.0
  C  C62  1  0.61669000  0.83478000  0.75692000  1.0
  C  C63  1  0.16522000  0.38331000  0.74308000  1.0
  C  C64  1  0.39711000  0.31687000  0.21706000  1.0
  C  C65  1  0.68313000  0.60289000  0.28294000  1.0
  C  C66  1  0.60289000  0.68313000  0.78294000  1.0
  C  C67  1  0.31687000  0.39711000  0.71706000  1.0
  C  C68  1  0.75696000  0.03056000  0.40954000  1.0
  C  C69  1  0.96944000  0.24304000  0.09046000  1.0
  C  C70  1  0.24304000  0.96944000  0.59046000  1.0
  C  C71  1  0.03056000  0.75696000  0.90954000  1.0
  C  C72  1  0.90447000  0.20790000  0.36878000  1.0
  C  C73  1  0.79210000  0.09553000  0.13122000  1.0
  C  C74  1  0.09553000  0.79210000  0.63122000  1.0
  C  C75  1  0.20790000  0.90447000  0.86878000  1.0
  C  C76  1  0.67616000  0.14943000  0.39845000  1.0
  C  C77  1  0.85057000  0.32384000  0.10155000  1.0
  C  C78  1  0.32384000  0.85057000  0.60155000  1.0
  C  C79  1  0.14944000  0.67616000  0.89845000  1.0
  C  C80  1  0.70436000  0.89614000  0.44490000  1.0
  C  C81  1  0.10386000  0.29565000  0.05510000  1.0
  C  C82  1  0.29564000  0.10386000  0.55509000  1.0
  C  C83  1  0.89614000  0.70436000  0.94490000  1.0
  C  C84  1  0.78333000  0.78786000  0.47106000  1.0
  C  C85  1  0.21214000  0.21667000  0.02894000  1.0
  C  C86  1  0.21667000  0.21214000  0.52894000  1.0
  C  C87  1  0.78785000  0.78333000  0.97106000  1.0
  C  C88  1  0.71753000  0.66325000  0.51559000  1.0
  C  C89  1  0.33675000  0.28247000  0.98441000  1.0
  C  C90  1  0.28247000  0.33675000  0.48441000  1.0
  C  C91  1  0.66325000  0.71753000  0.01559000  1.0
  N  N92  1  0.30687000  0.74750000  0.36814000  1.0
  N  N93  1  0.25250000  0.69313000  0.13186000  1.0
  N  N94  1  0.69313000  0.25250000  0.63186000  1.0
  N  N95  1  0.74750000  0.30687000  0.86814000  1.0
  N  N96  1  0.14745000  0.91255000  0.37122000  1.0
  N  N97  1  0.08745000  0.85255000  0.12879000  1.0
  N  N98  1  0.85255000  0.08745000  0.62878000  1.0
  N  N99  1  0.91255000  0.14745000  0.87122000  1.0
  N  N100  1  0.77105000  0.25950000  0.37333000  1.0
  N  N101  1  0.74050000  0.22895000  0.12667000  1.0
  N  N102  1  0.22895000  0.74050000  0.62667000  1.0
  N  N103  1  0.25950000  0.77105000  0.87333000  1.0
  N  N104  1  0.90083000  0.06975000  0.39008000  1.0
  N  N105  1  0.93025000  0.09917000  0.10992000  1.0
  N  N106  1  0.09917000  0.93025000  0.60992000  1.0
  N  N107  1  0.06975000  0.90083000  0.89008000  1.0
  O  O108  1  0.31918000  0.41118000  0.25019000  1.0
  O  O109  1  0.58882000  0.68082000  0.24981000  1.0
  O  O110  1  0.68082000  0.58882000  0.74981000  1.0
  O  O111  1  0.41118000  0.31918000  0.75019000  1.0
  O  O112  1  0.49104000  0.34955000  0.15926000  1.0
  O  O113  1  0.65045000  0.50896000  0.34074000  1.0
  O  O114  1  0.50896000  0.65045000  0.84074000  1.0
  O  O115  1  0.34955000  0.49103000  0.65926000  1.0
  O  O116  1  0.57612000  0.64928000  0.52183000  1.0
  O  O117  1  0.35072000  0.42387000  0.97817000  1.0
  O  O118  1  0.42387000  0.35072000  0.47817000  1.0
  O  O119  1  0.64928000  0.57613000  0.02183000  1.0
  O  O120  1  0.79839000  0.57471000  0.55058000  1.0
  O  O121  1  0.42529000  0.20160000  0.94942000  1.0
  O  O122  1  0.20160000  0.42529000  0.44942000  1.0
  O  O123  1  0.57471000  0.79839000  0.05058000  1.0
