# generated using pymatgen
data_CoH7C9NO4
_symmetry_space_group_name_H-M   'P 1'
_cell_length_a   11.23830000
_cell_length_b   13.48828784
_cell_length_c   13.49080000
_cell_angle_alpha   112.59369538
_cell_angle_beta   106.13000000
_cell_angle_gamma   106.10877848
_symmetry_Int_Tables_number   1
_chemical_formula_structural   CoH7C9NO4
_chemical_formula_sum   'Co6 H42 C54 N6 O24'
_cell_volume   1634.72471179
_cell_formula_units_Z   6
loop_
 _symmetry_equiv_pos_site_id
 _symmetry_equiv_pos_as_xyz
  1  'x, y, z'
loop_
 _atom_site_type_symbol
 _atom_site_label
 _atom_site_symmetry_multiplicity
 _atom_site_fract_x
 _atom_site_fract_y
 _atom_site_fract_z
 _atom_site_occupancy
  Co  Co0  1  0.58543000  0.27188000  0.19256000  1.0
  Co  Co1  1  0.31359000  0.92075000  0.72809000  1.0
  Co  Co2  1  0.39290000  0.80714000  0.07923000  1.0
  Co  Co3  1  0.41457000  0.72802000  0.80734000  1.0
  Co  Co4  1  0.68641000  0.07926000  0.27198000  1.0
  Co  Co5  1  0.60716000  0.19289000  0.92076000  1.0
  H  H6  1  0.32820000  0.93845000  0.46850000  1.0
  H  H7  1  0.38977000  0.53011000  0.06166000  1.0
  H  H8  1  0.85952000  0.53145000  0.46985000  1.0
  H  H9  1  0.67191000  0.06177000  0.53149000  1.0
  H  H10  1  0.61024000  0.46988000  0.93833000  1.0
  H  H11  1  0.14047000  0.46849000  0.53003000  1.0
  H  H12  1  0.28295000  0.98970000  0.14716000  1.0
  H  H13  1  0.29267000  0.15756000  0.00993000  1.0
  H  H14  1  0.13582000  0.85282000  0.84249000  1.0
  H  H15  1  0.71704000  0.01025000  0.85284000  1.0
  H  H16  1  0.70768000  0.84267000  0.99030000  1.0
  H  H17  1  0.86434000  0.14729000  0.15747000  1.0
  H  H18  1  0.44519000  0.95140000  0.33535000  1.0
  H  H19  1  0.49405000  0.38409000  0.04872000  1.0
  H  H20  1  0.10968000  0.66439000  0.61605000  1.0
  H  H21  1  0.55493000  0.04876000  0.66461000  1.0
  H  H22  1  0.50613000  0.61601000  0.95128000  1.0
  H  H23  1  0.89023000  0.33558000  0.38399000  1.0
  H  H24  1  0.11044000  0.65724000  0.03788000  1.0
  H  H25  1  0.45315000  0.38022000  0.34261000  1.0
  H  H26  1  0.07284000  0.96225000  0.61975000  1.0
  H  H27  1  0.88958000  0.34299000  0.96213000  1.0
  H  H28  1  0.54697000  0.61970000  0.65731000  1.0
  H  H29  1  0.92712000  0.03776000  0.38032000  1.0
  H  H30  1  0.94905000  0.58861000  0.29659000  1.0
  H  H31  1  0.35991000  0.70767000  0.41122000  1.0
  H  H32  1  0.65253000  0.70360000  0.29243000  1.0
  H  H33  1  0.05102000  0.41159000  0.70346000  1.0
  H  H34  1  0.63939000  0.29195000  0.58837000  1.0
  H  H35  1  0.34728000  0.29624000  0.70755000  1.0
  H  H36  1  0.09863000  0.77345000  0.38073000  1.0
  H  H37  1  0.32505000  0.60708000  0.22664000  1.0
  H  H38  1  0.71806000  0.61960000  0.39274000  1.0
  H  H39  1  0.90160000  0.22679000  0.61938000  1.0
  H  H40  1  0.67482000  0.39275000  0.77327000  1.0
  H  H41  1  0.28186000  0.38045000  0.60742000  1.0
  H  H42  1  0.90371000  0.54627000  0.04480000  1.0
  H  H43  1  0.35798000  0.49861000  0.45406000  1.0
  H  H44  1  0.85935000  0.95549000  0.50134000  1.0
  H  H45  1  0.09642000  0.45393000  0.95526000  1.0
  H  H46  1  0.64224000  0.50142000  0.54602000  1.0
  H  H47  1  0.14033000  0.04440000  0.49860000  1.0
  C  C48  1  0.27807000  0.87429000  0.37341000  1.0
  C  C49  1  0.40382000  0.49909000  0.12580000  1.0
  C  C50  1  0.90463000  0.62656000  0.50085000  1.0
  C  C51  1  0.72209000  0.12591000  0.62661000  1.0
  C  C52  1  0.59616000  0.50084000  0.87414000  1.0
  C  C53  1  0.09534000  0.37342000  0.49919000  1.0
  C  C54  1  0.38977000  0.04506000  0.16917000  1.0
  C  C55  1  0.34411000  0.12409000  0.95455000  1.0
  C  C56  1  0.22051000  0.83061000  0.87587000  1.0
  C  C57  1  0.61018000  0.95493000  0.83084000  1.0
  C  C58  1  0.65594000  0.87584000  0.04550000  1.0
  C  C59  1  0.77958000  0.16941000  0.12412000  1.0
  C  C60  1  0.77461000  0.43378000  0.14018000  1.0
  C  C61  1  0.34102000  0.70635000  0.56640000  1.0
  C  C62  1  0.63458000  0.86000000  0.29372000  1.0
  C  C63  1  0.22552000  0.56625000  0.85987000  1.0
  C  C64  1  0.65873000  0.29351000  0.43345000  1.0
  C  C65  1  0.36546000  0.13994000  0.70629000  1.0
  C  C66  1  0.34249000  0.88197000  0.30024000  1.0
  C  C67  1  0.46060000  0.41825000  0.11807000  1.0
  C  C68  1  0.04222000  0.69962000  0.58171000  1.0
  C  C69  1  0.65766000  0.11821000  0.69978000  1.0
  C  C70  1  0.53944000  0.58173000  0.88185000  1.0
  C  C71  1  0.95772000  0.30037000  0.41835000  1.0
  C  C72  1  0.15533000  0.71707000  0.13380000  1.0
  C  C73  1  0.43819000  0.41645000  0.28287000  1.0
  C  C74  1  0.02173000  0.86629000  0.58346000  1.0
  C  C75  1  0.84474000  0.28310000  0.86623000  1.0
  C  C76  1  0.56183000  0.58345000  0.71703000  1.0
  C  C77  1  0.97820000  0.13373000  0.41666000  1.0
  C  C78  1  0.89953000  0.54651000  0.19978000  1.0
  C  C79  1  0.35293000  0.65311000  0.45353000  1.0
  C  C80  1  0.69985000  0.80041000  0.34698000  1.0
  C  C81  1  0.10053000  0.45359000  0.80026000  1.0
  C  C82  1  0.64667000  0.34666000  0.54623000  1.0
  C  C83  1  0.29999000  0.19941000  0.65302000  1.0
  C  C84  1  0.08479000  0.69891000  0.20100000  1.0
  C  C85  1  0.38590000  0.50189000  0.30114000  1.0
  C  C86  1  0.88403000  0.79924000  0.49808000  1.0
  C  C87  1  0.91530000  0.30124000  0.79907000  1.0
  C  C88  1  0.61407000  0.49800000  0.69879000  1.0
  C  C89  1  0.11585000  0.20077000  0.50207000  1.0
  C  C90  1  0.14877000  0.78162000  0.32388000  1.0
  C  C91  1  0.36707000  0.54207000  0.21843000  1.0
  C  C92  1  0.82505000  0.67632000  0.45783000  1.0
  C  C93  1  0.85141000  0.21857000  0.67617000  1.0
  C  C94  1  0.63284000  0.45776000  0.78147000  1.0
  C  C95  1  0.17489000  0.32371000  0.54232000  1.0
  C  C96  1  0.95501000  0.59314000  0.14219000  1.0
  C  C97  1  0.36208000  0.54899000  0.40701000  1.0
  C  C98  1  0.81310000  0.85808000  0.45109000  1.0
  C  C99  1  0.04508000  0.40700000  0.85787000  1.0
  C  C100  1  0.63788000  0.45093000  0.59292000  1.0
  C  C101  1  0.18669000  0.14181000  0.54898000  1.0
  N  N102  1  0.28188000  0.80424000  0.18196000  1.0
  N  N103  1  0.47757000  0.37756000  0.19569000  1.0
  N  N104  1  0.09999000  0.81791000  0.62233000  1.0
  N  N105  1  0.71820000  0.19590000  0.81804000  1.0
  N  N106  1  0.52244000  0.62237000  0.80422000  1.0
  N  N107  1  0.89995000  0.18210000  0.37776000  1.0
  O  O108  1  0.74229000  0.40182000  0.21036000  1.0
  O  O109  1  0.34074000  0.80853000  0.59842000  1.0
  O  O110  1  0.53206000  0.78979000  0.19161000  1.0
  O  O111  1  0.25784000  0.59816000  0.78967000  1.0
  O  O112  1  0.65904000  0.19135000  0.40150000  1.0
  O  O113  1  0.46796000  0.21023000  0.80840000  1.0
  O  O114  1  0.42028000  0.15053000  0.19092000  1.0
  O  O115  1  0.26918000  0.04037000  0.84913000  1.0
  O  O116  1  0.22912000  0.80876000  0.95947000  1.0
  O  O117  1  0.57955000  0.84944000  0.80894000  1.0
  O  O118  1  0.73068000  0.95963000  0.15095000  1.0
  O  O119  1  0.77080000  0.19112000  0.04038000  1.0
  O  O120  1  0.47049000  0.99378000  0.16860000  1.0
  O  O121  1  0.47609000  0.17477000  0.00585000  1.0
  O  O122  1  0.30184000  0.83117000  0.82520000  1.0
  O  O123  1  0.52957000  0.00634000  0.83160000  1.0
  O  O124  1  0.52397000  0.82486000  0.99409000  1.0
  O  O125  1  0.69838000  0.16895000  0.17490000  1.0
  O  O126  1  0.70974000  0.37575000  0.02625000  1.0
  O  O127  1  0.33429000  0.65045000  0.62447000  1.0
  O  O128  1  0.68371000  0.97396000  0.34954000  1.0
  O  O129  1  0.29042000  0.62425000  0.97382000  1.0
  O  O130  1  0.66560000  0.34944000  0.37543000  1.0
  O  O131  1  0.31656000  0.02600000  0.65049000  1.0
