# generated using pymatgen
data_AgB6H14(C6N)2
_symmetry_space_group_name_H-M   'P 1'
_cell_length_a   11.26180000
_cell_length_b   13.53572420
_cell_length_c   22.18330000
_cell_angle_alpha   90.00001694
_cell_angle_beta   90.00010000
_cell_angle_gamma   114.47461447
_symmetry_Int_Tables_number   1
_chemical_formula_structural   AgB6H14(C6N)2
_chemical_formula_sum   'Ag8 B48 H112 C96 N16'
_cell_volume   3077.69803340
_cell_formula_units_Z   8
loop_
 _symmetry_equiv_pos_site_id
 _symmetry_equiv_pos_as_xyz
  1  'x, y, z'
loop_
 _atom_site_type_symbol
 _atom_site_label
 _atom_site_symmetry_multiplicity
 _atom_site_fract_x
 _atom_site_fract_y
 _atom_site_fract_z
 _atom_site_occupancy
  Ag  Ag0  1  0.75127000  0.25628000  0.35706000  1.0
  Ag  Ag1  1  0.24873000  0.24372000  0.85706000  1.0
  Ag  Ag2  1  0.24873000  0.74372000  0.64294000  1.0
  Ag  Ag3  1  0.75127000  0.75628000  0.14294000  1.0
  Ag  Ag4  1  0.70572000  0.73287000  0.34889000  1.0
  Ag  Ag5  1  0.29428000  0.76713000  0.84889000  1.0
  Ag  Ag6  1  0.29428000  0.26713000  0.65111000  1.0
  Ag  Ag7  1  0.70572000  0.23287000  0.15111000  1.0
  B  B8  1  0.68700000  0.37691000  0.28519000  1.0
  B  B9  1  0.31300000  0.12309000  0.78519000  1.0
  B  B10  1  0.31300000  0.62309000  0.71481000  1.0
  B  B11  1  0.68700000  0.87691000  0.21481000  1.0
  B  B12  1  0.58305000  0.44249000  0.26946000  1.0
  B  B13  1  0.41695000  0.05751000  0.76946000  1.0
  B  B14  1  0.41695000  0.55751000  0.73054000  1.0
  B  B15  1  0.58305000  0.94249000  0.23054000  1.0
  B  B16  1  0.70929000  0.49771000  0.32403000  1.0
  B  B17  1  0.29071000  0.00229000  0.82403000  1.0
  B  B18  1  0.29071000  0.50229000  0.67597000  1.0
  B  B19  1  0.70929000  0.99771000  0.17597000  1.0
  B  B20  1  0.84729000  0.47771000  0.29832000  1.0
  B  B21  1  0.15271000  0.02229000  0.79831000  1.0
  B  B22  1  0.15271000  0.52229000  0.70168000  1.0
  B  B23  1  0.84729000  0.97771000  0.20168000  1.0
  B  B24  1  0.80697000  0.41022000  0.22755000  1.0
  B  B25  1  0.19303000  0.08978000  0.72755000  1.0
  B  B26  1  0.19303000  0.58978000  0.77245000  1.0
  B  B27  1  0.80697000  0.91022000  0.27245000  1.0
  B  B28  1  0.64398000  0.38855000  0.20961000  1.0
  B  B29  1  0.35602000  0.11145000  0.70961000  1.0
  B  B30  1  0.35602000  0.61145000  0.79039000  1.0
  B  B31  1  0.64398000  0.88855000  0.29039000  1.0
  B  B32  1  0.67966000  0.58415000  0.27179000  1.0
  B  B33  1  0.32034000  0.91585000  0.77179000  1.0
  B  B34  1  0.32034000  0.41585000  0.72821000  1.0
  B  B35  1  0.67966000  0.08415000  0.22821000  1.0
  B  B36  1  0.84289000  0.60660000  0.28981000  1.0
  B  B37  1  0.15711000  0.89340000  0.78981000  1.0
  B  B38  1  0.15711000  0.39340000  0.71019000  1.0
  B  B39  1  0.84289000  0.10660000  0.21019000  1.0
  B  B40  1  0.90291000  0.55180000  0.22991000  1.0
  B  B41  1  0.09710000  0.94821000  0.72991000  1.0
  B  B42  1  0.09710000  0.44821000  0.77009000  1.0
  B  B43  1  0.90290000  0.05179000  0.27009000  1.0
  B  B44  1  0.77689000  0.49722000  0.17531000  1.0
  B  B45  1  0.22311000  0.00278000  0.67531000  1.0
  B  B46  1  0.22311000  0.50278000  0.82469000  1.0
  B  B47  1  0.77689000  0.99722000  0.32469000  1.0
  B  B48  1  0.63879000  0.51734000  0.20095000  1.0
  B  B49  1  0.36121000  0.98266000  0.70095000  1.0
  B  B50  1  0.36121000  0.48266000  0.79905000  1.0
  B  B51  1  0.63879000  0.01734000  0.29905000  1.0
  B  B52  1  0.79939000  0.61779000  0.21429000  1.0
  B  B53  1  0.20060000  0.88220000  0.71429000  1.0
  B  B54  1  0.20060000  0.38220000  0.78570000  1.0
  B  B55  1  0.79940000  0.11780000  0.28570000  1.0
  H  H56  1  0.45705000  0.10150000  0.40633000  1.0
  H  H57  1  0.54295000  0.39850000  0.90633000  1.0
  H  H58  1  0.54295000  0.89850000  0.59367000  1.0
  H  H59  1  0.45705000  0.60150000  0.09367000  1.0
  H  H60  1  0.33617000  0.04561000  0.50449000  1.0
  H  H61  1  0.66384000  0.45440000  0.00449000  1.0
  H  H62  1  0.66383000  0.95439000  0.49551000  1.0
  H  H63  1  0.33616000  0.54560000  0.99551000  1.0
  H  H64  1  0.45885000  0.10623000  0.60097000  1.0
  H  H65  1  0.54116000  0.39377000  0.10097000  1.0
  H  H66  1  0.54115000  0.89377000  0.39903000  1.0
  H  H67  1  0.45885000  0.60623000  0.89903000  1.0
  H  H68  1  0.67086000  0.21161000  0.65282000  1.0
  H  H69  1  0.32914000  0.28839000  0.15283000  1.0
  H  H70  1  0.32914000  0.78839000  0.34717000  1.0
  H  H71  1  0.67086000  0.71161000  0.84718000  1.0
  H  H72  1  0.90916000  0.32992000  0.64653000  1.0
  H  H73  1  0.09085000  0.17008000  0.14653000  1.0
  H  H74  1  0.09085000  0.67008000  0.35347000  1.0
  H  H75  1  0.90915000  0.82992000  0.85347000  1.0
  H  H76  1  0.10765000  0.42669000  0.58413000  1.0
  H  H77  1  0.89234000  0.07330000  0.08413000  1.0
  H  H78  1  0.89234000  0.57330000  0.41587000  1.0
  H  H79  1  0.10766000  0.92670000  0.91587000  1.0
  H  H80  1  0.20604000  0.47911000  0.48063000  1.0
  H  H81  1  0.79397000  0.02089000  0.98063000  1.0
  H  H82  1  0.79397000  0.52089000  0.51937000  1.0
  H  H83  1  0.20603000  0.97911000  0.01937000  1.0
  H  H84  1  0.06185000  0.41458000  0.39040000  1.0
  H  H85  1  0.93815000  0.08542000  0.89040000  1.0
  H  H86  1  0.93815000  0.58542000  0.60960000  1.0
  H  H87  1  0.06185000  0.91458000  0.10960000  1.0
  H  H88  1  0.43738000  0.59821000  0.42824000  1.0
  H  H89  1  0.56261000  0.90179000  0.92824000  1.0
  H  H90  1  0.56262000  0.40179000  0.57176000  1.0
  H  H91  1  0.43738000  0.09821000  0.07176000  1.0
  H  H92  1  0.36633000  0.55903000  0.53676000  1.0
  H  H93  1  0.63367000  0.94097000  0.03676000  1.0
  H  H94  1  0.63367000  0.44097000  0.46324000  1.0
  H  H95  1  0.36633000  0.05903000  0.96324000  1.0
  H  H96  1  0.53079000  0.63396000  0.61788000  1.0
  H  H97  1  0.46921000  0.86604000  0.11788000  1.0
  H  H98  1  0.46921000  0.36604000  0.38212000  1.0
  H  H99  1  0.53079000  0.13396000  0.88212000  1.0
  H  H100  1  0.76347000  0.74558000  0.64713000  1.0
  H  H101  1  0.23654000  0.75442000  0.14713000  1.0
  H  H102  1  0.23653000  0.25442000  0.35287000  1.0
  H  H103  1  0.76347000  0.24558000  0.85287000  1.0
  H  H104  1  0.99187000  0.85975000  0.61745000  1.0
  H  H105  1  0.00813000  0.64025000  0.11745000  1.0
  H  H106  1  0.00813000  0.14025000  0.38255000  1.0
  H  H107  1  0.99187000  0.35975000  0.88255000  1.0
  H  H108  1  0.15454000  0.94499000  0.53715000  1.0
  H  H109  1  0.84546000  0.55501000  0.03715000  1.0
  H  H110  1  0.84546000  0.05501000  0.46285000  1.0
  H  H111  1  0.15454000  0.44499000  0.96285000  1.0
  H  H112  1  0.20450000  0.98163000  0.42562000  1.0
  H  H113  1  0.79550000  0.51837000  0.92562000  1.0
  H  H114  1  0.79551000  0.01838000  0.57438000  1.0
  H  H115  1  0.20449000  0.48162000  0.07438000  1.0
  H  H116  1  0.02204000  0.89865000  0.35159000  1.0
  H  H117  1  0.97797000  0.60135000  0.85159000  1.0
  H  H118  1  0.97797000  0.10135000  0.64841000  1.0
  H  H119  1  0.02203000  0.39865000  0.14841000  1.0
  H  H120  1  0.63127000  0.28488000  0.30693000  1.0
  H  H121  1  0.36873000  0.21512000  0.80693000  1.0
  H  H122  1  0.36873000  0.71512000  0.69307000  1.0
  H  H123  1  0.63127000  0.78488000  0.19307000  1.0
  H  H124  1  0.46949000  0.40354000  0.28273000  1.0
  H  H125  1  0.53051000  0.09646000  0.78273000  1.0
  H  H126  1  0.53050000  0.59645000  0.71727000  1.0
  H  H127  1  0.46950000  0.90355000  0.21727000  1.0
  H  H128  1  0.68632000  0.49884000  0.37666000  1.0
  H  H129  1  0.31368000  0.00116000  0.87666000  1.0
  H  H130  1  0.31368000  0.50116000  0.62334000  1.0
  H  H131  1  0.68632000  0.99884000  0.12334000  1.0
  H  H132  1  0.92366000  0.46593000  0.33216000  1.0
  H  H133  1  0.07634000  0.03407000  0.83216000  1.0
  H  H134  1  0.07634000  0.53407000  0.66784000  1.0
  H  H135  1  0.92366000  0.96593000  0.16784000  1.0
  H  H136  1  0.85599000  0.34899000  0.21413000  1.0
  H  H137  1  0.14401000  0.15101000  0.71413000  1.0
  H  H138  1  0.14401000  0.65101000  0.78587000  1.0
  H  H139  1  0.85599000  0.84899000  0.28587000  1.0
  H  H140  1  0.56929000  0.30998000  0.18191000  1.0
  H  H141  1  0.43071000  0.19002000  0.68191000  1.0
  H  H142  1  0.43071000  0.69002000  0.81809000  1.0
  H  H143  1  0.56929000  0.80998000  0.31809000  1.0
  H  H144  1  0.62171000  0.64229000  0.28244000  1.0
  H  H145  1  0.37829000  0.85771000  0.78244000  1.0
  H  H146  1  0.37830000  0.35771000  0.71756000  1.0
  H  H147  1  0.62171000  0.14229000  0.21756000  1.0
  H  H148  1  0.91541000  0.68444000  0.31736000  1.0
  H  H149  1  0.08459000  0.81556000  0.81736000  1.0
  H  H150  1  0.08459000  0.31556000  0.68264000  1.0
  H  H151  1  0.91541000  0.18444000  0.18264000  1.0
  H  H152  1  0.01644000  0.59107000  0.21665000  1.0
  H  H153  1  0.98356000  0.90893000  0.71665000  1.0
  H  H154  1  0.98356000  0.40893000  0.78335000  1.0
  H  H155  1  0.01644000  0.09107000  0.28335000  1.0
  H  H156  1  0.79932000  0.49594000  0.12257000  1.0
  H  H157  1  0.20068000  0.00406000  0.62257000  1.0
  H  H158  1  0.20068000  0.50406000  0.87743000  1.0
  H  H159  1  0.79932000  0.99594000  0.37743000  1.0
  H  H160  1  0.56311000  0.53041000  0.16724000  1.0
  H  H161  1  0.43689000  0.96959000  0.66724000  1.0
  H  H162  1  0.43689000  0.46959000  0.83276000  1.0
  H  H163  1  0.56311000  0.03041000  0.33276000  1.0
  H  H164  1  0.85524000  0.70946000  0.19262000  1.0
  H  H165  1  0.14476000  0.79054000  0.69262000  1.0
  H  H166  1  0.14476000  0.29054000  0.80738000  1.0
  H  H167  1  0.85524000  0.20946000  0.30738000  1.0
  C  C168  1  0.50737000  0.12809000  0.44938000  1.0
  C  C169  1  0.49263000  0.37191000  0.94938000  1.0
  C  C170  1  0.49263000  0.87191000  0.55062000  1.0
  C  C171  1  0.50737000  0.62809000  0.05062000  1.0
  C  C172  1  0.44023000  0.09661000  0.50426000  1.0
  C  C173  1  0.55977000  0.40339000  0.00426000  1.0
  C  C174  1  0.55977000  0.90339000  0.49574000  1.0
  C  C175  1  0.44023000  0.59661000  0.99574000  1.0
  C  C176  1  0.50810000  0.13019000  0.55763000  1.0
  C  C177  1  0.49190000  0.36981000  0.05763000  1.0
  C  C178  1  0.49190000  0.86981000  0.44237000  1.0
  C  C179  1  0.50810000  0.63019000  0.94237000  1.0
  C  C180  1  0.64329000  0.19690000  0.55579000  1.0
  C  C181  1  0.35671000  0.30310000  0.05579000  1.0
  C  C182  1  0.35671000  0.80310000  0.44421000  1.0
  C  C183  1  0.64329000  0.69690000  0.94421000  1.0
  C  C184  1  0.71974000  0.23572000  0.60932000  1.0
  C  C185  1  0.28026000  0.26428000  0.10932000  1.0
  C  C186  1  0.28026000  0.76428000  0.39068000  1.0
  C  C187  1  0.71974000  0.73572000  0.89068000  1.0
  C  C188  1  0.85027000  0.30085000  0.60591000  1.0
  C  C189  1  0.14973000  0.19915000  0.10591000  1.0
  C  C190  1  0.14973000  0.69915000  0.39409000  1.0
  C  C191  1  0.85027000  0.80085000  0.89409000  1.0
  C  C192  1  0.91372000  0.33239000  0.54867000  1.0
  C  C193  1  0.08628000  0.16761000  0.04867000  1.0
  C  C194  1  0.08628000  0.66761000  0.45133000  1.0
  C  C195  1  0.91372000  0.83239000  0.95133000  1.0
  C  C196  1  0.04869000  0.39901000  0.54343000  1.0
  C  C197  1  0.95131000  0.10099000  0.04343000  1.0
  C  C198  1  0.95131000  0.60099000  0.45657000  1.0
  C  C199  1  0.04869000  0.89901000  0.95657000  1.0
  C  C200  1  0.10275000  0.42784000  0.48673000  1.0
  C  C201  1  0.89724000  0.07215000  0.98673000  1.0
  C  C202  1  0.89725000  0.57216000  0.51327000  1.0
  C  C203  1  0.10276000  0.92785000  0.01327000  1.0
  C  C204  1  0.02237000  0.39105000  0.43572000  1.0
  C  C205  1  0.97762000  0.10894000  0.93572000  1.0
  C  C206  1  0.97763000  0.60895000  0.56428000  1.0
  C  C207  1  0.02238000  0.89106000  0.06428000  1.0
  C  C208  1  0.84075000  0.29681000  0.49446000  1.0
  C  C209  1  0.15925000  0.20319000  0.99446000  1.0
  C  C210  1  0.15925000  0.70319000  0.50554000  1.0
  C  C211  1  0.84075000  0.79681000  0.00554000  1.0
  C  C212  1  0.70298000  0.22623000  0.49805000  1.0
  C  C213  1  0.29701000  0.27376000  0.99805000  1.0
  C  C214  1  0.29702000  0.77377000  0.50195000  1.0
  C  C215  1  0.70299000  0.72624000  0.00195000  1.0
  C  C216  1  0.50738000  0.63067000  0.46501000  1.0
  C  C217  1  0.49262000  0.86933000  0.96501000  1.0
  C  C218  1  0.49262000  0.36933000  0.53499000  1.0
  C  C219  1  0.50738000  0.13067000  0.03499000  1.0
  C  C220  1  0.46770000  0.60864000  0.52535000  1.0
  C  C221  1  0.53230000  0.89136000  0.02535000  1.0
  C  C222  1  0.53230000  0.39136000  0.47465000  1.0
  C  C223  1  0.46770000  0.10864000  0.97465000  1.0
  C  C224  1  0.55920000  0.65044000  0.57061000  1.0
  C  C225  1  0.44080000  0.84956000  0.07061000  1.0
  C  C226  1  0.44080000  0.34956000  0.42939000  1.0
  C  C227  1  0.55920000  0.15044000  0.92939000  1.0
  C  C228  1  0.69041000  0.71492000  0.55515000  1.0
  C  C229  1  0.30959000  0.78508000  0.05515000  1.0
  C  C230  1  0.30959000  0.28508000  0.44485000  1.0
  C  C231  1  0.69041000  0.21492000  0.94485000  1.0
  C  C232  1  0.79028000  0.76149000  0.59968000  1.0
  C  C233  1  0.20972000  0.73851000  0.09968000  1.0
  C  C234  1  0.20972000  0.23851000  0.40032000  1.0
  C  C235  1  0.79028000  0.26149000  0.90032000  1.0
  C  C236  1  0.91618000  0.82431000  0.58336000  1.0
  C  C237  1  0.08382000  0.67569000  0.08336000  1.0
  C  C238  1  0.08382000  0.17569000  0.41664000  1.0
  C  C239  1  0.91618000  0.32431000  0.91664000  1.0
  C  C240  1  0.95093000  0.84581000  0.52116000  1.0
  C  C241  1  0.04907000  0.65419000  0.02116000  1.0
  C  C242  1  0.04907000  0.15419000  0.47884000  1.0
  C  C243  1  0.95093000  0.34581000  0.97884000  1.0
  C  C244  1  0.07973000  0.91106000  0.50249000  1.0
  C  C245  1  0.92027000  0.58894000  0.00249000  1.0
  C  C246  1  0.92027000  0.08894000  0.49751000  1.0
  C  C247  1  0.07973000  0.41106000  0.99751000  1.0
  C  C248  1  0.10672000  0.93094000  0.44183000  1.0
  C  C249  1  0.89328000  0.56906000  0.94182000  1.0
  C  C250  1  0.89328000  0.06906000  0.55818000  1.0
  C  C251  1  0.10672000  0.43094000  0.05818000  1.0
  C  C252  1  0.00494000  0.88422000  0.39992000  1.0
  C  C253  1  0.99507000  0.61578000  0.89992000  1.0
  C  C254  1  0.99507000  0.11578000  0.60008000  1.0
  C  C255  1  0.00493000  0.38422000  0.10008000  1.0
  C  C256  1  0.85472000  0.80158000  0.47546000  1.0
  C  C257  1  0.14528000  0.69842000  0.97545000  1.0
  C  C258  1  0.14528000  0.19842000  0.52454000  1.0
  C  C259  1  0.85472000  0.30158000  0.02454000  1.0
  C  C260  1  0.72150000  0.73383000  0.49269000  1.0
  C  C261  1  0.27850000  0.76617000  0.99269000  1.0
  C  C262  1  0.27851000  0.26618000  0.50731000  1.0
  C  C263  1  0.72149000  0.23382000  0.00731000  1.0
  N  N264  1  0.63462000  0.19043000  0.44621000  1.0
  N  N265  1  0.36538000  0.30957000  0.94621000  1.0
  N  N266  1  0.36538000  0.80957000  0.55379000  1.0
  N  N267  1  0.63462000  0.69043000  0.05379000  1.0
  N  N268  1  0.89567000  0.32760000  0.43930000  1.0
  N  N269  1  0.10433000  0.17240000  0.93930000  1.0
  N  N270  1  0.10433000  0.67240000  0.56070000  1.0
  N  N271  1  0.89567000  0.82760000  0.06070000  1.0
  N  N272  1  0.63010000  0.69129000  0.44896000  1.0
  N  N273  1  0.36990000  0.80871000  0.94896000  1.0
  N  N274  1  0.36990000  0.30871000  0.55104000  1.0
  N  N275  1  0.63010000  0.19129000  0.05104000  1.0
  N  N276  1  0.88352000  0.82108000  0.41620000  1.0
  N  N277  1  0.11648000  0.67892000  0.91620000  1.0
  N  N278  1  0.11648000  0.17892000  0.58380000  1.0
  N  N279  1  0.88352000  0.32108000  0.08380000  1.0
