# generated using pymatgen
data_AlH6C8NO5
_symmetry_space_group_name_H-M   'P 1'
_cell_length_a   6.68619000
_cell_length_b   11.63830000
_cell_length_c   17.67440000
_cell_angle_alpha   90.06320000
_cell_angle_beta   91.15780000
_cell_angle_gamma   90.67250000
_symmetry_Int_Tables_number   1
_chemical_formula_structural   AlH6C8NO5
_chemical_formula_sum   'Al4 H24 C32 N4 O20'
_cell_volume   1374.97233115
_cell_formula_units_Z   4
loop_
 _symmetry_equiv_pos_site_id
 _symmetry_equiv_pos_as_xyz
  1  'x, y, z'
loop_
 _atom_site_type_symbol
 _atom_site_label
 _atom_site_symmetry_multiplicity
 _atom_site_fract_x
 _atom_site_fract_y
 _atom_site_fract_z
 _atom_site_occupancy
  Al  Al0  1  0.99490000  0.99597000  0.50376000  1.0
  Al  Al1  1  0.49500000  0.99891000  0.49985000  1.0
  Al  Al2  1  0.00458000  0.49816000  0.99988000  1.0
  Al  Al3  1  0.50503000  0.49571000  0.00071000  1.0
  H  H4  1  0.23952000  0.84903000  0.48055000  1.0
  H  H5  1  0.75144000  0.15213000  0.49855000  1.0
  H  H6  1  0.26080000  0.64727000  0.01602000  1.0
  H  H7  1  0.75729000  0.34945000  0.02171000  1.0
  H  H8  1  0.05604000  0.75102000  0.83442000  1.0
  H  H9  1  0.43799000  0.65484000  0.80132000  1.0
  H  H10  1  0.04220000  0.85931000  0.71129000  1.0
  H  H11  1  0.55658000  0.23975000  0.17286000  1.0
  H  H12  1  0.94446000  0.34152000  0.19495000  1.0
  H  H13  1  0.53446000  0.13347000  0.29617000  1.0
  H  H14  1  0.93850000  0.24872000  0.82457000  1.0
  H  H15  1  0.55587000  0.34858000  0.80389000  1.0
  H  H16  1  0.95734000  0.14232000  0.70084000  1.0
  H  H17  1  0.06693000  0.65057000  0.21447000  1.0
  H  H18  1  0.45327000  0.73257000  0.16525000  1.0
  H  H19  1  0.04328000  0.75234000  0.33900000  1.0
  H  H20  1  0.36838000  0.81055000  0.62556000  1.0
  H  H21  1  0.26119000  0.72125000  0.69366000  1.0
  H  H22  1  0.86717000  0.18568000  0.36957000  1.0
  H  H23  1  0.76227000  0.27635000  0.30101000  1.0
  H  H24  1  0.62777000  0.19530000  0.62838000  1.0
  H  H25  1  0.73498000  0.28514000  0.69756000  1.0
  H  H26  1  0.37648000  0.88787000  0.33992000  1.0
  H  H27  1  0.27409000  0.84488000  0.25175000  1.0
  C  C28  1  0.73914000  0.86391000  0.39534000  1.0
  C  C29  1  0.74592000  0.87389000  0.61198000  1.0
  C  C30  1  0.25483000  0.12972000  0.60750000  1.0
  C  C31  1  0.23799000  0.12281000  0.39084000  1.0
  C  C32  1  0.76540000  0.62580000  0.10836000  1.0
  C  C33  1  0.74788000  0.62826000  0.89547000  1.0
  C  C34  1  0.24333000  0.36992000  0.89314000  1.0
  C  C35  1  0.25854000  0.36383000  0.10562000  1.0
  C  C36  1  0.73768000  0.81355000  0.68507000  1.0
  C  C37  1  0.74656000  0.69535000  0.82348000  1.0
  C  C38  1  0.55971000  0.75780000  0.71052000  1.0
  C  C39  1  0.92051000  0.75292000  0.79921000  1.0
  C  C40  1  0.57064000  0.69904000  0.78048000  1.0
  C  C41  1  0.91233000  0.81146000  0.73111000  1.0
  C  C42  1  0.23329000  0.18228000  0.31715000  1.0
  C  C43  1  0.25086000  0.29827000  0.17818000  1.0
  C  C44  1  0.05952000  0.23894000  0.28826000  1.0
  C  C45  1  0.42070000  0.23990000  0.20585000  1.0
  C  C46  1  0.07408000  0.29644000  0.21809000  1.0
  C  C47  1  0.40823000  0.18223000  0.27404000  1.0
  C  C48  1  0.26066000  0.19122000  0.68040000  1.0
  C  C49  1  0.24720000  0.30620000  0.81976000  1.0
  C  C50  1  0.43630000  0.24821000  0.70940000  1.0
  C  C51  1  0.07437000  0.24883000  0.79157000  1.0
  C  C52  1  0.42400000  0.30484000  0.77993000  1.0
  C  C53  1  0.08504000  0.19138000  0.72323000  1.0
  C  C54  1  0.73861000  0.80246000  0.32231000  1.0
  C  C55  1  0.76024000  0.68845000  0.18230000  1.0
  C  C56  1  0.56652000  0.79824000  0.27288000  1.0
  C  C57  1  0.93025000  0.69311000  0.23085000  1.0
  C  C58  1  0.58316000  0.73915000  0.20340000  1.0
  C  C59  1  0.91579000  0.74896000  0.29967000  1.0
  N  N60  1  0.38451000  0.75584000  0.66997000  1.0
  N  N61  1  0.88493000  0.24244000  0.32653000  1.0
  N  N62  1  0.61111000  0.25253000  0.67113000  1.0
  N  N63  1  0.39075000  0.84923000  0.28897000  1.0
  O  O64  1  0.90697000  0.88488000  0.42889000  1.0
  O  O65  1  0.57971000  0.89615000  0.57764000  1.0
  O  O66  1  0.42133000  0.10526000  0.57634000  1.0
  O  O67  1  0.07098000  0.09802000  0.42195000  1.0
  O  O68  1  0.08385000  0.10343000  0.57857000  1.0
  O  O69  1  0.40950000  0.09873000  0.41965000  1.0
  O  O70  1  0.56966000  0.89431000  0.42164000  1.0
  O  O71  1  0.91722000  0.90051000  0.58601000  1.0
  O  O72  1  0.24440000  0.92547000  0.50235000  1.0
  O  O73  1  0.74705000  0.06903000  0.49939000  1.0
  O  O74  1  0.93586000  0.59559000  0.08489000  1.0
  O  O75  1  0.57953000  0.59292000  0.91903000  1.0
  O  O76  1  0.41084000  0.38824000  0.92674000  1.0
  O  O77  1  0.09179000  0.38546000  0.07281000  1.0
  O  O78  1  0.07360000  0.40143000  0.91643000  1.0
  O  O79  1  0.43070000  0.39369000  0.08234000  1.0
  O  O80  1  0.59776000  0.60705000  0.07458000  1.0
  O  O81  1  0.91648000  0.61035000  0.92811000  1.0
  O  O82  1  0.25697000  0.56686000  0.00202000  1.0
  O  O83  1  0.75433000  0.42656000  0.00126000  1.0
