# generated using pymatgen
data_UH14C23N3ClO6
_symmetry_space_group_name_H-M   'P 1'
_cell_length_a   9.63351000
_cell_length_b   9.63349000
_cell_length_c   12.18690000
_cell_angle_alpha   104.25700000
_cell_angle_beta   104.25700000
_cell_angle_gamma   100.08600000
_symmetry_Int_Tables_number   1
_chemical_formula_structural   UH14C23N3ClO6
_chemical_formula_sum   'U2 H28 C46 N6 Cl2 O12'
_cell_volume   1028.39200649
_cell_formula_units_Z   2
loop_
 _symmetry_equiv_pos_site_id
 _symmetry_equiv_pos_as_xyz
  1  'x, y, z'
loop_
 _atom_site_type_symbol
 _atom_site_label
 _atom_site_symmetry_multiplicity
 _atom_site_fract_x
 _atom_site_fract_y
 _atom_site_fract_z
 _atom_site_occupancy
  U  U0  1  0.07802000  0.92198000  0.25000000  1.0
  U  U1  1  0.92198000  0.07802000  0.75000000  1.0
  H  H2  1  0.90456000  0.83050000  0.95521000  1.0
  H  H3  1  0.16950000  0.09544000  0.54479000  1.0
  H  H4  1  0.09544000  0.16950000  0.04479000  1.0
  H  H5  1  0.83050000  0.90456000  0.45521000  1.0
  H  H6  1  0.87347000  0.66647000  0.75633000  1.0
  H  H7  1  0.33352000  0.12653000  0.74367000  1.0
  H  H8  1  0.12653000  0.33353000  0.24368000  1.0
  H  H9  1  0.66648000  0.87347000  0.25633000  1.0
  H  H10  1  0.85124000  0.23877000  0.41472000  1.0
  H  H11  1  0.76123000  0.14876000  0.08528000  1.0
  H  H12  1  0.14876000  0.76123000  0.58528000  1.0
  H  H13  1  0.23877000  0.85124000  0.91472000  1.0
  H  H14  1  0.03333000  0.48279000  0.73629000  1.0
  H  H15  1  0.51720000  0.96666000  0.76370000  1.0
  H  H16  1  0.96667000  0.51721000  0.26371000  1.0
  H  H17  1  0.48279000  0.03334000  0.23630000  1.0
  H  H18  1  0.20879000  0.47345000  0.91736000  1.0
  H  H19  1  0.52655000  0.79121000  0.58263000  1.0
  H  H20  1  0.79121000  0.52655000  0.08264000  1.0
  H  H21  1  0.47345000  0.20879000  0.41737000  1.0
  H  H22  1  0.35081000  0.48063000  0.06043000  1.0
  H  H23  1  0.51937000  0.64919000  0.43957000  1.0
  H  H24  1  0.64919000  0.51937000  0.93957000  1.0
  H  H25  1  0.48063000  0.35081000  0.56043000  1.0
  H  H26  1  0.26710000  0.55665000  0.51658000  1.0
  H  H27  1  0.44335000  0.73290000  0.98342000  1.0
  H  H28  1  0.73290000  0.44335000  0.48342000  1.0
  H  H29  1  0.55665000  0.26710000  0.01658000  1.0
  C  C30  1  0.96942000  0.74943000  0.94494000  1.0
  C  C31  1  0.25057000  0.03058000  0.55505000  1.0
  C  C32  1  0.03058000  0.25057000  0.05506000  1.0
  C  C33  1  0.74943000  0.96942000  0.44495000  1.0
  C  C34  1  0.95477000  0.65834000  0.83254000  1.0
  C  C35  1  0.34166000  0.04522000  0.66746000  1.0
  C  C36  1  0.04522000  0.34166000  0.16746000  1.0
  C  C37  1  0.65834000  0.95478000  0.33254000  1.0
  C  C38  1  0.91540000  0.35335000  0.45267000  1.0
  C  C39  1  0.64664000  0.08460000  0.04733000  1.0
  C  C40  1  0.08460000  0.64665000  0.54733000  1.0
  C  C41  1  0.35335000  0.91540000  0.95267000  1.0
  C  C42  1  0.04233000  0.55816000  0.82211000  1.0
  C  C43  1  0.44184000  0.95767000  0.67789000  1.0
  C  C44  1  0.95767000  0.44184000  0.17789000  1.0
  C  C45  1  0.55816000  0.04233000  0.32211000  1.0
  C  C46  1  0.14238000  0.55394000  0.92468000  1.0
  C  C47  1  0.44606000  0.85762000  0.57532000  1.0
  C  C48  1  0.85762000  0.44606000  0.07532000  1.0
  C  C49  1  0.55394000  0.14238000  0.42468000  1.0
  C  C50  1  0.15130000  0.64909000  0.03528000  1.0
  C  C51  1  0.35091000  0.84870000  0.46472000  1.0
  C  C52  1  0.84870000  0.35091000  0.96472000  1.0
  C  C53  1  0.64909000  0.15130000  0.53528000  1.0
  C  C54  1  0.25667000  0.65068000  0.14668000  1.0
  C  C55  1  0.34932000  0.74333000  0.35332000  1.0
  C  C56  1  0.74333000  0.34932000  0.85332000  1.0
  C  C57  1  0.65068000  0.25667000  0.64668000  1.0
  C  C58  1  0.35190000  0.55652000  0.14327000  1.0
  C  C59  1  0.44348000  0.64811000  0.35673000  1.0
  C  C60  1  0.64811000  0.44348000  0.85674000  1.0
  C  C61  1  0.55652000  0.35189000  0.64327000  1.0
  C  C62  1  0.44456000  0.55544000  0.25000000  1.0
  C  C63  1  0.55544000  0.44456000  0.75000000  1.0
  C  C64  1  0.14073000  0.26692000  0.42292000  1.0
  C  C65  1  0.73307000  0.85927000  0.07708000  1.0
  C  C66  1  0.85927000  0.73308000  0.57708000  1.0
  C  C67  1  0.26693000  0.14073000  0.92292000  1.0
  C  C68  1  0.06632000  0.38607000  0.46250000  1.0
  C  C69  1  0.61393000  0.93368000  0.03750000  1.0
  C  C70  1  0.93368000  0.61393000  0.53750000  1.0
  C  C71  1  0.38606000  0.06632000  0.96250000  1.0
  C  C72  1  0.15012000  0.53347000  0.50971000  1.0
  C  C73  1  0.46653000  0.84988000  0.99029000  1.0
  C  C74  1  0.84988000  0.46653000  0.49029000  1.0
  C  C75  1  0.53347000  0.15012000  0.00971000  1.0
  N  N76  1  0.06317000  0.74407000  0.04496000  1.0
  N  N77  1  0.25593000  0.93682000  0.45504000  1.0
  N  N78  1  0.93682000  0.25593000  0.95504000  1.0
  N  N79  1  0.74407000  0.06318000  0.54496000  1.0
  N  N80  1  0.25586000  0.74414000  0.25000000  1.0
  N  N81  1  0.74414000  0.25586000  0.75000000  1.0
  Cl  Cl82  1  0.56077000  0.43923000  0.25000000  1.0
  Cl  Cl83  1  0.43923000  0.56077000  0.75000000  1.0
  O  O84  1  0.20735000  0.04213000  0.20716000  1.0
  O  O85  1  0.95786000  0.79263000  0.29284000  1.0
  O  O86  1  0.79265000  0.95787000  0.79284000  1.0
  O  O87  1  0.04214000  0.20737000  0.70716000  1.0
  O  O88  1  0.05528000  0.13158000  0.37639000  1.0
  O  O89  1  0.86842000  0.94472000  0.12361000  1.0
  O  O90  1  0.94472000  0.86842000  0.62361000  1.0
  O  O91  1  0.13158000  0.05528000  0.87639000  1.0
  O  O92  1  0.27576000  0.29898000  0.43534000  1.0
  O  O93  1  0.70102000  0.72423000  0.06466000  1.0
  O  O94  1  0.72424000  0.70102000  0.56466000  1.0
  O  O95  1  0.29898000  0.27576000  0.93534000  1.0
