# generated using pymatgen
data_Al6H70C87(IO7)4
_symmetry_space_group_name_H-M   'P 1'
_cell_length_a   12.77830000
_cell_length_b   12.92740000
_cell_length_c   28.32850000
_cell_angle_alpha   90.13560000
_cell_angle_beta   90.46790000
_cell_angle_gamma   62.70700000
_symmetry_Int_Tables_number   1
_chemical_formula_structural   Al6H70C87(IO7)4
_chemical_formula_sum   'Al6 H70 C87 I4 O28'
_cell_volume   4158.48323663
_cell_formula_units_Z   1
loop_
 _symmetry_equiv_pos_site_id
 _symmetry_equiv_pos_as_xyz
  1  'x, y, z'
loop_
 _atom_site_type_symbol
 _atom_site_label
 _atom_site_symmetry_multiplicity
 _atom_site_fract_x
 _atom_site_fract_y
 _atom_site_fract_z
 _atom_site_occupancy
  Al  Al0  1  0.59246000  0.58785000  0.49713000  1.0
  Al  Al1  1  0.34867000  0.57281000  0.49887000  1.0
  Al  Al2  1  0.57416000  0.34891000  0.49961000  1.0
  Al  Al3  1  0.07280000  0.07775000  0.99965000  1.0
  Al  Al4  1  0.08638000  0.31995000  0.00054000  1.0
  Al  Al5  1  0.31400000  0.09845000  0.00056000  1.0
  H  H6  1  0.11384000  0.40347000  0.22926000  1.0
  H  H7  1  0.92659000  0.45176000  0.21862000  1.0
  H  H8  1  0.50833000  0.80679000  0.21127000  1.0
  H  H9  1  0.23969000  0.21068000  0.29042000  1.0
  H  H10  1  0.52509000  0.75534000  0.28816000  1.0
  H  H11  1  0.23198000  0.00039000  0.30426000  1.0
  H  H12  1  0.38414000  0.95560000  0.29771000  1.0
  H  H13  1  0.34274000  0.00712000  0.21744000  1.0
  H  H14  1  0.19837000  0.02432000  0.22275000  1.0
  H  H15  1  0.24459000  0.70949000  0.28351000  1.0
  H  H16  1  0.15404000  0.86095000  0.28484000  1.0
  H  H17  1  0.97436000  0.12521000  0.29778000  1.0
  H  H18  1  0.28068000  0.70907000  0.20227000  1.0
  H  H19  1  0.20772000  0.53203000  0.27948000  1.0
  H  H20  1  0.50916000  0.21650000  0.79569000  1.0
  H  H21  1  0.52879000  0.24458000  0.71519000  1.0
  H  H22  1  0.23332000  0.25442000  0.69555000  1.0
  H  H23  1  0.38589000  0.16070000  0.70082000  1.0
  H  H24  1  0.36275000  0.14374000  0.78187000  1.0
  H  H25  1  0.21098000  0.24120000  0.77686000  1.0
  H  H26  1  0.25674000  0.53023000  0.71644000  1.0
  H  H27  1  0.15647000  0.47380000  0.70613000  1.0
  H  H28  1  0.01880000  0.12877000  0.21820000  1.0
  H  H29  1  0.24266000  0.51164000  0.79782000  1.0
  H  H30  1  0.40167000  0.44813000  0.21617000  1.0
  H  H31  1  0.47339000  0.39612000  0.72440000  1.0
  H  H32  1  0.46436000  0.36639000  0.80474000  1.0
  H  H33  1  0.13989000  0.45787000  0.78793000  1.0
  H  H34  1  0.80036000  0.51056000  0.79122000  1.0
  H  H35  1  0.74836000  0.52947000  0.71075000  1.0
  H  H36  1  0.99841000  0.22763000  0.69612000  1.0
  H  H37  1  0.96316000  0.37640000  0.70084000  1.0
  H  H38  1  0.00449000  0.34789000  0.78204000  1.0
  H  H39  1  0.07056000  0.23244000  0.22905000  1.0
  H  H40  1  0.02713000  0.20259000  0.77783000  1.0
  H  H41  1  0.69448000  0.26495000  0.71482000  1.0
  H  H42  1  0.52714000  0.25597000  0.27731000  1.0
  H  H43  1  0.84469000  0.16394000  0.71073000  1.0
  H  H44  1  0.70707000  0.28033000  0.79663000  1.0
  H  H45  1  0.64043000  0.48312000  0.72146000  1.0
  H  H46  1  0.67986000  0.48275000  0.80199000  1.0
  H  H47  1  0.21773000  0.78102000  0.79868000  1.0
  H  H48  1  0.22398000  0.74282000  0.71818000  1.0
  H  H49  1  0.27775000  0.99996000  0.69267000  1.0
  H  H50  1  0.77649000  0.49965000  0.29821000  1.0
  H  H51  1  0.16690000  0.95453000  0.69558000  1.0
  H  H52  1  0.15065000  0.98408000  0.77725000  1.0
  H  H53  1  0.43324000  0.12732000  0.22715000  1.0
  H  H54  1  0.25030000  0.04313000  0.77348000  1.0
  H  H55  1  0.53069000  0.70702000  0.71684000  1.0
  H  H56  1  0.49440000  0.85086000  0.70012000  1.0
  H  H57  1  0.52308000  0.76317000  0.79580000  1.0
  H  H58  1  0.37451000  0.64165000  0.72339000  1.0
  H  H59  1  0.46979000  0.91048000  0.77954000  1.0
  H  H60  1  0.80230000  0.19455000  0.20774000  1.0
  H  H61  1  0.93118000  0.42812000  0.30117000  1.0
  H  H62  1  0.75563000  0.21390000  0.28825000  1.0
  H  H63  1  0.04382000  0.21354000  0.30988000  1.0
  H  H64  1  0.39227000  0.54614000  0.35503000  1.0
  H  H65  1  0.51712000  0.47168000  0.39195000  1.0
  H  H66  1  0.51112000  0.41367000  0.33609000  1.0
  H  H67  1  0.64211000  0.50704000  0.33273000  1.0
  H  H68  1  0.53413000  0.63652000  0.35541000  1.0
  H  H69  1  0.43054000  0.58015000  0.27349000  1.0
  H  H70  1  0.57213000  0.55284000  0.25734000  1.0
  H  H71  1  0.77483000  0.49304000  0.21557000  1.0
  H  H72  1  0.67113000  0.36594000  0.28209000  1.0
  H  H73  1  0.70298000  0.34413000  0.20101000  1.0
  H  H74  1  0.68048000  0.69586000  0.46519000  1.0
  H  H75  1  0.96210000  0.98995000  0.96944000  1.0
  C  C76  1  0.37660000  0.71450000  0.43198000  1.0
  C  C77  1  0.33732000  0.34159000  0.35129000  1.0
  C  C78  1  0.75701000  0.29252000  0.27432000  1.0
  C  C79  1  0.38323000  0.38357000  0.43758000  1.0
  C  C80  1  0.97447000  0.20773000  0.28851000  1.0
  C  C81  1  0.99665000  0.21280000  0.23506000  1.0
  C  C82  1  0.92163000  0.29501000  0.11730000  1.0
  C  C83  1  0.85415000  0.31005000  0.30141000  1.0
  C  C84  1  0.78081000  0.28210000  0.22078000  1.0
  C  C85  1  0.88553000  0.30736000  0.21007000  1.0
  C  C86  1  0.85894000  0.42779000  0.23047000  1.0
  C  C87  1  0.34999000  0.35191000  0.39349000  1.0
  C  C88  1  0.85464000  0.42432000  0.28482000  1.0
  C  C89  1  0.90462000  0.30262000  0.15959000  1.0
  C  C90  1  0.82728000  0.31723000  0.35146000  1.0
  C  C91  1  0.72108000  0.37437000  0.43393000  1.0
  C  C92  1  0.79000000  0.33440000  0.39162000  1.0
  C  C93  1  0.46017000  0.73191000  0.27194000  1.0
  C  C94  1  0.31049000  0.94172000  0.28441000  1.0
  C  C95  1  0.29086000  0.96576000  0.23103000  1.0
  C  C96  1  0.30751000  0.90886000  0.11218000  1.0
  C  C97  1  0.33770000  0.81423000  0.29471000  1.0
  C  C98  1  0.38301000  0.21708000  0.23930000  1.0
  C  C99  1  0.45220000  0.76536000  0.21861000  1.0
  C  C100  1  0.32474000  0.85125000  0.20310000  1.0
  C  C101  1  0.24474000  0.79634000  0.21780000  1.0
  C  C102  1  0.23834000  0.79302000  0.27181000  1.0
  C  C103  1  0.39149000  0.70747000  0.56501000  1.0
  C  C104  1  0.31768000  0.87810000  0.15314000  1.0
  C  C105  1  0.33914000  0.79607000  0.34540000  1.0
  C  C106  1  0.34141000  0.77584000  0.38746000  1.0
  C  C107  1  0.45593000  0.32154000  0.73077000  1.0
  C  C108  1  0.31361000  0.24056000  0.71490000  1.0
  C  C109  1  0.31281000  0.32381000  0.20498000  1.0
  C  C110  1  0.29941000  0.22999000  0.76868000  1.0
  C  C111  1  0.29640000  0.30245000  0.88816000  1.0
  C  C112  1  0.33996000  0.34410000  0.70477000  1.0
  C  C113  1  0.44588000  0.30448000  0.78420000  1.0
  C  C114  1  0.32003000  0.32352000  0.79578000  1.0
  C  C115  1  0.39134000  0.39280000  0.56610000  1.0
  C  C116  1  0.22813000  0.44553000  0.77850000  1.0
  C  C117  1  0.23862000  0.45702000  0.72466000  1.0
  C  C118  1  0.30820000  0.31185000  0.84609000  1.0
  C  C119  1  0.35308000  0.35570000  0.65451000  1.0
  C  C120  1  0.43531000  0.28860000  0.26619000  1.0
  C  C121  1  0.36587000  0.36780000  0.61272000  1.0
  C  C122  1  0.73327000  0.46139000  0.72786000  1.0
  C  C123  1  0.94279000  0.30865000  0.71497000  1.0
  C  C124  1  0.96572000  0.29309000  0.76880000  1.0
  C  C125  1  0.89480000  0.31470000  0.88783000  1.0
  C  C126  1  0.81194000  0.34294000  0.70414000  1.0
  C  C127  1  0.71312000  0.38987000  0.56534000  1.0
  C  C128  1  0.76061000  0.45413000  0.78124000  1.0
  C  C129  1  0.84910000  0.32747000  0.79560000  1.0
  C  C130  1  0.79302000  0.24929000  0.77970000  1.0
  C  C131  1  0.32787000  0.33526000  0.30172000  1.0
  C  C132  1  0.78344000  0.24852000  0.72557000  1.0
  C  C133  1  0.87150000  0.32108000  0.84596000  1.0
  C  C134  1  0.78896000  0.35203000  0.65377000  1.0
  C  C135  1  0.76381000  0.36373000  0.61201000  1.0
  C  C136  1  0.31009000  0.73188000  0.73078000  1.0
  C  C137  1  0.25107000  0.94138000  0.71125000  1.0
  C  C138  1  0.23849000  0.96643000  0.76477000  1.0
  C  C139  1  0.27541000  0.26335000  0.27335000  1.0
  C  C140  1  0.30505000  0.92117000  0.88410000  1.0
  C  C141  1  0.34504000  0.81424000  0.70275000  1.0
  C  C142  1  0.36550000  0.39583000  0.23328000  1.0
  C  C143  1  0.30420000  0.75951000  0.78390000  1.0
  C  C144  1  0.33288000  0.86147000  0.79326000  1.0
  C  C145  1  0.45612000  0.83330000  0.77433000  1.0
  C  C146  1  0.46562000  0.79841000  0.72176000  1.0
  C  C147  1  0.32083000  0.89184000  0.84296000  1.0
  C  C148  1  0.35358000  0.78490000  0.65299000  1.0
  C  C149  1  0.36487000  0.75711000  0.61162000  1.0
  C  C150  1  0.96142000  0.27133000  0.06933000  1.0
  C  C151  1  0.20560000  0.37066000  0.24048000  1.0
  C  C152  1  0.26896000  0.28409000  0.06588000  1.0
  C  C153  1  0.25789000  0.44217000  0.26740000  1.0
  C  C154  1  0.28152000  0.95872000  0.06560000  1.0
  C  C155  1  0.94569000  0.28759000  0.93449000  1.0
  C  C156  1  0.27214000  0.27851000  0.93511000  1.0
  C  C157  1  0.27425000  0.96839000  0.93096000  1.0
  C  C158  1  0.29359000  0.30866000  0.11292000  1.0
  C  C159  1  0.50177000  0.60260000  0.28241000  1.0
  C  C160  1  0.54667000  0.56269000  0.33301000  1.0
  C  C161  1  0.48866000  0.49512000  0.35523000  1.0
  C  C162  1  0.30374000  0.31727000  0.15540000  1.0
  I  I163  1  0.52557000  0.61976000  0.16785000  1.0
  I  I164  1  0.06991000  0.88277000  0.18610000  1.0
  I  I165  1  0.88689000  0.07203000  0.80768000  1.0
  I  I166  1  0.41862000  0.60701000  0.82639000  1.0
  O  O167  1  0.69156000  0.47775000  0.44683000  1.0
  O  O168  1  0.34333000  0.18854000  0.04731000  1.0
  O  O169  1  0.35752000  0.98725000  0.04789000  1.0
  O  O170  1  0.47955000  0.68825000  0.44650000  1.0
  O  O171  1  0.17195000  0.99290000  0.94487000  1.0
  O  O172  1  0.96586000  0.19020000  0.95163000  1.0
  O  O173  1  0.97167000  0.36361000  0.95375000  1.0
  O  O174  1  0.17483000  0.35060000  0.95352000  1.0
  O  O175  1  0.34751000  0.18312000  0.95404000  1.0
  O  O176  1  0.35271000  0.98505000  0.95402000  1.0
  O  O177  1  0.15875000  0.16642000  0.00004000  1.0
  O  O178  1  0.31808000  0.48935000  0.54746000  1.0
  O  O179  1  0.30314000  0.68531000  0.45151000  1.0
  O  O180  1  0.31291000  0.48296000  0.45473000  1.0
  O  O181  1  0.48411000  0.31371000  0.45481000  1.0
  O  O182  1  0.68977000  0.30299000  0.45374000  1.0
  O  O183  1  0.69253000  0.48687000  0.54765000  1.0
  O  O184  1  0.49127000  0.68409000  0.54856000  1.0
  O  O185  1  0.31198000  0.68712000  0.54469000  1.0
  O  O186  1  0.48813000  0.31942000  0.54759000  1.0
  O  O187  1  0.68838000  0.31271000  0.54646000  1.0
  O  O188  1  0.50413000  0.50258000  0.49772000  1.0
  O  O189  1  0.18552000  0.97456000  0.04692000  1.0
  O  O190  1  0.98412000  0.17230000  0.05313000  1.0
  O  O191  1  0.97498000  0.35188000  0.04747000  1.0
  O  O192  1  0.17114000  0.35646000  0.04708000  1.0
  O  O193  1  0.67152000  0.66793000  0.49574000  1.0
  O  O194  1  0.99635000  0.99502000  0.99936000  1.0
