# generated using pymatgen
data_ZnH13C22(N2O3)2
_symmetry_space_group_name_H-M   'P 1'
_cell_length_a   16.24250000
_cell_length_b   17.12040000
_cell_length_c   19.14430000
_cell_angle_alpha   88.99640000
_cell_angle_beta   86.90930000
_cell_angle_gamma   85.20620000
_symmetry_Int_Tables_number   1
_chemical_formula_structural   ZnH13C22(N2O3)2
_chemical_formula_sum   'Zn2 H26 C44 N8 O12'
_cell_volume   5296.81882878
_cell_formula_units_Z   2
loop_
 _symmetry_equiv_pos_site_id
 _symmetry_equiv_pos_as_xyz
  1  'x, y, z'
loop_
 _atom_site_type_symbol
 _atom_site_label
 _atom_site_symmetry_multiplicity
 _atom_site_fract_x
 _atom_site_fract_y
 _atom_site_fract_z
 _atom_site_occupancy
  Zn  Zn0  1  0.58641000  0.50168000  0.49239000  1.0
  Zn  Zn1  1  0.41485000  0.49463000  0.50301000  1.0
  H  H2  1  0.62646000  0.53247000  0.70995000  1.0
  H  H3  1  0.36502000  0.51769000  0.28376000  1.0
  H  H4  1  0.62413000  0.55739000  0.83886000  1.0
  H  H5  1  0.36165000  0.54129000  0.15429000  1.0
  H  H6  1  0.36332000  0.52683000  0.85488000  1.0
  H  H7  1  0.62685000  0.54281000  0.14102000  1.0
  H  H8  1  0.36730000  0.49937000  0.72630000  1.0
  H  H9  1  0.62955000  0.51692000  0.27034000  1.0
  H  H10  1  0.42549000  0.23858000  0.46962000  1.0
  H  H11  1  0.57619000  0.76192000  0.45930000  1.0
  H  H12  1  0.37850000  0.72140000  0.61012000  1.0
  H  H13  1  0.62784000  0.26882000  0.59920000  1.0
  H  H14  1  0.63027000  0.12893000  0.63723000  1.0
  H  H15  1  0.37480000  0.85955000  0.64964000  1.0
  H  H16  1  0.56903000  0.90167000  0.49355000  1.0
  H  H17  1  0.43149000  0.09713000  0.50179000  1.0
  H  H18  1  0.27701000  0.56980000  0.42638000  1.0
  H  H19  1  0.72503000  0.42561000  0.56636000  1.0
  H  H20  1  0.70669000  0.59625000  0.41133000  1.0
  H  H21  1  0.29333000  0.40369000  0.58547000  1.0
  H  H22  1  0.99372000  0.56807000  0.44378000  1.0
  H  H23  1  0.00662000  0.43413000  0.55339000  1.0
  H  H24  1  0.13966000  0.39503000  0.59311000  1.0
  H  H25  1  0.86004000  0.60721000  0.40468000  1.0
  H  H26  1  0.87775000  0.42906000  0.56795000  1.0
  H  H27  1  0.12376000  0.56993000  0.42695000  1.0
  C  C28  1  0.52281000  0.34700000  0.51111000  1.0
  C  C29  1  0.48166000  0.64961000  0.51019000  1.0
  C  C30  1  0.49846000  0.50203000  0.63363000  1.0
  C  C31  1  0.49871000  0.50595000  0.36257000  1.0
  C  C32  1  0.56961000  0.53041000  0.74259000  1.0
  C  C33  1  0.42193000  0.52302000  0.25188000  1.0
  C  C34  1  0.56825000  0.54450000  0.81386000  1.0
  C  C35  1  0.42001000  0.53609000  0.18014000  1.0
  C  C36  1  0.49356000  0.54366000  0.85459000  1.0
  C  C37  1  0.49398000  0.54412000  0.13990000  1.0
  C  C38  1  0.42087000  0.52709000  0.82296000  1.0
  C  C39  1  0.56982000  0.53680000  0.17260000  1.0
  C  C40  1  0.42296000  0.51209000  0.75177000  1.0
  C  C41  1  0.57129000  0.52285000  0.24431000  1.0
  C  C42  1  0.49709000  0.51424000  0.71099000  1.0
  C  C43  1  0.49739000  0.51682000  0.28472000  1.0
  C  C44  1  0.49192000  0.55955000  0.06445000  1.0
  C  C45  1  0.49163000  0.55948000  0.92964000  1.0
  C  C46  1  0.52642000  0.26207000  0.53230000  1.0
  C  C47  1  0.47764000  0.73349000  0.53247000  1.0
  C  C48  1  0.47006000  0.21378000  0.50616000  1.0
  C  C49  1  0.53238000  0.78408000  0.50081000  1.0
  C  C50  1  0.47268000  0.13511000  0.52526000  1.0
  C  C51  1  0.52912000  0.86174000  0.52097000  1.0
  C  C52  1  0.53001000  0.10345000  0.57298000  1.0
  C  C53  1  0.47272000  0.89000000  0.57503000  1.0
  C  C54  1  0.58572000  0.15241000  0.59998000  1.0
  C  C55  1  0.41862000  0.83867000  0.60753000  1.0
  C  C56  1  0.58438000  0.23068000  0.57911000  1.0
  C  C57  1  0.42064000  0.76144000  0.58582000  1.0
  C  C58  1  0.53313000  0.01963000  0.58878000  1.0
  C  C59  1  0.46915000  0.97311000  0.59174000  1.0
  C  C60  1  0.24321000  0.53268000  0.46266000  1.0
  C  C61  1  0.75823000  0.46483000  0.53169000  1.0
  C  C62  1  0.15795000  0.53203000  0.46351000  1.0
  C  C63  1  0.84323000  0.46719000  0.53178000  1.0
  C  C64  1  0.11748000  0.48253000  0.51115000  1.0
  C  C65  1  0.88311000  0.51839000  0.48534000  1.0
  C  C66  1  0.16742000  0.43499000  0.55550000  1.0
  C  C67  1  0.83274000  0.56603000  0.44141000  1.0
  C  C68  1  0.25261000  0.43914000  0.55168000  1.0
  C  C69  1  0.74778000  0.56037000  0.44449000  1.0
  C  C70  1  0.02817000  0.47834000  0.51642000  1.0
  C  C71  1  0.97231000  0.52354000  0.48051000  1.0
  N  N72  1  0.41750000  0.56754000  0.96603000  1.0
  N  N73  1  0.56309000  0.57351000  0.02786000  1.0
  N  N74  1  0.41783000  0.56717000  0.03473000  1.0
  N  N75  1  0.56298000  0.57309000  0.95915000  1.0
  N  N76  1  0.28982000  0.48735000  0.50618000  1.0
  N  N77  1  0.71123000  0.51033000  0.48864000  1.0
  N  N78  1  0.38429000  0.01228000  0.60552000  1.0
  N  N79  1  0.61798000  0.97985000  0.59431000  1.0
  O  O80  1  0.58810000  0.38245000  0.51586000  1.0
  O  O81  1  0.41729000  0.61309000  0.52319000  1.0
  O  O82  1  0.45369000  0.37720000  0.49079000  1.0
  O  O83  1  0.54977000  0.62117000  0.48115000  1.0
  O  O84  1  0.56395000  0.51819000  0.59854000  1.0
  O  O85  1  0.42935000  0.51462000  0.39715000  1.0
  O  O86  1  0.43409000  0.47802000  0.60862000  1.0
  O  O87  1  0.56894000  0.48992000  0.38839000  1.0
  O  O88  1  0.33035000  0.99678000  0.56572000  1.0
  O  O89  1  0.37328000  0.05516000  0.65711000  1.0
  O  O90  1  0.67101000  0.99524000  0.54829000  1.0
  O  O91  1  0.62995000  0.93683000  0.64596000  1.0
