# generated using pymatgen
data_Cd2H13C21NO10
_symmetry_space_group_name_H-M   'P 1'
_cell_length_a   8.98418000
_cell_length_b   9.72189000
_cell_length_c   15.07410000
_cell_angle_alpha   83.85280000
_cell_angle_beta   88.67330000
_cell_angle_gamma   75.16690000
_symmetry_Int_Tables_number   1
_chemical_formula_structural   Cd2H13C21NO10
_chemical_formula_sum   'Cd4 H26 C42 N2 O20'
_cell_volume   1265.41413879
_cell_formula_units_Z   2
loop_
 _symmetry_equiv_pos_site_id
 _symmetry_equiv_pos_as_xyz
  1  'x, y, z'
loop_
 _atom_site_type_symbol
 _atom_site_label
 _atom_site_symmetry_multiplicity
 _atom_site_fract_x
 _atom_site_fract_y
 _atom_site_fract_z
 _atom_site_occupancy
  Cd  Cd0  1  0.69907000  0.92536000  0.95327000  1.0
  Cd  Cd1  1  0.30093000  0.07464000  0.04673000  1.0
  Cd  Cd2  1  0.74210000  0.16051000  0.73212000  1.0
  Cd  Cd3  1  0.25790000  0.83949000  0.26788000  1.0
  H  H4  1  0.61645000  0.45508000  0.67446000  1.0
  H  H5  1  0.38355000  0.54491000  0.32553000  1.0
  H  H6  1  0.63800000  0.41755000  0.77736000  1.0
  H  H7  1  0.36200000  0.58245000  0.22263000  1.0
  H  H8  1  0.68035000  0.08742000  0.09816000  1.0
  H  H9  1  0.31964000  0.91258000  0.90184000  1.0
  H  H10  1  0.85471000  0.08609000  0.06245000  1.0
  H  H11  1  0.14529000  0.91391000  0.93755000  1.0
  H  H12  1  0.05903000  0.96551000  0.69135000  1.0
  H  H13  1  0.94098000  0.03449000  0.30864000  1.0
  H  H14  1  0.93831000  0.28761000  0.85792000  1.0
  H  H15  1  0.06169000  0.71238000  0.14208000  1.0
  H  H16  1  0.49963000  0.49544000  0.92993000  1.0
  H  H17  1  0.50036000  0.50456000  0.07007000  1.0
  H  H18  1  0.28257000  0.70414000  0.95296000  1.0
  H  H19  1  0.71742000  0.29586000  0.04704000  1.0
  H  H20  1  0.97047000  0.49491000  0.84745000  1.0
  H  H21  1  0.02952000  0.50508000  0.15256000  1.0
  H  H22  1  0.39755000  0.18554000  0.74853000  1.0
  H  H23  1  0.60245000  0.81446000  0.25147000  1.0
  H  H24  1  0.19737000  0.98859000  0.55574000  1.0
  H  H25  1  0.80264000  0.01142000  0.44426000  1.0
  H  H26  1  0.64859000  0.73001000  0.50671000  1.0
  H  H27  1  0.35141000  0.27002000  0.49329000  1.0
  H  H28  1  0.73536000  0.76821000  0.65692000  1.0
  H  H29  1  0.26464000  0.23180000  0.34307000  1.0
  C  C30  1  0.49279000  0.24233000  0.89274000  1.0
  C  C31  1  0.50721000  0.75767000  0.10726000  1.0
  C  C32  1  0.56571000  0.90353000  0.78479000  1.0
  C  C33  1  0.43429000  0.09647000  0.21520000  1.0
  C  C34  1  0.51323000  0.89637000  0.69210000  1.0
  C  C35  1  0.48677000  0.10364000  0.30789000  1.0
  C  C36  1  0.35999000  0.96080000  0.66413000  1.0
  C  C37  1  0.64001000  0.03920000  0.33587000  1.0
  C  C38  1  0.24861000  0.05544000  0.71908000  1.0
  C  C39  1  0.75140000  0.94456000  0.28092000  1.0
  C  C40  1  0.09676000  0.04385000  0.72573000  1.0
  C  C41  1  0.90324000  0.95615000  0.27427000  1.0
  C  C42  1  0.02876000  0.22659000  0.81774000  1.0
  C  C43  1  0.97124000  0.77340000  0.18227000  1.0
  C  C44  1  0.17614000  0.25075000  0.81318000  1.0
  C  C45  1  0.82386000  0.74925000  0.18682000  1.0
  C  C46  1  0.20798000  0.36932000  0.85693000  1.0
  C  C47  1  0.79202000  0.63068000  0.14307000  1.0
  C  C48  1  0.35719000  0.37026000  0.88462000  1.0
  C  C49  1  0.64281000  0.62973000  0.11539000  1.0
  C  C50  1  0.38262000  0.49431000  0.91363000  1.0
  C  C51  1  0.61738000  0.50568000  0.08637000  1.0
  C  C52  1  0.26105000  0.61192000  0.92568000  1.0
  C  C53  1  0.73895000  0.38807000  0.07432000  1.0
  C  C54  1  0.11105000  0.60852000  0.90535000  1.0
  C  C55  1  0.88894000  0.39147000  0.09465000  1.0
  C  C56  1  0.97549000  0.72822000  0.92375000  1.0
  C  C57  1  0.02451000  0.27177000  0.07625000  1.0
  C  C58  1  0.08724000  0.49016000  0.86819000  1.0
  C  C59  1  0.91275000  0.50983000  0.13182000  1.0
  C  C60  1  0.28510000  0.16455000  0.76096000  1.0
  C  C61  1  0.71490000  0.83545000  0.23904000  1.0
  C  C62  1  0.31367000  0.93735000  0.58029000  1.0
  C  C63  1  0.68633000  0.06266000  0.41971000  1.0
  C  C64  1  0.41582000  0.85289000  0.52430000  1.0
  C  C65  1  0.58419000  0.14713000  0.47570000  1.0
  C  C66  1  0.36156000  0.83679000  0.43396000  1.0
  C  C67  1  0.63844000  0.16322000  0.56604000  1.0
  C  C68  1  0.56858000  0.79245000  0.55172000  1.0
  C  C69  1  0.43143000  0.20757000  0.44828000  1.0
  C  C70  1  0.61675000  0.81497000  0.63497000  1.0
  C  C71  1  0.38326000  0.18505000  0.36503000  1.0
  N  N72  1  0.98958000  0.12959000  0.77248000  1.0
  N  N73  1  0.01042000  0.87040000  0.22752000  1.0
  O  O74  1  0.47678000  0.12674000  0.93582000  1.0
  O  O75  1  0.52323000  0.87326000  0.06418000  1.0
  O  O76  1  0.62073000  0.25721000  0.86034000  1.0
  O  O77  1  0.37926000  0.74279000  0.13966000  1.0
  O  O78  1  0.68245000  0.95603000  0.79451000  1.0
  O  O79  1  0.31754000  0.04397000  0.20550000  1.0
  O  O80  1  0.50021000  0.85360000  0.85049000  1.0
  O  O81  1  0.49979000  0.14640000  0.14951000  1.0
  O  O82  1  0.99396000  0.85112000  0.93535000  1.0
  O  O83  1  0.00604000  0.14887000  0.06466000  1.0
  O  O84  1  0.84347000  0.70171000  0.92880000  1.0
  O  O85  1  0.15652000  0.29829000  0.07120000  1.0
  O  O86  1  0.45627000  0.76627000  0.38017000  1.0
  O  O87  1  0.54373000  0.23374000  0.61983000  1.0
  O  O88  1  0.22126000  0.89759000  0.41251000  1.0
  O  O89  1  0.77875000  0.10242000  0.58749000  1.0
  O  O90  1  0.69511000  0.42504000  0.72107000  1.0
  O  O91  1  0.30489000  0.57495000  0.27892000  1.0
  O  O92  1  0.76610000  0.04078000  0.06077000  1.0
  O  O93  1  0.23390000  0.95922000  0.93923000  1.0
