# generated using pymatgen
data_CdH10C17(NO)4
_symmetry_space_group_name_H-M   'P 1'
_cell_length_a   10.43410000
_cell_length_b   10.66700000
_cell_length_c   13.56430000
_cell_angle_alpha   90.50740000
_cell_angle_beta   90.00000000
_cell_angle_gamma   90.00000000
_symmetry_Int_Tables_number   1
_chemical_formula_structural   CdH10C17(NO)4
_chemical_formula_sum   'Cd4 H40 C68 N16 O16'
_cell_volume   1509.65477905
_cell_formula_units_Z   4
loop_
 _symmetry_equiv_pos_site_id
 _symmetry_equiv_pos_as_xyz
  1  'x, y, z'
loop_
 _atom_site_type_symbol
 _atom_site_label
 _atom_site_symmetry_multiplicity
 _atom_site_fract_x
 _atom_site_fract_y
 _atom_site_fract_z
 _atom_site_occupancy
  Cd  Cd0  1  0.61160000  0.82185000  0.18094000  1.0
  Cd  Cd1  1  0.11160000  0.17815000  0.31906000  1.0
  Cd  Cd2  1  0.38840000  0.17815000  0.81906000  1.0
  Cd  Cd3  1  0.88840000  0.82185000  0.68094000  1.0
  H  H4  1  0.87666000  0.66977000  0.12713000  1.0
  H  H5  1  0.37665000  0.33023000  0.37287000  1.0
  H  H6  1  0.12335000  0.33023000  0.87287000  1.0
  H  H7  1  0.62335000  0.66977000  0.62713000  1.0
  H  H8  1  0.95190000  0.44684000  0.09686000  1.0
  H  H9  1  0.45190000  0.55315000  0.40314000  1.0
  H  H10  1  0.04810000  0.55315000  0.90314000  1.0
  H  H11  1  0.54810000  0.44684000  0.59686000  1.0
  H  H12  1  0.78851000  0.27698000  0.08536000  1.0
  H  H13  1  0.28851000  0.72302000  0.41464000  1.0
  H  H14  1  0.21149000  0.72302000  0.91464000  1.0
  H  H15  1  0.71149000  0.27698000  0.58536000  1.0
  H  H16  1  0.55811000  0.21247000  0.08428000  1.0
  H  H17  1  0.05811000  0.78753000  0.41572000  1.0
  H  H18  1  0.44189000  0.78753000  0.91572000  1.0
  H  H19  1  0.94189000  0.21247000  0.58428000  1.0
  H  H20  1  0.32798000  0.27150000  0.10018000  1.0
  H  H21  1  0.82798000  0.72850000  0.39982000  1.0
  H  H22  1  0.67202000  0.72850000  0.89982000  1.0
  H  H23  1  0.17202000  0.27150000  0.60018000  1.0
  H  H24  1  0.16433000  0.43124000  0.13034000  1.0
  H  H25  1  0.66433000  0.56876000  0.36966000  1.0
  H  H26  1  0.83567000  0.56876000  0.86966000  1.0
  H  H27  1  0.33567000  0.43124000  0.63034000  1.0
  H  H28  1  0.10908000  0.66169000  0.15716000  1.0
  H  H29  1  0.60908000  0.33831000  0.34283000  1.0
  H  H30  1  0.89092000  0.33831000  0.84283000  1.0
  H  H31  1  0.39092000  0.66169000  0.65717000  1.0
  H  H32  1  0.28758000  0.81678000  0.16869000  1.0
  H  H33  1  0.78758000  0.18322000  0.33131000  1.0
  H  H34  1  0.71242000  0.18322000  0.83131000  1.0
  H  H35  1  0.21242000  0.81678000  0.66869000  1.0
  H  H36  1  0.37603000  0.08039000  0.15071000  1.0
  H  H37  1  0.87603000  0.91960000  0.34929000  1.0
  H  H38  1  0.62397000  0.91960000  0.84929000  1.0
  H  H39  1  0.12397000  0.08039000  0.65071000  1.0
  H  H40  1  0.38891000  0.88685000  0.52274000  1.0
  H  H41  1  0.88890000  0.11315000  0.97726000  1.0
  H  H42  1  0.61110000  0.11315000  0.47726000  1.0
  H  H43  1  0.11110000  0.88685000  0.02274000  1.0
  C  C44  1  0.80913000  0.59161000  0.12303000  1.0
  C  C45  1  0.30913000  0.40839000  0.37697000  1.0
  C  C46  1  0.19087000  0.40839000  0.87697000  1.0
  C  C47  1  0.69087000  0.59161000  0.62303000  1.0
  C  C48  1  0.85044000  0.46800000  0.10565000  1.0
  C  C49  1  0.35044000  0.53200000  0.39435000  1.0
  C  C50  1  0.14957000  0.53200000  0.89435000  1.0
  C  C51  1  0.64956000  0.46800000  0.60565000  1.0
  C  C52  1  0.75996000  0.37363000  0.09936000  1.0
  C  C53  1  0.25995000  0.62637000  0.40064000  1.0
  C  C54  1  0.24005000  0.62637000  0.90064000  1.0
  C  C55  1  0.74004000  0.37363000  0.59936000  1.0
  C  C56  1  0.62858000  0.40236000  0.10872000  1.0
  C  C57  1  0.12858000  0.59764000  0.39128000  1.0
  C  C58  1  0.37142000  0.59764000  0.89128000  1.0
  C  C59  1  0.87142000  0.40236000  0.60872000  1.0
  C  C60  1  0.53020000  0.30922000  0.09989000  1.0
  C  C61  1  0.03020000  0.69078000  0.40012000  1.0
  C  C62  1  0.46979000  0.69078000  0.90012000  1.0
  C  C63  1  0.96979000  0.30922000  0.59989000  1.0
  C  C64  1  0.40393000  0.34099000  0.10876000  1.0
  C  C65  1  0.90393000  0.65901000  0.39124000  1.0
  C  C66  1  0.59607000  0.65901000  0.89124000  1.0
  C  C67  1  0.09607000  0.34099000  0.60876000  1.0
  C  C68  1  0.36712000  0.46833000  0.12715000  1.0
  C  C69  1  0.86712000  0.53167000  0.37285000  1.0
  C  C70  1  0.63288000  0.53167000  0.87285000  1.0
  C  C71  1  0.13288000  0.46833000  0.62715000  1.0
  C  C72  1  0.23726000  0.50444000  0.13604000  1.0
  C  C73  1  0.73726000  0.49556000  0.36396000  1.0
  C  C74  1  0.76274000  0.49556000  0.86396000  1.0
  C  C75  1  0.26274000  0.50444000  0.63604000  1.0
  C  C76  1  0.20775000  0.62930000  0.15126000  1.0
  C  C77  1  0.70776000  0.37070000  0.34874000  1.0
  C  C78  1  0.79224000  0.37070000  0.84874000  1.0
  C  C79  1  0.29225000  0.62931000  0.65126000  1.0
  C  C80  1  0.30777000  0.71737000  0.15810000  1.0
  C  C81  1  0.80776000  0.28263000  0.34190000  1.0
  C  C82  1  0.69224000  0.28263000  0.84190000  1.0
  C  C83  1  0.19223000  0.71737000  0.65810000  1.0
  C  C84  1  0.46186000  0.56358000  0.13560000  1.0
  C  C85  1  0.96186000  0.43642000  0.36440000  1.0
  C  C86  1  0.53814000  0.43642000  0.86440000  1.0
  C  C87  1  0.03814000  0.56358000  0.63560000  1.0
  C  C88  1  0.59562000  0.52990000  0.12659000  1.0
  C  C89  1  0.09562000  0.47010000  0.37341000  1.0
  C  C90  1  0.40438000  0.47010000  0.87341000  1.0
  C  C91  1  0.90438000  0.52990000  0.62659000  1.0
  C  C92  1  0.38204000  0.04371000  0.22497000  1.0
  C  C93  1  0.88204000  0.95628000  0.27503000  1.0
  C  C94  1  0.61796000  0.95628000  0.77503000  1.0
  C  C95  1  0.11796000  0.04371000  0.72497000  1.0
  C  C96  1  0.51319000  0.83035000  0.40148000  1.0
  C  C97  1  0.01319000  0.16965000  0.09852000  1.0
  C  C98  1  0.48681000  0.16965000  0.59852000  1.0
  C  C99  1  0.98681000  0.83035000  0.90148000  1.0
  C  C100  1  0.44047000  0.92803000  0.34824000  1.0
  C  C101  1  0.94047000  0.07197000  0.15176000  1.0
  C  C102  1  0.55953000  0.07197000  0.65176000  1.0
  C  C103  1  0.05953000  0.92803000  0.84824000  1.0
  C  C104  1  0.33628000  0.00286000  0.37720000  1.0
  C  C105  1  0.83627000  0.99714000  0.12280000  1.0
  C  C106  1  0.66373000  0.99714000  0.62280000  1.0
  C  C107  1  0.16372000  0.00286000  0.87720000  1.0
  C  C108  1  0.26321000  0.01093000  0.46944000  1.0
  C  C109  1  0.76322000  0.98907000  0.03056000  1.0
  C  C110  1  0.73678000  0.98907000  0.53056000  1.0
  C  C111  1  0.23679000  0.01093000  0.96944000  1.0
  N  N112  1  0.68591000  0.62088000  0.13425000  1.0
  N  N113  1  0.18591000  0.37912000  0.36575000  1.0
  N  N114  1  0.31409000  0.37912000  0.86575000  1.0
  N  N115  1  0.81409000  0.62088000  0.63425000  1.0
  N  N116  1  0.43064000  0.68547000  0.15052000  1.0
  N  N117  1  0.93064000  0.31453000  0.34948000  1.0
  N  N118  1  0.56936000  0.31453000  0.84948000  1.0
  N  N119  1  0.06936000  0.68547000  0.65052000  1.0
  N  N120  1  0.46742000  0.95563000  0.25180000  1.0
  N  N121  1  0.96742000  0.04437000  0.24820000  1.0
  N  N122  1  0.53258000  0.04437000  0.74820000  1.0
  N  N123  1  0.03258000  0.95563000  0.75180000  1.0
  N  N124  1  0.30140000  0.07533000  0.29847000  1.0
  N  N125  1  0.80140000  0.92467000  0.20153000  1.0
  N  N126  1  0.69860000  0.92467000  0.70153000  1.0
  N  N127  1  0.19860000  0.07533000  0.79847000  1.0
  O  O128  1  0.59655000  0.76668000  0.35515000  1.0
  O  O129  1  0.09655000  0.23333000  0.14485000  1.0
  O  O130  1  0.40345000  0.23333000  0.64485000  1.0
  O  O131  1  0.90345000  0.76667000  0.85515000  1.0
  O  O132  1  0.48562000  0.81252000  0.49305000  1.0
  O  O133  1  0.98561000  0.18748000  0.00696000  1.0
  O  O134  1  0.51439000  0.18748000  0.50696000  1.0
  O  O135  1  0.01438000  0.81252000  0.99304000  1.0
  O  O136  1  0.30339000  0.94397000  0.54396000  1.0
  O  O137  1  0.80339000  0.05603000  0.95604000  1.0
  O  O138  1  0.69661000  0.05603000  0.45604000  1.0
  O  O139  1  0.19661000  0.94397000  0.04396000  1.0
  O  O140  1  0.16483000  0.07844000  0.47600000  1.0
  O  O141  1  0.66483000  0.92156000  0.02400000  1.0
  O  O142  1  0.83517000  0.92156000  0.52400000  1.0
  O  O143  1  0.33517000  0.07844000  0.97600000  1.0
