# generated using pymatgen
data_Al2H19C34ClO12
_symmetry_space_group_name_H-M   'P 1'
_cell_length_a   6.65705000
_cell_length_b   20.63210000
_cell_length_c   22.28090000
_cell_angle_alpha   90.00010000
_cell_angle_beta   90.00350000
_cell_angle_gamma   87.13410000
_symmetry_Int_Tables_number   1
_chemical_formula_structural   Al2H19C34ClO12
_chemical_formula_sum   'Al4 H38 C68 Cl2 O24'
_cell_volume   3056.43008348
_cell_formula_units_Z   2
loop_
 _symmetry_equiv_pos_site_id
 _symmetry_equiv_pos_as_xyz
  1  'x, y, z'
loop_
 _atom_site_type_symbol
 _atom_site_label
 _atom_site_symmetry_multiplicity
 _atom_site_fract_x
 _atom_site_fract_y
 _atom_site_fract_z
 _atom_site_occupancy
  Al  Al0  1  0.98436000  0.31586000  0.50318000  1.0
  Al  Al1  1  0.01560000  0.68414000  0.00318000  1.0
  Al  Al2  1  0.48367000  0.31863000  0.50202000  1.0
  Al  Al3  1  0.51630000  0.68136000  0.00202000  1.0
  H  H4  1  0.45674000  0.19318000  0.35566000  1.0
  H  H5  1  0.54321000  0.80682000  0.85567000  1.0
  H  H6  1  0.01735000  0.86479000  0.09069000  1.0
  H  H7  1  0.98264000  0.13521000  0.59070000  1.0
  H  H8  1  0.42971000  0.80635000  0.14146000  1.0
  H  H9  1  0.57029000  0.19366000  0.64148000  1.0
  H  H10  1  0.49702000  0.00828000  0.23951000  1.0
  H  H11  1  0.50299000  0.99172000  0.73953000  1.0
  H  H12  1  0.08270000  0.05202000  0.34058000  1.0
  H  H13  1  0.91726000  0.94797000  0.84055000  1.0
  H  H14  1  0.06166000  0.14447000  0.41296000  1.0
  H  H15  1  0.93828000  0.85552000  0.91293000  1.0
  H  H16  1  0.95487000  0.99523000  0.25874000  1.0
  H  H17  1  0.04514000  0.00477000  0.75872000  1.0
  H  H18  1  0.48010000  0.10460000  0.27995000  1.0
  H  H19  1  0.51989000  0.89540000  0.77997000  1.0
  H  H20  1  0.38890000  0.90204000  0.20924000  1.0
  H  H21  1  0.61111000  0.09798000  0.70926000  1.0
  H  H22  1  0.68164000  0.53043000  0.44993000  1.0
  H  H23  1  0.31814000  0.46954000  0.94992000  1.0
  H  H24  1  0.68907000  0.66002000  0.27704000  1.0
  H  H25  1  0.31082000  0.33999000  0.77702000  1.0
  H  H26  1  0.67686000  0.62108000  0.37529000  1.0
  H  H27  1  0.32295000  0.37891000  0.87528000  1.0
  H  H28  1  0.88194000  0.38122000  0.21378000  1.0
  H  H29  1  0.11827000  0.61881000  0.71375000  1.0
  H  H30  1  0.92502000  0.37016000  0.10564000  1.0
  H  H31  1  0.07523000  0.62986000  0.60561000  1.0
  H  H32  1  0.71793000  0.64437000  0.16786000  1.0
  H  H33  1  0.28199000  0.35564000  0.66785000  1.0
  H  H34  1  0.91876000  0.40999000  0.00775000  1.0
  H  H35  1  0.08137000  0.59003000  0.50773000  1.0
  H  H36  1  0.93957000  0.02967000  0.15611000  1.0
  H  H37  1  0.06048000  0.97033000  0.65611000  1.0
  H  H38  1  0.22380000  0.35080000  0.43273000  1.0
  H  H39  1  0.77613000  0.64919000  0.93273000  1.0
  H  H40  1  0.72947000  0.34946000  0.57411000  1.0
  H  H41  1  0.27049000  0.65054000  0.07411000  1.0
  C  C42  1  0.25006000  0.22933000  0.57369000  1.0
  C  C43  1  0.74993000  0.77067000  0.07369000  1.0
  C  C44  1  0.21943000  0.40915000  0.57138000  1.0
  C  C45  1  0.78056000  0.59086000  0.07140000  1.0
  C  C46  1  0.72214000  0.40274000  0.42723000  1.0
  C  C47  1  0.27780000  0.59725000  0.92723000  1.0
  C  C48  1  0.74719000  0.22854000  0.43238000  1.0
  C  C49  1  0.25276000  0.77146000  0.93237000  1.0
  C  C50  1  0.75752000  0.17372000  0.38889000  1.0
  C  C51  1  0.24244000  0.82627000  0.88888000  1.0
  C  C52  1  0.59281000  0.16177000  0.35183000  1.0
  C  C53  1  0.40715000  0.83822000  0.85183000  1.0
  C  C54  1  0.60617000  0.11171000  0.31014000  1.0
  C  C55  1  0.39381000  0.88828000  0.81014000  1.0
  C  C56  1  0.78223000  0.07091000  0.30556000  1.0
  C  C57  1  0.21776000  0.92909000  0.80556000  1.0
  C  C58  1  0.94587000  0.08337000  0.34337000  1.0
  C  C59  1  0.05410000  0.91662000  0.84336000  1.0
  C  C60  1  0.93478000  0.13442000  0.38408000  1.0
  C  C61  1  0.06517000  0.86557000  0.88406000  1.0
  C  C62  1  0.85590000  0.92819000  0.15297000  1.0
  C  C63  1  0.14413000  0.07181000  0.65297000  1.0
  C  C64  1  0.88156000  0.87201000  0.11778000  1.0
  C  C65  1  0.11844000  0.12798000  0.61778000  1.0
  C  C66  1  0.55008000  0.83987000  0.14652000  1.0
  C  C67  1  0.44992000  0.16014000  0.64654000  1.0
  C  C68  1  0.52726000  0.89361000  0.18363000  1.0
  C  C69  1  0.47275000  0.10640000  0.68365000  1.0
  C  C70  1  0.67995000  0.93817000  0.18880000  1.0
  C  C71  1  0.32008000  0.06184000  0.68881000  1.0
  C  C72  1  0.80262000  0.01731000  0.26316000  1.0
  C  C73  1  0.19739000  0.98270000  0.76316000  1.0
  C  C74  1  0.65290000  0.99123000  0.23140000  1.0
  C  C75  1  0.34712000  0.00878000  0.73142000  1.0
  C  C76  1  0.72972000  0.82797000  0.11427000  1.0
  C  C77  1  0.27028000  0.17203000  0.61427000  1.0
  C  C78  1  0.69866000  0.57069000  0.36084000  1.0
  C  C79  1  0.30119000  0.42930000  0.86083000  1.0
  C  C80  1  0.72146000  0.45666000  0.38186000  1.0
  C  C81  1  0.27847000  0.54333000  0.88186000  1.0
  C  C82  1  0.84694000  0.47071000  0.08595000  1.0
  C  C83  1  0.15314000  0.52930000  0.58593000  1.0
  C  C84  1  0.87873000  0.41732000  0.12474000  1.0
  C  C85  1  0.12143000  0.58269000  0.62471000  1.0
  C  C86  1  0.85225000  0.42357000  0.18592000  1.0
  C  C87  1  0.14788000  0.57645000  0.68590000  1.0
  C  C88  1  0.78997000  0.48369000  0.21255000  1.0
  C  C89  1  0.21007000  0.51633000  0.71254000  1.0
  C  C90  1  0.77052000  0.53924000  0.17348000  1.0
  C  C91  1  0.22948000  0.46076000  0.67346000  1.0
  C  C92  1  0.75355000  0.49254000  0.27677000  1.0
  C  C93  1  0.24643000  0.50747000  0.77676000  1.0
  C  C94  1  0.72378000  0.55783000  0.29902000  1.0
  C  C95  1  0.27614000  0.44218000  0.79901000  1.0
  C  C96  1  0.71410000  0.61144000  0.25824000  1.0
  C  C97  1  0.28581000  0.38856000  0.75823000  1.0
  C  C98  1  0.73105000  0.60279000  0.19799000  1.0
  C  C99  1  0.26888000  0.39722000  0.69798000  1.0
  C  C100  1  0.74271000  0.44270000  0.32099000  1.0
  C  C101  1  0.25728000  0.55729000  0.82099000  1.0
  C  C102  1  0.70026000  0.52098000  0.40209000  1.0
  C  C103  1  0.29959000  0.47900000  0.90209000  1.0
  C  C104  1  0.79726000  0.53159000  0.11077000  1.0
  C  C105  1  0.20277000  0.46842000  0.61075000  1.0
  C  C106  1  0.86728000  0.46055000  0.02082000  1.0
  C  C107  1  0.13280000  0.53946000  0.52080000  1.0
  C  C108  1  0.00032000  0.97972000  0.14515000  1.0
  C  C109  1  0.99974000  0.02028000  0.64516000  1.0
  Cl  Cl110  1  0.74038000  0.36004000  0.30448000  1.0
  Cl  Cl111  1  0.25966000  0.63995000  0.80449000  1.0
  O  O112  1  0.39541000  0.38810000  0.55711000  1.0
  O  O113  1  0.60457000  0.61190000  0.05712000  1.0
  O  O114  1  0.07414000  0.24889000  0.55751000  1.0
  O  O115  1  0.92584000  0.75113000  0.05749000  1.0
  O  O116  1  0.91429000  0.24825000  0.45089000  1.0
  O  O117  1  0.08566000  0.75174000  0.95087000  1.0
  O  O118  1  0.05443000  0.38336000  0.55951000  1.0
  O  O119  1  0.94554000  0.61665000  0.05952000  1.0
  O  O120  1  0.89419000  0.38100000  0.44441000  1.0
  O  O121  1  0.10574000  0.61898000  0.94441000  1.0
  O  O122  1  0.41284000  0.25469000  0.55841000  1.0
  O  O123  1  0.58716000  0.74530000  0.05841000  1.0
  O  O124  1  0.23273000  0.32017000  0.46589000  1.0
  O  O125  1  0.76721000  0.67982000  0.96590000  1.0
  O  O126  1  0.55227000  0.38493000  0.44479000  1.0
  O  O127  1  0.44768000  0.61507000  0.94480000  1.0
  O  O128  1  0.57397000  0.25202000  0.44739000  1.0
  O  O129  1  0.42599000  0.74798000  0.94740000  1.0
  O  O130  1  0.73308000  0.32087000  0.53950000  1.0
  O  O131  1  0.26688000  0.67913000  0.03950000  1.0
  O  O132  1  0.83090000  0.50191000  0.98229000  1.0
  O  O133  1  0.16910000  0.49810000  0.48227000  1.0
  O  O134  1  0.17219000  0.97106000  0.12554000  1.0
  O  O135  1  0.82780000  0.02894000  0.62555000  1.0
