# generated using pymatgen
data_Al6H26C60O31
_symmetry_space_group_name_H-M   'P 1'
_cell_length_a   10.11120000
_cell_length_b   12.21031638
_cell_length_c   23.85140000
_cell_angle_alpha   86.02722393
_cell_angle_beta   84.58580000
_cell_angle_gamma   66.18746528
_symmetry_Int_Tables_number   1
_chemical_formula_structural   Al6H26C60O31
_chemical_formula_sum   'Al6 H26 C60 O31'
_cell_volume   2680.44487720
_cell_formula_units_Z   1
loop_
 _symmetry_equiv_pos_site_id
 _symmetry_equiv_pos_as_xyz
  1  'x, y, z'
loop_
 _atom_site_type_symbol
 _atom_site_label
 _atom_site_symmetry_multiplicity
 _atom_site_fract_x
 _atom_site_fract_y
 _atom_site_fract_z
 _atom_site_occupancy
  Al  Al0  1  0.61992000  0.59737000  0.49213000  1.0
  Al  Al1  1  0.58894000  0.34577000  0.50128000  1.0
  Al  Al2  1  0.31538000  0.56963000  0.50525000  1.0
  Al  Al3  1  0.10499000  0.00991000  0.01289000  1.0
  Al  Al4  1  0.40767000  0.03901000  0.00354000  1.0
  Al  Al5  1  0.13217000  0.26283000  0.00320000  1.0
  H  H6  1  0.18679000  0.39100000  0.85275000  1.0
  H  H7  1  0.75627000  0.26108000  0.75739000  1.0
  H  H8  1  0.16571000  0.34321000  0.26764000  1.0
  H  H9  1  0.15796000  0.90075000  0.17156000  1.0
  H  H10  1  0.61262000  0.80110000  0.13452000  1.0
  H  H11  1  0.65980000  0.73153000  0.23442000  1.0
  H  H12  1  0.11013000  0.81062000  0.37252000  1.0
  H  H13  1  0.56827000  0.70698000  0.33275000  1.0
  H  H14  1  0.95264000  0.39452000  0.15113000  1.0
  H  H15  1  0.60815000  0.10194000  0.85730000  1.0
  H  H16  1  0.86247000  0.07857000  0.15841000  1.0
  H  H17  1  0.92469000  0.50523000  0.23887000  1.0
  H  H18  1  0.80704000  0.09554000  0.26357000  1.0
  H  H19  1  0.85873000  0.52586000  0.34271000  1.0
  H  H20  1  0.77247000  0.20808000  0.34981000  1.0
  H  H21  1  0.09858000  0.49119000  0.76144000  1.0
  H  H22  1  0.13526000  0.50768000  0.65678000  1.0
  H  H23  1  0.55602000  0.21762000  0.66016000  1.0
  H  H24  1  0.19284000  0.86781000  0.75840000  1.0
  H  H25  1  0.52758000  0.74787000  0.74691000  1.0
  H  H26  1  0.01696000  0.33326000  0.73341000  1.0
  H  H27  1  0.59543000  0.24136000  0.22460000  1.0
  H  H28  1  0.02565000  0.92772000  0.23498000  1.0
  H  H29  1  0.73493000  0.04797000  0.77125000  1.0
  H  H30  1  0.70452000  0.74195000  0.45601000  1.0
  H  H31  1  0.01176000  0.87393000  0.98907000  1.0
  C  C32  1  0.77041000  0.38985000  0.56959000  1.0
  C  C33  1  0.21749000  0.44022000  0.68138000  1.0
  C  C34  1  0.45590000  0.27567000  0.68263000  1.0
  C  C35  1  0.43787000  0.26502000  0.74194000  1.0
  C  C36  1  0.30668000  0.34412000  0.77117000  1.0
  C  C37  1  0.28768000  0.33369000  0.83046000  1.0
  C  C38  1  0.52630000  0.16958000  0.83249000  1.0
  C  C39  1  0.54668000  0.17790000  0.77458000  1.0
  C  C40  1  0.39619000  0.84561000  0.87398000  1.0
  C  C41  1  0.41949000  0.79284000  0.76780000  1.0
  C  C42  1  0.30093000  0.82217000  0.73759000  1.0
  C  C43  1  0.37421000  0.38186000  0.59127000  1.0
  C  C44  1  0.31253000  0.79425000  0.68087000  1.0
  C  C45  1  0.40821000  0.81998000  0.82464000  1.0
  C  C46  1  0.32614000  0.76651000  0.63182000  1.0
  C  C47  1  0.91723000  0.24239000  0.87221000  1.0
  C  C48  1  0.84881000  0.27915000  0.76715000  1.0
  C  C49  1  0.92291000  0.31615000  0.72465000  1.0
  C  C50  1  0.88127000  0.33603000  0.66919000  1.0
  C  C51  1  0.88627000  0.26038000  0.82318000  1.0
  C  C52  1  0.84179000  0.35610000  0.62134000  1.0
  C  C53  1  0.37045000  0.25515000  0.13472000  1.0
  C  C54  1  0.36174000  0.71431000  0.57726000  1.0
  C  C55  1  0.38876000  0.28794000  0.24110000  1.0
  C  C56  1  0.27367000  0.32279000  0.28081000  1.0
  C  C57  1  0.29153000  0.33588000  0.33693000  1.0
  C  C58  1  0.37441000  0.27238000  0.18422000  1.0
  C  C59  1  0.31070000  0.34836000  0.38556000  1.0
  C  C60  1  0.38060000  0.85455000  0.14873000  1.0
  C  C61  1  0.34312000  0.75500000  0.35762000  1.0
  C  C62  1  0.17171000  0.84276000  0.28647000  1.0
  C  C63  1  0.19913000  0.80351000  0.34150000  1.0
  C  C64  1  0.45851000  0.74486000  0.31898000  1.0
  C  C65  1  0.75555000  0.39024000  0.41162000  1.0
  C  C66  1  0.43383000  0.78095000  0.26210000  1.0
  C  C67  1  0.28801000  0.83070000  0.24481000  1.0
  C  C68  1  0.26560000  0.86477000  0.18765000  1.0
  C  C69  1  0.52431000  0.80729000  0.16576000  1.0
  C  C70  1  0.54952000  0.76993000  0.22096000  1.0
  C  C71  1  0.90957000  0.23697000  0.14950000  1.0
  C  C72  1  0.81195000  0.36752000  0.35161000  1.0
  C  C73  1  0.89216000  0.44008000  0.26334000  1.0
  C  C74  1  0.85606000  0.45191000  0.32037000  1.0
  C  C75  1  0.80839000  0.27115000  0.32536000  1.0
  C  C76  1  0.34895000  0.37961000  0.43651000  1.0
  C  C77  1  0.84511000  0.25693000  0.26687000  1.0
  C  C78  1  0.88616000  0.34370000  0.23492000  1.0
  C  C79  1  0.91859000  0.33082000  0.17604000  1.0
  C  C80  1  0.86798000  0.15120000  0.18104000  1.0
  C  C81  1  0.83786000  0.16084000  0.23847000  1.0
  C  C82  1  0.36338000  0.89502000  0.92899000  1.0
  C  C83  1  0.36582000  0.22814000  0.92160000  1.0
  C  C84  1  0.97416000  0.21319000  0.92685000  1.0
  C  C85  1  0.34790000  0.90078000  0.09027000  1.0
  C  C86  1  0.34912000  0.22678000  0.07965000  1.0
  C  C87  1  0.37454000  0.70750000  0.41622000  1.0
  C  C88  1  0.95836000  0.21728000  0.08895000  1.0
  C  C89  1  0.39543000  0.24760000  0.86047000  1.0
  C  C90  1  0.34779000  0.36212000  0.65278000  1.0
  C  C91  1  0.19798000  0.43096000  0.73910000  1.0
  O  O92  1  0.48705000  0.69367000  0.55485000  1.0
  O  O93  1  0.46981000  0.30894000  0.45550000  1.0
  O  O94  1  0.26314000  0.47919000  0.45789000  1.0
  O  O95  1  0.27609000  0.68267000  0.44576000  1.0
  O  O96  1  0.50701000  0.50352000  0.49981000  1.0
  O  O97  1  0.99865000  0.10969000  0.94780000  1.0
  O  O98  1  0.24292000  0.90661000  0.95423000  1.0
  O  O99  1  0.45772000  0.92790000  0.94693000  1.0
  O  O100  1  0.45551000  0.13492000  0.94637000  1.0
  O  O101  1  0.24742000  0.30182000  0.94563000  1.0
  O  O102  1  0.99982000  0.29585000  0.94879000  1.0
  O  O103  1  0.73927000  0.49578000  0.55085000  1.0
  O  O104  1  0.97650000  0.11818000  0.06957000  1.0
  O  O105  1  0.22245000  0.92414000  0.07534000  1.0
  O  O106  1  0.44947000  0.91862000  0.05873000  1.0
  O  O107  1  0.44129000  0.12917000  0.05898000  1.0
  O  O108  1  0.23476000  0.29961000  0.05730000  1.0
  O  O109  1  0.98636000  0.30059000  0.06072000  1.0
  O  O110  1  0.21642000  0.10521000  0.00570000  1.0
  O  O111  1  0.73977000  0.30939000  0.54841000  1.0
  O  O112  1  0.49061000  0.30812000  0.56611000  1.0
  O  O113  1  0.28258000  0.47560000  0.56789000  1.0
  O  O114  1  0.26347000  0.68873000  0.55734000  1.0
  O  O115  1  0.49690000  0.69077000  0.43260000  1.0
  O  O116  1  0.73957000  0.48856000  0.43115000  1.0
  O  O117  1  0.72015000  0.30938000  0.43856000  1.0
  O  O118  1  0.52316000  0.26648000  0.25668000  1.0
  O  O119  1  0.03053000  0.89195000  0.27299000  1.0
  O  O120  1  0.67014000  0.10462000  0.74505000  1.0
  O  O121  1  0.72423000  0.68299000  0.48674000  1.0
  O  O122  1  0.99955000  0.92499000  0.02005000  1.0
