# generated using pymatgen
data_Zn4H30C36Cl2O13
_symmetry_space_group_name_H-M   'P 1'
_cell_length_a   17.82340000
_cell_length_b   18.58130000
_cell_length_c   23.42682030
_cell_angle_alpha   66.76967471
_cell_angle_beta   69.19629131
_cell_angle_gamma   89.78090000
_symmetry_Int_Tables_number   1
_chemical_formula_structural   Zn4H30C36Cl2O13
_chemical_formula_sum   'Zn8 H60 C72 Cl4 O26'
_cell_volume   6580.31734337
_cell_formula_units_Z   2
loop_
 _symmetry_equiv_pos_site_id
 _symmetry_equiv_pos_as_xyz
  1  'x, y, z'
loop_
 _atom_site_type_symbol
 _atom_site_label
 _atom_site_symmetry_multiplicity
 _atom_site_fract_x
 _atom_site_fract_y
 _atom_site_fract_z
 _atom_site_occupancy
  Zn  Zn0  1  0.88150000  0.47435000  0.05655000  1.0
  Zn  Zn1  1  0.03021000  0.61029000  0.94711000  1.0
  Zn  Zn2  1  0.02184000  0.43684000  0.95128000  1.0
  Zn  Zn3  1  0.05866000  0.46439000  0.06704000  1.0
  Zn  Zn4  1  0.61456000  0.02775000  0.95192000  1.0
  Zn  Zn5  1  0.47019000  0.05434000  0.06168000  1.0
  Zn  Zn6  1  0.47480000  0.88210000  0.06425000  1.0
  Zn  Zn7  1  0.43449000  0.02154000  0.94826000  1.0
  H  H8  1  0.50825000  0.13375000  0.74172000  1.0
  H  H9  1  0.56584000  0.19677000  0.61609000  1.0
  H  H10  1  0.80678000  0.18240000  0.61797000  1.0
  H  H11  1  0.67834000  0.30735000  0.39372000  1.0
  H  H12  1  0.97725000  0.35929000  0.27237000  1.0
  H  H13  1  0.91828000  0.29668000  0.39795000  1.0
  H  H14  1  0.37854000  0.75709000  0.26882000  1.0
  H  H15  1  0.31096000  0.69116000  0.39420000  1.0
  H  H16  1  0.29204000  0.92177000  0.39622000  1.0
  H  H17  1  0.19883000  0.57878000  0.61041000  1.0
  H  H18  1  0.12407000  0.73477000  0.74622000  1.0
  H  H19  1  0.18317000  0.80535000  0.62077000  1.0
  H  H20  1  0.79903000  0.21198000  0.09102000  1.0
  H  H21  1  0.87033000  0.21587000  0.01423000  1.0
  H  H22  1  0.77976000  0.12143000  0.01840000  1.0
  H  H23  1  0.70810000  0.11983000  0.09416000  1.0
  H  H24  1  0.78265000  0.21900000  0.90672000  1.0
  H  H25  1  0.71093000  0.28469000  0.90231000  1.0
  H  H26  1  0.87073000  0.31534000  0.90326000  1.0
  H  H27  1  0.79692000  0.37899000  0.90175000  1.0
  H  H28  1  0.69423000  0.30549000  0.08877000  1.0
  H  H29  1  0.69454000  0.37478000  0.01155000  1.0
  H  H30  1  0.60625000  0.28258000  0.01115000  1.0
  H  H31  1  0.60394000  0.21420000  0.08935000  1.0
  H  H32  1  0.10931000  0.70656000  0.09413000  1.0
  H  H33  1  0.11460000  0.77375000  0.01377000  1.0
  H  H34  1  0.20419000  0.86573000  0.01332000  1.0
  H  H35  1  0.19946000  0.79746000  0.09317000  1.0
  H  H36  1  0.30772000  0.86579000  0.90785000  1.0
  H  H37  1  0.37898000  0.79958000  0.91147000  1.0
  H  H38  1  0.21954000  0.77195000  0.90869000  1.0
  H  H39  1  0.29037000  0.70547000  0.91441000  1.0
  H  H40  1  0.20945000  0.60896000  0.10300000  1.0
  H  H41  1  0.28255000  0.60739000  0.02990000  1.0
  H  H42  1  0.37352000  0.70052000  0.02651000  1.0
  H  H43  1  0.30110000  0.70086000  0.10035000  1.0
  H  H44  1  0.83865000  0.73285000  0.06208000  1.0
  H  H45  1  0.75513000  0.65524000  0.10262000  1.0
  H  H46  1  0.66631000  0.74784000  0.10575000  1.0
  H  H47  1  0.75040000  0.82501000  0.06445000  1.0
  H  H48  1  0.60783000  0.70542000  0.03856000  1.0
  H  H49  1  0.64935000  0.75311000  0.94970000  1.0
  H  H50  1  0.69755000  0.61344000  0.03450000  1.0
  H  H51  1  0.73916000  0.66249000  0.94570000  1.0
  H  H52  1  0.90006000  0.80273000  0.93399000  1.0
  H  H53  1  0.85971000  0.77366000  0.88658000  1.0
  H  H54  1  0.76987000  0.86532000  0.88959000  1.0
  H  H55  1  0.81059000  0.89467000  0.93662000  1.0
  H  H56  1  0.10062000  0.19829000  0.07085000  1.0
  H  H57  1  0.14626000  0.22909000  0.11508000  1.0
  H  H58  1  0.23027000  0.13237000  0.11350000  1.0
  H  H59  1  0.18697000  0.10486000  0.06635000  1.0
  H  H60  1  0.34995000  0.24210000  0.05455000  1.0
  H  H61  1  0.39490000  0.28924000  0.96581000  1.0
  H  H62  1  0.26507000  0.33884000  0.05321000  1.0
  H  H63  1  0.30847000  0.38343000  0.96437000  1.0
  H  H64  1  0.16162000  0.26203000  0.94268000  1.0
  H  H65  1  0.24444000  0.33949000  0.89863000  1.0
  H  H66  1  0.33485000  0.24820000  0.89738000  1.0
  H  H67  1  0.25175000  0.17118000  0.93823000  1.0
  C  C68  1  0.86088000  0.64023000  0.99533000  1.0
  C  C69  1  0.08935000  0.58285000  0.82463000  1.0
  C  C70  1  0.85313000  0.36432000  0.00088000  1.0
  C  C71  1  0.14029000  0.35726000  0.00910000  1.0
  C  C72  1  0.90510000  0.40460000  0.18654000  1.0
  C  C73  1  0.13868000  0.63173000  0.01093000  1.0
  C  C74  1  0.63640000  0.13991000  0.00484000  1.0
  C  C75  1  0.41713000  0.90811000  0.18683000  1.0
  C  C76  1  0.64402000  0.86228000  0.00184000  1.0
  C  C77  1  0.35803000  0.85495000  0.00732000  1.0
  C  C78  1  0.58282000  0.08930000  0.82615000  1.0
  C  C79  1  0.35284000  0.13027000  0.00726000  1.0
  C  C80  1  0.62340000  0.12402000  0.75097000  1.0
  C  C81  1  0.57374000  0.14541000  0.71358000  1.0
  C  C82  1  0.60558000  0.18034000  0.64384000  1.0
  C  C83  1  0.69062000  0.19485000  0.60826000  1.0
  C  C84  1  0.74116000  0.17253000  0.64477000  1.0
  C  C85  1  0.70844000  0.13761000  0.71492000  1.0
  C  C86  1  0.72583000  0.23074000  0.53712000  1.0
  C  C87  1  0.75797000  0.26160000  0.47577000  1.0
  C  C88  1  0.79385000  0.29725000  0.40466000  1.0
  C  C89  1  0.74410000  0.31832000  0.36744000  1.0
  C  C90  1  0.77755000  0.35323000  0.29725000  1.0
  C  C91  1  0.86287000  0.36822000  0.26172000  1.0
  C  C92  1  0.91165000  0.34715000  0.29999000  1.0
  C  C93  1  0.87904000  0.31244000  0.36971000  1.0
  C  C94  1  0.37513000  0.87529000  0.26169000  1.0
  C  C95  1  0.35959000  0.79218000  0.29782000  1.0
  C  C96  1  0.32204000  0.75553000  0.36724000  1.0
  C  C97  1  0.29769000  0.80220000  0.40377000  1.0
  C  C98  1  0.31148000  0.88525000  0.36860000  1.0
  C  C99  1  0.34967000  0.92156000  0.29863000  1.0
  C  C100  1  0.26024000  0.76629000  0.47472000  1.0
  C  C101  1  0.22909000  0.73449000  0.53606000  1.0
  C  C102  1  0.19456000  0.69662000  0.60707000  1.0
  C  C103  1  0.18199000  0.61335000  0.63997000  1.0
  C  C104  1  0.14873000  0.57444000  0.71001000  1.0
  C  C105  1  0.12688000  0.61824000  0.74938000  1.0
  C  C106  1  0.14054000  0.70162000  0.71542000  1.0
  C  C107  1  0.17327000  0.74083000  0.64593000  1.0
  C  C108  1  0.80700000  0.22107000  0.03975000  1.0
  C  C109  1  0.74702000  0.15913000  0.04186000  1.0
  C  C110  1  0.69287000  0.20175000  0.00401000  1.0
  C  C111  1  0.74870000  0.25589000  0.93052000  1.0
  C  C112  1  0.80694000  0.31874000  0.92921000  1.0
  C  C113  1  0.79260000  0.30599000  0.00181000  1.0
  C  C114  1  0.70429000  0.31395000  0.03735000  1.0
  C  C115  1  0.64517000  0.25288000  0.03776000  1.0
  C  C116  1  0.15152000  0.74369000  0.04230000  1.0
  C  C117  1  0.21136000  0.80473000  0.04163000  1.0
  C  C118  1  0.30003000  0.79342000  0.00884000  1.0
  C  C119  1  0.31544000  0.80513000  0.93634000  1.0
  C  C120  1  0.25639000  0.74304000  0.93758000  1.0
  C  C121  1  0.19908000  0.68977000  0.01083000  1.0
  C  C122  1  0.25010000  0.64716000  0.05104000  1.0
  C  C123  1  0.31038000  0.70850000  0.04926000  1.0
  C  C124  1  0.78233000  0.71295000  0.05953000  1.0
  C  C125  1  0.72340000  0.77414000  0.06140000  1.0
  C  C126  1  0.70400000  0.80424000  0.99727000  1.0
  C  C127  1  0.66501000  0.73224000  0.99439000  1.0
  C  C128  1  0.72453000  0.67152000  0.99192000  1.0
  C  C129  1  0.80395000  0.70158000  0.99380000  1.0
  C  C130  1  0.84297000  0.78184000  0.93328000  1.0
  C  C131  1  0.78356000  0.84269000  0.93520000  1.0
  C  C132  1  0.15923000  0.21859000  0.06976000  1.0
  C  C133  1  0.21623000  0.15556000  0.06810000  1.0
  C  C134  1  0.29667000  0.19238000  0.00553000  1.0
  C  C135  1  0.33641000  0.26368000  0.00895000  1.0
  C  C136  1  0.27922000  0.32685000  0.00852000  1.0
  C  C137  1  0.19937000  0.29785000  0.00686000  1.0
  C  C138  1  0.21864000  0.28290000  0.94341000  1.0
  C  C139  1  0.27776000  0.22197000  0.94182000  1.0
  Cl  Cl140  1  0.77781000  0.11048000  0.75280000  1.0
  Cl  Cl141  1  0.70796000  0.37665000  0.25933000  1.0
  Cl  Cl142  1  0.36034000  0.02391000  0.26206000  1.0
  Cl  Cl143  1  0.13919000  0.47212000  0.74346000  1.0
  O  O144  1  0.99950000  0.49671000  0.00655000  1.0
  O  O145  1  0.83140000  0.57045000  0.04208000  1.0
  O  O146  1  0.08962000  0.63028000  0.85203000  1.0
  O  O147  1  0.92823000  0.36517000  0.96884000  1.0
  O  O148  1  0.93340000  0.66268000  0.95133000  1.0
  O  O149  1  0.82521000  0.40690000  0.03261000  1.0
  O  O150  1  0.05919000  0.50962000  0.85541000  1.0
  O  O151  1  0.10647000  0.37417000  0.96677000  1.0
  O  O152  1  0.98271000  0.42144000  0.16270000  1.0
  O  O153  1  0.12798000  0.38450000  0.05344000  1.0
  O  O154  1  0.86111000  0.41530000  0.15234000  1.0
  O  O155  1  0.10025000  0.66220000  0.97248000  1.0
  O  O156  1  0.13048000  0.55835000  0.04897000  1.0
  O  O157  1  0.49752000  0.99555000  0.00560000  1.0
  O  O158  1  0.66967000  0.09540000  0.97626000  1.0
  O  O159  1  0.44893000  0.98097000  0.15517000  1.0
  O  O160  1  0.57450000  0.83436000  0.05025000  1.0
  O  O161  1  0.56019000  0.13671000  0.03396000  1.0
  O  O162  1  0.66753000  0.93391000  0.95776000  1.0
  O  O163  1  0.41868000  0.85931000  0.16038000  1.0
  O  O164  1  0.40026000  0.82907000  0.04298000  1.0
  O  O165  1  0.50710000  0.06103000  0.85176000  1.0
  O  O166  1  0.35974000  0.92776000  0.97051000  1.0
  O  O167  1  0.62607000  0.09198000  0.85852000  1.0
  O  O168  1  0.37604000  0.10647000  0.05654000  1.0
  O  O169  1  0.37228000  0.10642000  0.96053000  1.0
