# generated using pymatgen
data_Cd2H22C18S(N2O5)2
_symmetry_space_group_name_H-M   'P 1'
_cell_length_a   10.40780000
_cell_length_b   12.14590000
_cell_length_c   12.36030000
_cell_angle_alpha   80.60060000
_cell_angle_beta   68.75120000
_cell_angle_gamma   70.57830000
_symmetry_Int_Tables_number   1
_chemical_formula_structural   Cd2H22C18S(N2O5)2
_chemical_formula_sum   'Cd4 H44 C36 S2 N8 O20'
_cell_volume   1371.77048039
_cell_formula_units_Z   2
loop_
 _symmetry_equiv_pos_site_id
 _symmetry_equiv_pos_as_xyz
  1  'x, y, z'
loop_
 _atom_site_type_symbol
 _atom_site_label
 _atom_site_symmetry_multiplicity
 _atom_site_fract_x
 _atom_site_fract_y
 _atom_site_fract_z
 _atom_site_occupancy
  Cd  Cd0  1  0.39976000  0.70102000  0.01852000  1.0
  Cd  Cd1  1  0.60024000  0.29898000  0.98148000  1.0
  Cd  Cd2  1  0.03870000  0.51066000  0.81476000  1.0
  Cd  Cd3  1  0.96130000  0.48934000  0.18524000  1.0
  H  H4  1  0.00864000  0.63999000  0.43585000  1.0
  H  H5  1  0.99137000  0.36001000  0.56415000  1.0
  H  H6  1  0.09965000  0.69963000  0.22406000  1.0
  H  H7  1  0.90035000  0.30036000  0.77594000  1.0
  H  H8  1  0.52178000  0.59465000  0.22319000  1.0
  H  H9  1  0.47822000  0.40535000  0.77681000  1.0
  H  H10  1  0.44824000  0.53187000  0.43303000  1.0
  H  H11  1  0.55176000  0.46813000  0.56697000  1.0
  H  H12  1  0.98757000  0.07839000  0.05087000  1.0
  H  H13  1  0.01242000  0.92161000  0.94913000  1.0
  H  H14  1  0.36253000  0.07717000  0.12539000  1.0
  H  H15  1  0.63747000  0.92283000  0.87461000  1.0
  H  H16  1  0.87977000  0.28697000  0.10279000  1.0
  H  H17  1  0.12023000  0.71303000  0.89721000  1.0
  H  H18  1  0.23635000  0.28464000  0.18042000  1.0
  H  H19  1  0.76364000  0.71536000  0.81959000  1.0
  H  H20  1  0.35054000  0.72584000  0.76733000  1.0
  H  H21  1  0.64946000  0.27416000  0.23267000  1.0
  H  H22  1  0.35865000  0.71163000  0.59241000  1.0
  H  H23  1  0.64136000  0.28837000  0.40759000  1.0
  H  H24  1  0.53106000  0.66608000  0.48292000  1.0
  H  H25  1  0.46894000  0.33392000  0.51708000  1.0
  H  H26  1  0.43678000  0.81830000  0.49810000  1.0
  H  H27  1  0.56323000  0.18169000  0.50189000  1.0
  H  H28  1  0.68286000  0.82915000  0.54988000  1.0
  H  H29  1  0.31714000  0.17084000  0.45012000  1.0
  H  H30  1  0.73752000  0.68219000  0.50781000  1.0
  H  H31  1  0.26248000  0.31781000  0.49220000  1.0
  H  H32  1  0.72914000  0.70962000  0.64832000  1.0
  H  H33  1  0.27086000  0.29038000  0.35168000  1.0
  H  H34  1  0.30418000  0.28170000  0.84031000  1.0
  H  H35  1  0.69582000  0.71830000  0.15969000  1.0
  H  H36  1  0.09594000  0.13185000  0.77568000  1.0
  H  H37  1  0.90406000  0.86815000  0.22431000  1.0
  H  H38  1  0.20524000  0.99428000  0.81543000  1.0
  H  H39  1  0.79476000  0.00572000  0.18456000  1.0
  H  H40  1  0.25602000  0.05204000  0.66832000  1.0
  H  H41  1  0.74398000  0.94797000  0.33167000  1.0
  H  H42  1  0.50663000  0.04837000  0.69854000  1.0
  H  H43  1  0.49338000  0.95163000  0.30146000  1.0
  H  H44  1  0.43166000  0.98305000  0.83708000  1.0
  H  H45  1  0.56834000  0.01695000  0.16292000  1.0
  H  H46  1  0.47709000  0.11406000  0.82877000  1.0
  H  H47  1  0.52291000  0.88594000  0.17123000  1.0
  C  C48  1  0.16932000  0.54874000  0.57899000  1.0
  C  C49  1  0.83068000  0.45126000  0.42101000  1.0
  C  C50  1  0.22074000  0.58345000  0.45160000  1.0
  C  C51  1  0.77926000  0.41656000  0.54840000  1.0
  C  C52  1  0.12250000  0.63141000  0.39129000  1.0
  C  C53  1  0.87750000  0.36858000  0.60871000  1.0
  C  C54  1  0.17297000  0.66440000  0.27411000  1.0
  C  C55  1  0.82704000  0.33560000  0.72589000  1.0
  C  C56  1  0.40895000  0.60459000  0.27378000  1.0
  C  C57  1  0.59105000  0.39541000  0.72622000  1.0
  C  C58  1  0.36695000  0.56966000  0.39081000  1.0
  C  C59  1  0.63305000  0.43035000  0.60919000  1.0
  C  C60  1  0.25659000  0.93399000  0.05720000  1.0
  C  C61  1  0.74341000  0.06601000  0.94280000  1.0
  C  C62  1  0.18303000  0.05962000  0.08836000  1.0
  C  C63  1  0.81697000  0.94038000  0.91164000  1.0
  C  C64  1  0.04564000  0.11940000  0.08154000  1.0
  C  C65  1  0.95436000  0.88060000  0.91846000  1.0
  C  C66  1  0.25330000  0.11953000  0.12402000  1.0
  C  C67  1  0.74670000  0.88046000  0.87598000  1.0
  C  C68  1  0.98438000  0.23578000  0.11080000  1.0
  C  C69  1  0.01562000  0.76422000  0.88920000  1.0
  C  C70  1  0.18379000  0.23502000  0.15386000  1.0
  C  C71  1  0.81620000  0.76498000  0.84614000  1.0
  C  C72  1  0.45916000  0.73598000  0.74274000  1.0
  C  C73  1  0.54084000  0.26402000  0.25725000  1.0
  C  C74  1  0.45990000  0.73310000  0.54598000  1.0
  C  C75  1  0.54011000  0.26690000  0.45401000  1.0
  C  C76  1  0.67829000  0.73977000  0.58103000  1.0
  C  C77  1  0.32172000  0.26023000  0.41897000  1.0
  C  C78  1  0.23457000  0.24748000  0.81402000  1.0
  C  C79  1  0.76543000  0.75252000  0.18598000  1.0
  C  C80  1  0.20665000  0.07480000  0.76015000  1.0
  C  C81  1  0.79335000  0.92520000  0.23984000  1.0
  C  C82  1  0.43397000  0.06694000  0.78846000  1.0
  C  C83  1  0.56603000  0.93306000  0.21154000  1.0
  S  S84  1  0.73251000  0.51575000  0.00559000  1.0
  S  S85  1  0.26749000  0.48425000  0.99441000  1.0
  N  N86  1  0.31395000  0.65140000  0.21627000  1.0
  N  N87  1  0.68605000  0.34860000  0.78373000  1.0
  N  N88  1  0.05153000  0.29228000  0.14733000  1.0
  N  N89  1  0.94846000  0.70772000  0.85267000  1.0
  N  N90  1  0.52990000  0.73548000  0.62795000  1.0
  N  N91  1  0.47011000  0.26452000  0.37206000  1.0
  N  N92  1  0.28903000  0.13446000  0.78945000  1.0
  N  N93  1  0.71097000  0.86554000  0.21055000  1.0
  O  O94  1  0.38327000  0.88748000  0.06345000  1.0
  O  O95  1  0.61674000  0.11252000  0.93655000  1.0
  O  O96  1  0.19083000  0.87944000  0.02645000  1.0
  O  O97  1  0.80916000  0.12056000  0.97356000  1.0
  O  O98  1  0.51000000  0.74601000  0.81697000  1.0
  O  O99  1  0.49000000  0.25399000  0.18303000  1.0
  O  O100  1  0.84663000  0.50329000  0.05559000  1.0
  O  O101  1  0.15337000  0.49670000  0.94441000  1.0
  O  O102  1  0.65873000  0.42364000  0.05985000  1.0
  O  O103  1  0.34126000  0.57636000  0.94016000  1.0
  O  O104  1  0.80022000  0.50375000  0.87781000  1.0
  O  O105  1  0.19978000  0.49625000  0.12219000  1.0
  O  O106  1  0.62534000  0.63372000  0.03197000  1.0
  O  O107  1  0.37466000  0.36628000  0.96803000  1.0
  O  O108  1  0.03536000  0.55671000  0.62581000  1.0
  O  O109  1  0.96464000  0.44329000  0.37419000  1.0
  O  O110  1  0.25957000  0.51480000  0.63360000  1.0
  O  O111  1  0.74043000  0.48520000  0.36640000  1.0
  O  O112  1  0.11279000  0.31003000  0.80981000  1.0
  O  O113  1  0.88721000  0.68997000  0.19019000  1.0
