# generated using pymatgen
data_H4RhC9N2(O2F3)2
_symmetry_space_group_name_H-M   'P 1'
_cell_length_a   8.59786000
_cell_length_b   9.43595195
_cell_length_c   11.78660000
_cell_angle_alpha   112.45380403
_cell_angle_beta   91.62340000
_cell_angle_gamma   116.18708071
_symmetry_Int_Tables_number   1
_chemical_formula_structural   H4RhC9N2(O2F3)2
_chemical_formula_sum   'H8 Rh2 C18 N4 O8 F12'
_cell_volume   770.36087412
_cell_formula_units_Z   2
loop_
 _symmetry_equiv_pos_site_id
 _symmetry_equiv_pos_as_xyz
  1  'x, y, z'
loop_
 _atom_site_type_symbol
 _atom_site_label
 _atom_site_symmetry_multiplicity
 _atom_site_fract_x
 _atom_site_fract_y
 _atom_site_fract_z
 _atom_site_occupancy
  H  H0  1  0.35503000  0.42030000  0.66337000  1.0
  H  H1  1  0.64497000  0.57969000  0.33662000  1.0
  H  H2  1  0.24419000  0.60922000  0.35138000  1.0
  H  H3  1  0.75582000  0.39078000  0.64862000  1.0
  H  H4  1  0.45149000  0.68867000  0.30653000  1.0
  H  H5  1  0.54852000  0.31133000  0.69347000  1.0
  H  H6  1  0.42807000  0.81031000  0.45697000  1.0
  H  H7  1  0.57193000  0.18969000  0.54303000  1.0
  Rh  Rh8  1  0.02537000  0.51108000  0.90147000  1.0
  Rh  Rh9  1  0.97463000  0.48892000  0.09852000  1.0
  C  C10  1  0.19652000  0.35219000  0.98005000  1.0
  C  C11  1  0.80347000  0.64781000  0.01997000  1.0
  C  C12  1  0.29780000  0.24693000  0.96290000  1.0
  C  C13  1  0.70220000  0.75308000  0.03712000  1.0
  C  C14  1  0.26955000  0.81192000  0.12693000  1.0
  C  C15  1  0.73044000  0.18808000  0.87309000  1.0
  C  C16  1  0.42170000  0.00275000  0.20675000  1.0
  C  C17  1  0.57830000  0.99725000  0.79325000  1.0
  C  C18  1  0.15643000  0.54836000  0.65389000  1.0
  C  C19  1  0.84357000  0.45164000  0.34610000  1.0
  C  C20  1  0.36249000  0.53702000  0.53494000  1.0
  C  C21  1  0.63752000  0.46298000  0.46506000  1.0
  C  C22  1  0.44643000  0.58505000  0.43996000  1.0
  C  C23  1  0.55357000  0.41495000  0.56004000  1.0
  C  C24  1  0.42102000  0.45371000  0.59227000  1.0
  C  C25  1  0.57898000  0.54629000  0.40773000  1.0
  C  C26  1  0.38964000  0.67741000  0.38469000  1.0
  C  C27  1  0.61037000  0.32259000  0.61531000  1.0
  N  N28  1  0.07963000  0.53427000  0.73374000  1.0
  N  N29  1  0.92037000  0.46573000  0.26626000  1.0
  N  N30  1  0.23296000  0.57525000  0.56549000  1.0
  N  N31  1  0.76704000  0.42474000  0.43451000  1.0
  O  O32  1  0.18212000  0.39576000  0.89255000  1.0
  O  O33  1  0.81788000  0.60424000  0.10744000  1.0
  O  O34  1  0.13464000  0.37624000  0.07793000  1.0
  O  O35  1  0.86537000  0.62377000  0.92207000  1.0
  O  O36  1  0.23886000  0.75660000  0.00815000  1.0
  O  O37  1  0.76114000  0.24340000  0.99184000  1.0
  O  O38  1  0.18925000  0.73479000  0.19212000  1.0
  O  O39  1  0.81076000  0.26522000  0.80787000  1.0
  F  F40  1  0.41642000  0.28277000  0.89003000  1.0
  F  F41  1  0.58359000  0.71724000  0.10999000  1.0
  F  F42  1  0.17857000  0.07193000  0.90416000  1.0
  F  F43  1  0.82144000  0.92808000  0.09585000  1.0
  F  F44  1  0.38840000  0.28363000  0.07487000  1.0
  F  F45  1  0.61159000  0.71638000  0.92514000  1.0
  F  F46  1  0.52093000  0.01308000  0.30439000  1.0
  F  F47  1  0.47908000  0.98692000  0.69560000  1.0
  F  F48  1  0.53123000  0.06629000  0.13843000  1.0
  F  F49  1  0.46876000  0.93372000  0.86157000  1.0
  F  F50  1  0.34768000  0.10800000  0.25651000  1.0
  F  F51  1  0.65231000  0.89199000  0.74350000  1.0
