# generated using pymatgen
data_PH20AuC22SO3
_symmetry_space_group_name_H-M   'P 1'
_cell_length_a   8.49734000
_cell_length_b   15.93680000
_cell_length_c   19.84100000
_cell_angle_alpha   74.45900000
_cell_angle_beta   89.99990000
_cell_angle_gamma   89.99990000
_symmetry_Int_Tables_number   1
_chemical_formula_structural   PH20AuC22SO3
_chemical_formula_sum   'P4 H80 Au4 C88 S4 O12'
_cell_volume   2588.64136442
_cell_formula_units_Z   4
loop_
 _symmetry_equiv_pos_site_id
 _symmetry_equiv_pos_as_xyz
  1  'x, y, z'
loop_
 _atom_site_type_symbol
 _atom_site_label
 _atom_site_symmetry_multiplicity
 _atom_site_fract_x
 _atom_site_fract_y
 _atom_site_fract_z
 _atom_site_occupancy
  P  P0  1  0.64194000  0.12257000  0.96512000  1.0
  P  P1  1  0.35806000  0.62256000  0.46513000  1.0
  P  P2  1  0.35805000  0.87744000  0.03488000  1.0
  P  P3  1  0.64194000  0.37743000  0.53487000  1.0
  H  H4  1  0.48591000  0.27862000  0.87888000  1.0
  H  H5  1  0.51409000  0.77862000  0.37888000  1.0
  H  H6  1  0.51409000  0.72138000  0.12112000  1.0
  H  H7  1  0.48591000  0.22138000  0.62112000  1.0
  H  H8  1  0.51004000  0.02606000  0.06986000  1.0
  H  H9  1  0.48996000  0.52606000  0.56986000  1.0
  H  H10  1  0.48996000  0.97394000  0.93014000  1.0
  H  H11  1  0.51004000  0.47394000  0.43014000  1.0
  H  H12  1  0.58375000  0.16491000  0.09834000  1.0
  H  H13  1  0.41624000  0.66491000  0.59833000  1.0
  H  H14  1  0.41624000  0.83509000  0.90167000  1.0
  H  H15  1  0.58375000  0.33509000  0.40167000  1.0
  H  H16  1  0.78319000  0.97978000  0.07714000  1.0
  H  H17  1  0.21680000  0.47977000  0.57714000  1.0
  H  H18  1  0.21680000  0.02022000  0.92286000  1.0
  H  H19  1  0.78319000  0.52023000  0.42286000  1.0
  H  H20  1  0.75971000  0.09053000  0.41494000  1.0
  H  H21  1  0.24029000  0.59052000  0.91494000  1.0
  H  H22  1  0.24029000  0.90947000  0.58507000  1.0
  H  H23  1  0.75971000  0.40947000  0.08507000  1.0
  H  H24  1  0.34755000  0.40129000  0.90888000  1.0
  H  H25  1  0.65245000  0.90129000  0.40887000  1.0
  H  H26  1  0.65245000  0.59871000  0.09112000  1.0
  H  H27  1  0.34755000  0.09871000  0.59113000  1.0
  H  H28  1  0.64614000  0.03201000  0.67165000  1.0
  H  H29  1  0.35386000  0.53201000  0.17165000  1.0
  H  H30  1  0.35385000  0.96799000  0.32835000  1.0
  H  H31  1  0.64614000  0.46799000  0.82835000  1.0
  H  H32  1  0.73933000  0.98284000  0.75400000  1.0
  H  H33  1  0.26068000  0.48284000  0.25400000  1.0
  H  H34  1  0.26067000  0.01716000  0.24600000  1.0
  H  H35  1  0.73933000  0.51716000  0.74599000  1.0
  H  H36  1  0.79877000  0.05350000  0.22881000  1.0
  H  H37  1  0.20123000  0.55350000  0.72880000  1.0
  H  H38  1  0.20123000  0.94650000  0.77119000  1.0
  H  H39  1  0.79877000  0.44650000  0.27120000  1.0
  H  H40  1  0.79298000  0.95167000  0.20763000  1.0
  H  H41  1  0.20701000  0.45167000  0.70762000  1.0
  H  H42  1  0.20701000  0.04833000  0.79237000  1.0
  H  H43  1  0.79299000  0.54833000  0.29238000  1.0
  H  H44  1  0.24269000  0.08335000  0.09933000  1.0
  H  H45  1  0.75731000  0.58335000  0.59934000  1.0
  H  H46  1  0.75730000  0.91665000  0.90067000  1.0
  H  H47  1  0.24269000  0.41665000  0.40067000  1.0
  H  H48  1  0.04704000  0.96387000  0.13319000  1.0
  H  H49  1  0.95296000  0.46387000  0.63319000  1.0
  H  H50  1  0.95296000  0.03613000  0.86681000  1.0
  H  H51  1  0.04704000  0.53613000  0.36681000  1.0
  H  H52  1  0.44180000  0.28587000  0.12766000  1.0
  H  H53  1  0.55820000  0.78587000  0.62766000  1.0
  H  H54  1  0.55819000  0.71414000  0.87234000  1.0
  H  H55  1  0.44180000  0.21413000  0.37234000  1.0
  H  H56  1  0.71052000  0.16009000  0.51026000  1.0
  H  H57  1  0.28949000  0.66009000  0.01026000  1.0
  H  H58  1  0.28949000  0.83991000  0.48974000  1.0
  H  H59  1  0.71052000  0.33991000  0.98975000  1.0
  H  H60  1  0.32281000  0.40497000  0.03270000  1.0
  H  H61  1  0.67718000  0.90497000  0.53269000  1.0
  H  H62  1  0.67718000  0.59504000  0.96730000  1.0
  H  H63  1  0.32281000  0.09503000  0.46731000  1.0
  H  H64  1  0.91547000  0.23443000  0.94932000  1.0
  H  H65  1  0.08452000  0.73442000  0.44932000  1.0
  H  H66  1  0.08452000  0.76558000  0.05068000  1.0
  H  H67  1  0.91548000  0.26557000  0.55068000  1.0
  H  H68  1  0.87010000  0.12334000  0.61822000  1.0
  H  H69  1  0.12991000  0.62334000  0.11822000  1.0
  H  H70  1  0.12991000  0.87666000  0.38177000  1.0
  H  H71  1  0.87010000  0.37666000  0.88178000  1.0
  H  H72  1  0.12309000  0.12344000  0.66813000  1.0
  H  H73  1  0.87692000  0.62345000  0.16813000  1.0
  H  H74  1  0.87691000  0.87655000  0.33187000  1.0
  H  H75  1  0.12309000  0.37655000  0.83187000  1.0
  H  H76  1  0.98024000  0.05013000  0.71705000  1.0
  H  H77  1  0.01977000  0.55013000  0.21705000  1.0
  H  H78  1  0.01976000  0.94987000  0.28295000  1.0
  H  H79  1  0.98024000  0.44987000  0.78295000  1.0
  H  H80  1  0.17637000  0.21887000  0.00660000  1.0
  H  H81  1  0.82363000  0.71887000  0.50661000  1.0
  H  H82  1  0.82363000  0.78113000  0.99340000  1.0
  H  H83  1  0.17637000  0.28113000  0.49339000  1.0
  Au  Au84  1  0.33333333  0.86594000  0.15095000  1.0
  Au  Au85  1  0.66673000  0.36594000  0.65095000  1.0
  Au  Au86  1  0.66672000  0.13406000  0.84905000  1.0
  Au  Au87  1  0.33333333  0.63406000  0.34905000  1.0
  C  C88  1  0.47405000  0.27962000  0.93349000  1.0
  C  C89  1  0.52596000  0.77962000  0.43349000  1.0
  C  C90  1  0.52595000  0.72038000  0.06651000  1.0
  C  C91  1  0.47404000  0.22038000  0.56651000  1.0
  C  C92  1  0.83018000  0.10920000  0.01079000  1.0
  C  C93  1  0.16982000  0.60920000  0.51079000  1.0
  C  C94  1  0.16981000  0.89081000  0.98921000  1.0
  C  C95  1  0.83018000  0.39080000  0.48921000  1.0
  C  C96  1  0.50600000  0.99744000  0.23851000  1.0
  C  C97  1  0.49400000  0.49743000  0.73851000  1.0
  C  C98  1  0.49400000  0.00256000  0.76149000  1.0
  C  C99  1  0.50601000  0.50256000  0.26149000  1.0
  C  C100  1  0.54198000  0.21323000  0.98672000  1.0
  C  C101  1  0.45802000  0.71323000  0.48672000  1.0
  C  C102  1  0.45802000  0.78678000  0.01328000  1.0
  C  C103  1  0.54198000  0.28677000  0.51328000  1.0
  C  C104  1  0.52926000  0.03006000  0.01444000  1.0
  C  C105  1  0.47074000  0.53006000  0.51444000  1.0
  C  C106  1  0.47074000  0.96994000  0.98556000  1.0
  C  C107  1  0.52926000  0.46994000  0.48556000  1.0
  C  C108  1  0.53094000  0.21606000  0.05674000  1.0
  C  C109  1  0.46906000  0.71606000  0.55674000  1.0
  C  C110  1  0.46905000  0.78394000  0.94326000  1.0
  C  C111  1  0.53094000  0.28394000  0.44326000  1.0
  C  C112  1  0.95306000  0.01153000  0.46891000  1.0
  C  C113  1  0.04695000  0.51153000  0.96891000  1.0
  C  C114  1  0.04694000  0.98846000  0.53109000  1.0
  C  C115  1  0.95307000  0.48846000  0.03110000  1.0
  C  C116  1  0.98588000  0.96970000  0.41506000  1.0
  C  C117  1  0.01413000  0.46970000  0.91506000  1.0
  C  C118  1  0.01412000  0.03030000  0.58494000  1.0
  C  C119  1  0.98589000  0.53029000  0.08494000  1.0
  C  C120  1  0.86813000  0.03282000  0.06231000  1.0
  C  C121  1  0.13187000  0.53282000  0.56232000  1.0
  C  C122  1  0.13187000  0.96718000  0.93768000  1.0
  C  C123  1  0.86813000  0.46718000  0.43769000  1.0
  C  C124  1  0.83098000  0.07376000  0.46222000  1.0
  C  C125  1  0.16902000  0.57376000  0.96222000  1.0
  C  C126  1  0.16903000  0.92624000  0.53778000  1.0
  C  C127  1  0.83098000  0.42624000  0.03778000  1.0
  C  C128  1  0.39653000  0.34867000  0.95041000  1.0
  C  C129  1  0.60347000  0.84867000  0.45041000  1.0
  C  C130  1  0.60347000  0.65134000  0.04959000  1.0
  C  C131  1  0.39653000  0.15133000  0.54959000  1.0
  C  C132  1  0.35002000  0.97017000  0.27259000  1.0
  C  C133  1  0.64998000  0.47017000  0.77259000  1.0
  C  C134  1  0.64998000  0.02983000  0.72741000  1.0
  C  C135  1  0.35003000  0.52983000  0.22741000  1.0
  C  C136  1  0.78279000  0.98300000  0.25045000  1.0
  C  C137  1  0.21720000  0.48299000  0.75045000  1.0
  C  C138  1  0.21721000  0.01700000  0.74955000  1.0
  C  C139  1  0.78280000  0.51700000  0.24955000  1.0
  C  C140  1  0.12715000  0.09074000  0.07439000  1.0
  C  C141  1  0.87284000  0.59074000  0.57440000  1.0
  C  C142  1  0.87284000  0.90926000  0.92561000  1.0
  C  C143  1  0.12715000  0.40926000  0.42561000  1.0
  C  C144  1  0.01630000  0.02394000  0.09385000  1.0
  C  C145  1  0.98369000  0.52394000  0.59385000  1.0
  C  C146  1  0.98369000  0.97606000  0.90615000  1.0
  C  C147  1  0.01630000  0.47606000  0.40615000  1.0
  C  C148  1  0.45101000  0.28446000  0.07313000  1.0
  C  C149  1  0.54898000  0.78446000  0.57313000  1.0
  C  C150  1  0.54898000  0.71555000  0.92687000  1.0
  C  C151  1  0.45101000  0.21554000  0.42687000  1.0
  C  C152  1  0.80386000  0.11229000  0.51547000  1.0
  C  C153  1  0.19614000  0.61229000  0.01547000  1.0
  C  C154  1  0.19615000  0.88771000  0.48453000  1.0
  C  C155  1  0.80386000  0.38771000  0.98453000  1.0
  C  C156  1  0.38414000  0.35097000  0.02009000  1.0
  C  C157  1  0.61586000  0.85097000  0.52009000  1.0
  C  C158  1  0.61586000  0.64903000  0.97991000  1.0
  C  C159  1  0.38414000  0.14903000  0.47992000  1.0
  C  C160  1  0.94291000  0.17555000  0.99035000  1.0
  C  C161  1  0.05708000  0.67555000  0.49035000  1.0
  C  C162  1  0.05708000  0.82445000  0.00965000  1.0
  C  C163  1  0.94291000  0.32445000  0.50965000  1.0
  C  C164  1  0.89527000  0.09146000  0.57715000  1.0
  C  C165  1  0.10473000  0.59146000  0.07715000  1.0
  C  C166  1  0.10473000  0.90853000  0.42285000  1.0
  C  C167  1  0.89527000  0.40853000  0.92285000  1.0
  C  C168  1  0.90164000  0.94581000  0.30655000  1.0
  C  C169  1  0.09835000  0.44581000  0.80655000  1.0
  C  C170  1  0.09835000  0.05419000  0.69345000  1.0
  C  C171  1  0.90165000  0.55419000  0.19345000  1.0
  C  C172  1  0.09027000  0.16658000  0.02237000  1.0
  C  C173  1  0.90973000  0.66658000  0.52237000  1.0
  C  C174  1  0.90972000  0.83342000  0.97763000  1.0
  C  C175  1  0.09027000  0.33342000  0.47763000  1.0
  S  S176  1  0.30101000  0.85926000  0.26822000  1.0
  S  S177  1  0.69900000  0.35926000  0.76822000  1.0
  S  S178  1  0.69899000  0.14074000  0.73178000  1.0
  S  S179  1  0.30102000  0.64074000  0.23178000  1.0
  O  O180  1  0.62781000  0.96578000  0.28152000  1.0
  O  O181  1  0.37219000  0.46578000  0.78152000  1.0
  O  O182  1  0.37219000  0.03422000  0.71848000  1.0
  O  O183  1  0.62781000  0.53422000  0.21848000  1.0
  O  O184  1  0.89206000  0.99512000  0.35705000  1.0
  O  O185  1  0.10795000  0.49512000  0.85705000  1.0
  O  O186  1  0.10795000  0.00487000  0.64295000  1.0
  O  O187  1  0.89206000  0.50487000  0.14295000  1.0
  O  O188  1  0.47642000  0.95774000  0.82185000  1.0
  O  O189  1  0.52358000  0.45775000  0.32185000  1.0
  O  O190  1  0.52358000  0.04225000  0.17815000  1.0
  O  O191  1  0.47642000  0.54225000  0.67815000  1.0
