# generated using pymatgen
data_H22Pb2C16O9
_symmetry_space_group_name_H-M   'P 1'
_cell_length_a   9.11555000
_cell_length_b   9.74575000
_cell_length_c   10.98500000
_cell_angle_alpha   92.25520000
_cell_angle_beta   97.27240000
_cell_angle_gamma   105.91900000
_symmetry_Int_Tables_number   1
_chemical_formula_structural   H22Pb2C16O9
_chemical_formula_sum   'H44 Pb4 C32 O18'
_cell_volume   928.09922133
_cell_formula_units_Z   2
loop_
 _symmetry_equiv_pos_site_id
 _symmetry_equiv_pos_as_xyz
  1  'x, y, z'
loop_
 _atom_site_type_symbol
 _atom_site_label
 _atom_site_symmetry_multiplicity
 _atom_site_fract_x
 _atom_site_fract_y
 _atom_site_fract_z
 _atom_site_occupancy
  H  H0  1  0.99891000  0.74167000  0.27365000  1.0
  H  H1  1  0.00098000  0.25816000  0.72639000  1.0
  H  H2  1  0.94216000  0.69166000  0.99185000  1.0
  H  H3  1  0.05782000  0.30827000  0.00818000  1.0
  H  H4  1  0.02254000  0.58734000  0.09336000  1.0
  H  H5  1  0.97740000  0.41254000  0.90666000  1.0
  H  H6  1  0.77887000  0.51254000  0.18659000  1.0
  H  H7  1  0.22104000  0.48735000  0.81338000  1.0
  H  H8  1  0.74209000  0.46802000  0.02771000  1.0
  H  H9  1  0.25788000  0.53191000  0.97226000  1.0
  H  H10  1  0.65585000  0.68846000  0.99374000  1.0
  H  H11  1  0.34406000  0.31147000  0.00625000  1.0
  H  H12  1  0.54676000  0.58151000  0.09504000  1.0
  H  H13  1  0.45319000  0.41839000  0.90495000  1.0
  H  H14  1  0.87475000  0.91707000  0.08241000  1.0
  H  H15  1  0.12526000  0.08282000  0.91762000  1.0
  H  H16  1  0.91265000  0.95699000  0.24430000  1.0
  H  H17  1  0.08728000  0.04287000  0.75574000  1.0
  H  H18  1  0.71736000  0.73407000  0.27532000  1.0
  H  H19  1  0.28256000  0.26585000  0.72468000  1.0
  H  H20  1  0.98640000  0.57777000  0.65364000  1.0
  H  H21  1  0.01380000  0.42246000  0.34630000  1.0
  H  H22  1  0.88204000  0.72688000  0.78687000  1.0
  H  H23  1  0.11801000  0.27321000  0.21312000  1.0
  H  H24  1  0.72143000  0.71019000  0.67130000  1.0
  H  H25  1  0.27860000  0.28979000  0.32868000  1.0
  H  H26  1  0.64614000  0.53389000  0.82279000  1.0
  H  H27  1  0.35402000  0.46613000  0.17725000  1.0
  H  H28  1  0.80451000  0.46697000  0.80679000  1.0
  H  H29  1  0.19563000  0.53307000  0.19322000  1.0
  H  H30  1  0.57189000  0.30348000  0.68743000  1.0
  H  H31  1  0.42824000  0.69655000  0.31261000  1.0
  H  H32  1  0.52613000  0.44824000  0.61284000  1.0
  H  H33  1  0.47393000  0.55178000  0.38725000  1.0
  H  H34  1  0.86361000  0.51242000  0.43075000  1.0
  H  H35  1  0.13642000  0.48760000  0.56925000  1.0
  H  H36  1  0.71049000  0.57856000  0.46170000  1.0
  H  H37  1  0.28958000  0.42150000  0.53831000  1.0
  H  H38  1  0.80215000  0.33281000  0.58856000  1.0
  H  H39  1  0.19785000  0.66720000  0.41137000  1.0
  H  H40  1  0.80927000  0.20180000  0.22099000  1.0
  H  H41  1  0.19080000  0.79827000  0.77899000  1.0
  H  H42  1  0.78369000  0.17327000  0.07246000  1.0
  H  H43  1  0.21644000  0.82670000  0.92752000  1.0
  Pb  Pb44  1  0.46351000  0.11131000  0.16502000  1.0
  Pb  Pb45  1  0.53654000  0.88851000  0.83473000  1.0
  Pb  Pb46  1  0.26835000  0.01481000  0.50533000  1.0
  Pb  Pb47  1  0.73103000  0.98553000  0.49465000  1.0
  C  C48  1  0.14989000  0.88190000  0.17037000  1.0
  C  C49  1  0.85021000  0.11791000  0.82980000  1.0
  C  C50  1  0.99301000  0.77993000  0.18066000  1.0
  C  C51  1  0.00698000  0.21996000  0.81940000  1.0
  C  C52  1  0.94057000  0.65194000  0.08435000  1.0
  C  C53  1  0.05940000  0.34797000  0.91567000  1.0
  C  C54  1  0.77861000  0.55960000  0.09700000  1.0
  C  C55  1  0.22134000  0.44032000  0.90299000  1.0
  C  C56  1  0.66316000  0.64767000  0.08604000  1.0
  C  C57  1  0.33679000  0.35225000  0.91395000  1.0
  C  C58  1  0.87654000  0.86899000  0.17154000  1.0
  C  C59  1  0.12344000  0.13090000  0.82849000  1.0
  C  C60  1  0.71333000  0.77445000  0.18304000  1.0
  C  C61  1  0.28663000  0.22545000  0.81696000  1.0
  C  C62  1  0.60638000  0.86891000  0.17570000  1.0
  C  C63  1  0.39361000  0.13101000  0.82422000  1.0
  C  C64  1  0.99149000  0.76834000  0.56688000  1.0
  C  C65  1  0.00846000  0.23187000  0.43303000  1.0
  C  C66  1  0.90065000  0.62839000  0.61031000  1.0
  C  C67  1  0.09945000  0.37177000  0.38966000  1.0
  C  C68  1  0.80586000  0.65575000  0.71030000  1.0
  C  C69  1  0.19423000  0.34431000  0.28970000  1.0
  C  C70  1  0.72013000  0.51406000  0.75642000  1.0
  C  C71  1  0.28001000  0.48598000  0.24360000  1.0
  C  C72  1  0.62169000  0.40722000  0.65205000  1.0
  C  C73  1  0.37841000  0.59283000  0.34801000  1.0
  C  C74  1  0.79670000  0.52836000  0.50388000  1.0
  C  C75  1  0.20339000  0.47173000  0.49613000  1.0
  C  C76  1  0.71552000  0.38506000  0.54927000  1.0
  C  C77  1  0.28452000  0.61504000  0.45073000  1.0
  C  C78  1  0.60936000  0.28110000  0.44702000  1.0
  C  C79  1  0.39051000  0.71912000  0.55298000  1.0
  O  O80  1  0.19044000  0.91022000  0.06578000  1.0
  O  O81  1  0.80957000  0.08990000  0.93439000  1.0
  O  O82  1  0.23573000  0.94398000  0.27051000  1.0
  O  O83  1  0.76460000  0.05536000  0.72970000  1.0
  O  O84  1  0.59506000  0.93913000  0.27402000  1.0
  O  O85  1  0.40496000  0.06091000  0.72585000  1.0
  O  O86  1  0.53279000  0.88501000  0.07382000  1.0
  O  O87  1  0.46722000  0.11482000  0.92607000  1.0
  O  O88  1  0.12561000  0.82846000  0.62888000  1.0
  O  O89  1  0.87425000  0.17197000  0.37114000  1.0
  O  O90  1  0.93754000  0.82134000  0.47419000  1.0
  O  O91  1  0.06243000  0.17876000  0.52564000  1.0
  O  O92  1  0.56281000  0.32640000  0.34822000  1.0
  O  O93  1  0.43705000  0.67382000  0.65181000  1.0
  O  O94  1  0.56502000  0.14697000  0.46977000  1.0
  O  O95  1  0.43469000  0.85325000  0.53027000  1.0
  O  O96  1  0.74939000  0.21652000  0.14294000  1.0
  O  O97  1  0.25067000  0.78344000  0.85701000  1.0
