# generated using pymatgen
data_DyCuH16C22S2N2O11
_symmetry_space_group_name_H-M   'P 1'
_cell_length_a   9.36345000
_cell_length_b   11.32230000
_cell_length_c   12.34500000
_cell_angle_alpha   99.29460000
_cell_angle_beta   100.37400000
_cell_angle_gamma   113.75500000
_symmetry_Int_Tables_number   1
_chemical_formula_structural   DyCuH16C22S2N2O11
_chemical_formula_sum   'Dy2 Cu2 H32 C44 S4 N4 O22'
_cell_volume   1137.78834244
_cell_formula_units_Z   2
loop_
 _symmetry_equiv_pos_site_id
 _symmetry_equiv_pos_as_xyz
  1  'x, y, z'
loop_
 _atom_site_type_symbol
 _atom_site_label
 _atom_site_symmetry_multiplicity
 _atom_site_fract_x
 _atom_site_fract_y
 _atom_site_fract_z
 _atom_site_occupancy
  Dy  Dy0  1  0.30527000  0.46444000  0.09611000  1.0
  Dy  Dy1  1  0.69472000  0.53556000  0.90389000  1.0
  Cu  Cu2  1  0.25503000  0.97622000  0.59611000  1.0
  Cu  Cu3  1  0.74497000  0.02378000  0.40389000  1.0
  H  H4  1  0.73552000  0.54539000  0.41424000  1.0
  H  H5  1  0.26448000  0.45461000  0.58575000  1.0
  H  H6  1  0.90061000  0.67268000  0.29894000  1.0
  H  H7  1  0.09940000  0.32731000  0.70105000  1.0
  H  H8  1  0.28971000  0.58193000  0.43700000  1.0
  H  H9  1  0.71029000  0.41807000  0.56300000  1.0
  H  H10  1  0.44797000  0.25004000  0.22953000  1.0
  H  H11  1  0.55203000  0.74996000  0.77048000  1.0
  H  H12  1  0.49978000  0.10824000  0.35284000  1.0
  H  H13  1  0.50021000  0.89175000  0.64716000  1.0
  H  H14  1  0.94092000  0.18767000  0.28050000  1.0
  H  H15  1  0.05908000  0.81233000  0.71950000  1.0
  H  H16  1  0.90773000  0.33275000  0.15939000  1.0
  H  H17  1  0.09227000  0.66726000  0.84061000  1.0
  H  H18  1  0.57506000  0.17711000  0.86336000  1.0
  H  H19  1  0.42494000  0.82289000  0.13664000  1.0
  H  H20  1  0.76586000  0.08045000  0.90913000  1.0
  H  H21  1  0.23414000  0.91954000  0.09087000  1.0
  H  H22  1  0.15782000  0.07328000  0.99671000  1.0
  H  H23  1  0.84218000  0.92672000  0.00328000  1.0
  H  H24  1  0.41009000  0.25762000  0.62746000  1.0
  H  H25  1  0.58991000  0.74237000  0.37255000  1.0
  H  H26  1  0.43434000  0.40849000  0.50001000  1.0
  H  H27  1  0.56566000  0.59151000  0.50000000  1.0
  H  H28  1  0.08752000  0.06569000  0.22659000  1.0
  H  H29  1  0.91249000  0.93432000  0.77341000  1.0
  H  H30  1  0.08082000  0.92577000  0.36249000  1.0
  H  H31  1  0.91918000  0.07424000  0.63751000  1.0
  H  H32  1  0.97423000  0.31731000  0.92885000  1.0
  H  H33  1  0.02577000  0.68269000  0.07114000  1.0
  H  H34  1  0.93978000  0.40704000  0.02259000  1.0
  H  H35  1  0.06022000  0.59295000  0.97741000  1.0
  C  C36  1  0.85791000  0.55589000  0.42160000  1.0
  C  C37  1  0.14209000  0.44411000  0.57839000  1.0
  C  C38  1  0.94828000  0.62569000  0.35646000  1.0
  C  C39  1  0.05172000  0.37430000  0.64354000  1.0
  C  C40  1  0.10467000  0.63430000  0.36302000  1.0
  C  C41  1  0.89533000  0.36569000  0.63698000  1.0
  C  C42  1  0.17013000  0.57618000  0.43469000  1.0
  C  C43  1  0.82987000  0.42382000  0.56531000  1.0
  C  C44  1  0.92004000  0.49460000  0.49654000  1.0
  C  C45  1  0.07995000  0.50540000  0.50345000  1.0
  C  C46  1  0.56019000  0.24112000  0.24229000  1.0
  C  C47  1  0.43982000  0.75888000  0.75771000  1.0
  C  C48  1  0.58763000  0.16168000  0.30971000  1.0
  C  C49  1  0.41237000  0.83833000  0.69029000  1.0
  C  C50  1  0.83471000  0.20613000  0.26933000  1.0
  C  C51  1  0.16529000  0.79388000  0.73068000  1.0
  C  C52  1  0.81495000  0.28764000  0.20154000  1.0
  C  C53  1  0.18505000  0.71236000  0.79847000  1.0
  C  C54  1  0.50164000  0.12053000  0.91305000  1.0
  C  C55  1  0.49836000  0.87947000  0.08695000  1.0
  C  C56  1  0.54960000  0.03674000  0.96759000  1.0
  C  C57  1  0.45041000  0.96327000  0.03241000  1.0
  C  C58  1  0.69245000  0.02405000  0.95928000  1.0
  C  C59  1  0.30755000  0.97594000  0.04072000  1.0
  C  C60  1  0.26407000  0.05932000  0.98771000  1.0
  C  C61  1  0.73593000  0.94067000  0.01229000  1.0
  C  C62  1  0.36312000  0.13148000  0.92407000  1.0
  C  C63  1  0.63688000  0.86852000  0.07593000  1.0
  C  C64  1  0.34128000  0.21919000  0.53833000  1.0
  C  C65  1  0.65872000  0.78081000  0.46168000  1.0
  C  C66  1  0.35292000  0.30259000  0.46624000  1.0
  C  C67  1  0.64709000  0.69741000  0.53377000  1.0
  C  C68  1  0.26113000  0.24929000  0.35247000  1.0
  C  C69  1  0.73888000  0.75072000  0.64754000  1.0
  C  C70  1  0.16047000  0.11173000  0.31466000  1.0
  C  C71  1  0.83953000  0.88828000  0.68535000  1.0
  C  C72  1  0.15617000  0.03305000  0.39047000  1.0
  C  C73  1  0.84382000  0.96696000  0.60954000  1.0
  C  C74  1  0.67424000  0.30566000  0.18648000  1.0
  C  C75  1  0.32576000  0.69434000  0.81352000  1.0
  C  C76  1  0.64015000  0.38632000  0.10890000  1.0
  C  C77  1  0.35984000  0.61368000  0.89110000  1.0
  C  C78  1  0.27420000  0.33517000  0.27061000  1.0
  C  C79  1  0.72581000  0.66483000  0.72940000  1.0
  S  S80  1  0.30583000  0.23536000  0.85187000  1.0
  S  S81  1  0.69416000  0.76463000  0.14813000  1.0
  S  S82  1  0.21684000  0.71559000  0.27216000  1.0
  S  S83  1  0.78316000  0.28441000  0.72783000  1.0
  N  N84  1  0.24563000  0.08578000  0.50055000  1.0
  N  N85  1  0.75437000  0.91423000  0.49945000  1.0
  N  N86  1  0.72303000  0.14290000  0.32250000  1.0
  N  N87  1  0.27697000  0.85709000  0.67751000  1.0
  O  O88  1  0.18178000  0.27936000  0.16863000  1.0
  O  O89  1  0.81823000  0.72064000  0.83137000  1.0
  O  O90  1  0.37845000  0.45716000  0.30124000  1.0
  O  O91  1  0.62155000  0.54285000  0.69877000  1.0
  O  O92  1  0.22056000  0.60406000  0.19161000  1.0
  O  O93  1  0.77944000  0.39594000  0.80837000  1.0
  O  O94  1  0.23476000  0.29823000  0.92641000  1.0
  O  O95  1  0.76523000  0.70176000  0.07359000  1.0
  O  O96  1  0.12166000  0.77233000  0.21042000  1.0
  O  O97  1  0.87833000  0.22767000  0.78958000  1.0
  O  O98  1  0.37673000  0.81426000  0.34298000  1.0
  O  O99  1  0.62328000  0.18574000  0.65701000  1.0
  O  O100  1  0.51771000  0.40854000  0.10824000  1.0
  O  O101  1  0.48229000  0.59146000  0.89176000  1.0
  O  O102  1  0.45661000  0.33371000  0.83542000  1.0
  O  O103  1  0.54339000  0.66629000  0.16458000  1.0
  O  O104  1  0.18887000  0.14906000  0.74384000  1.0
  O  O105  1  0.81112000  0.85094000  0.25616000  1.0
  O  O106  1  0.73454000  0.42548000  0.04609000  1.0
  O  O107  1  0.26546000  0.57451000  0.95391000  1.0
  O  O108  1  0.01745000  0.37225000  0.00949000  1.0
  O  O109  1  0.98254000  0.62774000  0.99050000  1.0
