# generated using pymatgen
data_Zn3H32C26(NO6)2
_symmetry_space_group_name_H-M   'P 1'
_cell_length_a   14.97310000
_cell_length_b   17.44600000
_cell_length_c   18.06000000
_cell_angle_alpha   111.10500000
_cell_angle_beta   89.99990000
_cell_angle_gamma   90.00000000
_symmetry_Int_Tables_number   1
_chemical_formula_structural   Zn3H32C26(NO6)2
_chemical_formula_sum   'Zn18 H192 C156 N12 O72'
_cell_volume   4401.19618349
_cell_formula_units_Z   6
loop_
 _symmetry_equiv_pos_site_id
 _symmetry_equiv_pos_as_xyz
  1  'x, y, z'
loop_
 _atom_site_type_symbol
 _atom_site_label
 _atom_site_symmetry_multiplicity
 _atom_site_fract_x
 _atom_site_fract_y
 _atom_site_fract_z
 _atom_site_occupancy
  Zn  Zn0  1  0.00000000  0.00000000  0.00000000  1.0
  Zn  Zn1  1  0.50000000  0.50000000  0.50000000  1.0
  Zn  Zn2  1  0.49573000  0.50069000  0.83469000  1.0
  Zn  Zn3  1  0.99573000  0.99931000  0.66531000  1.0
  Zn  Zn4  1  0.50427000  0.49931000  0.16531000  1.0
  Zn  Zn5  1  0.00427000  0.00070000  0.33469000  1.0
  Zn  Zn6  1  0.09869000  0.00252000  0.16628000  1.0
  Zn  Zn7  1  0.59869000  0.49748000  0.33372000  1.0
  Zn  Zn8  1  0.90131000  0.99748000  0.83372000  1.0
  Zn  Zn9  1  0.40131000  0.50252000  0.66628000  1.0
  Zn  Zn10  1  0.59893000  0.49750000  0.99488000  1.0
  Zn  Zn11  1  0.09893000  0.00250000  0.50512000  1.0
  Zn  Zn12  1  0.40107000  0.50250000  0.00512000  1.0
  Zn  Zn13  1  0.90107000  0.99750000  0.49488000  1.0
  Zn  Zn14  1  0.90389000  0.99741000  0.16680000  1.0
  Zn  Zn15  1  0.40390000  0.50260000  0.33320000  1.0
  Zn  Zn16  1  0.09610000  0.00260000  0.83320000  1.0
  Zn  Zn17  1  0.59610000  0.49741000  0.66680000  1.0
  H  H18  1  0.49225000  0.38886000  0.68728000  1.0
  H  H19  1  0.99225000  0.11114000  0.81272000  1.0
  H  H20  1  0.50775000  0.61114000  0.31273000  1.0
  H  H21  1  0.00775000  0.88886000  0.18728000  1.0
  H  H22  1  0.50084000  0.61257000  0.98233000  1.0
  H  H23  1  0.00084000  0.88743000  0.51767000  1.0
  H  H24  1  0.49916000  0.38743000  0.01768000  1.0
  H  H25  1  0.99916000  0.11257000  0.48233000  1.0
  H  H26  1  0.99936000  0.11176000  0.14592000  1.0
  H  H27  1  0.49936000  0.38824000  0.35408000  1.0
  H  H28  1  0.00064000  0.88824000  0.85408000  1.0
  H  H29  1  0.50064000  0.61176000  0.64592000  1.0
  H  H30  1  0.83734000  0.15980000  0.79951000  1.0
  H  H31  1  0.33734000  0.34019000  0.70049000  1.0
  H  H32  1  0.16267000  0.84020000  0.20049000  1.0
  H  H33  1  0.66267000  0.65980000  0.29951000  1.0
  H  H34  1  0.75599000  0.28232000  0.89014000  1.0
  H  H35  1  0.25599000  0.21767000  0.60986000  1.0
  H  H36  1  0.24402000  0.71768000  0.10986000  1.0
  H  H37  1  0.74402000  0.78232000  0.39013000  1.0
  H  H38  1  0.59098000  0.28399000  0.69616000  1.0
  H  H39  1  0.09098000  0.21602000  0.80384000  1.0
  H  H40  1  0.40902000  0.71602000  0.30384000  1.0
  H  H41  1  0.90902000  0.78398000  0.19616000  1.0
  H  H42  1  0.67808000  0.16582000  0.60333000  1.0
  H  H43  1  0.17808000  0.33418000  0.89667000  1.0
  H  H44  1  0.32192000  0.83418000  0.39667000  1.0
  H  H45  1  0.82192000  0.66582000  0.10333000  1.0
  H  H46  1  0.10353000  0.78598000  0.87303000  1.0
  H  H47  1  0.60354000  0.71402000  0.62697000  1.0
  H  H48  1  0.89647000  0.21402000  0.12697000  1.0
  H  H49  1  0.39646000  0.28598000  0.37303000  1.0
  H  H50  1  0.19870000  0.67392000  0.78003000  1.0
  H  H51  1  0.69870000  0.82609000  0.71997000  1.0
  H  H52  1  0.80131000  0.32608000  0.21997000  1.0
  H  H53  1  0.30130000  0.17391000  0.28003000  1.0
  H  H54  1  0.39814000  0.71870000  0.96221000  1.0
  H  H55  1  0.89815000  0.78130000  0.53779000  1.0
  H  H56  1  0.60186000  0.28130000  0.03779000  1.0
  H  H57  1  0.10185000  0.21870000  0.46221000  1.0
  H  H58  1  0.30258000  0.83011000  0.05468000  1.0
  H  H59  1  0.80258000  0.66989000  0.44532000  1.0
  H  H60  1  0.69742000  0.16989000  0.94532000  1.0
  H  H61  1  0.19742000  0.33011000  0.55468000  1.0
  H  H62  1  0.67366000  0.65322000  0.97560000  1.0
  H  H63  1  0.17366000  0.84678000  0.52440000  1.0
  H  H64  1  0.32634000  0.34678000  0.02440000  1.0
  H  H65  1  0.82634000  0.15322000  0.47560000  1.0
  H  H66  1  0.74468000  0.78333000  0.06469000  1.0
  H  H67  1  0.24467000  0.71667000  0.43530000  1.0
  H  H68  1  0.25533000  0.21667000  0.93531000  1.0
  H  H69  1  0.75533000  0.28333000  0.56469000  1.0
  H  H70  1  0.82583000  0.83890000  0.86115000  1.0
  H  H71  1  0.32582000  0.66110000  0.63885000  1.0
  H  H72  1  0.17417000  0.16110000  0.13885000  1.0
  H  H73  1  0.67417000  0.33890000  0.36116000  1.0
  H  H74  1  0.75332000  0.70945000  0.77211000  1.0
  H  H75  1  0.25332000  0.79055000  0.72789000  1.0
  H  H76  1  0.24668000  0.29055000  0.22789000  1.0
  H  H77  1  0.74667000  0.20945000  0.27211000  1.0
  H  H78  1  0.96347000  0.79408000  0.02982000  1.0
  H  H79  1  0.46347000  0.70591000  0.47019000  1.0
  H  H80  1  0.03653000  0.20592000  0.97019000  1.0
  H  H81  1  0.53653000  0.29408000  0.52981000  1.0
  H  H82  1  0.09311000  0.65576000  0.08932000  1.0
  H  H83  1  0.59310000  0.84424000  0.41068000  1.0
  H  H84  1  0.90689000  0.34424000  0.91068000  1.0
  H  H85  1  0.40690000  0.15576000  0.58932000  1.0
  H  H86  1  0.02146000  0.57434000  0.03453000  1.0
  H  H87  1  0.52146000  0.92566000  0.46547000  1.0
  H  H88  1  0.97854000  0.42566000  0.96547000  1.0
  H  H89  1  0.47854000  0.07434000  0.53453000  1.0
  H  H90  1  0.12127000  0.54077000  0.91446000  1.0
  H  H91  1  0.62127000  0.95923000  0.58553000  1.0
  H  H92  1  0.87873000  0.45923000  0.08554000  1.0
  H  H93  1  0.37873000  0.04077000  0.41447000  1.0
  H  H94  1  0.18326000  0.54161000  0.99849000  1.0
  H  H95  1  0.68325000  0.95839000  0.50150000  1.0
  H  H96  1  0.81674000  0.45838000  0.00151000  1.0
  H  H97  1  0.31674000  0.04161000  0.49849000  1.0
  H  H98  1  0.19067000  0.62602000  0.96624000  1.0
  H  H99  1  0.69067000  0.87398000  0.53376000  1.0
  H  H100  1  0.80933000  0.37397000  0.03376000  1.0
  H  H101  1  0.30933000  0.12602000  0.46624000  1.0
  H  H102  1  0.95105000  0.70765000  0.91704000  1.0
  H  H103  1  0.45104000  0.79235000  0.58296000  1.0
  H  H104  1  0.04895000  0.29235000  0.08296000  1.0
  H  H105  1  0.54895000  0.20765000  0.41704000  1.0
  H  H106  1  0.03880000  0.63658000  0.88201000  1.0
  H  H107  1  0.53879000  0.86343000  0.61800000  1.0
  H  H108  1  0.96121000  0.36342000  0.11800000  1.0
  H  H109  1  0.46120000  0.13657000  0.38200000  1.0
  H  H110  1  0.94790000  0.52648000  0.90599000  1.0
  H  H111  1  0.44789000  0.97352000  0.59401000  1.0
  H  H112  1  0.05211000  0.47352000  0.09401000  1.0
  H  H113  1  0.55211000  0.02648000  0.40599000  1.0
  H  H114  1  0.88719000  0.57013000  0.84669000  1.0
  H  H115  1  0.38719000  0.92987000  0.65331000  1.0
  H  H116  1  0.11281000  0.42986000  0.15331000  1.0
  H  H117  1  0.61281000  0.07013000  0.34669000  1.0
  H  H118  1  0.86088000  0.59863000  0.94860000  1.0
  H  H119  1  0.36088000  0.90137000  0.55140000  1.0
  H  H120  1  0.13912000  0.40137000  0.05140000  1.0
  H  H121  1  0.63912000  0.09863000  0.44860000  1.0
  H  H122  1  0.92182000  0.20567000  0.63405000  1.0
  H  H123  1  0.42182000  0.29433000  0.86597000  1.0
  H  H124  1  0.07818000  0.79433000  0.36595000  1.0
  H  H125  1  0.57818000  0.70566000  0.13404000  1.0
  H  H126  1  0.04600000  0.35172000  0.58187000  1.0
  H  H127  1  0.54601000  0.14828000  0.91814000  1.0
  H  H128  1  0.95400000  0.64828000  0.41813000  1.0
  H  H129  1  0.45400000  0.85172000  0.08186000  1.0
  H  H130  1  0.96679000  0.42899000  0.62980000  1.0
  H  H131  1  0.46679000  0.07101000  0.87020000  1.0
  H  H132  1  0.03322000  0.57101000  0.37020000  1.0
  H  H133  1  0.53321000  0.92899000  0.12980000  1.0
  H  H134  1  0.12932000  0.38721000  0.71387000  1.0
  H  H135  1  0.62932000  0.11279000  0.78613000  1.0
  H  H136  1  0.87068000  0.61278000  0.28612000  1.0
  H  H137  1  0.37068000  0.88721000  0.21387000  1.0
  H  H138  1  0.12593000  0.46950000  0.67846000  1.0
  H  H139  1  0.62593000  0.03050000  0.82154000  1.0
  H  H140  1  0.87407000  0.53049000  0.32154000  1.0
  H  H141  1  0.37407000  0.96950000  0.17846000  1.0
  H  H142  1  0.05435000  0.47051000  0.75707000  1.0
  H  H143  1  0.55435000  0.02949000  0.74293000  1.0
  H  H144  1  0.94566000  0.52948000  0.24293000  1.0
  H  H145  1  0.44566000  0.97051000  0.25706000  1.0
  H  H146  1  0.96448000  0.38035000  0.78416000  1.0
  H  H147  1  0.46448000  0.11966000  0.71584000  1.0
  H  H148  1  0.03552000  0.61964000  0.21583000  1.0
  H  H149  1  0.53552000  0.88034000  0.28416000  1.0
  H  H150  1  0.89501000  0.29364000  0.74536000  1.0
  H  H151  1  0.39501000  0.20636000  0.75465000  1.0
  H  H152  1  0.10499000  0.70635000  0.25464000  1.0
  H  H153  1  0.60499000  0.79364000  0.24535000  1.0
  H  H154  1  0.78825000  0.37418000  0.69276000  1.0
  H  H155  1  0.28825000  0.12582000  0.80724000  1.0
  H  H156  1  0.21175000  0.62581000  0.30723000  1.0
  H  H157  1  0.71175000  0.87419000  0.19276000  1.0
  H  H158  1  0.80397000  0.42305000  0.79671000  1.0
  H  H159  1  0.30397000  0.07695000  0.70329000  1.0
  H  H160  1  0.19603000  0.57694000  0.20328000  1.0
  H  H161  1  0.69602000  0.92305000  0.29671000  1.0
  H  H162  1  0.85809000  0.46181000  0.73019000  1.0
  H  H163  1  0.35810000  0.03819000  0.76982000  1.0
  H  H164  1  0.14191000  0.53818000  0.26981000  1.0
  H  H165  1  0.64190000  0.96181000  0.23019000  1.0
  H  H166  1  0.94514000  0.20635000  0.29653000  1.0
  H  H167  1  0.44514000  0.29365000  0.20347000  1.0
  H  H168  1  0.05486000  0.79365000  0.70347000  1.0
  H  H169  1  0.55486000  0.70635000  0.79653000  1.0
  H  H170  1  0.01935000  0.42699000  0.30018000  1.0
  H  H171  1  0.51935000  0.07301000  0.19983000  1.0
  H  H172  1  0.98065000  0.57301000  0.69983000  1.0
  H  H173  1  0.48065000  0.92699000  0.80018000  1.0
  H  H174  1  0.08381000  0.34146000  0.24150000  1.0
  H  H175  1  0.58381000  0.15854000  0.25850000  1.0
  H  H176  1  0.91619000  0.65854000  0.75850000  1.0
  H  H177  1  0.41619000  0.84146000  0.74150000  1.0
  H  H178  1  0.11947000  0.44522000  0.41824000  1.0
  H  H179  1  0.61947000  0.05477000  0.08176000  1.0
  H  H180  1  0.88053000  0.55478000  0.58176000  1.0
  H  H181  1  0.38053000  0.94523000  0.91824000  1.0
  H  H182  1  0.18314000  0.44597000  0.33556000  1.0
  H  H183  1  0.68314000  0.05403000  0.16445000  1.0
  H  H184  1  0.81686000  0.55403000  0.66445000  1.0
  H  H185  1  0.31686000  0.94597000  0.83556000  1.0
  H  H186  1  0.18147000  0.35709000  0.36104000  1.0
  H  H187  1  0.68147000  0.14291000  0.13896000  1.0
  H  H188  1  0.81853000  0.64291000  0.63896000  1.0
  H  H189  1  0.31853000  0.85709000  0.86105000  1.0
  H  H190  1  0.93201000  0.29264000  0.41020000  1.0
  H  H191  1  0.43202000  0.20736000  0.08980000  1.0
  H  H192  1  0.06798000  0.70736000  0.58980000  1.0
  H  H193  1  0.56798000  0.79264000  0.91020000  1.0
  H  H194  1  0.02316000  0.35913000  0.44757000  1.0
  H  H195  1  0.52316000  0.14087000  0.05243000  1.0
  H  H196  1  0.97684000  0.64087000  0.55243000  1.0
  H  H197  1  0.47684000  0.85913000  0.94758000  1.0
  H  H198  1  0.94141000  0.47500000  0.42587000  1.0
  H  H199  1  0.44141000  0.02500000  0.07413000  1.0
  H  H200  1  0.05859000  0.52500000  0.57413000  1.0
  H  H201  1  0.55860000  0.97500000  0.92587000  1.0
  H  H202  1  0.87444000  0.43176000  0.48193000  1.0
  H  H203  1  0.37444000  0.06824000  0.01807000  1.0
  H  H204  1  0.12556000  0.56824000  0.51807000  1.0
  H  H205  1  0.62556000  0.93176000  0.98193000  1.0
  H  H206  1  0.85150000  0.40768000  0.37995000  1.0
  H  H207  1  0.35150000  0.09232000  0.12005000  1.0
  H  H208  1  0.14850000  0.59232000  0.62005000  1.0
  H  H209  1  0.64850000  0.90768000  0.87995000  1.0
  C  C210  1  0.81893000  0.08678000  0.64159000  1.0
  C  C211  1  0.31893000  0.41322000  0.85841000  1.0
  C  C212  1  0.18106000  0.91322000  0.35841000  1.0
  C  C213  1  0.68107000  0.58678000  0.14158000  1.0
  C  C214  1  0.76327000  0.15563000  0.69557000  1.0
  C  C215  1  0.26327000  0.34437000  0.80443000  1.0
  C  C216  1  0.23673000  0.84437000  0.30443000  1.0
  C  C217  1  0.73673000  0.65563000  0.19557000  1.0
  C  C218  1  0.78393000  0.18739000  0.77682000  1.0
  C  C219  1  0.28393000  0.31261000  0.72318000  1.0
  C  C220  1  0.21608000  0.81261000  0.22318000  1.0
  C  C221  1  0.71608000  0.68739000  0.27682000  1.0
  C  C222  1  0.73860000  0.25577000  0.82750000  1.0
  C  C223  1  0.23860000  0.24422000  0.67250000  1.0
  C  C224  1  0.26140000  0.74422000  0.17250000  1.0
  C  C225  1  0.76140000  0.75577000  0.32750000  1.0
  C  C226  1  0.66954000  0.29127000  0.79833000  1.0
  C  C227  1  0.16954000  0.20873000  0.70167000  1.0
  C  C228  1  0.33046000  0.70873000  0.20167000  1.0
  C  C229  1  0.83046000  0.79127000  0.29833000  1.0
  C  C230  1  0.62294000  0.36678000  0.85202000  1.0
  C  C231  1  0.12294000  0.13322000  0.64798000  1.0
  C  C232  1  0.37706000  0.63322000  0.14798000  1.0
  C  C233  1  0.87706000  0.86678000  0.35202000  1.0
  C  C234  1  0.64595000  0.25718000  0.71790000  1.0
  C  C235  1  0.14595000  0.24282000  0.78210000  1.0
  C  C236  1  0.35405000  0.74282000  0.28211000  1.0
  C  C237  1  0.85405000  0.75718000  0.21789000  1.0
  C  C238  1  0.69377000  0.19083000  0.66650000  1.0
  C  C239  1  0.19377000  0.30917000  0.83350000  1.0
  C  C240  1  0.30623000  0.80917000  0.33350000  1.0
  C  C241  1  0.80623000  0.69083000  0.16650000  1.0
  C  C242  1  0.14221000  0.88189000  0.02372000  1.0
  C  C243  1  0.64221000  0.61812000  0.47628000  1.0
  C  C244  1  0.85779000  0.11812000  0.97628000  1.0
  C  C245  1  0.35779000  0.38188000  0.52372000  1.0
  C  C246  1  0.19836000  0.81475000  0.96887000  1.0
  C  C247  1  0.69837000  0.68525000  0.53113000  1.0
  C  C248  1  0.80164000  0.18525000  0.03113000  1.0
  C  C249  1  0.30163000  0.31475000  0.46887000  1.0
  C  C250  1  0.16812000  0.77077000  0.89176000  1.0
  C  C251  1  0.66812000  0.72923000  0.60824000  1.0
  C  C252  1  0.83188000  0.22923000  0.10824000  1.0
  C  C253  1  0.33188000  0.27077000  0.39176000  1.0
  C  C254  1  0.22079000  0.70877000  0.84028000  1.0
  C  C255  1  0.72080000  0.79123000  0.65972000  1.0
  C  C256  1  0.77921000  0.29123000  0.15972000  1.0
  C  C257  1  0.27920000  0.20877000  0.34028000  1.0
  C  C258  1  0.30412000  0.69032000  0.86534000  1.0
  C  C259  1  0.80412000  0.80968000  0.63466000  1.0
  C  C260  1  0.69588000  0.30968000  0.13466000  1.0
  C  C261  1  0.19588000  0.19032000  0.36534000  1.0
  C  C262  1  0.36117000  0.62441000  0.80973000  1.0
  C  C263  1  0.86117000  0.87559000  0.69027000  1.0
  C  C264  1  0.63883000  0.37559000  0.19027000  1.0
  C  C265  1  0.13883000  0.12441000  0.30973000  1.0
  C  C266  1  0.33391000  0.73373000  0.94274000  1.0
  C  C267  1  0.83391000  0.76627000  0.55726000  1.0
  C  C268  1  0.66609000  0.26627000  0.05727000  1.0
  C  C269  1  0.16609000  0.23373000  0.44274000  1.0
  C  C270  1  0.28111000  0.79569000  0.99418000  1.0
  C  C271  1  0.78111000  0.70431000  0.50582000  1.0
  C  C272  1  0.71889000  0.20431000  0.00582000  1.0
  C  C273  1  0.21889000  0.29569000  0.49418000  1.0
  C  C274  1  0.66517000  0.59680000  0.81515000  1.0
  C  C275  1  0.16517000  0.90320000  0.68485000  1.0
  C  C276  1  0.33483000  0.40320000  0.18485000  1.0
  C  C277  1  0.83482000  0.09681000  0.31515000  1.0
  C  C278  1  0.70985000  0.67340000  0.86848000  1.0
  C  C279  1  0.20985000  0.82660000  0.63152000  1.0
  C  C280  1  0.29015000  0.32660000  0.13152000  1.0
  C  C281  1  0.79015000  0.17341000  0.36848000  1.0
  C  C282  1  0.70676000  0.69413000  0.95095000  1.0
  C  C283  1  0.20675000  0.80587000  0.54905000  1.0
  C  C284  1  0.29324000  0.30587000  0.04905000  1.0
  C  C285  1  0.79325000  0.19413000  0.45095000  1.0
  C  C286  1  0.74604000  0.76663000  0.00053000  1.0
  C  C287  1  0.24603000  0.73337000  0.49947000  1.0
  C  C288  1  0.25396000  0.23337000  0.99947000  1.0
  C  C289  1  0.75396000  0.26663000  0.50053000  1.0
  C  C290  1  0.78892000  0.81903000  0.96832000  1.0
  C  C291  1  0.28892000  0.68097000  0.53168000  1.0
  C  C292  1  0.21108000  0.18097000  0.03168000  1.0
  C  C293  1  0.71108000  0.31903000  0.46832000  1.0
  C  C294  1  0.83412000  0.89555000  0.02130000  1.0
  C  C295  1  0.33412000  0.60445000  0.47870000  1.0
  C  C296  1  0.16588000  0.10445000  0.97870000  1.0
  C  C297  1  0.66588000  0.39555000  0.52131000  1.0
  C  C298  1  0.79191000  0.79837000  0.88581000  1.0
  C  C299  1  0.29191000  0.70163000  0.61419000  1.0
  C  C300  1  0.20809000  0.20163000  0.11419000  1.0
  C  C301  1  0.70808000  0.29837000  0.38581000  1.0
  C  C302  1  0.75234000  0.72601000  0.83627000  1.0
  C  C303  1  0.25234000  0.77399000  0.66373000  1.0
  C  C304  1  0.24765000  0.27399000  0.16373000  1.0
  C  C305  1  0.74765000  0.22602000  0.33627000  1.0
  C  C306  1  0.00236000  0.75667000  0.05608000  1.0
  C  C307  1  0.50236000  0.74333000  0.44393000  1.0
  C  C308  1  0.99764000  0.24333000  0.94392000  1.0
  C  C309  1  0.49764000  0.25667000  0.55608000  1.0
  C  C310  1  0.06824000  0.62109000  0.02944000  1.0
  C  C311  1  0.56824000  0.87891000  0.47056000  1.0
  C  C312  1  0.93176000  0.37891000  0.97056000  1.0
  C  C313  1  0.43176000  0.12109000  0.52944000  1.0
  C  C314  1  0.14483000  0.58015000  0.97359000  1.0
  C  C315  1  0.64483000  0.91985000  0.52640000  1.0
  C  C316  1  0.85517000  0.41985000  0.02640000  1.0
  C  C317  1  0.35517000  0.08015000  0.47360000  1.0
  C  C318  1  0.98251000  0.65379000  0.92403000  1.0
  C  C319  1  0.48250000  0.84621000  0.57597000  1.0
  C  C320  1  0.01750000  0.34621000  0.07597000  1.0
  C  C321  1  0.51749000  0.15379000  0.42403000  1.0
  C  C322  1  0.91610000  0.58316000  0.90575000  1.0
  C  C323  1  0.41610000  0.91684000  0.59425000  1.0
  C  C324  1  0.08390000  0.41684000  0.09425000  1.0
  C  C325  1  0.58390000  0.08316000  0.40575000  1.0
  C  C326  1  0.96020000  0.24535000  0.61001000  1.0
  C  C327  1  0.46020000  0.25465000  0.89000000  1.0
  C  C328  1  0.03980000  0.75465000  0.38998000  1.0
  C  C329  1  0.53980000  0.74535000  0.11000000  1.0
  C  C330  1  0.01461000  0.38530000  0.63931000  1.0
  C  C331  1  0.51461000  0.11470000  0.86070000  1.0
  C  C332  1  0.98539000  0.61469000  0.36069000  1.0
  C  C333  1  0.48539000  0.88530000  0.13930000  1.0
  C  C334  1  0.08463000  0.43064000  0.70097000  1.0
  C  C335  1  0.58464000  0.06936000  0.79903000  1.0
  C  C336  1  0.91537000  0.56935000  0.29903000  1.0
  C  C337  1  0.41537000  0.93064000  0.20097000  1.0
  C  C338  1  0.91693000  0.34958000  0.73616000  1.0
  C  C339  1  0.41693000  0.15042000  0.76384000  1.0
  C  C340  1  0.08307000  0.65041000  0.26383000  1.0
  C  C341  1  0.58307000  0.84958000  0.23616000  1.0
  C  C342  1  0.83743000  0.40523000  0.73886000  1.0
  C  C343  1  0.33743000  0.09478000  0.76115000  1.0
  C  C344  1  0.16257000  0.59477000  0.26114000  1.0
  C  C345  1  0.66257000  0.90522000  0.23886000  1.0
  C  C346  1  0.98747000  0.24313000  0.27209000  1.0
  C  C347  1  0.48747000  0.25687000  0.22791000  1.0
  C  C348  1  0.01253000  0.75687000  0.72791000  1.0
  C  C349  1  0.51253000  0.74313000  0.77209000  1.0
  C  C350  1  0.06114000  0.37576000  0.30220000  1.0
  C  C351  1  0.56114000  0.12425000  0.19780000  1.0
  C  C352  1  0.93886000  0.62425000  0.69780000  1.0
  C  C353  1  0.43886000  0.87576000  0.80220000  1.0
  C  C354  1  0.14040000  0.40784000  0.35772000  1.0
  C  C355  1  0.64040000  0.09216000  0.14229000  1.0
  C  C356  1  0.85960000  0.59216000  0.64229000  1.0
  C  C357  1  0.35960000  0.90784000  0.85772000  1.0
  C  C358  1  0.96763000  0.34538000  0.40480000  1.0
  C  C359  1  0.46763000  0.15462000  0.09520000  1.0
  C  C360  1  0.03237000  0.65463000  0.59520000  1.0
  C  C361  1  0.53237000  0.84538000  0.90480000  1.0
  C  C362  1  0.90554000  0.41930000  0.42373000  1.0
  C  C363  1  0.40554000  0.08071000  0.07628000  1.0
  C  C364  1  0.09446000  0.58071000  0.57628000  1.0
  C  C365  1  0.59446000  0.91929000  0.92373000  1.0
  N  N366  1  0.01787000  0.67991000  0.00487000  1.0
  N  N367  1  0.51787000  0.82009000  0.49513000  1.0
  N  N368  1  0.98213000  0.32009000  0.99513000  1.0
  N  N369  1  0.48213000  0.17991000  0.50487000  1.0
  N  N370  1  0.96496000  0.32387000  0.66050000  1.0
  N  N371  1  0.46496000  0.17613000  0.83951000  1.0
  N  N372  1  0.03504000  0.67612000  0.33950000  1.0
  N  N373  1  0.53504000  0.82387000  0.16049000  1.0
  N  N374  1  0.00478000  0.31894000  0.32451000  1.0
  N  N375  1  0.50478000  0.18106000  0.17549000  1.0
  N  N376  1  0.99522000  0.68107000  0.67549000  1.0
  N  N377  1  0.49522000  0.81894000  0.82451000  1.0
  O  O378  1  0.49673000  0.44991000  0.71163000  1.0
  O  O379  1  0.99673000  0.05009000  0.78837000  1.0
  O  O380  1  0.50327000  0.55009000  0.28837000  1.0
  O  O381  1  0.00327000  0.94991000  0.21163000  1.0
  O  O382  1  0.49809000  0.55142000  0.95758000  1.0
  O  O383  1  0.99809000  0.94858000  0.54242000  1.0
  O  O384  1  0.50190000  0.44858000  0.04243000  1.0
  O  O385  1  0.00190000  0.05142000  0.45757000  1.0
  O  O386  1  0.99798000  0.05036000  0.12196000  1.0
  O  O387  1  0.49798000  0.44964000  0.37804000  1.0
  O  O388  1  0.00202000  0.94964000  0.87804000  1.0
  O  O389  1  0.50202000  0.55036000  0.62196000  1.0
  O  O390  1  0.32651000  0.58504000  0.74130000  1.0
  O  O391  1  0.82651000  0.91496000  0.75870000  1.0
  O  O392  1  0.67349000  0.41495000  0.25871000  1.0
  O  O393  1  0.17349000  0.08504000  0.24130000  1.0
  O  O394  1  0.17750000  0.92393000  0.09104000  1.0
  O  O395  1  0.67750000  0.57607000  0.40896000  1.0
  O  O396  1  0.82250000  0.07607000  0.90896000  1.0
  O  O397  1  0.32250000  0.42393000  0.59105000  1.0
  O  O398  1  0.81878000  0.07730000  0.56716000  1.0
  O  O399  1  0.31879000  0.42270000  0.93284000  1.0
  O  O400  1  0.18121000  0.92270000  0.43284000  1.0
  O  O401  1  0.68122000  0.57730000  0.06716000  1.0
  O  O402  1  0.54749000  0.38526000  0.83159000  1.0
  O  O403  1  0.04749000  0.11474000  0.66841000  1.0
  O  O404  1  0.45252000  0.61474000  0.16841000  1.0
  O  O405  1  0.95252000  0.88526000  0.33159000  1.0
  O  O406  1  0.43864000  0.61211000  0.83147000  1.0
  O  O407  1  0.93864000  0.88790000  0.66853000  1.0
  O  O408  1  0.56137000  0.38790000  0.16853000  1.0
  O  O409  1  0.06136000  0.11210000  0.33147000  1.0
  O  O410  1  0.87042000  0.94254000  0.99111000  1.0
  O  O411  1  0.37042000  0.55746000  0.50889000  1.0
  O  O412  1  0.12958000  0.05746000  0.00889000  1.0
  O  O413  1  0.62958000  0.44254000  0.49112000  1.0
  O  O414  1  0.66459000  0.40807000  0.91647000  1.0
  O  O415  1  0.16459000  0.09193000  0.58353000  1.0
  O  O416  1  0.33541000  0.59192000  0.08353000  1.0
  O  O417  1  0.83541000  0.90808000  0.41647000  1.0
  O  O418  1  0.06410000  0.89243000  0.00203000  1.0
  O  O419  1  0.56410000  0.60757000  0.49797000  1.0
  O  O420  1  0.93590000  0.10757000  0.99797000  1.0
  O  O421  1  0.43590000  0.39243000  0.50203000  1.0
  O  O422  1  0.86334000  0.04410000  0.67173000  1.0
  O  O423  1  0.36334000  0.45591000  0.82827000  1.0
  O  O424  1  0.13666000  0.95590000  0.32827000  1.0
  O  O425  1  0.63666000  0.54410000  0.17173000  1.0
  O  O426  1  0.62921000  0.54893000  0.84464000  1.0
  O  O427  1  0.12921000  0.95107000  0.65536000  1.0
  O  O428  1  0.37079000  0.45107000  0.15536000  1.0
  O  O429  1  0.87079000  0.04893000  0.34463000  1.0
  O  O430  1  0.83329000  0.90724000  0.09619000  1.0
  O  O431  1  0.33329000  0.59276000  0.40381000  1.0
  O  O432  1  0.16671000  0.09276000  0.90382000  1.0
  O  O433  1  0.66666667  0.40724000  0.59619000  1.0
  O  O434  1  0.66601000  0.58593000  0.74059000  1.0
  O  O435  1  0.16601000  0.91407000  0.75941000  1.0
  O  O436  1  0.33399000  0.41406000  0.25942000  1.0
  O  O437  1  0.83398000  0.08594000  0.24058000  1.0
  O  O438  1  0.02891000  0.78511000  0.12644000  1.0
  O  O439  1  0.52891000  0.71489000  0.37356000  1.0
  O  O440  1  0.97109000  0.21489000  0.87356000  1.0
  O  O441  1  0.47109000  0.28511000  0.62644000  1.0
  O  O442  1  0.99498000  0.21777000  0.54267000  1.0
  O  O443  1  0.49498000  0.28223000  0.95734000  1.0
  O  O444  1  0.00502000  0.78223000  0.45733000  1.0
  O  O445  1  0.50502000  0.71777000  0.04266000  1.0
  O  O446  1  0.01553000  0.21502000  0.20216000  1.0
  O  O447  1  0.51553000  0.28498000  0.29784000  1.0
  O  O448  1  0.98447000  0.78498000  0.79784000  1.0
  O  O449  1  0.48447000  0.71502000  0.70216000  1.0
