# generated using pymatgen
data_NbAgH4C4N2OF4
_symmetry_space_group_name_H-M   'P 1'
_cell_length_a   7.83565000
_cell_length_b   8.08508168
_cell_length_c   15.17680000
_cell_angle_alpha   90.00047526
_cell_angle_beta   90.00080000
_cell_angle_gamma   61.02934296
_symmetry_Int_Tables_number   1
_chemical_formula_structural   NbAgH4C4N2OF4
_chemical_formula_sum   'Nb4 Ag4 H16 C16 N8 O4 F16'
_cell_volume   841.16679957
_cell_formula_units_Z   4
loop_
 _symmetry_equiv_pos_site_id
 _symmetry_equiv_pos_as_xyz
  1  'x, y, z'
loop_
 _atom_site_type_symbol
 _atom_site_label
 _atom_site_symmetry_multiplicity
 _atom_site_fract_x
 _atom_site_fract_y
 _atom_site_fract_z
 _atom_site_occupancy
  Nb  Nb0  1  0.96620000  0.00000000  0.24775000  1.0
  Nb  Nb1  1  0.53380000  0.00001000  0.74774000  1.0
  Nb  Nb2  1  0.46620000  0.00000000  0.25225000  1.0
  Nb  Nb3  1  0.03381000  0.00000000  0.75225000  1.0
  Ag  Ag4  1  0.25322000  0.00000000  0.97862000  1.0
  Ag  Ag5  1  0.24678000  0.00000000  0.47862000  1.0
  Ag  Ag6  1  0.75322000  0.00000000  0.52138000  1.0
  Ag  Ag7  1  0.74678000  0.00000000  0.02138000  1.0
  H  H8  1  0.32764000  0.70979000  0.12200000  1.0
  H  H9  1  0.17235000  0.29021000  0.62198000  1.0
  H  H10  1  0.53750000  0.29016000  0.37800000  1.0
  H  H11  1  0.96250000  0.70984000  0.87802000  1.0
  H  H12  1  0.67236000  0.29021000  0.87801000  1.0
  H  H13  1  0.82764000  0.70979000  0.37801000  1.0
  H  H14  1  0.46249000  0.70985000  0.62199000  1.0
  H  H15  1  0.03749000  0.29015000  0.12199000  1.0
  H  H16  1  0.49493000  0.64180000  0.85749000  1.0
  H  H17  1  0.00507000  0.35820000  0.35748000  1.0
  H  H18  1  0.63686000  0.35825000  0.64249000  1.0
  H  H19  1  0.86311000  0.64175000  0.14251000  1.0
  H  H20  1  0.50508000  0.35819000  0.14252000  1.0
  H  H21  1  0.99494000  0.64180000  0.64252000  1.0
  H  H22  1  0.36311000  0.64175000  0.35750000  1.0
  H  H23  1  0.13687000  0.35826000  0.85751000  1.0
  C  C24  1  0.40533000  0.61619000  0.06746000  1.0
  C  C25  1  0.09467000  0.38380000  0.56746000  1.0
  C  C26  1  0.52155000  0.38376000  0.43253000  1.0
  C  C27  1  0.97845000  0.61625000  0.93254000  1.0
  C  C28  1  0.59468000  0.38380000  0.93255000  1.0
  C  C29  1  0.90533000  0.61620000  0.43254000  1.0
  C  C30  1  0.47844000  0.61622000  0.56744000  1.0
  C  C31  1  0.02155000  0.38378000  0.06746000  1.0
  C  C32  1  0.49620000  0.57909000  0.92121000  1.0
  C  C33  1  0.00381000  0.42090000  0.42120000  1.0
  C  C34  1  0.57533000  0.42093000  0.57879000  1.0
  C  C35  1  0.92466000  0.57907000  0.07878000  1.0
  C  C36  1  0.50381000  0.42091000  0.07880000  1.0
  C  C37  1  0.99618000  0.57910000  0.57879000  1.0
  C  C38  1  0.42465000  0.57907000  0.42122000  1.0
  C  C39  1  0.07535000  0.42092000  0.92123000  1.0
  N  N40  1  0.40136000  0.69546000  0.98885000  1.0
  N  N41  1  0.09864000  0.30454000  0.48883000  1.0
  N  N42  1  0.59692000  0.30453000  0.51114000  1.0
  N  N43  1  0.90307000  0.69546000  0.01117000  1.0
  N  N44  1  0.59865000  0.30454000  0.01116000  1.0
  N  N45  1  0.90136000  0.69546000  0.51117000  1.0
  N  N46  1  0.40307000  0.69546000  0.48885000  1.0
  N  N47  1  0.09692000  0.30454000  0.98885000  1.0
  O  O48  1  0.74145000  0.99999000  0.22489000  1.0
  O  O49  1  0.75856000  0.00000000  0.72489000  1.0
  O  O50  1  0.24145000  0.99999000  0.27511000  1.0
  O  O51  1  0.25855000  0.00002000  0.77511000  1.0
  F  F52  1  0.04335000  0.99988000  0.12532000  1.0
  F  F53  1  0.45667000  0.00010000  0.62531000  1.0
  F  F54  1  0.54334000  0.99989000  0.37468000  1.0
  F  F55  1  0.95666000  0.00011000  0.87468000  1.0
  F  F56  1  0.86261000  0.27133000  0.24890000  1.0
  F  F57  1  0.63738000  0.72868000  0.74891000  1.0
  F  F58  1  0.63382000  0.72867000  0.25097000  1.0
  F  F59  1  0.86619000  0.27133000  0.75097000  1.0
  F  F60  1  0.13739000  0.72868000  0.75109000  1.0
  F  F61  1  0.36262000  0.27132000  0.25109000  1.0
  F  F62  1  0.36620000  0.27133000  0.74902000  1.0
  F  F63  1  0.13381000  0.72867000  0.24903000  1.0
  F  F64  1  0.55013000  0.99986000  0.87548000  1.0
  F  F65  1  0.94985000  0.00018000  0.37548000  1.0
  F  F66  1  0.05014000  0.99985000  0.62452000  1.0
  F  F67  1  0.44986000  0.00015000  0.12452000  1.0
