# generated using pymatgen
data_H8PbC7SO5
_symmetry_space_group_name_H-M   'P 1'
_cell_length_a   8.28586000
_cell_length_b   8.79970000
_cell_length_c   13.30700000
_cell_angle_alpha   105.23200000
_cell_angle_beta   89.99980000
_cell_angle_gamma   89.99990000
_symmetry_Int_Tables_number   1
_chemical_formula_structural   H8PbC7SO5
_chemical_formula_sum   'H32 Pb4 C28 S4 O20'
_cell_volume   936.16926142
_cell_formula_units_Z   4
loop_
 _symmetry_equiv_pos_site_id
 _symmetry_equiv_pos_as_xyz
  1  'x, y, z'
loop_
 _atom_site_type_symbol
 _atom_site_label
 _atom_site_symmetry_multiplicity
 _atom_site_fract_x
 _atom_site_fract_y
 _atom_site_fract_z
 _atom_site_occupancy
  H  H0  1  0.51126000  0.62521000  0.66060000  1.0
  H  H1  1  0.01126000  0.87478000  0.33940000  1.0
  H  H2  1  0.48874000  0.37479000  0.33940000  1.0
  H  H3  1  0.98874000  0.12521000  0.66060000  1.0
  H  H4  1  0.51382000  0.77370000  0.60705000  1.0
  H  H5  1  0.01382000  0.72630000  0.39295000  1.0
  H  H6  1  0.48618000  0.22630000  0.39295000  1.0
  H  H7  1  0.98618000  0.27370000  0.60705000  1.0
  H  H8  1  0.94707000  0.91275000  0.89004000  1.0
  H  H9  1  0.44706000  0.58726000  0.10997000  1.0
  H  H10  1  0.05293000  0.08726000  0.10997000  1.0
  H  H11  1  0.55294000  0.41275000  0.89004000  1.0
  H  H12  1  0.85639000  0.46574000  0.95320000  1.0
  H  H13  1  0.35639000  0.03426000  0.04680000  1.0
  H  H14  1  0.14360000  0.53426000  0.04680000  1.0
  H  H15  1  0.64361000  0.96574000  0.95320000  1.0
  H  H16  1  0.89986000  0.33202000  0.76994000  1.0
  H  H17  1  0.39987000  0.16799000  0.23005000  1.0
  H  H18  1  0.10014000  0.66799000  0.23005000  1.0
  H  H19  1  0.60014000  0.83201000  0.76995000  1.0
  H  H20  1  0.80270000  0.88764000  0.06296000  1.0
  H  H21  1  0.30270000  0.61236000  0.93704000  1.0
  H  H22  1  0.19729000  0.11236000  0.93704000  1.0
  H  H23  1  0.69730000  0.38764000  0.06296000  1.0
  H  H24  1  0.99185000  0.81717000  0.09074000  1.0
  H  H25  1  0.49185000  0.68283000  0.90926000  1.0
  H  H26  1  0.00815000  0.18282000  0.90926000  1.0
  H  H27  1  0.50815000  0.31717000  0.09074000  1.0
  H  H28  1  0.81684000  0.70292000  0.09219000  1.0
  H  H29  1  0.31684000  0.79708000  0.90781000  1.0
  H  H30  1  0.18315000  0.29708000  0.90780000  1.0
  H  H31  1  0.68316000  0.20292000  0.09219000  1.0
  Pb  Pb32  1  0.76203000  0.50008000  0.48945000  1.0
  Pb  Pb33  1  0.26204000  0.99992000  0.51055000  1.0
  Pb  Pb34  1  0.23796000  0.49992000  0.51055000  1.0
  Pb  Pb35  1  0.73796000  0.00008000  0.48945000  1.0
  C  C36  1  0.96383000  0.70876000  0.76066000  1.0
  C  C37  1  0.46383000  0.79124000  0.23934000  1.0
  C  C38  1  0.03617000  0.29124000  0.23933000  1.0
  C  C39  1  0.53618000  0.20876000  0.76067000  1.0
  C  C40  1  0.93866000  0.78480000  0.86588000  1.0
  C  C41  1  0.43866000  0.71520000  0.13412000  1.0
  C  C42  1  0.06134000  0.21520000  0.13412000  1.0
  C  C43  1  0.56134000  0.28480000  0.86588000  1.0
  C  C44  1  0.90060000  0.69985000  0.93780000  1.0
  C  C45  1  0.40060000  0.80015000  0.06220000  1.0
  C  C46  1  0.09940000  0.30015000  0.06220000  1.0
  C  C47  1  0.59940000  0.19984000  0.93780000  1.0
  C  C48  1  0.88827000  0.53588000  0.89968000  1.0
  C  C49  1  0.38827000  0.96412000  0.10032000  1.0
  C  C50  1  0.11173000  0.46412000  0.10032000  1.0
  C  C51  1  0.61173000  0.03588000  0.89968000  1.0
  C  C52  1  0.91484000  0.45918000  0.79558000  1.0
  C  C53  1  0.41485000  0.04082000  0.20442000  1.0
  C  C54  1  0.08515000  0.54082000  0.20442000  1.0
  C  C55  1  0.58516000  0.95918000  0.79558000  1.0
  C  C56  1  0.95469000  0.54239000  0.72190000  1.0
  C  C57  1  0.45469000  0.95761000  0.27810000  1.0
  C  C58  1  0.04532000  0.45761000  0.27810000  1.0
  C  C59  1  0.54531000  0.04239000  0.72190000  1.0
  C  C60  1  0.87632000  0.78055000  0.05118000  1.0
  C  C61  1  0.37631000  0.71945000  0.94882000  1.0
  C  C62  1  0.12368000  0.21945000  0.94882000  1.0
  C  C63  1  0.62368000  0.28055000  0.05118000  1.0
  S  S64  1  0.99371000  0.82763000  0.67463000  1.0
  S  S65  1  0.49372000  0.67237000  0.32537000  1.0
  S  S66  1  0.00629000  0.17237000  0.32537000  1.0
  S  S67  1  0.50628000  0.32763000  0.67463000  1.0
  O  O68  1  0.15185000  0.78471000  0.62067000  1.0
  O  O69  1  0.65186000  0.71529000  0.37933000  1.0
  O  O70  1  0.84815000  0.21529000  0.37933000  1.0
  O  O71  1  0.34814000  0.28471000  0.62068000  1.0
  O  O72  1  0.50949000  0.65490000  0.59369000  1.0
  O  O73  1  0.00949000  0.84510000  0.40631000  1.0
  O  O74  1  0.49051000  0.34510000  0.40631000  1.0
  O  O75  1  0.99051000  0.15490000  0.59369000  1.0
  O  O76  1  0.85843000  0.79239000  0.59814000  1.0
  O  O77  1  0.35843000  0.70762000  0.40186000  1.0
  O  O78  1  0.14158000  0.20761000  0.40186000  1.0
  O  O79  1  0.64157000  0.29238000  0.59814000  1.0
  O  O80  1  0.99290000  0.99198000  0.73640000  1.0
  O  O81  1  0.49291000  0.50802000  0.26360000  1.0
  O  O82  1  0.00710000  0.00802000  0.26360000  1.0
  O  O83  1  0.50710000  0.49198000  0.73640000  1.0
  O  O84  1  0.97850000  0.46700000  0.62077000  1.0
  O  O85  1  0.47850000  0.03300000  0.37923000  1.0
  O  O86  1  0.02151000  0.53300000  0.37922000  1.0
  O  O87  1  0.52150000  0.96700000  0.62077000  1.0
