# generated using pymatgen
data_CdH16C23N8O5
_symmetry_space_group_name_H-M   'P 1'
_cell_length_a   9.07342000
_cell_length_b   9.60389000
_cell_length_c   14.69220000
_cell_angle_alpha   88.29260000
_cell_angle_beta   86.15370000
_cell_angle_gamma   64.52050000
_symmetry_Int_Tables_number   1
_chemical_formula_structural   CdH16C23N8O5
_chemical_formula_sum   'Cd2 H32 C46 N16 O10'
_cell_volume   1153.15531289
_cell_formula_units_Z   2
loop_
 _symmetry_equiv_pos_site_id
 _symmetry_equiv_pos_as_xyz
  1  'x, y, z'
loop_
 _atom_site_type_symbol
 _atom_site_label
 _atom_site_symmetry_multiplicity
 _atom_site_fract_x
 _atom_site_fract_y
 _atom_site_fract_z
 _atom_site_occupancy
  Cd  Cd0  1  0.95997000  0.05520000  0.87552000  1.0
  Cd  Cd1  1  0.04003000  0.94480000  0.12448000  1.0
  H  H2  1  0.96452000  0.35511000  0.77266000  1.0
  H  H3  1  0.03548000  0.64489000  0.22734000  1.0
  H  H4  1  0.08741000  0.43769000  0.63753000  1.0
  H  H5  1  0.91259000  0.56231000  0.36247000  1.0
  H  H6  1  0.28834000  0.96856000  0.53997000  1.0
  H  H7  1  0.71166000  0.03144000  0.46003000  1.0
  H  H8  1  0.16105000  0.90315000  0.68226000  1.0
  H  H9  1  0.83895000  0.09684000  0.31774000  1.0
  H  H10  1  0.20216000  0.68754000  0.45218000  1.0
  H  H11  1  0.79784000  0.31246000  0.54782000  1.0
  H  H12  1  0.27425000  0.89858000  0.38975000  1.0
  H  H13  1  0.72575000  0.10142000  0.61025000  1.0
  H  H14  1  0.66570000  0.59132000  0.23097000  1.0
  H  H15  1  0.33431000  0.40868000  0.76904000  1.0
  H  H16  1  0.61837000  0.36823000  0.28707000  1.0
  H  H17  1  0.38163000  0.63177000  0.71293000  1.0
  H  H18  1  0.53630000  0.09200000  0.26836000  1.0
  H  H19  1  0.46370000  0.90801000  0.73164000  1.0
  H  H20  1  0.46444000  0.29034000  0.23646000  1.0
  H  H21  1  0.53556000  0.70967000  0.76353000  1.0
  H  H22  1  0.38480000  0.95061000  0.21571000  1.0
  H  H23  1  0.61520000  0.04939000  0.78429000  1.0
  H  H24  1  0.93831000  0.33085000  0.16564000  1.0
  H  H25  1  0.06169000  0.66915000  0.83436000  1.0
  H  H26  1  0.41787000  0.93814000  0.03925000  1.0
  H  H27  1  0.58214000  0.06186000  0.96075000  1.0
  H  H28  1  0.88416000  0.54001000  0.03595000  1.0
  H  H29  1  0.11585000  0.45999000  0.96405000  1.0
  H  H30  1  0.50420000  0.54292000  0.87508000  1.0
  H  H31  1  0.49580000  0.45708000  0.12491000  1.0
  H  H32  1  0.82951000  0.77582000  0.09872000  1.0
  H  H33  1  0.17049000  0.22418000  0.90128000  1.0
  C  C34  1  0.03819000  0.27185000  0.72040000  1.0
  C  C35  1  0.96181000  0.72814000  0.27960000  1.0
  C  C36  1  0.10596000  0.31820000  0.64465000  1.0
  C  C37  1  0.89405000  0.68180000  0.35535000  1.0
  C  C38  1  0.19907000  0.20907000  0.57800000  1.0
  C  C39  1  0.80093000  0.79092000  0.42200000  1.0
  C  C40  1  0.21695000  0.05712000  0.59018000  1.0
  C  C41  1  0.78305000  0.94288000  0.40983000  1.0
  C  C42  1  0.14617000  0.02068000  0.66866000  1.0
  C  C43  1  0.85383000  0.97932000  0.33135000  1.0
  C  C44  1  0.27363000  0.25477000  0.49851000  1.0
  C  C45  1  0.72637000  0.74523000  0.50149000  1.0
  C  C46  1  0.35883000  0.38837000  0.41072000  1.0
  C  C47  1  0.64117000  0.61163000  0.58928000  1.0
  C  C48  1  0.40214000  0.51013000  0.37403000  1.0
  C  C49  1  0.59786000  0.48987000  0.62597000  1.0
  C  C50  1  0.30669000  0.66225000  0.40375000  1.0
  C  C51  1  0.69331000  0.33775000  0.59625000  1.0
  C  C52  1  0.34689000  0.77855000  0.36892000  1.0
  C  C53  1  0.65311000  0.22145000  0.63108000  1.0
  C  C54  1  0.56448000  0.60849000  0.28082000  1.0
  C  C55  1  0.43552000  0.39151000  0.71918000  1.0
  C  C56  1  0.53608000  0.48308000  0.31214000  1.0
  C  C57  1  0.46392000  0.51693000  0.68786000  1.0
  C  C58  1  0.43227000  0.20598000  0.27360000  1.0
  C  C59  1  0.56773000  0.79402000  0.72640000  1.0
  C  C60  1  0.28763000  0.06642000  0.20739000  1.0
  C  C61  1  0.71237000  0.93358000  0.79261000  1.0
  C  C62  1  0.06230000  0.26324000  0.18550000  1.0
  C  C63  1  0.93770000  0.73676000  0.81450000  1.0
  C  C64  1  0.81409000  0.36755000  0.91867000  1.0
  C  C65  1  0.18591000  0.63245000  0.08133000  1.0
  C  C66  1  0.27816000  0.83265000  0.91775000  1.0
  C  C67  1  0.72183000  0.16735000  0.08225000  1.0
  C  C68  1  0.44429000  0.74975000  0.95334000  1.0
  C  C69  1  0.55571000  0.25025000  0.04666000  1.0
  C  C70  1  0.49834000  0.82203000  0.01592000  1.0
  C  C71  1  0.50166000  0.17797000  0.98408000  1.0
  C  C72  1  0.65716000  0.74690000  0.04570000  1.0
  C  C73  1  0.34284000  0.25310000  0.95430000  1.0
  C  C74  1  0.76009000  0.59831000  0.01364000  1.0
  C  C75  1  0.23991000  0.40168000  0.98635000  1.0
  C  C76  1  0.70493000  0.52639000  0.95181000  1.0
  C  C77  1  0.29507000  0.47360000  0.04819000  1.0
  C  C78  1  0.54697000  0.60173000  0.92155000  1.0
  C  C79  1  0.45303000  0.39827000  0.07845000  1.0
  N  N80  1  0.05936000  0.12530000  0.73346000  1.0
  N  N81  1  0.94065000  0.87470000  0.26654000  1.0
  N  N82  1  0.28580000  0.39185000  0.49295000  1.0
  N  N83  1  0.71420000  0.60815000  0.50705000  1.0
  N  N84  1  0.33432000  0.16632000  0.42413000  1.0
  N  N85  1  0.66568000  0.83368000  0.57587000  1.0
  N  N86  1  0.38830000  0.25196000  0.36864000  1.0
  N  N87  1  0.61170000  0.74804000  0.63136000  1.0
  N  N88  1  0.47262000  0.75400000  0.30787000  1.0
  N  N89  1  0.52739000  0.24600000  0.69214000  1.0
  N  N90  1  0.29685000  0.19563000  0.23269000  1.0
  N  N91  1  0.70315000  0.80437000  0.76731000  1.0
  N  N92  1  0.15386000  0.32283000  0.21995000  1.0
  N  N93  1  0.84614000  0.67717000  0.78005000  1.0
  N  N94  1  0.13985000  0.10589000  0.17678000  1.0
  N  N95  1  0.86015000  0.89411000  0.82322000  1.0
  O  O96  1  0.96262000  0.30457000  0.94063000  1.0
  O  O97  1  0.03738000  0.69543000  0.05937000  1.0
  O  O98  1  0.75251000  0.29937000  0.87048000  1.0
  O  O99  1  0.24749000  0.70063000  0.12951000  1.0
  O  O100  1  0.24999000  0.79845000  0.84042000  1.0
  O  O101  1  0.75000000  0.20155000  0.15958000  1.0
  O  O102  1  0.16863000  0.94188000  0.96752000  1.0
  O  O103  1  0.83137000  0.05812000  0.03248000  1.0
  O  O104  1  0.70809000  0.82020000  0.10585000  1.0
  O  O105  1  0.29191000  0.17980000  0.89415000  1.0
