# generated using pymatgen
data_H9RhC13SN(O2F3)2
_symmetry_space_group_name_H-M   'P 1'
_cell_length_a   12.20890000
_cell_length_b   12.20780000
_cell_length_c   16.13647069
_cell_angle_alpha   68.31344577
_cell_angle_beta   68.30480559
_cell_angle_gamma   68.26900000
_symmetry_Int_Tables_number   1
_chemical_formula_structural   H9RhC13SN(O2F3)2
_chemical_formula_sum   'H36 Rh4 C52 S4 N4 O16 F24'
_cell_volume   1999.02668353
_cell_formula_units_Z   4
loop_
 _symmetry_equiv_pos_site_id
 _symmetry_equiv_pos_as_xyz
  1  'x, y, z'
loop_
 _atom_site_type_symbol
 _atom_site_label
 _atom_site_symmetry_multiplicity
 _atom_site_fract_x
 _atom_site_fract_y
 _atom_site_fract_z
 _atom_site_occupancy
  H  H0  1  0.51383000  0.69737000  0.76617000  1.0
  H  H1  1  0.30270000  0.48594000  0.73399000  1.0
  H  H2  1  0.48617000  0.30263000  0.23383000  1.0
  H  H3  1  0.69730000  0.51406000  0.26601000  1.0
  H  H4  1  0.62772000  0.68288000  0.66005000  1.0
  H  H5  1  0.31719000  0.37209000  0.84012000  1.0
  H  H6  1  0.37228000  0.31712000  0.33995000  1.0
  H  H7  1  0.68281000  0.62791000  0.15988000  1.0
  H  H8  1  0.64367000  0.56593000  0.76385000  1.0
  H  H9  1  0.43421000  0.35618000  0.73633000  1.0
  H  H10  1  0.35632000  0.43407000  0.23615000  1.0
  H  H11  1  0.56579000  0.64382000  0.26367000  1.0
  H  H12  1  0.72158000  0.54636000  0.40984000  1.0
  H  H13  1  0.45360000  0.27811000  0.09034000  1.0
  H  H14  1  0.27842000  0.45364000  0.59016000  1.0
  H  H15  1  0.54640000  0.72189000  0.90966000  1.0
  H  H16  1  0.71586000  0.39468000  0.47452000  1.0
  H  H17  1  0.60525000  0.28391000  0.02561000  1.0
  H  H18  1  0.28414000  0.60533000  0.52548000  1.0
  H  H19  1  0.39476000  0.71608000  0.97439000  1.0
  H  H20  1  0.81005000  0.46124000  0.49017000  1.0
  H  H21  1  0.53872000  0.18966000  0.00997000  1.0
  H  H22  1  0.18995000  0.53876000  0.50983000  1.0
  H  H23  1  0.46128000  0.81035000  0.99002000  1.0
  H  H24  1  0.41410000  0.77080000  0.44350000  1.0
  H  H25  1  0.22916000  0.58576000  0.05670000  1.0
  H  H26  1  0.58590000  0.22920000  0.55650000  1.0
  H  H27  1  0.77084000  0.41424000  0.94330000  1.0
  H  H28  1  0.52903000  0.65292000  0.39511000  1.0
  H  H29  1  0.34703000  0.47088000  0.10509000  1.0
  H  H30  1  0.47097000  0.34708000  0.60489000  1.0
  H  H31  1  0.65297000  0.52912000  0.89492000  1.0
  H  H32  1  0.56994000  0.77090000  0.40656000  1.0
  H  H33  1  0.22906000  0.42992000  0.09372000  1.0
  H  H34  1  0.43006000  0.22910000  0.59344000  1.0
  H  H35  1  0.77094000  0.57009000  0.90628000  1.0
  Rh  Rh36  1  0.94371000  0.07791000  0.54286000  1.0
  Rh  Rh37  1  0.92203000  0.05627000  0.95722000  1.0
  Rh  Rh38  1  0.05629000  0.92209000  0.45714000  1.0
  Rh  Rh39  1  0.07797000  0.94372000  0.04278000  1.0
  C  C40  1  0.50880000  0.56517000  0.70629000  1.0
  C  C41  1  0.43478000  0.49109000  0.79392000  1.0
  C  C42  1  0.49120000  0.43483000  0.29371000  1.0
  C  C43  1  0.56522000  0.50891000  0.20608000  1.0
  C  C44  1  0.60461000  0.47915000  0.64965000  1.0
  C  C45  1  0.52077000  0.39526000  0.85053000  1.0
  C  C46  1  0.39539000  0.52086000  0.35035000  1.0
  C  C47  1  0.47923000  0.60475000  0.14947000  1.0
  C  C48  1  0.61769000  0.53075000  0.55236000  1.0
  C  C49  1  0.46916000  0.38209000  0.94784000  1.0
  C  C50  1  0.38230000  0.46925000  0.44764000  1.0
  C  C51  1  0.53084000  0.61791000  0.05216000  1.0
  C  C52  1  0.52372000  0.63477000  0.53325000  1.0
  C  C53  1  0.36516000  0.47606000  0.96698000  1.0
  C  C54  1  0.47628000  0.36524000  0.46674000  1.0
  C  C55  1  0.63484000  0.52395000  0.03302000  1.0
  C  C56  1  0.66686000  0.36842000  0.69875000  1.0
  C  C57  1  0.63151000  0.33305000  0.80140000  1.0
  C  C58  1  0.33313000  0.63158000  0.30126000  1.0
  C  C59  1  0.36849000  0.66695000  0.19860000  1.0
  C  C60  1  0.76158000  0.28373000  0.65369000  1.0
  C  C61  1  0.71619000  0.23833000  0.84645000  1.0
  C  C62  1  0.23842000  0.71627000  0.34631000  1.0
  C  C63  1  0.28380000  0.76167000  0.15356000  1.0
  C  C64  1  0.57739000  0.63278000  0.72592000  1.0
  C  C65  1  0.36727000  0.42246000  0.77425000  1.0
  C  C66  1  0.42261000  0.36722000  0.27408000  1.0
  C  C67  1  0.63272000  0.57754000  0.22575000  1.0
  C  C68  1  0.72104000  0.48074000  0.47810000  1.0
  C  C69  1  0.51918000  0.27870000  0.02206000  1.0
  C  C70  1  0.27896000  0.51927000  0.52190000  1.0
  C  C71  1  0.48082000  0.72130000  0.97794000  1.0
  C  C72  1  0.50766000  0.71137000  0.43986000  1.0
  C  C73  1  0.28857000  0.49218000  0.06037000  1.0
  C  C74  1  0.49233000  0.28863000  0.56014000  1.0
  C  C75  1  0.71143000  0.50781000  0.93964000  1.0
  C  C76  1  0.20327000  0.03983000  0.48013000  1.0
  C  C77  1  0.96006000  0.79681000  0.01979000  1.0
  C  C78  1  0.79673000  0.96019000  0.51986000  1.0
  C  C79  1  0.03995000  0.20318000  0.98021000  1.0
  C  C80  1  0.32651000  0.06410000  0.46358000  1.0
  C  C81  1  0.93590000  0.67351000  0.03639000  1.0
  C  C82  1  0.67349000  0.93590000  0.53642000  1.0
  C  C83  1  0.06410000  0.32649000  0.96361000  1.0
  C  C84  1  0.98484000  0.16771000  0.34613000  1.0
  C  C85  1  0.83253000  0.01502000  0.15406000  1.0
  C  C86  1  0.01517000  0.83230000  0.65387000  1.0
  C  C87  1  0.16747000  0.98497000  0.84595000  1.0
  C  C88  1  0.98232000  0.26679000  0.25255000  1.0
  C  C89  1  0.73340000  0.01762000  0.24763000  1.0
  C  C90  1  0.01768000  0.73321000  0.74745000  1.0
  C  C91  1  0.26660000  0.98238000  0.75237000  1.0
  S  S92  1  0.41575000  0.67897000  0.62886000  1.0
  S  S93  1  0.32099000  0.58410000  0.87140000  1.0
  S  S94  1  0.58425000  0.32103000  0.37114000  1.0
  S  S95  1  0.67901000  0.41590000  0.12860000  1.0
  N  N96  1  0.83898000  0.21126000  0.61769000  1.0
  N  N97  1  0.78862000  0.16098000  0.88251000  1.0
  N  N98  1  0.16102000  0.78875000  0.38231000  1.0
  N  N99  1  0.21137000  0.83902000  0.11749000  1.0
  O  O100  1  0.10835000  0.10429000  0.52438000  1.0
  O  O101  1  0.89552000  0.89172000  0.97559000  1.0
  O  O102  1  0.89166000  0.89570000  0.47563000  1.0
  O  O103  1  0.10448000  0.10828000  0.02440000  1.0
  O  O104  1  0.78597000  0.04373000  0.55369000  1.0
  O  O105  1  0.95638000  0.21389000  0.94644000  1.0
  O  O106  1  0.21403000  0.95627000  0.44631000  1.0
  O  O107  1  0.04361000  0.78610000  0.05357000  1.0
  O  O108  1  0.93356000  0.20590000  0.41825000  1.0
  O  O109  1  0.79429000  0.06621000  0.08196000  1.0
  O  O110  1  0.06644000  0.79411000  0.58175000  1.0
  O  O111  1  0.20571000  0.93379000  0.91804000  1.0
  O  O112  1  0.95994000  0.94009000  0.66166000  1.0
  O  O113  1  0.05966000  0.04017000  0.83823000  1.0
  O  O114  1  0.04006000  0.05991000  0.33834000  1.0
  O  O115  1  0.94034000  0.95984000  0.16177000  1.0
  F  F116  1  0.38626000  0.08683000  0.37172000  1.0
  F  F117  1  0.91325000  0.61385000  0.12826000  1.0
  F  F118  1  0.61374000  0.91318000  0.62828000  1.0
  F  F119  1  0.08676000  0.38613000  0.87174000  1.0
  F  F120  1  0.31129000  0.16087000  0.49263000  1.0
  F  F121  1  0.83915000  0.68852000  0.00741000  1.0
  F  F122  1  0.68871000  0.83914000  0.50736000  1.0
  F  F123  1  0.16085000  0.31148000  0.99259000  1.0
  F  F124  1  0.39938000  0.96373000  0.50925000  1.0
  F  F125  1  0.03631000  0.60064000  0.99073000  1.0
  F  F126  1  0.60062000  0.03627000  0.49075000  1.0
  F  F127  1  0.96370000  0.39935000  0.00927000  1.0
  F  F128  1  0.91049000  0.37781000  0.26438000  1.0
  F  F129  1  0.62244000  0.08955000  0.23573000  1.0
  F  F130  1  0.08951000  0.62219000  0.73562000  1.0
  F  F131  1  0.37756000  0.91044000  0.76427000  1.0
  F  F132  1  0.94027000  0.23549000  0.19984000  1.0
  F  F133  1  0.76465000  0.05967000  0.30037000  1.0
  F  F134  1  0.05974000  0.76450000  0.80016000  1.0
  F  F135  1  0.23534000  0.94033000  0.69963000  1.0
  F  F136  1  0.09784000  0.27784000  0.20462000  1.0
  F  F137  1  0.72218000  0.90216000  0.29557000  1.0
  F  F138  1  0.90216000  0.72216000  0.79538000  1.0
  F  F139  1  0.27782000  0.09783000  0.70443000  1.0
