# generated using pymatgen
data_CoH15C18(NO2)2
_symmetry_space_group_name_H-M   'P 1'
_cell_length_a   11.01080000
_cell_length_b   19.36740000
_cell_length_c   21.62950000
_cell_angle_alpha   87.45200000
_cell_angle_beta   89.99920000
_cell_angle_gamma   89.98440000
_symmetry_Int_Tables_number   1
_chemical_formula_structural   CoH15C18(NO2)2
_chemical_formula_sum   'Co8 H120 C144 N16 O32'
_cell_volume   4607.94273764
_cell_formula_units_Z   8
loop_
 _symmetry_equiv_pos_site_id
 _symmetry_equiv_pos_as_xyz
  1  'x, y, z'
loop_
 _atom_site_type_symbol
 _atom_site_label
 _atom_site_symmetry_multiplicity
 _atom_site_fract_x
 _atom_site_fract_y
 _atom_site_fract_z
 _atom_site_occupancy
  Co  Co0  1  0.42741000  0.18996000  0.25207000  1.0
  Co  Co1  1  0.42736000  0.30992000  0.24792000  1.0
  Co  Co2  1  0.57260000  0.81004000  0.74793000  1.0
  Co  Co3  1  0.57264000  0.69008000  0.75208000  1.0
  Co  Co4  1  0.26591000  0.30896000  0.74900000  1.0
  Co  Co5  1  0.26595000  0.19087000  0.75098000  1.0
  Co  Co6  1  0.73408000  0.69103000  0.25099000  1.0
  Co  Co7  1  0.73403000  0.80912000  0.24901000  1.0
  H  H8  1  0.40635000  0.91498000  0.46799000  1.0
  H  H9  1  0.40635000  0.58491000  0.03212000  1.0
  H  H10  1  0.59366000  0.08502000  0.53202000  1.0
  H  H11  1  0.59364000  0.41510000  0.96790000  1.0
  H  H12  1  0.25318000  0.58528000  0.53857000  1.0
  H  H13  1  0.25311000  0.91465000  0.96149000  1.0
  H  H14  1  0.74684000  0.41472000  0.46142000  1.0
  H  H15  1  0.74686000  0.08535000  0.03852000  1.0
  H  H16  1  0.36847000  0.35489000  0.05976000  1.0
  H  H17  1  0.36828000  0.14499000  0.44015000  1.0
  H  H18  1  0.63151000  0.64510000  0.94022000  1.0
  H  H19  1  0.63177000  0.85501000  0.55984000  1.0
  H  H20  1  0.30908000  0.36373000  0.94732000  1.0
  H  H21  1  0.30892000  0.13613000  0.55260000  1.0
  H  H22  1  0.69092000  0.63626000  0.05266000  1.0
  H  H23  1  0.69110000  0.86387000  0.44739000  1.0
  H  H24  1  0.31623000  0.14249000  0.94196000  1.0
  H  H25  1  0.31634000  0.35736000  0.55807000  1.0
  H  H26  1  0.68379000  0.85749000  0.05804000  1.0
  H  H27  1  0.68363000  0.64263000  0.44193000  1.0
  H  H28  1  0.37747000  0.13389000  0.05425000  1.0
  H  H29  1  0.37758000  0.36600000  0.44577000  1.0
  H  H30  1  0.62254000  0.86611000  0.94575000  1.0
  H  H31  1  0.62242000  0.63400000  0.55423000  1.0
  H  H32  1  0.04080000  0.14330000  0.28134000  1.0
  H  H33  1  0.04069000  0.35664000  0.21868000  1.0
  H  H34  1  0.95922000  0.85671000  0.71868000  1.0
  H  H35  1  0.95932000  0.64336000  0.78132000  1.0
  H  H36  1  0.81279000  0.14330000  0.28157000  1.0
  H  H37  1  0.81266000  0.35664000  0.21846000  1.0
  H  H38  1  0.18722000  0.85670000  0.71843000  1.0
  H  H39  1  0.18736000  0.64336000  0.78154000  1.0
  H  H40  1  0.65323000  0.35961000  0.73075000  1.0
  H  H41  1  0.65339000  0.14013000  0.76915000  1.0
  H  H42  1  0.34677000  0.64038000  0.26925000  1.0
  H  H43  1  0.34659000  0.85987000  0.23086000  1.0
  H  H44  1  0.88131000  0.35964000  0.73102000  1.0
  H  H45  1  0.88151000  0.14016000  0.76893000  1.0
  H  H46  1  0.11868000  0.64035000  0.26898000  1.0
  H  H47  1  0.11847000  0.85984000  0.23107000  1.0
  H  H48  1  0.60104000  0.06143000  0.26369000  1.0
  H  H49  1  0.60099000  0.43840000  0.23643000  1.0
  H  H50  1  0.39895000  0.93856000  0.73630000  1.0
  H  H51  1  0.39901000  0.56160000  0.76356000  1.0
  H  H52  1  0.60348000  0.94359000  0.31742000  1.0
  H  H53  1  0.60342000  0.55629000  0.18277000  1.0
  H  H54  1  0.39650000  0.05641000  0.68257000  1.0
  H  H55  1  0.39658000  0.44372000  0.81722000  1.0
  H  H56  1  0.23377000  0.97948000  0.37300000  1.0
  H  H57  1  0.23382000  0.52048000  0.12703000  1.0
  H  H58  1  0.76624000  0.02054000  0.62702000  1.0
  H  H59  1  0.76616000  0.47955000  0.87301000  1.0
  H  H60  1  0.24632000  0.09537000  0.31600000  1.0
  H  H61  1  0.24635000  0.40456000  0.18398000  1.0
  H  H62  1  0.75369000  0.90464000  0.68402000  1.0
  H  H63  1  0.75363000  0.59547000  0.81604000  1.0
  H  H64  1  0.35085000  0.84982000  0.35075000  1.0
  H  H65  1  0.35089000  0.65015000  0.14934000  1.0
  H  H66  1  0.64913000  0.15020000  0.64926000  1.0
  H  H67  1  0.64911000  0.34988000  0.85067000  1.0
  H  H68  1  0.50398000  0.85538000  0.37463000  1.0
  H  H69  1  0.50402000  0.64452000  0.12548000  1.0
  H  H70  1  0.49599000  0.14462000  0.62538000  1.0
  H  H71  1  0.49598000  0.35550000  0.87454000  1.0
  H  H72  1  0.27965000  0.74757000  0.61553000  1.0
  H  H73  1  0.27954000  0.75233000  0.88452000  1.0
  H  H74  1  0.72040000  0.25242000  0.38447000  1.0
  H  H75  1  0.72045000  0.24767000  0.11549000  1.0
  H  H76  1  0.37567000  0.75353000  0.39235000  1.0
  H  H77  1  0.37575000  0.74643000  0.10768000  1.0
  H  H78  1  0.62429000  0.24648000  0.60765000  1.0
  H  H79  1  0.62425000  0.25360000  0.89232000  1.0
  H  H80  1  0.41368000  0.90221000  0.57176000  1.0
  H  H81  1  0.41364000  0.59766000  0.92832000  1.0
  H  H82  1  0.58637000  0.09778000  0.42825000  1.0
  H  H83  1  0.58634000  0.40233000  0.07169000  1.0
  H  H84  1  0.30151000  0.86565000  0.62109000  1.0
  H  H85  1  0.30137000  0.63421000  0.87902000  1.0
  H  H86  1  0.69855000  0.13434000  0.37892000  1.0
  H  H87  1  0.69861000  0.36578000  0.12100000  1.0
  H  H88  1  0.25792000  0.91552000  0.55333000  1.0
  H  H89  1  0.25791000  0.58441000  0.94682000  1.0
  H  H90  1  0.74212000  0.08448000  0.44669000  1.0
  H  H91  1  0.74209000  0.41559000  0.05321000  1.0
  H  H92  1  0.41052000  0.58834000  0.45801000  1.0
  H  H93  1  0.41049000  0.91159000  0.04202000  1.0
  H  H94  1  0.58947000  0.41167000  0.54198000  1.0
  H  H95  1  0.58948000  0.08843000  0.95797000  1.0
  H  H96  1  0.36910000  0.63511000  0.38846000  1.0
  H  H97  1  0.36915000  0.86481000  0.11156000  1.0
  H  H98  1  0.63088000  0.36490000  0.61152000  1.0
  H  H99  1  0.63083000  0.13522000  0.88845000  1.0
  H  H100  1  0.25580000  0.59469000  0.43548000  1.0
  H  H101  1  0.25580000  0.90526000  0.06459000  1.0
  H  H102  1  0.74419000  0.40532000  0.56451000  1.0
  H  H103  1  0.74417000  0.09475000  0.93541000  1.0
  H  H104  1  0.14522000  0.63871000  0.63117000  1.0
  H  H105  1  0.14495000  0.86129000  0.86894000  1.0
  H  H106  1  0.85484000  0.36128000  0.36884000  1.0
  H  H107  1  0.85500000  0.13870000  0.13107000  1.0
  H  H108  1  0.29585000  0.65120000  0.65696000  1.0
  H  H109  1  0.29553000  0.84866000  0.84310000  1.0
  H  H110  1  0.70422000  0.34878000  0.34303000  1.0
  H  H111  1  0.70442000  0.15134000  0.15691000  1.0
  H  H112  1  0.07777000  0.55457000  0.70903000  1.0
  H  H113  1  0.07759000  0.94545000  0.79105000  1.0
  H  H114  1  0.92227000  0.44544000  0.29096000  1.0
  H  H115  1  0.92235000  0.05455000  0.20896000  1.0
  H  H116  1  0.10169000  0.43683000  0.76116000  1.0
  H  H117  1  0.10164000  0.06315000  0.73886000  1.0
  H  H118  1  0.89832000  0.56318000  0.23883000  1.0
  H  H119  1  0.89832000  0.93685000  0.26113000  1.0
  H  H120  1  0.42345000  0.40262000  0.66944000  1.0
  H  H121  1  0.42359000  0.09712000  0.83045000  1.0
  H  H122  1  0.57654000  0.59736000  0.33055000  1.0
  H  H123  1  0.57640000  0.90285000  0.16951000  1.0
  H  H124  1  0.41503000  0.51969000  0.61396000  1.0
  H  H125  1  0.41501000  0.98009000  0.88599000  1.0
  H  H126  1  0.58500000  0.48028000  0.38603000  1.0
  H  H127  1  0.58497000  0.01990000  0.11398000  1.0
  C  C128  1  0.41043000  0.24073000  0.12987000  1.0
  C  C129  1  0.41044000  0.25916000  0.37011000  1.0
  C  C130  1  0.58956000  0.75927000  0.87013000  1.0
  C  C131  1  0.58959000  0.74084000  0.62989000  1.0
  C  C132  1  0.37700000  0.24403000  0.06304000  1.0
  C  C133  1  0.37698000  0.25585000  0.43694000  1.0
  C  C134  1  0.62300000  0.75596000  0.93695000  1.0
  C  C135  1  0.62304000  0.74415000  0.56306000  1.0
  C  C136  1  0.35708000  0.30887000  0.03319000  1.0
  C  C137  1  0.35701000  0.19100000  0.46677000  1.0
  C  C138  1  0.64291000  0.69112000  0.96680000  1.0
  C  C139  1  0.64303000  0.80900000  0.53323000  1.0
  C  C140  1  0.32395000  0.31370000  0.97120000  1.0
  C  C141  1  0.32388000  0.18616000  0.52876000  1.0
  C  C142  1  0.67605000  0.68629000  0.02878000  1.0
  C  C143  1  0.67613000  0.81383000  0.47124000  1.0
  C  C144  1  0.30976000  0.25351000  0.93831000  1.0
  C  C145  1  0.30979000  0.24635000  0.56167000  1.0
  C  C146  1  0.69024000  0.74648000  0.06168000  1.0
  C  C147  1  0.69020000  0.75364000  0.43832000  1.0
  C  C148  1  0.32804000  0.18861000  0.96839000  1.0
  C  C149  1  0.32813000  0.31125000  0.53162000  1.0
  C  C150  1  0.67196000  0.81138000  0.03160000  1.0
  C  C151  1  0.67185000  0.68874000  0.46838000  1.0
  C  C152  1  0.36186000  0.18383000  0.03035000  1.0
  C  C153  1  0.36194000  0.31605000  0.46965000  1.0
  C  C154  1  0.63814000  0.81616000  0.96964000  1.0
  C  C155  1  0.63806000  0.68395000  0.53034000  1.0
  C  C156  1  0.28120000  0.25752000  0.87093000  1.0
  C  C157  1  0.28114000  0.24233000  0.62904000  1.0
  C  C158  1  0.71882000  0.74246000  0.12905000  1.0
  C  C159  1  0.71882000  0.75766000  0.37095000  1.0
  C  C160  1  0.18902000  0.24996000  0.25000000  1.0
  C  C161  1  0.81100000  0.75004000  0.75001000  1.0
  C  C162  1  0.05368000  0.24996000  0.25001000  1.0
  C  C163  1  0.94634000  0.75005000  0.75001000  1.0
  C  C164  1  0.98974000  0.18969000  0.26762000  1.0
  C  C165  1  0.98968000  0.31025000  0.23241000  1.0
  C  C166  1  0.01028000  0.81032000  0.73239000  1.0
  C  C167  1  0.01034000  0.68976000  0.76760000  1.0
  C  C168  1  0.86356000  0.18971000  0.26774000  1.0
  C  C169  1  0.86349000  0.31023000  0.23229000  1.0
  C  C170  1  0.13646000  0.81030000  0.73227000  1.0
  C  C171  1  0.13654000  0.68977000  0.76770000  1.0
  C  C172  1  0.79958000  0.24997000  0.25001000  1.0
  C  C173  1  0.20044000  0.75004000  0.74998000  1.0
  C  C174  1  0.66446000  0.24995000  0.25001000  1.0
  C  C175  1  0.33556000  0.75005000  0.74998000  1.0
  C  C176  1  0.50489000  0.24990000  0.74996000  1.0
  C  C177  1  0.49509000  0.75010000  0.25003000  1.0
  C  C178  1  0.64018000  0.24988000  0.74995000  1.0
  C  C179  1  0.35980000  0.75012000  0.25005000  1.0
  C  C180  1  0.70419000  0.31187000  0.73911000  1.0
  C  C181  1  0.70427000  0.18789000  0.76080000  1.0
  C  C182  1  0.29580000  0.68813000  0.26090000  1.0
  C  C183  1  0.29571000  0.81210000  0.23921000  1.0
  C  C184  1  0.83041000  0.31190000  0.73931000  1.0
  C  C185  1  0.83051000  0.18788000  0.76064000  1.0
  C  C186  1  0.16958000  0.68809000  0.26070000  1.0
  C  C187  1  0.16948000  0.81212000  0.23937000  1.0
  C  C188  1  0.89435000  0.24990000  0.74999000  1.0
  C  C189  1  0.10564000  0.75009000  0.25002000  1.0
  C  C190  1  0.02960000  0.24992000  0.74999000  1.0
  C  C191  1  0.97040000  0.75007000  0.25001000  1.0
  C  C192  1  0.52101000  0.04084000  0.28776000  1.0
  C  C193  1  0.52099000  0.45903000  0.21233000  1.0
  C  C194  1  0.47899000  0.95916000  0.71223000  1.0
  C  C195  1  0.47901000  0.54097000  0.78767000  1.0
  C  C196  1  0.52242000  0.97585000  0.31820000  1.0
  C  C197  1  0.52238000  0.52405000  0.18194000  1.0
  C  C198  1  0.47757000  0.02414000  0.68179000  1.0
  C  C199  1  0.47762000  0.47596000  0.81806000  1.0
  C  C200  1  0.41815000  0.95180000  0.34901000  1.0
  C  C201  1  0.41815000  0.54813000  0.15109000  1.0
  C  C202  1  0.58185000  0.04821000  0.65100000  1.0
  C  C203  1  0.58185000  0.45188000  0.84893000  1.0
  C  C204  1  0.31672000  0.99558000  0.34885000  1.0
  C  C205  1  0.31675000  0.50436000  0.15120000  1.0
  C  C206  1  0.68329000  0.00443000  0.65116000  1.0
  C  C207  1  0.68323000  0.49566000  0.84883000  1.0
  C  C208  1  0.32281000  0.05960000  0.31738000  1.0
  C  C209  1  0.32283000  0.44033000  0.18265000  1.0
  C  C210  1  0.67720000  0.94041000  0.68263000  1.0
  C  C211  1  0.67716000  0.55969000  0.81737000  1.0
  C  C212  1  0.41398000  0.88010000  0.37841000  1.0
  C  C213  1  0.41402000  0.61984000  0.12168000  1.0
  C  C214  1  0.58601000  0.11991000  0.62159000  1.0
  C  C215  1  0.58598000  0.38018000  0.87833000  1.0
  C  C216  1  0.34905000  0.81501000  0.47251000  1.0
  C  C217  1  0.34911000  0.68493000  0.02755000  1.0
  C  C218  1  0.65094000  0.18500000  0.52750000  1.0
  C  C219  1  0.65089000  0.31508000  0.97246000  1.0
  C  C220  1  0.32379000  0.81241000  0.53659000  1.0
  C  C221  1  0.32378000  0.68752000  0.96347000  1.0
  C  C222  1  0.67624000  0.18759000  0.46341000  1.0
  C  C223  1  0.67622000  0.31249000  0.03654000  1.0
  C  C224  1  0.30036000  0.74837000  0.56627000  1.0
  C  C225  1  0.30029000  0.75155000  0.93379000  1.0
  C  C226  1  0.69966000  0.25163000  0.43374000  1.0
  C  C227  1  0.69971000  0.24845000  0.06622000  1.0
  C  C228  1  0.30418000  0.68631000  0.53509000  1.0
  C  C229  1  0.30412000  0.81361000  0.96495000  1.0
  C  C230  1  0.69583000  0.31369000  0.46491000  1.0
  C  C231  1  0.69586000  0.18639000  0.03506000  1.0
  C  C232  1  0.33159000  0.68885000  0.47128000  1.0
  C  C233  1  0.33160000  0.81109000  0.02875000  1.0
  C  C234  1  0.66841000  0.31115000  0.52872000  1.0
  C  C235  1  0.66838000  0.18892000  0.97126000  1.0
  C  C236  1  0.35297000  0.75292000  0.44138000  1.0
  C  C237  1  0.35303000  0.74703000  0.05866000  1.0
  C  C238  1  0.64701000  0.24709000  0.55862000  1.0
  C  C239  1  0.64697000  0.25299000  0.94135000  1.0
  C  C240  1  0.32357000  0.87720000  0.57229000  1.0
  C  C241  1  0.32351000  0.62270000  0.92782000  1.0
  C  C242  1  0.67647000  0.12280000  0.42772000  1.0
  C  C243  1  0.67647000  0.37729000  0.07221000  1.0
  C  C244  1  0.34219000  0.62355000  0.43664000  1.0
  C  C245  1  0.34220000  0.87638000  0.06339000  1.0
  C  C246  1  0.65780000  0.37646000  0.56335000  1.0
  C  C247  1  0.65778000  0.12364000  0.93661000  1.0
  C  C248  1  0.23909000  0.61844000  0.62814000  1.0
  C  C249  1  0.23886000  0.88149000  0.87192000  1.0
  C  C250  1  0.76098000  0.38155000  0.37186000  1.0
  C  C251  1  0.76110000  0.11850000  0.12808000  1.0
  C  C252  1  0.24548000  0.54672000  0.65729000  1.0
  C  C253  1  0.24537000  0.95319000  0.84272000  1.0
  C  C254  1  0.75456000  0.45327000  0.34270000  1.0
  C  C255  1  0.75459000  0.04680000  0.15727000  1.0
  C  C256  1  0.15673000  0.52277000  0.69935000  1.0
  C  C257  1  0.15661000  0.97719000  0.80068000  1.0
  C  C258  1  0.84330000  0.47723000  0.30064000  1.0
  C  C259  1  0.84334000  0.02281000  0.19931000  1.0
  C  C260  1  0.16946000  0.45772000  0.72861000  1.0
  C  C261  1  0.16941000  0.04221000  0.77140000  1.0
  C  C262  1  0.83056000  0.54228000  0.27139000  1.0
  C  C263  1  0.83056000  0.95778000  0.22859000  1.0
  C  C264  1  0.34898000  0.43844000  0.67673000  1.0
  C  C265  1  0.34903000  0.06136000  0.82320000  1.0
  C  C266  1  0.65103000  0.56154000  0.32327000  1.0
  C  C267  1  0.65095000  0.93862000  0.17677000  1.0
  C  C268  1  0.34337000  0.50285000  0.64596000  1.0
  C  C269  1  0.34335000  0.99698000  0.85400000  1.0
  C  C270  1  0.65665000  0.49713000  0.35403000  1.0
  C  C271  1  0.65661000  0.00301000  0.14598000  1.0
  N  N272  1  0.42279000  0.08195000  0.28659000  1.0
  N  N273  1  0.42279000  0.41793000  0.21345000  1.0
  N  N274  1  0.57722000  0.91805000  0.71341000  1.0
  N  N275  1  0.57720000  0.58208000  0.78656000  1.0
  N  N276  1  0.36758000  0.87910000  0.44130000  1.0
  N  N277  1  0.36764000  0.62085000  0.05879000  1.0
  N  N278  1  0.63241000  0.12091000  0.55871000  1.0
  N  N279  1  0.63236000  0.37917000  0.94122000  1.0
  N  N280  1  0.28759000  0.62187000  0.56595000  1.0
  N  N281  1  0.28746000  0.87806000  0.93409000  1.0
  N  N282  1  0.71245000  0.37813000  0.43404000  1.0
  N  N283  1  0.71252000  0.12195000  0.06591000  1.0
  N  N284  1  0.26400000  0.41615000  0.71764000  1.0
  N  N285  1  0.26404000  0.08370000  0.78231000  1.0
  N  N286  1  0.73600000  0.58384000  0.28235000  1.0
  N  N287  1  0.73594000  0.91628000  0.21766000  1.0
  O  O288  1  0.41841000  0.18208000  0.15929000  1.0
  O  O289  1  0.41839000  0.31782000  0.34070000  1.0
  O  O290  1  0.58157000  0.81793000  0.84071000  1.0
  O  O291  1  0.58164000  0.68218000  0.65930000  1.0
  O  O292  1  0.42578000  0.29844000  0.15493000  1.0
  O  O293  1  0.42584000  0.20145000  0.34506000  1.0
  O  O294  1  0.57420000  0.70156000  0.84506000  1.0
  O  O295  1  0.57421000  0.79855000  0.65494000  1.0
  O  O296  1  0.26121000  0.20078000  0.84515000  1.0
  O  O297  1  0.26105000  0.29906000  0.65483000  1.0
  O  O298  1  0.73881000  0.79919000  0.15484000  1.0
  O  O299  1  0.73890000  0.70093000  0.34516000  1.0
  O  O300  1  0.28227000  0.31657000  0.84161000  1.0
  O  O301  1  0.28224000  0.18326000  0.65835000  1.0
  O  O302  1  0.71776000  0.68340000  0.15838000  1.0
  O  O303  1  0.71773000  0.81673000  0.34164000  1.0
  O  O304  1  0.24327000  0.19176000  0.25380000  1.0
  O  O305  1  0.24323000  0.30815000  0.24620000  1.0
  O  O306  1  0.75674000  0.80824000  0.74621000  1.0
  O  O307  1  0.75679000  0.69185000  0.75382000  1.0
  O  O308  1  0.61023000  0.19162000  0.25061000  1.0
  O  O309  1  0.61017000  0.30828000  0.24940000  1.0
  O  O310  1  0.38978000  0.80838000  0.74938000  1.0
  O  O311  1  0.38984000  0.69172000  0.75059000  1.0
  O  O312  1  0.45033000  0.30798000  0.74381000  1.0
  O  O313  1  0.45039000  0.19181000  0.75613000  1.0
  O  O314  1  0.54965000  0.69201000  0.25618000  1.0
  O  O315  1  0.54960000  0.80819000  0.24386000  1.0
  O  O316  1  0.08406000  0.30783000  0.75331000  1.0
  O  O317  1  0.08413000  0.19202000  0.74668000  1.0
  O  O318  1  0.91594000  0.69216000  0.24669000  1.0
  O  O319  1  0.91585000  0.80797000  0.25332000  1.0
