# generated using pymatgen
data_Cd2H18RuC36(NO2)6
_symmetry_space_group_name_H-M   'P 1'
_cell_length_a   12.67160000
_cell_length_b   12.67260000
_cell_length_c   22.82941197
_cell_angle_alpha   99.96762838
_cell_angle_beta   104.25159360
_cell_angle_gamma   104.15800000
_symmetry_Int_Tables_number   1
_chemical_formula_structural   Cd2H18RuC36(NO2)6
_chemical_formula_sum   'Cd4 H36 Ru2 C72 N12 O24'
_cell_volume   3337.38814012
_cell_formula_units_Z   2
loop_
 _symmetry_equiv_pos_site_id
 _symmetry_equiv_pos_as_xyz
  1  'x, y, z'
loop_
 _atom_site_type_symbol
 _atom_site_label
 _atom_site_symmetry_multiplicity
 _atom_site_fract_x
 _atom_site_fract_y
 _atom_site_fract_z
 _atom_site_occupancy
  Cd  Cd0  1  0.59680000  0.01473000  0.45598000  1.0
  Cd  Cd1  1  0.55871000  0.64073000  0.04398000  1.0
  Cd  Cd2  1  0.40323000  0.98526000  0.54401000  1.0
  Cd  Cd3  1  0.44131000  0.35928000  0.95603000  1.0
  H  H4  1  0.15496000  0.65390000  0.72688000  1.0
  H  H5  1  0.92682000  0.92797000  0.77299000  1.0
  H  H6  1  0.84505000  0.34611000  0.27312000  1.0
  H  H7  1  0.07318000  0.07202000  0.22700000  1.0
  H  H8  1  0.27949000  0.73645000  0.66536000  1.0
  H  H9  1  0.07093000  0.11403000  0.83449000  1.0
  H  H10  1  0.72051000  0.26355000  0.33463000  1.0
  H  H11  1  0.92907000  0.88597000  0.16551000  1.0
  H  H12  1  0.02286000  0.88084000  0.58676000  1.0
  H  H13  1  0.29403000  0.93608000  0.91302000  1.0
  H  H14  1  0.97712000  0.11915000  0.41323000  1.0
  H  H15  1  0.70597000  0.06392000  0.08698000  1.0
  H  H16  1  0.84718000  0.87626000  0.57541000  1.0
  H  H17  1  0.30088000  0.77177000  0.92440000  1.0
  H  H18  1  0.15281000  0.12373000  0.42459000  1.0
  H  H19  1  0.69911000  0.22823000  0.07560000  1.0
  H  H20  1  0.57798000  0.80985000  0.65897000  1.0
  H  H21  1  0.15081000  0.41901000  0.84096000  1.0
  H  H22  1  0.42202000  0.19014000  0.34103000  1.0
  H  H23  1  0.84918000  0.58098000  0.15905000  1.0
  H  H24  1  0.68910000  0.71172000  0.72704000  1.0
  H  H25  1  0.98471000  0.46202000  0.77286000  1.0
  H  H26  1  0.31091000  0.28828000  0.27296000  1.0
  H  H27  1  0.01528000  0.53797000  0.22714000  1.0
  H  H28  1  0.90863000  0.51764000  0.62720000  1.0
  H  H29  1  0.89041000  0.78132000  0.87265000  1.0
  H  H30  1  0.09137000  0.48237000  0.37280000  1.0
  H  H31  1  0.10959000  0.21869000  0.12735000  1.0
  H  H32  1  0.77391000  0.32852000  0.56226000  1.0
  H  H33  1  0.76629000  0.71164000  0.93761000  1.0
  H  H34  1  0.22608000  0.67149000  0.43773000  1.0
  H  H35  1  0.23371000  0.28836000  0.06238000  1.0
  H  H36  1  0.60176000  0.32096000  0.70174000  1.0
  H  H37  1  0.61940000  0.39987000  0.79825000  1.0
  H  H38  1  0.39824000  0.67904000  0.29826000  1.0
  H  H39  1  0.38060000  0.60013000  0.20175000  1.0
  Ru  Ru40  1  0.92936000  0.67931000  0.74991000  1.0
  Ru  Ru41  1  0.07065000  0.32069000  0.25009000  1.0
  C  C42  1  0.12795000  0.70382000  0.69513000  1.0
  C  C43  1  0.00851000  0.93268000  0.80473000  1.0
  C  C44  1  0.87205000  0.29618000  0.30486000  1.0
  C  C45  1  0.99150000  0.06732000  0.19527000  1.0
  C  C46  1  0.19630000  0.74916000  0.66121000  1.0
  C  C47  1  0.08781000  0.03498000  0.83862000  1.0
  C  C48  1  0.80370000  0.25083000  0.33878000  1.0
  C  C49  1  0.91218000  0.96502000  0.16137000  1.0
  C  C50  1  0.15923000  0.81548000  0.62239000  1.0
  C  C51  1  0.19301000  0.03678000  0.87742000  1.0
  C  C52  1  0.84076000  0.18451000  0.37760000  1.0
  C  C53  1  0.80698000  0.96322000  0.12257000  1.0
  C  C54  1  0.05164000  0.82921000  0.61702000  1.0
  C  C55  1  0.21213000  0.93456000  0.88276000  1.0
  C  C56  1  0.94836000  0.17080000  0.38298000  1.0
  C  C57  1  0.78788000  0.06544000  0.11724000  1.0
  C  C58  1  0.98553000  0.78034000  0.65160000  1.0
  C  C59  1  0.12869000  0.83384000  0.84819000  1.0
  C  C60  1  0.01448000  0.21965000  0.34840000  1.0
  C  C61  1  0.87132000  0.16616000  0.15181000  1.0
  C  C62  1  0.87202000  0.79016000  0.64990000  1.0
  C  C63  1  0.14032000  0.72210000  0.84991000  1.0
  C  C64  1  0.12797000  0.20982000  0.35009000  1.0
  C  C65  1  0.85969000  0.27791000  0.15009000  1.0
  C  C66  1  0.81262000  0.84167000  0.60962000  1.0
  C  C67  1  0.23212000  0.70295000  0.89020000  1.0
  C  C68  1  0.18738000  0.15832000  0.39038000  1.0
  C  C69  1  0.76787000  0.29705000  0.10980000  1.0
  C  C70  1  0.70678000  0.85057000  0.61312000  1.0
  C  C71  1  0.23751000  0.59364000  0.88676000  1.0
  C  C72  1  0.29322000  0.14942000  0.38688000  1.0
  C  C73  1  0.76250000  0.40636000  0.11325000  1.0
  C  C74  1  0.66072000  0.80338000  0.65582000  1.0
  C  C75  1  0.14758000  0.50490000  0.84407000  1.0
  C  C76  1  0.33928000  0.19661000  0.34418000  1.0
  C  C77  1  0.85242000  0.49510000  0.15594000  1.0
  C  C78  1  0.72185000  0.75010000  0.69341000  1.0
  C  C79  1  0.05673000  0.52843000  0.80645000  1.0
  C  C80  1  0.27815000  0.24989000  0.30659000  1.0
  C  C81  1  0.94327000  0.47157000  0.19356000  1.0
  C  C82  1  0.23641000  0.87553000  0.58978000  1.0
  C  C83  1  0.28559000  0.14670000  0.91008000  1.0
  C  C84  1  0.76359000  0.12445000  0.41021000  1.0
  C  C85  1  0.71441000  0.85330000  0.08992000  1.0
  C  C86  1  0.64295000  0.91128000  0.57236000  1.0
  C  C87  1  0.33891000  0.57057000  0.92762000  1.0
  C  C88  1  0.35704000  0.08871000  0.42764000  1.0
  C  C89  1  0.66110000  0.42945000  0.07240000  1.0
  C  C90  1  0.84014000  0.47126000  0.64231000  1.0
  C  C91  1  0.82890000  0.69775000  0.85752000  1.0
  C  C92  1  0.15985000  0.52875000  0.35769000  1.0
  C  C93  1  0.17110000  0.30225000  0.14248000  1.0
  C  C94  1  0.76608000  0.36763000  0.60675000  1.0
  C  C95  1  0.76087000  0.65930000  0.89312000  1.0
  C  C96  1  0.23392000  0.63238000  0.39325000  1.0
  C  C97  1  0.23914000  0.34072000  0.10688000  1.0
  C  C98  1  0.67842000  0.31244000  0.62799000  1.0
  C  C99  1  0.68456000  0.55033000  0.87196000  1.0
  C  C100  1  0.32158000  0.68757000  0.37201000  1.0
  C  C101  1  0.31545000  0.44969000  0.12805000  1.0
  C  C102  1  0.67030000  0.36328000  0.68526000  1.0
  C  C103  1  0.67819000  0.48489000  0.81470000  1.0
  C  C104  1  0.32969000  0.63672000  0.31473000  1.0
  C  C105  1  0.32181000  0.51512000  0.18530000  1.0
  C  C106  1  0.74815000  0.46723000  0.71969000  1.0
  C  C107  1  0.74766000  0.52825000  0.78022000  1.0
  C  C108  1  0.25185000  0.53277000  0.28031000  1.0
  C  C109  1  0.25234000  0.47175000  0.21978000  1.0
  C  C110  1  0.59456000  0.20068000  0.58862000  1.0
  C  C111  1  0.61214000  0.50600000  0.91137000  1.0
  C  C112  1  0.40544000  0.79931000  0.41137000  1.0
  C  C113  1  0.38787000  0.49403000  0.08864000  1.0
  N  N114  1  0.02527000  0.72015000  0.69172000  1.0
  N  N115  1  0.02832000  0.83342000  0.80809000  1.0
  N  N116  1  0.97473000  0.27984000  0.30827000  1.0
  N  N117  1  0.97169000  0.16658000  0.19191000  1.0
  N  N118  1  0.82648000  0.74469000  0.69179000  1.0
  N  N119  1  0.05296000  0.63467000  0.80803000  1.0
  N  N120  1  0.17352000  0.25531000  0.30821000  1.0
  N  N121  1  0.94704000  0.36532000  0.19197000  1.0
  N  N122  1  0.83213000  0.52148000  0.69771000  1.0
  N  N123  1  0.82380000  0.63428000  0.80216000  1.0
  N  N124  1  0.16786000  0.47852000  0.30229000  1.0
  N  N125  1  0.17621000  0.36573000  0.19785000  1.0
  O  O126  1  0.33263000  0.85641000  0.59676000  1.0
  O  O127  1  0.25937000  0.23590000  0.90318000  1.0
  O  O128  1  0.66737000  0.14359000  0.40323000  1.0
  O  O129  1  0.74063000  0.76411000  0.09682000  1.0
  O  O130  1  0.20361000  0.94212000  0.55963000  1.0
  O  O131  1  0.38239000  0.14415000  0.94021000  1.0
  O  O132  1  0.79638000  0.05787000  0.44036000  1.0
  O  O133  1  0.61758000  0.85584000  0.05979000  1.0
  O  O134  1  0.67508000  0.92570000  0.52508000  1.0
  O  O135  1  0.40043000  0.64990000  0.97496000  1.0
  O  O136  1  0.32491000  0.07429000  0.47492000  1.0
  O  O137  1  0.59958000  0.35010000  0.02505000  1.0
  O  O138  1  0.56630000  0.94086000  0.59080000  1.0
  O  O139  1  0.35017000  0.47554000  0.90918000  1.0
  O  O140  1  0.43369000  0.05913000  0.40919000  1.0
  O  O141  1  0.64982000  0.52446000  0.09084000  1.0
  O  O142  1  0.51155000  0.16011000  0.60804000  1.0
  O  O143  1  0.55219000  0.40358000  0.89204000  1.0
  O  O144  1  0.48846000  0.83989000  0.39196000  1.0
  O  O145  1  0.44782000  0.59644000  0.10797000  1.0
  O  O146  1  0.61642000  0.16032000  0.53996000  1.0
  O  O147  1  0.62042000  0.57667000  0.95998000  1.0
  O  O148  1  0.38358000  0.83967000  0.46004000  1.0
  O  O149  1  0.37959000  0.42335000  0.04003000  1.0
