# generated using pymatgen
data_CuH20C14S6IN4
_symmetry_space_group_name_H-M   'P 1'
_cell_length_a   8.66116000
_cell_length_b   14.39230000
_cell_length_c   21.83390000
_cell_angle_alpha   89.99970000
_cell_angle_beta   89.99980000
_cell_angle_gamma   89.99980000
_symmetry_Int_Tables_number   1
_chemical_formula_structural   CuH20C14S6IN4
_chemical_formula_sum   'Cu4 H80 C56 S24 I4 N16'
_cell_volume   2721.68325585
_cell_formula_units_Z   4
loop_
 _symmetry_equiv_pos_site_id
 _symmetry_equiv_pos_as_xyz
  1  'x, y, z'
loop_
 _atom_site_type_symbol
 _atom_site_label
 _atom_site_symmetry_multiplicity
 _atom_site_fract_x
 _atom_site_fract_y
 _atom_site_fract_z
 _atom_site_occupancy
  Cu  Cu0  1  0.50867000  0.79349000  0.46743000  1.0
  Cu  Cu1  1  0.00868000  0.20651000  0.03257000  1.0
  Cu  Cu2  1  0.49133000  0.70651000  0.96743000  1.0
  Cu  Cu3  1  0.99133000  0.29349000  0.53257000  1.0
  H  H4  1  0.43459000  0.05085000  0.37498000  1.0
  H  H5  1  0.93459000  0.94915000  0.12501000  1.0
  H  H6  1  0.56541000  0.44915000  0.87499000  1.0
  H  H7  1  0.06541000  0.55085000  0.62501000  1.0
  H  H8  1  0.26826000  0.11109000  0.40260000  1.0
  H  H9  1  0.76825000  0.88891000  0.09740000  1.0
  H  H10  1  0.73175000  0.38891000  0.90260000  1.0
  H  H11  1  0.23175000  0.61109000  0.59740000  1.0
  H  H12  1  0.47942000  0.11413000  0.47944000  1.0
  H  H13  1  0.97942000  0.88587000  0.02056000  1.0
  H  H14  1  0.52057000  0.38587000  0.97944000  1.0
  H  H15  1  0.02058000  0.61413000  0.52056000  1.0
  H  H16  1  0.48723000  0.99012000  0.48048000  1.0
  H  H17  1  0.98723000  0.00987000  0.01951000  1.0
  H  H18  1  0.51277000  0.50988000  0.98049000  1.0
  H  H19  1  0.01278000  0.49013000  0.51951000  1.0
  H  H20  1  0.32225000  0.04910000  0.50898000  1.0
  H  H21  1  0.82225000  0.95090000  0.99102000  1.0
  H  H22  1  0.67775000  0.45090000  0.00898000  1.0
  H  H23  1  0.17776000  0.54911000  0.49102000  1.0
  H  H24  1  0.12091000  0.72857000  0.29652000  1.0
  H  H25  1  0.62090000  0.27143000  0.20348000  1.0
  H  H26  1  0.87910000  0.77143000  0.79652000  1.0
  H  H27  1  0.37907000  0.22857000  0.70348000  1.0
  H  H28  1  0.32014000  0.72943000  0.31750000  1.0
  H  H29  1  0.82014000  0.27056000  0.18249000  1.0
  H  H30  1  0.67986000  0.77057000  0.81751000  1.0
  H  H31  1  0.17985000  0.22943000  0.68249000  1.0
  H  H32  1  0.18578000  0.59468000  0.36786000  1.0
  H  H33  1  0.68578000  0.40531000  0.13214000  1.0
  H  H34  1  0.81422000  0.90532000  0.86786000  1.0
  H  H35  1  0.31422000  0.09469000  0.63214000  1.0
  H  H36  1  0.04963000  0.67162000  0.40197000  1.0
  H  H37  1  0.54962000  0.32838000  0.09803000  1.0
  H  H38  1  0.95038000  0.82838000  0.90197000  1.0
  H  H39  1  0.45038000  0.17163000  0.59804000  1.0
  H  H40  1  0.24671000  0.67712000  0.42433000  1.0
  H  H41  1  0.74671000  0.32289000  0.07566000  1.0
  H  H42  1  0.75330000  0.82289000  0.92433000  1.0
  H  H43  1  0.25330000  0.17712000  0.57567000  1.0
  H  H44  1  0.40374000  0.48521000  0.49141000  1.0
  H  H45  1  0.90374000  0.51479000  0.00859000  1.0
  H  H46  1  0.59626000  0.01479000  0.99141000  1.0
  H  H47  1  0.09627000  0.98521000  0.50859000  1.0
  H  H48  1  0.48857000  0.57782000  0.44877000  1.0
  H  H49  1  0.98858000  0.42218000  0.05123000  1.0
  H  H50  1  0.51142000  0.92218000  0.94877000  1.0
  H  H51  1  0.01143000  0.07782000  0.55122000  1.0
  H  H52  1  0.60112000  0.42400000  0.42024000  1.0
  H  H53  1  0.10111000  0.57600000  0.07976000  1.0
  H  H54  1  0.39890000  0.07600000  0.92024000  1.0
  H  H55  1  0.89890000  0.92400000  0.57976000  1.0
  H  H56  1  0.65956000  0.40375000  0.49694000  1.0
  H  H57  1  0.15956000  0.59625000  0.00306000  1.0
  H  H58  1  0.34044000  0.09625000  0.99694000  1.0
  H  H59  1  0.84045000  0.90375000  0.50306000  1.0
  H  H60  1  0.74619000  0.49584000  0.45390000  1.0
  H  H61  1  0.24619000  0.50417000  0.04610000  1.0
  H  H62  1  0.25381000  0.00417000  0.95390000  1.0
  H  H63  1  0.75382000  0.99583000  0.54610000  1.0
  H  H64  1  0.66612000  0.77579000  0.66757000  1.0
  H  H65  1  0.16613000  0.22421000  0.83243000  1.0
  H  H66  1  0.33387000  0.72420000  0.16757000  1.0
  H  H67  1  0.83387000  0.27579000  0.33243000  1.0
  H  H68  1  0.71241000  0.80880000  0.59132000  1.0
  H  H69  1  0.21241000  0.19120000  0.90868000  1.0
  H  H70  1  0.28759000  0.69119000  0.09132000  1.0
  H  H71  1  0.78758000  0.30880000  0.40868000  1.0
  H  H72  1  0.94899000  0.80737000  0.66046000  1.0
  H  H73  1  0.44900000  0.19264000  0.83955000  1.0
  H  H74  1  0.05100000  0.69263000  0.16046000  1.0
  H  H75  1  0.55100000  0.30737000  0.33955000  1.0
  H  H76  1  0.96828000  0.72793000  0.59910000  1.0
  H  H77  1  0.46828000  0.27208000  0.90090000  1.0
  H  H78  1  0.03171000  0.77207000  0.09910000  1.0
  H  H79  1  0.53171000  0.22793000  0.40090000  1.0
  H  H80  1  0.91992000  0.68686000  0.67390000  1.0
  H  H81  1  0.41993000  0.31315000  0.82610000  1.0
  H  H82  1  0.08008000  0.81314000  0.17390000  1.0
  H  H83  1  0.58007000  0.18686000  0.32610000  1.0
  C  C84  1  0.30976000  0.88470000  0.37661000  1.0
  C  C85  1  0.80976000  0.11530000  0.12339000  1.0
  C  C86  1  0.69024000  0.61530000  0.87661000  1.0
  C  C87  1  0.19024000  0.38470000  0.62339000  1.0
  C  C88  1  0.05049000  0.88016000  0.36437000  1.0
  C  C89  1  0.55050000  0.11984000  0.13562000  1.0
  C  C90  1  0.94951000  0.61985000  0.86438000  1.0
  C  C91  1  0.44950000  0.38015000  0.63563000  1.0
  C  C92  1  0.08870000  0.96620000  0.38820000  1.0
  C  C93  1  0.58870000  0.03380000  0.11180000  1.0
  C  C94  1  0.91130000  0.53380000  0.88820000  1.0
  C  C95  1  0.41130000  0.46620000  0.61180000  1.0
  C  C96  1  0.34226000  0.04991000  0.40956000  1.0
  C  C97  1  0.84226000  0.95009000  0.09044000  1.0
  C  C98  1  0.65774000  0.45009000  0.90956000  1.0
  C  C99  1  0.15775000  0.54991000  0.59044000  1.0
  C  C100  1  0.41157000  0.05028000  0.47351000  1.0
  C  C101  1  0.91157000  0.94972000  0.02649000  1.0
  C  C102  1  0.58843000  0.44973000  0.97351000  1.0
  C  C103  1  0.08844000  0.55028000  0.52648000  1.0
  C  C104  1  0.20178000  0.73604000  0.33497000  1.0
  C  C105  1  0.70178000  0.26396000  0.16503000  1.0
  C  C106  1  0.79822000  0.76396000  0.83497000  1.0
  C  C107  1  0.29821000  0.23604000  0.66503000  1.0
  C  C108  1  0.16893000  0.66557000  0.38531000  1.0
  C  C109  1  0.66893000  0.33443000  0.11468000  1.0
  C  C110  1  0.83108000  0.83443000  0.88531000  1.0
  C  C111  1  0.33107000  0.16557000  0.61469000  1.0
  C  C112  1  0.64295000  0.65021000  0.54242000  1.0
  C  C113  1  0.14295000  0.34979000  0.95758000  1.0
  C  C114  1  0.35705000  0.84979000  0.04242000  1.0
  C  C115  1  0.85705000  0.15021000  0.45758000  1.0
  C  C116  1  0.92058000  0.10621000  0.36130000  1.0
  C  C117  1  0.42058000  0.89378000  0.13869000  1.0
  C  C118  1  0.07942000  0.39379000  0.86131000  1.0
  C  C119  1  0.57942000  0.60621000  0.63869000  1.0
  C  C120  1  0.98954000  0.04467000  0.40149000  1.0
  C  C121  1  0.48954000  0.95532000  0.09851000  1.0
  C  C122  1  0.01046000  0.45533000  0.90149000  1.0
  C  C123  1  0.51046000  0.54467000  0.59850000  1.0
  C  C124  1  0.51096000  0.52390000  0.48326000  1.0
  C  C125  1  0.01096000  0.47610000  0.01674000  1.0
  C  C126  1  0.48903000  0.97610000  0.98326000  1.0
  C  C127  1  0.98904000  0.02389000  0.51674000  1.0
  C  C128  1  0.63826000  0.45815000  0.46268000  1.0
  C  C129  1  0.13825000  0.54185000  0.03732000  1.0
  C  C130  1  0.36174000  0.04185000  0.96268000  1.0
  C  C131  1  0.86175000  0.95815000  0.53732000  1.0
  C  C132  1  0.73134000  0.75564000  0.62655000  1.0
  C  C133  1  0.23134000  0.24436000  0.87345000  1.0
  C  C134  1  0.26865000  0.74435000  0.12655000  1.0
  C  C135  1  0.76866000  0.25564000  0.37345000  1.0
  C  C136  1  0.90193000  0.74315000  0.64070000  1.0
  C  C137  1  0.40193000  0.25686000  0.85930000  1.0
  C  C138  1  0.09807000  0.75685000  0.14070000  1.0
  C  C139  1  0.59807000  0.24315000  0.35930000  1.0
  S  S140  1  0.49977000  0.85734000  0.37475000  1.0
  S  S141  1  0.99977000  0.14265000  0.12525000  1.0
  S  S142  1  0.50024000  0.64266000  0.87475000  1.0
  S  S143  1  0.00023000  0.35735000  0.62525000  1.0
  S  S144  1  0.87033000  0.83668000  0.34598000  1.0
  S  S145  1  0.37033000  0.16332000  0.15402000  1.0
  S  S146  1  0.12968000  0.66333000  0.84599000  1.0
  S  S147  1  0.62966000  0.33667000  0.65402000  1.0
  S  S148  1  0.83895000  0.88601000  0.25630000  1.0
  S  S149  1  0.33895000  0.11399000  0.24370000  1.0
  S  S150  1  0.16105000  0.61399000  0.75630000  1.0
  S  S151  1  0.66105000  0.38601000  0.74370000  1.0
  S  S152  1  0.72002000  0.70753000  0.48186000  1.0
  S  S153  1  0.22003000  0.29248000  0.01814000  1.0
  S  S154  1  0.27996000  0.79248000  0.98186000  1.0
  S  S155  1  0.77998000  0.20752000  0.51814000  1.0
  S  S156  1  0.92499000  0.10671000  0.28206000  1.0
  S  S157  1  0.42500000  0.89328000  0.21794000  1.0
  S  S158  1  0.07500000  0.39329000  0.78206000  1.0
  S  S159  1  0.57500000  0.60671000  0.71794000  1.0
  S  S160  1  0.74271000  0.01434000  0.26247000  1.0
  S  S161  1  0.24273000  0.98565000  0.23753000  1.0
  S  S162  1  0.25728000  0.48566000  0.76248000  1.0
  S  S163  1  0.75728000  0.51434000  0.73753000  1.0
  I  I164  1  0.30084000  0.80751000  0.54789000  1.0
  I  I165  1  0.80085000  0.19249000  0.95210000  1.0
  I  I166  1  0.69915000  0.69249000  0.04789000  1.0
  I  I167  1  0.19915000  0.30751000  0.45211000  1.0
  N  N168  1  0.24790000  0.96773000  0.39547000  1.0
  N  N169  1  0.74790000  0.03227000  0.10452000  1.0
  N  N170  1  0.75210000  0.53228000  0.89548000  1.0
  N  N171  1  0.25210000  0.46773000  0.60452000  1.0
  N  N172  1  0.18829000  0.83142000  0.35721000  1.0
  N  N173  1  0.68829000  0.16858000  0.14279000  1.0
  N  N174  1  0.81171000  0.66858000  0.85721000  1.0
  N  N175  1  0.31170000  0.33142000  0.64279000  1.0
  N  N176  1  0.55079000  0.57253000  0.53990000  1.0
  N  N177  1  0.05079000  0.42747000  0.96010000  1.0
  N  N178  1  0.44920000  0.92747000  0.03991000  1.0
  N  N179  1  0.94921000  0.07252000  0.46009000  1.0
  N  N180  1  0.65887000  0.67102000  0.60324000  1.0
  N  N181  1  0.15887000  0.32897000  0.89676000  1.0
  N  N182  1  0.34113000  0.82897000  0.10324000  1.0
  N  N183  1  0.84113000  0.17103000  0.39676000  1.0
