# generated using pymatgen
data_CdH32C20S2(N2O3)2
_symmetry_space_group_name_H-M   'P 1'
_cell_length_a   7.49528000
_cell_length_b   8.94999000
_cell_length_c   9.52459000
_cell_angle_alpha   72.80120000
_cell_angle_beta   84.50760000
_cell_angle_gamma   71.85820000
_symmetry_Int_Tables_number   1
_chemical_formula_structural   CdH32C20S2(N2O3)2
_chemical_formula_sum   'Cd1 H32 C20 S2 N4 O6'
_cell_volume   580.01814273
_cell_formula_units_Z   1
loop_
 _symmetry_equiv_pos_site_id
 _symmetry_equiv_pos_as_xyz
  1  'x, y, z'
loop_
 _atom_site_type_symbol
 _atom_site_label
 _atom_site_symmetry_multiplicity
 _atom_site_fract_x
 _atom_site_fract_y
 _atom_site_fract_z
 _atom_site_occupancy
  Cd  Cd0  1  0.50000000  0.00000000  0.00000000  1.0
  H  H1  1  0.76236000  0.99749000  0.19174000  1.0
  H  H2  1  0.23764000  0.00251000  0.80826000  1.0
  H  H3  1  0.71698000  0.19787000  0.84756000  1.0
  H  H4  1  0.28302000  0.80213000  0.15244000  1.0
  H  H5  1  0.87809000  0.53686000  0.91139000  1.0
  H  H6  1  0.12192000  0.46314000  0.08861000  1.0
  H  H7  1  0.89647000  0.38110000  0.73927000  1.0
  H  H8  1  0.10353000  0.61890000  0.26072000  1.0
  H  H9  1  0.08955000  0.74212000  0.40068000  1.0
  H  H10  1  0.91045000  0.25789000  0.59932000  1.0
  H  H11  1  0.08471000  0.89055000  0.58043000  1.0
  H  H12  1  0.91530000  0.10945000  0.41956000  1.0
  H  H13  1  0.59981000  0.11547000  0.38663000  1.0
  H  H14  1  0.40020000  0.88453000  0.61338000  1.0
  H  H15  1  0.54233000  0.24611000  0.20481000  1.0
  H  H16  1  0.45768000  0.75389000  0.79519000  1.0
  H  H17  1  0.38477000  0.13940000  0.30416000  1.0
  H  H18  1  0.61523000  0.86060000  0.69585000  1.0
  H  H19  1  0.75091000  0.74284000  0.28490000  1.0
  H  H20  1  0.24909000  0.25716000  0.71510000  1.0
  H  H21  1  0.66250000  0.82669000  0.43352000  1.0
  H  H22  1  0.33750000  0.17331000  0.56649000  1.0
  H  H23  1  0.54345000  0.32305000  0.59535000  1.0
  H  H24  1  0.45655000  0.67695000  0.40466000  1.0
  H  H25  1  0.66956000  0.11170000  0.66074000  1.0
  H  H26  1  0.33044000  0.88830000  0.33927000  1.0
  H  H27  1  0.50826000  0.48592000  0.75831000  1.0
  H  H28  1  0.49173000  0.51408000  0.24169000  1.0
  H  H29  1  0.32236000  0.40615000  0.84679000  1.0
  H  H30  1  0.67763000  0.59385000  0.15321000  1.0
  H  H31  1  0.51341000  0.39290000  0.95197000  1.0
  H  H32  1  0.48658000  0.60710000  0.04803000  1.0
  C  C33  1  0.98388000  0.72304000  0.75793000  1.0
  C  C34  1  0.01612000  0.27696000  0.24206000  1.0
  C  C35  1  0.92872000  0.58053000  0.80043000  1.0
  C  C36  1  0.07128000  0.41948000  0.19956000  1.0
  C  C37  1  0.93670000  0.49332000  0.69985000  1.0
  C  C38  1  0.06330000  0.50668000  0.30015000  1.0
  C  C39  1  0.99662000  0.54633000  0.55367000  1.0
  C  C40  1  0.00338000  0.45368000  0.44633000  1.0
  C  C41  1  0.04856000  0.69176000  0.51316000  1.0
  C  C42  1  0.95144000  0.30825000  0.48683000  1.0
  C  C43  1  0.04387000  0.77840000  0.61383000  1.0
  C  C44  1  0.95613000  0.22161000  0.38617000  1.0
  C  C45  1  0.53340000  0.13090000  0.28262000  1.0
  C  C46  1  0.46660000  0.86910000  0.71738000  1.0
  C  C47  1  0.63358000  0.83337000  0.32015000  1.0
  C  C48  1  0.36642000  0.16663000  0.67985000  1.0
  C  C49  1  0.45189000  0.79125000  0.31707000  1.0
  C  C50  1  0.54811000  0.20875000  0.68293000  1.0
  C  C51  1  0.47411000  0.38679000  0.84664000  1.0
  C  C52  1  0.52590000  0.61321000  0.15336000  1.0
  S  S53  1  0.98295000  0.82975000  0.88945000  1.0
  S  S54  1  0.01705000  0.17025000  0.11055000  1.0
  N  N55  1  0.62687000  0.99524000  0.21918000  1.0
  N  N56  1  0.37313000  0.00475000  0.78082000  1.0
  N  N57  1  0.42320000  0.77516000  0.17230000  1.0
  N  N58  1  0.57679000  0.22484000  0.82770000  1.0
  O  O59  1  0.81473000  0.81725000  0.98101000  1.0
  O  O60  1  0.18526000  0.18275000  0.01898000  1.0
  O  O61  1  0.97308000  0.99899000  0.80437000  1.0
  O  O62  1  0.02692000  0.00101000  0.19563000  1.0
  O  O63  1  0.15809000  0.74235000  0.97186000  1.0
  O  O64  1  0.84190000  0.25765000  0.02814000  1.0
