# generated using pymatgen
data_CuH12C16(NO4)2
_symmetry_space_group_name_H-M   'P 1'
_cell_length_a   8.02894000
_cell_length_b   8.02898000
_cell_length_c   13.35920000
_cell_angle_alpha   74.83300000
_cell_angle_beta   74.83310000
_cell_angle_gamma   69.64940000
_symmetry_Int_Tables_number   1
_chemical_formula_structural   CuH12C16(NO4)2
_chemical_formula_sum   'Cu2 H24 C32 N4 O16'
_cell_volume   765.32972147
_cell_formula_units_Z   2
loop_
 _symmetry_equiv_pos_site_id
 _symmetry_equiv_pos_as_xyz
  1  'x, y, z'
loop_
 _atom_site_type_symbol
 _atom_site_label
 _atom_site_symmetry_multiplicity
 _atom_site_fract_x
 _atom_site_fract_y
 _atom_site_fract_z
 _atom_site_occupancy
  Cu  Cu0  1  0.00000000  0.50000000  0.50000000  1.0
  Cu  Cu1  1  0.50000000  0.00000000  0.00000000  1.0
  H  H2  1  0.14766000  0.10432000  0.93670000  1.0
  H  H3  1  0.10433000  0.14765000  0.43670000  1.0
  H  H4  1  0.85234000  0.89568000  0.06330000  1.0
  H  H5  1  0.89568000  0.85234000  0.56330000  1.0
  H  H6  1  0.33668000  0.76217000  0.09730000  1.0
  H  H7  1  0.76216000  0.33668000  0.59730000  1.0
  H  H8  1  0.66332000  0.23783000  0.90270000  1.0
  H  H9  1  0.23784000  0.66332000  0.40270000  1.0
  H  H10  1  0.37743000  0.85449000  0.18376000  1.0
  H  H11  1  0.85449000  0.37743000  0.68376000  1.0
  H  H12  1  0.62257000  0.14551000  0.81624000  1.0
  H  H13  1  0.14551000  0.62257000  0.31624000  1.0
  H  H14  1  0.61702000  0.56792000  0.98648000  1.0
  H  H15  1  0.56792000  0.61702000  0.48648000  1.0
  H  H16  1  0.38297000  0.43208000  0.01352000  1.0
  H  H17  1  0.43208000  0.38297000  0.51352000  1.0
  H  H18  1  0.02378000  0.24233000  0.17168000  1.0
  H  H19  1  0.24234000  0.02378000  0.67168000  1.0
  H  H20  1  0.97622000  0.75767000  0.82832000  1.0
  H  H21  1  0.75766000  0.97622000  0.32832000  1.0
  H  H22  1  0.60498000  0.69630000  0.28318000  1.0
  H  H23  1  0.69630000  0.60498000  0.78319000  1.0
  H  H24  1  0.39502000  0.30371000  0.71682000  1.0
  H  H25  1  0.30371000  0.39502000  0.21681000  1.0
  C  C26  1  0.59117000  0.64609000  0.13417000  1.0
  C  C27  1  0.64608000  0.59117000  0.63417000  1.0
  C  C28  1  0.40883000  0.35392000  0.86583000  1.0
  C  C29  1  0.35392000  0.40883000  0.36583000  1.0
  C  C30  1  0.67191000  0.53718000  0.05776000  1.0
  C  C31  1  0.53717000  0.67191000  0.55776000  1.0
  C  C32  1  0.32809000  0.46283000  0.94224000  1.0
  C  C33  1  0.46283000  0.32808000  0.44224000  1.0
  C  C34  1  0.82960000  0.39403000  0.07006000  1.0
  C  C35  1  0.39403000  0.82959000  0.57006000  1.0
  C  C36  1  0.17040000  0.60597000  0.92994000  1.0
  C  C37  1  0.60597000  0.17040000  0.42994000  1.0
  C  C38  1  0.90314000  0.35560000  0.16030000  1.0
  C  C39  1  0.35560000  0.90314000  0.66030000  1.0
  C  C40  1  0.09686000  0.64440000  0.83971000  1.0
  C  C41  1  0.64440000  0.09686000  0.33970000  1.0
  C  C42  1  0.82112000  0.46375000  0.23695000  1.0
  C  C43  1  0.46375000  0.82112000  0.73695000  1.0
  C  C44  1  0.17888000  0.53625000  0.76305000  1.0
  C  C45  1  0.53625000  0.17888000  0.26305000  1.0
  C  C46  1  0.66698000  0.61138000  0.22344000  1.0
  C  C47  1  0.61138000  0.66698000  0.72344000  1.0
  C  C48  1  0.33302000  0.38862000  0.77656000  1.0
  C  C49  1  0.38862000  0.33302000  0.27656000  1.0
  C  C50  1  0.91974000  0.28557000  0.98522000  1.0
  C  C51  1  0.28557000  0.91974000  0.48522000  1.0
  C  C52  1  0.08026000  0.71443000  0.01478000  1.0
  C  C53  1  0.71443000  0.08026000  0.51478000  1.0
  C  C54  1  0.90419000  0.41296000  0.33289000  1.0
  C  C55  1  0.41297000  0.90418000  0.83289000  1.0
  C  C56  1  0.09581000  0.58703000  0.66711000  1.0
  C  C57  1  0.58703000  0.09582000  0.16711000  1.0
  N  N58  1  0.43465000  0.79759000  0.11779000  1.0
  N  N59  1  0.79760000  0.43465000  0.61779000  1.0
  N  N60  1  0.56534000  0.20241000  0.88221000  1.0
  N  N61  1  0.20241000  0.56535000  0.38221000  1.0
  O  O62  1  0.00900000  0.25449000  0.35095000  1.0
  O  O63  1  0.25449000  0.00900000  0.85095000  1.0
  O  O64  1  0.99100000  0.74551000  0.64905000  1.0
  O  O65  1  0.74550000  0.99100000  0.14905000  1.0
  O  O66  1  0.86400000  0.53539000  0.38881000  1.0
  O  O67  1  0.53539000  0.86401000  0.88881000  1.0
  O  O68  1  0.13599000  0.46461000  0.61119000  1.0
  O  O69  1  0.46461000  0.13600000  0.11119000  1.0
  O  O70  1  0.08025000  0.17268000  0.99921000  1.0
  O  O71  1  0.17268000  0.08025000  0.49920000  1.0
  O  O72  1  0.91975000  0.82732000  0.00079000  1.0
  O  O73  1  0.82732000  0.91974000  0.50079000  1.0
  O  O74  1  0.85046000  0.30338000  0.90841000  1.0
  O  O75  1  0.30339000  0.85046000  0.40841000  1.0
  O  O76  1  0.14954000  0.69662000  0.09159000  1.0
  O  O77  1  0.69662000  0.14954000  0.59158000  1.0
