# generated using pymatgen
data_CdH7C3SN3Cl2
_symmetry_space_group_name_H-M   'P 1'
_cell_length_a   7.05343000
_cell_length_b   10.42570000
_cell_length_c   12.28180000
_cell_angle_alpha   89.99930000
_cell_angle_beta   76.29900000
_cell_angle_gamma   89.99910000
_symmetry_Int_Tables_number   1
_chemical_formula_structural   CdH7C3SN3Cl2
_chemical_formula_sum   'Cd4 H28 C12 S4 N12 Cl8'
_cell_volume   877.46645035
_cell_formula_units_Z   4
loop_
 _symmetry_equiv_pos_site_id
 _symmetry_equiv_pos_as_xyz
  1  'x, y, z'
loop_
 _atom_site_type_symbol
 _atom_site_label
 _atom_site_symmetry_multiplicity
 _atom_site_fract_x
 _atom_site_fract_y
 _atom_site_fract_z
 _atom_site_occupancy
  Cd  Cd0  1  0.11526000  0.17807000  0.66875000  1.0
  Cd  Cd1  1  0.38473000  0.67807000  0.33124000  1.0
  Cd  Cd2  1  0.88473000  0.82193000  0.33124000  1.0
  Cd  Cd3  1  0.61526000  0.32193000  0.66876000  1.0
  H  H4  1  0.24309000  0.94147000  0.53029000  1.0
  H  H5  1  0.25690000  0.44147000  0.46971000  1.0
  H  H6  1  0.75691000  0.05853000  0.46970000  1.0
  H  H7  1  0.74309000  0.55853000  0.53029000  1.0
  H  H8  1  0.00173000  0.92822000  0.56142000  1.0
  H  H9  1  0.49827000  0.42822000  0.43857000  1.0
  H  H10  1  0.99826000  0.07179000  0.43857000  1.0
  H  H11  1  0.50173000  0.57178000  0.56143000  1.0
  H  H12  1  0.35411000  0.13757000  0.89343000  1.0
  H  H13  1  0.14592000  0.63757000  0.10657000  1.0
  H  H14  1  0.64589000  0.86243000  0.10656000  1.0
  H  H15  1  0.85410000  0.36243000  0.89343000  1.0
  H  H16  1  0.11283000  0.08832000  0.95901000  1.0
  H  H17  1  0.38717000  0.58832000  0.04100000  1.0
  H  H18  1  0.88718000  0.91167000  0.04099000  1.0
  H  H19  1  0.61285000  0.41168000  0.95901000  1.0
  H  H20  1  0.48987000  0.92901000  0.90273000  1.0
  H  H21  1  0.01012000  0.42902000  0.09729000  1.0
  H  H22  1  0.51014000  0.07099000  0.09727000  1.0
  H  H23  1  0.98988000  0.57099000  0.90271000  1.0
  H  H24  1  0.29565000  0.92111000  0.02711000  1.0
  H  H25  1  0.20433000  0.42111000  0.97289000  1.0
  H  H26  1  0.70434000  0.07889000  0.97288000  1.0
  H  H27  1  0.79568000  0.57889000  0.02711000  1.0
  H  H28  1  0.14427000  0.77745000  0.65860000  1.0
  H  H29  1  0.35572000  0.27744000  0.34141000  1.0
  H  H30  1  0.85572000  0.22256000  0.34139000  1.0
  H  H31  1  0.64426000  0.72256000  0.65860000  1.0
  C  C32  1  0.18235000  0.91650000  0.77057000  1.0
  C  C33  1  0.31765000  0.41651000  0.22942000  1.0
  C  C34  1  0.81766000  0.08349000  0.22942000  1.0
  C  C35  1  0.68235000  0.58349000  0.77059000  1.0
  C  C36  1  0.24851000  0.05904000  0.89902000  1.0
  C  C37  1  0.25150000  0.55904000  0.10098000  1.0
  C  C38  1  0.75149000  0.94096000  0.10098000  1.0
  C  C39  1  0.74852000  0.44096000  0.89901000  1.0
  C  C40  1  0.33144000  0.93490000  0.93599000  1.0
  C  C41  1  0.16856000  0.43492000  0.06402000  1.0
  C  C42  1  0.66856000  0.06509000  0.06401000  1.0
  C  C43  1  0.83146000  0.56509000  0.93599000  1.0
  S  S44  1  0.21908000  0.80634000  0.87260000  1.0
  S  S45  1  0.28092000  0.30632000  0.12740000  1.0
  S  S46  1  0.78093000  0.19366000  0.12739000  1.0
  S  S47  1  0.71908000  0.69367000  0.87261000  1.0
  N  N48  1  0.11755000  0.95679000  0.59229000  1.0
  N  N49  1  0.38244000  0.45680000  0.40770000  1.0
  N  N50  1  0.88244000  0.04321000  0.40770000  1.0
  N  N51  1  0.61755000  0.54321000  0.59230000  1.0
  N  N52  1  0.12259000  0.87145000  0.68078000  1.0
  N  N53  1  0.37739000  0.37143000  0.31923000  1.0
  N  N54  1  0.87740000  0.12856000  0.31922000  1.0
  N  N55  1  0.62259000  0.62856000  0.68077000  1.0
  N  N56  1  0.20895000  0.03677000  0.78906000  1.0
  N  N57  1  0.29105000  0.53678000  0.21095000  1.0
  N  N58  1  0.79105000  0.96322000  0.21093000  1.0
  N  N59  1  0.70896000  0.46322000  0.78906000  1.0
  Cl  Cl60  1  0.47900000  0.19109000  0.52078000  1.0
  Cl  Cl61  1  0.02100000  0.69109000  0.47923000  1.0
  Cl  Cl62  1  0.52100000  0.80891000  0.47923000  1.0
  Cl  Cl63  1  0.97900000  0.30891000  0.52078000  1.0
  Cl  Cl64  1  0.73928000  0.12608000  0.76162000  1.0
  Cl  Cl65  1  0.76072000  0.62608000  0.23838000  1.0
  Cl  Cl66  1  0.26072000  0.87392000  0.23839000  1.0
  Cl  Cl67  1  0.23928000  0.37392000  0.76162000  1.0
