# generated using pymatgen
data_CuH10C11S2(BrN)2
_symmetry_space_group_name_H-M   'P 1'
_cell_length_a   8.64873000
_cell_length_b   12.55770000
_cell_length_c   13.99290000
_cell_angle_alpha   89.99950000
_cell_angle_beta   100.93500000
_cell_angle_gamma   89.99940000
_symmetry_Int_Tables_number   1
_chemical_formula_structural   CuH10C11S2(BrN)2
_chemical_formula_sum   'Cu4 H40 C44 S8 Br8 N8'
_cell_volume   1492.14912781
_cell_formula_units_Z   4
loop_
 _symmetry_equiv_pos_site_id
 _symmetry_equiv_pos_as_xyz
  1  'x, y, z'
loop_
 _atom_site_type_symbol
 _atom_site_label
 _atom_site_symmetry_multiplicity
 _atom_site_fract_x
 _atom_site_fract_y
 _atom_site_fract_z
 _atom_site_occupancy
  Cu  Cu0  1  0.70483000  0.85085000  0.77616000  1.0
  Cu  Cu1  1  0.29513000  0.35085000  0.72383000  1.0
  Cu  Cu2  1  0.29517000  0.14915000  0.22383000  1.0
  Cu  Cu3  1  0.70486000  0.64915000  0.27617000  1.0
  H  H4  1  0.42043000  0.19797000  0.90070000  1.0
  H  H5  1  0.57955000  0.69797000  0.59928000  1.0
  H  H6  1  0.57956000  0.80203000  0.09931000  1.0
  H  H7  1  0.42045000  0.30203000  0.40069000  1.0
  H  H8  1  0.30663000  0.09581000  0.94465000  1.0
  H  H9  1  0.69335000  0.59580000  0.55533000  1.0
  H  H10  1  0.69337000  0.90419000  0.05535000  1.0
  H  H11  1  0.30665000  0.40419000  0.44465000  1.0
  H  H12  1  0.22419000  0.94644000  0.92515000  1.0
  H  H13  1  0.77580000  0.44645000  0.57486000  1.0
  H  H14  1  0.77581000  0.05355000  0.07486000  1.0
  H  H15  1  0.22422000  0.55355000  0.42514000  1.0
  H  H16  1  0.13612000  0.76185000  0.93112000  1.0
  H  H17  1  0.86386000  0.26186000  0.56888000  1.0
  H  H18  1  0.86388000  0.23814000  0.06887000  1.0
  H  H19  1  0.13614000  0.73814000  0.43112000  1.0
  H  H20  1  0.31009000  0.61203000  0.88579000  1.0
  H  H21  1  0.68988000  0.11204000  0.61420000  1.0
  H  H22  1  0.68990000  0.38796000  0.11418000  1.0
  H  H23  1  0.31013000  0.88796000  0.38581000  1.0
  H  H24  1  0.55067000  0.66253000  0.82511000  1.0
  H  H25  1  0.44930000  0.16255000  0.67488000  1.0
  H  H26  1  0.44933000  0.33747000  0.17488000  1.0
  H  H27  1  0.55072000  0.83746000  0.32513000  1.0
  H  H28  1  0.93291000  0.10510000  0.85505000  1.0
  H  H29  1  0.06708000  0.60511000  0.64495000  1.0
  H  H30  1  0.06708000  0.89490000  0.14496000  1.0
  H  H31  1  0.93293000  0.39490000  0.35504000  1.0
  H  H32  1  0.73965000  0.24507000  0.88735000  1.0
  H  H33  1  0.26034000  0.74509000  0.61266000  1.0
  H  H34  1  0.26034000  0.75493000  0.11266000  1.0
  H  H35  1  0.73967000  0.25493000  0.38735000  1.0
  H  H36  1  0.79261000  0.43513000  0.85562000  1.0
  H  H37  1  0.20737000  0.93515000  0.64441000  1.0
  H  H38  1  0.20740000  0.56487000  0.14440000  1.0
  H  H39  1  0.79263000  0.06487000  0.35560000  1.0
  H  H40  1  0.03451000  0.48140000  0.78814000  1.0
  H  H41  1  0.96545000  0.98140000  0.71188000  1.0
  H  H42  1  0.96548000  0.51860000  0.21186000  1.0
  H  H43  1  0.03454000  0.01861000  0.28814000  1.0
  C  C44  1  0.36368000  0.11978000  0.88425000  1.0
  C  C45  1  0.63630000  0.61979000  0.61574000  1.0
  C  C46  1  0.63632000  0.88021000  0.11576000  1.0
  C  C47  1  0.36370000  0.38022000  0.38425000  1.0
  C  C48  1  0.43480000  0.90468000  0.86936000  1.0
  C  C49  1  0.56519000  0.40468000  0.63064000  1.0
  C  C50  1  0.56520000  0.09533000  0.13065000  1.0
  C  C51  1  0.43483000  0.59532000  0.36935000  1.0
  C  C52  1  0.29493000  0.88297000  0.90247000  1.0
  C  C53  1  0.70506000  0.38297000  0.59754000  1.0
  C  C54  1  0.70508000  0.11703000  0.09753000  1.0
  C  C55  1  0.29495000  0.61702000  0.40246000  1.0
  C  C56  1  0.24648000  0.77785000  0.90694000  1.0
  C  C57  1  0.75351000  0.27785000  0.59306000  1.0
  C  C58  1  0.75352000  0.22215000  0.09305000  1.0
  C  C59  1  0.24651000  0.72215000  0.40694000  1.0
  C  C60  1  0.33918000  0.69597000  0.88081000  1.0
  C  C61  1  0.66079000  0.19598000  0.61919000  1.0
  C  C62  1  0.66082000  0.30402000  0.11918000  1.0
  C  C63  1  0.33922000  0.80402000  0.38081000  1.0
  C  C64  1  0.47496000  0.72323000  0.84744000  1.0
  C  C65  1  0.52502000  0.22323000  0.65256000  1.0
  C  C66  1  0.52504000  0.27677000  0.15255000  1.0
  C  C67  1  0.47499000  0.77677000  0.34745000  1.0
  C  C68  1  0.08165000  0.22160000  0.80360000  1.0
  C  C69  1  0.91832000  0.72160000  0.69640000  1.0
  C  C70  1  0.91834000  0.77840000  0.19640000  1.0
  C  C71  1  0.08168000  0.27840000  0.30360000  1.0
  C  C72  1  0.95092000  0.18923000  0.84113000  1.0
  C  C73  1  0.04905000  0.68924000  0.65888000  1.0
  C  C74  1  0.04907000  0.81076000  0.15888000  1.0
  C  C75  1  0.95094000  0.31077000  0.34112000  1.0
  C  C76  1  0.84539000  0.26687000  0.86014000  1.0
  C  C77  1  0.15459000  0.76689000  0.63987000  1.0
  C  C78  1  0.15461000  0.73313000  0.13987000  1.0
  C  C79  1  0.84542000  0.23313000  0.36013000  1.0
  C  C80  1  0.87488000  0.37346000  0.84275000  1.0
  C  C81  1  0.12509000  0.87347000  0.65726000  1.0
  C  C82  1  0.12511000  0.62653000  0.15725000  1.0
  C  C83  1  0.87491000  0.12654000  0.34275000  1.0
  C  C84  1  0.00836000  0.39965000  0.80555000  1.0
  C  C85  1  0.99161000  0.89966000  0.69446000  1.0
  C  C86  1  0.99163000  0.60035000  0.19445000  1.0
  C  C87  1  0.00839000  0.10035000  0.30555000  1.0
  S  S88  1  0.51825000  0.03191000  0.86616000  1.0
  S  S89  1  0.48171000  0.53192000  0.63383000  1.0
  S  S90  1  0.48174000  0.96808000  0.13384000  1.0
  S  S91  1  0.51828000  0.46808000  0.36616000  1.0
  S  S92  1  0.21847000  0.13031000  0.77061000  1.0
  S  S93  1  0.78151000  0.63031000  0.72937000  1.0
  S  S94  1  0.78153000  0.86969000  0.22939000  1.0
  S  S95  1  0.21849000  0.36969000  0.27062000  1.0
  Br  Br96  1  0.87801000  0.90521000  0.92627000  1.0
  Br  Br97  1  0.12197000  0.40522000  0.57371000  1.0
  Br  Br98  1  0.12198000  0.09476000  0.07374000  1.0
  Br  Br99  1  0.87804000  0.59476000  0.42627000  1.0
  Br  Br100  1  0.54169000  0.90247000  0.62179000  1.0
  Br  Br101  1  0.45828000  0.40245000  0.87821000  1.0
  Br  Br102  1  0.45832000  0.09752000  0.37820000  1.0
  Br  Br103  1  0.54169000  0.59752000  0.12180000  1.0
  N  N104  1  0.52064000  0.82515000  0.83982000  1.0
  N  N105  1  0.47933000  0.32516000  0.66017000  1.0
  N  N106  1  0.47936000  0.17485000  0.16017000  1.0
  N  N107  1  0.52067000  0.67485000  0.33982000  1.0
  N  N108  1  0.10873000  0.32500000  0.78578000  1.0
  N  N109  1  0.89125000  0.82500000  0.71421000  1.0
  N  N110  1  0.89126000  0.67499000  0.21421000  1.0
  N  N111  1  0.10875000  0.17500000  0.28579000  1.0
