# generated using pymatgen
data_ZnH26C38(NO3)2
_symmetry_space_group_name_H-M   'P 1'
_cell_length_a   15.00700000
_cell_length_b   15.89410000
_cell_length_c   17.18603304
_cell_angle_alpha   66.53445480
_cell_angle_beta   64.11072520
_cell_angle_gamma   61.82740000
_symmetry_Int_Tables_number   1
_chemical_formula_structural   ZnH26C38(NO3)2
_chemical_formula_sum   'Zn4 H104 C152 N8 O24'
_cell_volume   3154.19011928
_cell_formula_units_Z   4
loop_
 _symmetry_equiv_pos_site_id
 _symmetry_equiv_pos_as_xyz
  1  'x, y, z'
loop_
 _atom_site_type_symbol
 _atom_site_label
 _atom_site_symmetry_multiplicity
 _atom_site_fract_x
 _atom_site_fract_y
 _atom_site_fract_z
 _atom_site_occupancy
  Zn  Zn0  1  0.78601000  0.25295000  0.25238000  1.0
  Zn  Zn1  1  0.29137000  0.24691000  0.24755000  1.0
  Zn  Zn2  1  0.21400000  0.74705000  0.74762000  1.0
  Zn  Zn3  1  0.70863000  0.75309000  0.75245000  1.0
  H  H4  1  0.79089000  0.56796000  0.15800000  1.0
  H  H5  1  0.51716000  0.93197000  0.34193000  1.0
  H  H6  1  0.20911000  0.43204000  0.84200000  1.0
  H  H7  1  0.48284000  0.06803000  0.65808000  1.0
  H  H8  1  0.79252000  0.99460000  0.49608000  1.0
  H  H9  1  0.28324000  0.50550000  0.00374000  1.0
  H  H10  1  0.20748000  0.00539000  0.50392000  1.0
  H  H11  1  0.71677000  0.49450000  0.99626000  1.0
  H  H12  1  0.60241000  0.41456000  0.20610000  1.0
  H  H13  1  0.22299000  0.08534000  0.29387000  1.0
  H  H14  1  0.39759000  0.58544000  0.79390000  1.0
  H  H15  1  0.77701000  0.91465000  0.70613000  1.0
  H  H16  1  0.40697000  0.46824000  0.27404000  1.0
  H  H17  1  0.14929000  0.03154000  0.22593000  1.0
  H  H18  1  0.59303000  0.53176000  0.72596000  1.0
  H  H19  1  0.85070000  0.96846000  0.77408000  1.0
  H  H20  1  0.45921000  0.27630000  0.52554000  1.0
  H  H21  1  0.26103000  0.22348000  0.97440000  1.0
  H  H22  1  0.54079000  0.72370000  0.47446000  1.0
  H  H23  1  0.73897000  0.77652000  0.02560000  1.0
  H  H24  1  0.65293000  0.22948000  0.44601000  1.0
  H  H25  1  0.32838000  0.27037000  0.05392000  1.0
  H  H26  1  0.34707000  0.77052000  0.55399000  1.0
  H  H27  1  0.67162000  0.72963000  0.94608000  1.0
  H  H28  1  0.28120000  0.36958000  0.52493000  1.0
  H  H29  1  0.17577000  0.13021000  0.97505000  1.0
  H  H30  1  0.71881000  0.63042000  0.47507000  1.0
  H  H31  1  0.82423000  0.86979000  0.02495000  1.0
  H  H32  1  0.24580000  0.47666000  0.34078000  1.0
  H  H33  1  0.06337000  0.02314000  0.15924000  1.0
  H  H34  1  0.75420000  0.52334000  0.65922000  1.0
  H  H35  1  0.93663000  0.97686000  0.84076000  1.0
  H  H36  1  0.07242000  0.55364000  0.33580000  1.0
  H  H37  1  0.96186000  0.94626000  0.16420000  1.0
  H  H38  1  0.92758000  0.44636000  0.66420000  1.0
  H  H39  1  0.03814000  0.05374000  0.83580000  1.0
  H  H40  1  0.87969000  0.60124000  0.40616000  1.0
  H  H41  1  0.88687000  0.89897000  0.09378000  1.0
  H  H42  1  0.12031000  0.39876000  0.59384000  1.0
  H  H43  1  0.11314000  0.10103000  0.90621000  1.0
  H  H44  1  0.84036000  0.25438000  0.06452000  1.0
  H  H45  1  0.15924000  0.24550000  0.43555000  1.0
  H  H46  1  0.15964000  0.74562000  0.93548000  1.0
  H  H47  1  0.84076000  0.75449000  0.56445000  1.0
  H  H48  1  0.78070000  0.20558000  0.97994000  1.0
  H  H49  1  0.96622000  0.29437000  0.52011000  1.0
  H  H50  1  0.21930000  0.79443000  0.02006000  1.0
  H  H51  1  0.03378000  0.70563000  0.47989000  1.0
  H  H52  1  0.61224000  0.05736000  0.23356000  1.0
  H  H53  1  0.90322000  0.44272000  0.26646000  1.0
  H  H54  1  0.38776000  0.94264000  0.76644000  1.0
  H  H55  1  0.09678000  0.55728000  0.73354000  1.0
  H  H56  1  0.68163000  0.10975000  0.30676000  1.0
  H  H57  1  0.09819000  0.39020000  0.19329000  1.0
  H  H58  1  0.31837000  0.89025000  0.69324000  1.0
  H  H59  1  0.90181000  0.60980000  0.80671000  1.0
  H  H60  1  0.68232000  0.12512000  0.97738000  1.0
  H  H61  1  0.78487000  0.37481000  0.52267000  1.0
  H  H62  1  0.31768000  0.87488000  0.02262000  1.0
  H  H63  1  0.21513000  0.62519000  0.47733000  1.0
  H  H64  1  0.54610000  0.03891000  0.16041000  1.0
  H  H65  1  0.74544000  0.46108000  0.33966000  1.0
  H  H66  1  0.45390000  0.96109000  0.83959000  1.0
  H  H67  1  0.25455000  0.53892000  0.66034000  1.0
  H  H68  1  0.45477000  0.95340000  0.16484000  1.0
  H  H69  1  0.57309000  0.54668000  0.33516000  1.0
  H  H70  1  0.54523000  0.04660000  0.83516000  1.0
  H  H71  1  0.42691000  0.45332000  0.66484000  1.0
  H  H72  1  0.38701000  0.89875000  0.09365000  1.0
  H  H73  1  0.37946000  0.60136000  0.40631000  1.0
  H  H74  1  0.61299000  0.10125000  0.90635000  1.0
  H  H75  1  0.62054000  0.39863000  0.59369000  1.0
  H  H76  1  0.98166000  0.67049000  0.98081000  1.0
  H  H77  1  0.63322000  0.82963000  0.51912000  1.0
  H  H78  1  0.01834000  0.32951000  0.01919000  1.0
  H  H79  1  0.36678000  0.17037000  0.48088000  1.0
  H  H80  1  0.97101000  0.85999000  0.62876000  1.0
  H  H81  1  0.45963000  0.64028000  0.87145000  1.0
  H  H82  1  0.02899000  0.14001000  0.37124000  1.0
  H  H83  1  0.54037000  0.35972000  0.12855000  1.0
  H  H84  1  0.91435000  0.69275000  0.20090000  1.0
  H  H85  1  0.80809000  0.80700000  0.29904000  1.0
  H  H86  1  0.08565000  0.30725000  0.79910000  1.0
  H  H87  1  0.19191000  0.19300000  0.70096000  1.0
  H  H88  1  0.25443000  0.59317000  0.11424000  1.0
  H  H89  1  0.96172000  0.90678000  0.38574000  1.0
  H  H90  1  0.74556000  0.40683000  0.88576000  1.0
  H  H91  1  0.03828000  0.09321000  0.61426000  1.0
  H  H92  1  0.09086000  0.59147000  0.11643000  1.0
  H  H93  1  0.79870000  0.90837000  0.38352000  1.0
  H  H94  1  0.90914000  0.40853000  0.88357000  1.0
  H  H95  1  0.20130000  0.09163000  0.61648000  1.0
  H  H96  1  0.53539000  0.70142000  0.19450000  1.0
  H  H97  1  0.43119000  0.79862000  0.30563000  1.0
  H  H98  1  0.46461000  0.29858000  0.80550000  1.0
  H  H99  1  0.56881000  0.20138000  0.69437000  1.0
  H  H100  1  0.54453000  0.61591000  0.09621000  1.0
  H  H101  1  0.25647000  0.88411000  0.40390000  1.0
  H  H102  1  0.45547000  0.38409000  0.90379000  1.0
  H  H103  1  0.74353000  0.11589000  0.59610000  1.0
  H  H104  1  0.38194000  0.61459000  0.09545000  1.0
  H  H105  1  0.09186000  0.88542000  0.40454000  1.0
  H  H106  1  0.61806000  0.38541000  0.90455000  1.0
  H  H107  1  0.90814000  0.11458000  0.59546000  1.0
  C  C108  1  0.56652000  0.38524000  0.27648000  1.0
  C  C109  1  0.22821000  0.11462000  0.22347000  1.0
  C  C110  1  0.43348000  0.61476000  0.72352000  1.0
  C  C111  1  0.77179000  0.88538000  0.77653000  1.0
  C  C112  1  0.45764000  0.41448000  0.31527000  1.0
  C  C113  1  0.18743000  0.08531000  0.18470000  1.0
  C  C114  1  0.54236000  0.58552000  0.68473000  1.0
  C  C115  1  0.81257000  0.91469000  0.81530000  1.0
  C  C116  1  0.41475000  0.37486000  0.40662000  1.0
  C  C117  1  0.19631000  0.12491000  0.09334000  1.0
  C  C118  1  0.58525000  0.62514000  0.59338000  1.0
  C  C119  1  0.80369000  0.87509000  0.90666000  1.0
  C  C120  1  0.48725000  0.30936000  0.45468000  1.0
  C  C121  1  0.25132000  0.19043000  0.04527000  1.0
  C  C122  1  0.51276000  0.69064000  0.54532000  1.0
  C  C123  1  0.74868000  0.80957000  0.95473000  1.0
  C  C124  1  0.59531000  0.28280000  0.41104000  1.0
  C  C125  1  0.28913000  0.21705000  0.08891000  1.0
  C  C126  1  0.40469000  0.71720000  0.58896000  1.0
  C  C127  1  0.71086000  0.78296000  0.91109000  1.0
  C  C128  1  0.30205000  0.39812000  0.45262000  1.0
  C  C129  1  0.15289000  0.10165000  0.04734000  1.0
  C  C130  1  0.69795000  0.60187000  0.54738000  1.0
  C  C131  1  0.84711000  0.89835000  0.95266000  1.0
  C  C132  1  0.22424000  0.44956000  0.41336000  1.0
  C  C133  1  0.08726000  0.05023000  0.08666000  1.0
  C  C134  1  0.77576000  0.55044000  0.58664000  1.0
  C  C135  1  0.91274000  0.94977000  0.91334000  1.0
  C  C136  1  0.11135000  0.47338000  0.45895000  1.0
  C  C137  1  0.04373000  0.02648000  0.04108000  1.0
  C  C138  1  0.88865000  0.52662000  0.54106000  1.0
  C  C139  1  0.95627000  0.97352000  0.95892000  1.0
  C  C140  1  0.04040000  0.53057000  0.40803000  1.0
  C  C141  1  0.97897000  0.96938000  0.09198000  1.0
  C  C142  1  0.95961000  0.46943000  0.59197000  1.0
  C  C143  1  0.02103000  0.03063000  0.90801000  1.0
  C  C144  1  0.93171000  0.55691000  0.44790000  1.0
  C  C145  1  0.93641000  0.94318000  0.05209000  1.0
  C  C146  1  0.06829000  0.44309000  0.55210000  1.0
  C  C147  1  0.06358000  0.05682000  0.94791000  1.0
  C  C148  1  0.79051000  0.20998000  0.09868000  1.0
  C  C149  1  0.09920000  0.28990000  0.40137000  1.0
  C  C150  1  0.20949000  0.79002000  0.90132000  1.0
  C  C151  1  0.90079000  0.71010000  0.59863000  1.0
  C  C152  1  0.75576000  0.18334000  0.05249000  1.0
  C  C153  1  0.99160000  0.31661000  0.44755000  1.0
  C  C154  1  0.24424000  0.81666000  0.94751000  1.0
  C  C155  1  0.00840000  0.68339000  0.55245000  1.0
  C  C156  1  0.68826000  0.12895000  0.09900000  1.0
  C  C157  1  0.91620000  0.37104000  0.40104000  1.0
  C  C158  1  0.31174000  0.87105000  0.90100000  1.0
  C  C159  1  0.08379000  0.62896000  0.59896000  1.0
  C  C160  1  0.66241000  0.10102000  0.19283000  1.0
  C  C161  1  0.95628000  0.39902000  0.30721000  1.0
  C  C162  1  0.33759000  0.89898000  0.80717000  1.0
  C  C163  1  0.04372000  0.60098000  0.69279000  1.0
  C  C164  1  0.70051000  0.12977000  0.23440000  1.0
  C  C165  1  0.06471000  0.37019000  0.26565000  1.0
  C  C166  1  0.29949000  0.87023000  0.76560000  1.0
  C  C167  1  0.93528000  0.62981000  0.73435000  1.0
  C  C168  1  0.64994000  0.10398000  0.04988000  1.0
  C  C169  1  0.80382000  0.39599000  0.45017000  1.0
  C  C170  1  0.35006000  0.89602000  0.95012000  1.0
  C  C171  1  0.19618000  0.60401000  0.54983000  1.0
  C  C172  1  0.57905000  0.05800000  0.08776000  1.0
  C  C173  1  0.72482000  0.44198000  0.41230000  1.0
  C  C174  1  0.42095000  0.94200000  0.91224000  1.0
  C  C175  1  0.27518000  0.55801000  0.58770000  1.0
  C  C176  1  0.53990000  0.03041000  0.04136000  1.0
  C  C177  1  0.61167000  0.46957000  0.45868000  1.0
  C  C178  1  0.46010000  0.96959000  0.95864000  1.0
  C  C179  1  0.38833000  0.53042000  0.54132000  1.0
  C  C180  1  0.47508000  0.97317000  0.09233000  1.0
  C  C181  1  0.54062000  0.52687000  0.40768000  1.0
  C  C182  1  0.52492000  0.02683000  0.90767000  1.0
  C  C183  1  0.45938000  0.47312000  0.59232000  1.0
  C  C184  1  0.43635000  0.94318000  0.05213000  1.0
  C  C185  1  0.43168000  0.55687000  0.44784000  1.0
  C  C186  1  0.56365000  0.05682000  0.94787000  1.0
  C  C187  1  0.56832000  0.44313000  0.55216000  1.0
  C  C188  1  0.84863000  0.41713000  0.14281000  1.0
  C  C189  1  0.40867000  0.08279000  0.35714000  1.0
  C  C190  1  0.15137000  0.58287000  0.85719000  1.0
  C  C191  1  0.59133000  0.91721000  0.64286000  1.0
  C  C192  1  0.92588000  0.46029000  0.06870000  1.0
  C  C193  1  0.45493000  0.03966000  0.43128000  1.0
  C  C194  1  0.07412000  0.53971000  0.93130000  1.0
  C  C195  1  0.54507000  0.96034000  0.56872000  1.0
  C  C196  1  0.91447000  0.55752000  0.05915000  1.0
  C  C197  1  0.53135000  0.94250000  0.44076000  1.0
  C  C198  1  0.08553000  0.44248000  0.94085000  1.0
  C  C199  1  0.46864000  0.05750000  0.55924000  1.0
  C  C200  1  0.98917000  0.59579000  0.99017000  1.0
  C  C201  1  0.57528000  0.90428000  0.50977000  1.0
  C  C202  1  0.01083000  0.40421000  0.00983000  1.0
  C  C203  1  0.42472000  0.09572000  0.49023000  1.0
  C  C204  1  0.86013000  0.10630000  0.39138000  1.0
  C  C205  1  0.35783000  0.39363000  0.10844000  1.0
  C  C206  1  0.13986000  0.89370000  0.60863000  1.0
  C  C207  1  0.64217000  0.60637000  0.89156000  1.0
  C  C208  1  0.93154000  0.05211000  0.44789000  1.0
  C  C209  1  0.43157000  0.44783000  0.05199000  1.0
  C  C210  1  0.06846000  0.94789000  0.55211000  1.0
  C  C211  1  0.56843000  0.55216000  0.94801000  1.0
  C  C212  1  0.91291000  0.97302000  0.52161000  1.0
  C  C213  1  0.40752000  0.52708000  0.97837000  1.0
  C  C214  1  0.08709000  0.02698000  0.47839000  1.0
  C  C215  1  0.59249000  0.47292000  0.02162000  1.0
  C  C216  1  0.98256000  0.92157000  0.57243000  1.0
  C  C217  1  0.47649000  0.57859000  0.92768000  1.0
  C  C218  1  0.01744000  0.07843000  0.42757000  1.0
  C  C219  1  0.52351000  0.42141000  0.07232000  1.0
  C  C220  1  0.98733000  0.69270000  0.20054000  1.0
  C  C221  1  0.88062000  0.80716000  0.29940000  1.0
  C  C222  1  0.01267000  0.30730000  0.79946000  1.0
  C  C223  1  0.11938000  0.19284000  0.70060000  1.0
  C  C224  1  0.98058000  0.74995000  0.24995000  1.0
  C  C225  1  0.01942000  0.25005000  0.75005000  1.0
  C  C226  1  0.07643000  0.75000000  0.24996000  1.0
  C  C227  1  0.92357000  0.25000000  0.75004000  1.0
  C  C228  1  0.17710000  0.69404000  0.19842000  1.0
  C  C229  1  0.06952000  0.80598000  0.30152000  1.0
  C  C230  1  0.82290000  0.30596000  0.80158000  1.0
  C  C231  1  0.93048000  0.19402000  0.69848000  1.0
  C  C232  1  0.17891000  0.63771000  0.15247000  1.0
  C  C233  1  0.96903000  0.86223000  0.34749000  1.0
  C  C234  1  0.82110000  0.36230000  0.84753000  1.0
  C  C235  1  0.03097000  0.13777000  0.65251000  1.0
  C  C236  1  0.08520000  0.63683000  0.15332000  1.0
  C  C237  1  0.87534000  0.86303000  0.34663000  1.0
  C  C238  1  0.91480000  0.36317000  0.84668000  1.0
  C  C239  1  0.12466000  0.13697000  0.65337000  1.0
  C  C240  1  0.27489000  0.69788000  0.19501000  1.0
  C  C241  1  0.16772000  0.80217000  0.30496000  1.0
  C  C242  1  0.72511000  0.30212000  0.80499000  1.0
  C  C243  1  0.83227000  0.19783000  0.69505000  1.0
  C  C244  1  0.26808000  0.75003000  0.25000000  1.0
  C  C245  1  0.73192000  0.24997000  0.75001000  1.0
  C  C246  1  0.36393000  0.75002000  0.25003000  1.0
  C  C247  1  0.63607000  0.24998000  0.74997000  1.0
  C  C248  1  0.46330000  0.70056000  0.19409000  1.0
  C  C249  1  0.35785000  0.79945000  0.30602000  1.0
  C  C250  1  0.53669000  0.29944000  0.80591000  1.0
  C  C251  1  0.64215000  0.20055000  0.69398000  1.0
  C  C252  1  0.46806000  0.65347000  0.13941000  1.0
  C  C253  1  0.26080000  0.84655000  0.36068000  1.0
  C  C254  1  0.53194000  0.34654000  0.86059000  1.0
  C  C255  1  0.73920000  0.15345000  0.63932000  1.0
  C  C256  1  0.37470000  0.65226000  0.13986000  1.0
  C  C257  1  0.16673000  0.84775000  0.36015000  1.0
  C  C258  1  0.62530000  0.34774000  0.86014000  1.0
  C  C259  1  0.83328000  0.15225000  0.63984000  1.0
  N  N260  1  0.63511000  0.31841000  0.32284000  1.0
  N  N261  1  0.27631000  0.18147000  0.17710000  1.0
  N  N262  1  0.36489000  0.68158000  0.67716000  1.0
  N  N263  1  0.72369000  0.81853000  0.82290000  1.0
  N  N264  1  0.76279000  0.18463000  0.18856000  1.0
  N  N265  1  0.13602000  0.31524000  0.31148000  1.0
  N  N266  1  0.23722000  0.81537000  0.81143000  1.0
  N  N267  1  0.86398000  0.68476000  0.68851000  1.0
  O  O268  1  0.86626000  0.32749000  0.14979000  1.0
  O  O269  1  0.34371000  0.17245000  0.35010000  1.0
  O  O270  1  0.13374000  0.67251000  0.85021000  1.0
  O  O271  1  0.65629000  0.82755000  0.64990000  1.0
  O  O272  1  0.77120000  0.46886000  0.19577000  1.0
  O  O273  1  0.43591000  0.03100000  0.30424000  1.0
  O  O274  1  0.22880000  0.53114000  0.80423000  1.0
  O  O275  1  0.56410000  0.96900000  0.69576000  1.0
  O  O276  1  0.83277000  0.61307000  0.11591000  1.0
  O  O277  1  0.56215000  0.88697000  0.38395000  1.0
  O  O278  1  0.16723000  0.38693000  0.88409000  1.0
  O  O279  1  0.43784000  0.11303000  0.61605000  1.0
  O  O280  1  0.88105000  0.17717000  0.32583000  1.0
  O  O281  1  0.38398000  0.32279000  0.17402000  1.0
  O  O282  1  0.11895000  0.82283000  0.67417000  1.0
  O  O283  1  0.61603000  0.67721000  0.82598000  1.0
  O  O284  1  0.78310000  0.08067000  0.40975000  1.0
  O  O285  1  0.27359000  0.41928000  0.08999000  1.0
  O  O286  1  0.21689000  0.91933000  0.59026000  1.0
  O  O287  1  0.72641000  0.58072000  0.91001000  1.0
  O  O288  1  0.82902000  0.94731000  0.54369000  1.0
  O  O289  1  0.31998000  0.55291000  0.95628000  1.0
  O  O290  1  0.17098000  0.05269000  0.45631000  1.0
  O  O291  1  0.68003000  0.44709000  0.04371000  1.0
