# generated using pymatgen
data_CuH26C26(NO)4
_symmetry_space_group_name_H-M   'P 1'
_cell_length_a   6.86569000
_cell_length_b   9.49918431
_cell_length_c   10.98580000
_cell_angle_alpha   88.25459009
_cell_angle_beta   73.06430000
_cell_angle_gamma   69.70347303
_symmetry_Int_Tables_number   1
_chemical_formula_structural   CuH26C26(NO)4
_chemical_formula_sum   'Cu1 H26 C26 N4 O4'
_cell_volume   640.85565929
_cell_formula_units_Z   1
loop_
 _symmetry_equiv_pos_site_id
 _symmetry_equiv_pos_as_xyz
  1  'x, y, z'
loop_
 _atom_site_type_symbol
 _atom_site_label
 _atom_site_symmetry_multiplicity
 _atom_site_fract_x
 _atom_site_fract_y
 _atom_site_fract_z
 _atom_site_occupancy
  Cu  Cu0  1  0.00001000  0.50000000  0.00000000  1.0
  H  H1  1  0.47241000  0.31396000  0.93253000  1.0
  H  H2  1  0.52760000  0.68605000  0.06746000  1.0
  H  H3  1  0.89596000  0.33759000  0.34849000  1.0
  H  H4  1  0.10402000  0.66243000  0.65151000  1.0
  H  H5  1  0.89880000  0.16903000  0.28342000  1.0
  H  H6  1  0.10120000  0.83100000  0.71659000  1.0
  H  H7  1  0.79702000  0.34248000  0.21531000  1.0
  H  H8  1  0.20300000  0.65752000  0.78469000  1.0
  H  H9  1  0.82596000  0.13621000  0.96204000  1.0
  H  H10  1  0.17406000  0.86378000  0.03796000  1.0
  H  H11  1  0.78726000  0.96234000  0.00630000  1.0
  H  H12  1  0.21274000  0.03765000  0.99372000  1.0
  H  H13  1  0.80685000  0.08109000  0.11960000  1.0
  H  H14  1  0.19315000  0.91892000  0.88041000  1.0
  H  H15  1  0.54769000  0.96195000  0.25574000  1.0
  H  H16  1  0.45230000  0.03805000  0.74426000  1.0
  H  H17  1  0.28707000  0.95611000  0.28187000  1.0
  H  H18  1  0.71293000  0.04390000  0.71812000  1.0
  H  H19  1  0.42167000  0.29111000  0.35496000  1.0
  H  H20  1  0.57829000  0.70890000  0.64503000  1.0
  H  H21  1  0.30195000  0.41278000  0.57491000  1.0
  H  H22  1  0.69802000  0.58723000  0.42508000  1.0
  H  H23  1  0.02552000  0.07818000  0.72107000  1.0
  H  H24  1  0.97448000  0.92181000  0.27892000  1.0
  H  H25  1  0.17701000  0.94173000  0.50395000  1.0
  H  H26  1  0.82298000  0.05827000  0.49604000  1.0
  C  C27  1  0.50547000  0.16037000  0.07765000  1.0
  C  C28  1  0.49454000  0.83963000  0.92236000  1.0
  C  C29  1  0.34267000  0.14249000  0.18074000  1.0
  C  C30  1  0.65733000  0.85751000  0.81927000  1.0
  C  C31  1  0.14473000  0.24885000  0.17144000  1.0
  C  C32  1  0.85528000  0.75115000  0.82857000  1.0
  C  C33  1  0.92152000  0.27632000  0.25857000  1.0
  C  C34  1  0.07848000  0.72369000  0.74144000  1.0
  C  C35  1  0.74440000  0.08056000  0.03843000  1.0
  C  C36  1  0.25561000  0.91944000  0.96158000  1.0
  C  C37  1  0.37475000  0.03395000  0.28079000  1.0
  C  C38  1  0.62522000  0.96605000  0.71921000  1.0
  C  C39  1  0.30391000  0.10923000  0.41398000  1.0
  C  C40  1  0.69608000  0.89076000  0.58602000  1.0
  C  C41  1  0.33933000  0.24177000  0.43560000  1.0
  C  C42  1  0.66063000  0.75823000  0.56439000  1.0
  C  C43  1  0.26970000  0.31156000  0.55833000  1.0
  C  C44  1  0.73028000  0.68845000  0.44166000  1.0
  C  C45  1  0.15168000  0.25462000  0.66146000  1.0
  C  C46  1  0.84833000  0.74537000  0.33854000  1.0
  C  C47  1  0.11732000  0.12177000  0.64022000  1.0
  C  C48  1  0.88268000  0.87823000  0.35978000  1.0
  C  C49  1  0.19873000  0.04757000  0.51885000  1.0
  C  C50  1  0.80125000  0.95242000  0.48115000  1.0
  C  C51  1  0.05970000  0.33231000  0.79322000  1.0
  C  C52  1  0.94031000  0.66769000  0.20677000  1.0
  N  N53  1  0.18523000  0.32593000  0.06774000  1.0
  N  N54  1  0.81479000  0.67407000  0.93227000  1.0
  N  N55  1  0.40390000  0.27054000  0.01239000  1.0
  N  N56  1  0.59613000  0.72946000  0.98762000  1.0
  O  O57  1  0.17051000  0.40486000  0.82339000  1.0
  O  O58  1  0.82952000  0.59512000  0.17660000  1.0
  O  O59  1  0.88647000  0.32436000  0.86744000  1.0
  O  O60  1  0.11351000  0.67564000  0.13256000  1.0
