# generated using pymatgen
data_CoH36C40(N4Cl)2
_symmetry_space_group_name_H-M   'P 1'
_cell_length_a   7.74270000
_cell_length_b   9.09703000
_cell_length_c   12.55430000
_cell_angle_alpha   103.30200000
_cell_angle_beta   105.05300000
_cell_angle_gamma   91.40880000
_symmetry_Int_Tables_number   1
_chemical_formula_structural   CoH36C40(N4Cl)2
_chemical_formula_sum   'Co1 H36 C40 N8 Cl2'
_cell_volume   827.66296460
_cell_formula_units_Z   1
loop_
 _symmetry_equiv_pos_site_id
 _symmetry_equiv_pos_as_xyz
  1  'x, y, z'
loop_
 _atom_site_type_symbol
 _atom_site_label
 _atom_site_symmetry_multiplicity
 _atom_site_fract_x
 _atom_site_fract_y
 _atom_site_fract_z
 _atom_site_occupancy
  Co  Co0  1  0.00001000  0.49999000  0.50000000  1.0
  H  H1  1  0.69211000  0.33611000  0.77829000  1.0
  H  H2  1  0.30788000  0.66392000  0.22172000  1.0
  H  H3  1  0.98097000  0.36548000  0.92900000  1.0
  H  H4  1  0.01904000  0.63454000  0.07101000  1.0
  H  H5  1  0.78297000  0.01099000  0.05408000  1.0
  H  H6  1  0.21703000  0.98904000  0.94592000  1.0
  H  H7  1  0.49446000  0.97951000  0.90145000  1.0
  H  H8  1  0.50555000  0.02048000  0.09855000  1.0
  H  H9  1  0.38788000  0.23309000  0.69584000  1.0
  H  H10  1  0.61209000  0.76691000  0.30416000  1.0
  H  H11  1  0.10066000  0.16680000  0.62099000  1.0
  H  H12  1  0.89934000  0.83319000  0.37901000  1.0
  H  H13  1  0.02033000  0.18184000  0.74157000  1.0
  H  H14  1  0.97966000  0.81815000  0.25843000  1.0
  H  H15  1  0.16336000  0.80977000  0.61724000  1.0
  H  H16  1  0.83665000  0.19023000  0.38276000  1.0
  H  H17  1  0.72351000  0.08861000  0.61853000  1.0
  H  H18  1  0.27648000  0.91136000  0.38146000  1.0
  H  H19  1  0.51217000  0.84676000  0.52473000  1.0
  H  H20  1  0.48782000  0.15322000  0.47527000  1.0
  H  H21  1  0.64140000  0.60361000  0.48666000  1.0
  H  H22  1  0.35861000  0.39637000  0.51333000  1.0
  H  H23  1  0.06005000  0.13804000  0.15499000  1.0
  H  H24  1  0.93995000  0.86197000  0.84501000  1.0
  H  H25  1  0.33763000  0.21533000  0.24809000  1.0
  H  H26  1  0.66239000  0.78465000  0.75191000  1.0
  H  H27  1  0.29110000  0.40653000  0.28850000  1.0
  H  H28  1  0.70890000  0.59345000  0.71150000  1.0
  H  H29  1  0.62101000  0.37489000  0.40023000  1.0
  H  H30  1  0.37902000  0.62511000  0.59977000  1.0
  H  H31  1  0.46043000  0.40027000  0.05049000  1.0
  H  H32  1  0.53956000  0.59972000  0.94951000  1.0
  H  H33  1  0.77857000  0.50542000  0.07882000  1.0
  H  H34  1  0.22142000  0.49458000  0.92117000  1.0
  H  H35  1  0.99993000  0.54275000  0.26952000  1.0
  H  H36  1  0.00008000  0.45727000  0.73047000  1.0
  C  C37  1  0.57278000  0.15816000  0.83261000  1.0
  C  C38  1  0.42721000  0.84186000  0.16739000  1.0
  C  C39  1  0.71233000  0.26462000  0.83866000  1.0
  C  C40  1  0.28767000  0.73540000  0.16134000  1.0
  C  C41  1  0.87467000  0.28002000  0.92163000  1.0
  C  C42  1  0.12533000  0.72000000  0.07838000  1.0
  C  C43  1  0.90079000  0.19053000  0.00102000  1.0
  C  C44  1  0.09922000  0.80950000  0.99899000  1.0
  C  C45  1  0.76335000  0.08045000  0.99227000  1.0
  C  C46  1  0.23666000  0.91956000  0.00773000  1.0
  C  C47  1  0.60209000  0.06345000  0.90839000  1.0
  C  C48  1  0.39791000  0.93657000  0.09161000  1.0
  C  C49  1  0.39612000  0.15673000  0.75370000  1.0
  C  C50  1  0.60387000  0.84327000  0.24630000  1.0
  C  C51  1  0.08594000  0.10567000  0.68521000  1.0
  C  C52  1  0.91404000  0.89431000  0.31479000  1.0
  C  C53  1  0.02027000  0.82258000  0.59955000  1.0
  C  C54  1  0.97973000  0.17741000  0.40045000  1.0
  C  C55  1  0.95881000  0.96522000  0.62799000  1.0
  C  C56  1  0.04118000  0.03477000  0.37201000  1.0
  C  C57  1  0.77340000  0.97730000  0.59957000  1.0
  C  C58  1  0.22658000  0.02268000  0.40043000  1.0
  C  C59  1  0.65800000  0.84646000  0.54742000  1.0
  C  C60  1  0.34200000  0.15352000  0.45258000  1.0
  C  C61  1  0.72942000  0.70771000  0.52385000  1.0
  C  C62  1  0.27058000  0.29227000  0.47616000  1.0
  C  C63  1  0.06177000  0.21203000  0.09651000  1.0
  C  C64  1  0.93823000  0.78798000  0.90349000  1.0
  C  C65  1  0.33118000  0.32328000  0.22152000  1.0
  C  C66  1  0.66883000  0.67672000  0.77849000  1.0
  C  C67  1  0.64994000  0.40397000  0.32664000  1.0
  C  C68  1  0.35007000  0.59603000  0.67336000  1.0
  C  C69  1  0.51625000  0.38069000  0.22369000  1.0
  C  C70  1  0.48376000  0.61930000  0.77631000  1.0
  C  C71  1  0.56143000  0.41727000  0.13193000  1.0
  C  C72  1  0.43857000  0.58272000  0.86807000  1.0
  C  C73  1  0.73702000  0.47580000  0.14829000  1.0
  C  C74  1  0.26297000  0.52421000  0.85171000  1.0
  C  C75  1  0.86219000  0.49640000  0.25365000  1.0
  C  C76  1  0.13781000  0.50361000  0.74635000  1.0
  N  N77  1  0.25683000  0.07902000  0.75549000  1.0
  N  N78  1  0.74316000  0.92097000  0.24451000  1.0
  N  N79  1  0.19428000  0.31088000  0.11571000  1.0
  N  N80  1  0.80573000  0.68912000  0.88430000  1.0
  N  N81  1  0.90810000  0.69485000  0.54720000  1.0
  N  N82  1  0.09190000  0.30515000  0.45279000  1.0
  N  N83  1  0.82003000  0.46204000  0.34387000  1.0
  N  N84  1  0.17998000  0.53796000  0.65613000  1.0
  Cl  Cl85  1  0.76063000  0.36390000  0.57861000  1.0
  Cl  Cl86  1  0.23938000  0.63609000  0.42139000  1.0
