# generated using pymatgen
data_Cu3H10C10(NCl3)2
_symmetry_space_group_name_H-M   'P 1'
_cell_length_a   3.78814000
_cell_length_b   9.12187000
_cell_length_c   12.44302838
_cell_angle_alpha   110.42113343
_cell_angle_beta   93.12877738
_cell_angle_gamma   96.84360000
_symmetry_Int_Tables_number   1
_chemical_formula_structural   Cu3H10C10(NCl3)2
_chemical_formula_sum   'Cu3 H10 C10 N2 Cl6'
_cell_volume   397.93283499
_cell_formula_units_Z   1
loop_
 _symmetry_equiv_pos_site_id
 _symmetry_equiv_pos_as_xyz
  1  'x, y, z'
loop_
 _atom_site_type_symbol
 _atom_site_label
 _atom_site_symmetry_multiplicity
 _atom_site_fract_x
 _atom_site_fract_y
 _atom_site_fract_z
 _atom_site_occupancy
  Cu  Cu0  1  0.50200000  0.50183000  0.50161000  1.0
  Cu  Cu1  1  0.95447000  0.79403000  0.73115000  1.0
  Cu  Cu2  1  0.03795000  0.20557000  0.26928000  1.0
  H  H3  1  0.89202000  0.06425000  0.94085000  1.0
  H  H4  1  0.10733000  0.93737000  0.06013000  1.0
  H  H5  1  0.06405000  0.35471000  0.01129000  1.0
  H  H6  1  0.93982000  0.64658000  0.98867000  1.0
  H  H7  1  0.32893000  0.48058000  0.87415000  1.0
  H  H8  1  0.67579000  0.51879000  0.12491000  1.0
  H  H9  1  0.40380000  0.30217000  0.67470000  1.0
  H  H10  1  0.59620000  0.69549000  0.32419000  1.0
  H  H11  1  0.21892000  0.01138000  0.61801000  1.0
  H  H12  1  0.77570000  0.98704000  0.38190000  1.0
  C  C13  1  0.10527000  0.28514000  0.92317000  1.0
  C  C14  1  0.89701000  0.71545000  0.07675000  1.0
  C  C15  1  0.01054000  0.12165000  0.88526000  1.0
  C  C16  1  0.98925000  0.87908000  0.11523000  1.0
  C  C17  1  0.19098000  0.09268000  0.70406000  1.0
  C  C18  1  0.80605000  0.90625000  0.29589000  1.0
  C  C19  1  0.29300000  0.25459000  0.73650000  1.0
  C  C20  1  0.70694000  0.74405000  0.26290000  1.0
  C  C21  1  0.25096000  0.35300000  0.84803000  1.0
  C  C22  1  0.75160000  0.64657000  0.15137000  1.0
  N  N23  1  0.05402000  0.02766000  0.77776000  1.0
  N  N24  1  0.94304000  0.97231000  0.22271000  1.0
  Cl  Cl25  1  0.89608000  0.52080000  0.65040000  1.0
  Cl  Cl26  1  0.10497000  0.47835000  0.35088000  1.0
  Cl  Cl27  1  0.60173000  0.77057000  0.56127000  1.0
  Cl  Cl28  1  0.40017000  0.23081000  0.43767000  1.0
  Cl  Cl29  1  0.41870000  0.79053000  0.85561000  1.0
  Cl  Cl30  1  0.58270000  0.21073000  0.14370000  1.0
