# generated using pymatgen
data_FeMo4H24C36N12O13
_symmetry_space_group_name_H-M   'P 1'
_cell_length_a   8.12201000
_cell_length_b   8.64876000
_cell_length_c   13.66640000
_cell_angle_alpha   80.85630000
_cell_angle_beta   84.54470000
_cell_angle_gamma   82.38220000
_symmetry_Int_Tables_number   1
_chemical_formula_structural   FeMo4H24C36N12O13
_chemical_formula_sum   'Fe1 Mo4 H24 C36 N12 O13'
_cell_volume   936.74672706
_cell_formula_units_Z   1
loop_
 _symmetry_equiv_pos_site_id
 _symmetry_equiv_pos_as_xyz
  1  'x, y, z'
loop_
 _atom_site_type_symbol
 _atom_site_label
 _atom_site_symmetry_multiplicity
 _atom_site_fract_x
 _atom_site_fract_y
 _atom_site_fract_z
 _atom_site_occupancy
  Fe  Fe0  1  0.50000000  0.00000000  0.00000000  1.0
  Mo  Mo1  1  0.14505000  0.31628000  0.92404000  1.0
  Mo  Mo2  1  0.85495000  0.68372000  0.07596000  1.0
  Mo  Mo3  1  0.31037000  0.63009000  0.04613000  1.0
  Mo  Mo4  1  0.68963000  0.36991000  0.95387000  1.0
  H  H5  1  0.58273000  0.39190000  0.20293000  1.0
  H  H6  1  0.41727000  0.60810000  0.79707000  1.0
  H  H7  1  0.62093000  0.22707000  0.37086000  1.0
  H  H8  1  0.37907000  0.77293000  0.62914000  1.0
  H  H9  1  0.99669000  0.92180000  0.22579000  1.0
  H  H10  1  0.00331000  0.07820000  0.77421000  1.0
  H  H11  1  0.93670000  0.09091000  0.06516000  1.0
  H  H12  1  0.06330000  0.90909000  0.93484000  1.0
  H  H13  1  0.66498000  0.73707000  0.90646000  1.0
  H  H14  1  0.33501000  0.26293000  0.09354000  1.0
  H  H15  1  0.80968000  0.69222000  0.74393000  1.0
  H  H16  1  0.19031000  0.30778000  0.25607000  1.0
  H  H17  1  0.58597000  0.15360000  0.62041000  1.0
  H  H18  1  0.41403000  0.84641000  0.37958000  1.0
  H  H19  1  0.46805000  0.19086000  0.79347000  1.0
  H  H20  1  0.53195000  0.80914000  0.20653000  1.0
  H  H21  1  0.12584000  0.54671000  0.64756000  1.0
  H  H22  1  0.87416000  0.45329000  0.35244000  1.0
  H  H23  1  0.34667000  0.32306000  0.63853000  1.0
  H  H24  1  0.65333000  0.67695000  0.36148000  1.0
  H  H25  1  0.41631000  0.43127000  0.33171000  1.0
  H  H26  1  0.58369000  0.56873000  0.66829000  1.0
  H  H27  1  0.19445000  0.65626000  0.32771000  1.0
  H  H28  1  0.80556000  0.34374000  0.67229000  1.0
  C  C29  1  0.67267000  0.28620000  0.21132000  1.0
  C  C30  1  0.32733000  0.71380000  0.78868000  1.0
  C  C31  1  0.69427000  0.19542000  0.30425000  1.0
  C  C32  1  0.30573000  0.80458000  0.69575000  1.0
  C  C33  1  0.81294000  0.06171000  0.31080000  1.0
  C  C34  1  0.18707000  0.93828000  0.68920000  1.0
  C  C35  1  0.90369000  0.02488000  0.22354000  1.0
  C  C36  1  0.09632000  0.97512000  0.77646000  1.0
  C  C37  1  0.87151000  0.11989000  0.13428000  1.0
  C  C38  1  0.12850000  0.88011000  0.86572000  1.0
  C  C39  1  0.65525000  0.82891000  0.84264000  1.0
  C  C40  1  0.34475000  0.17109000  0.15736000  1.0
  C  C41  1  0.73389000  0.80372000  0.75133000  1.0
  C  C42  1  0.26611000  0.19629000  0.24867000  1.0
  C  C43  1  0.71245000  0.92173000  0.66926000  1.0
  C  C44  1  0.28755000  0.07828000  0.33074000  1.0
  C  C45  1  0.60949000  0.06109000  0.68331000  1.0
  C  C46  1  0.39051000  0.93892000  0.31668000  1.0
  C  C47  1  0.54221000  0.08132000  0.77869000  1.0
  C  C48  1  0.45779000  0.91868000  0.22131000  1.0
  C  C49  1  0.80088000  0.89566000  0.57267000  1.0
  C  C50  1  0.19913000  0.10434000  0.42733000  1.0
  C  C51  1  0.84695000  0.95945000  0.40612000  1.0
  C  C52  1  0.15306000  0.04054000  0.59388000  1.0
  C  C53  1  0.00606000  0.75225000  0.48875000  1.0
  C  C54  1  0.99395000  0.24775000  0.51125000  1.0
  C  C55  1  0.14280000  0.62164000  0.48795000  1.0
  C  C56  1  0.85720000  0.37836000  0.51205000  1.0
  C  C57  1  0.18821000  0.52596000  0.57604000  1.0
  C  C58  1  0.81180000  0.47404000  0.42396000  1.0
  C  C59  1  0.31295000  0.39983000  0.57027000  1.0
  C  C60  1  0.68705000  0.60017000  0.42973000  1.0
  C  C61  1  0.35071000  0.45922000  0.40118000  1.0
  C  C62  1  0.64930000  0.54078000  0.59882000  1.0
  C  C63  1  0.22674000  0.58698000  0.39834000  1.0
  C  C64  1  0.77326000  0.41302000  0.60166000  1.0
  N  N65  1  0.75866000  0.24940000  0.12708000  1.0
  N  N66  1  0.24134000  0.75060000  0.87292000  1.0
  N  N67  1  0.56607000  0.96729000  0.85805000  1.0
  N  N68  1  0.43393000  0.03272000  0.14195000  1.0
  N  N69  1  0.75701000  0.99227000  0.48971000  1.0
  N  N70  1  0.24299000  0.00773000  0.51029000  1.0
  N  N71  1  0.97060000  0.84066000  0.40162000  1.0
  N  N72  1  0.02940000  0.15934000  0.59838000  1.0
  N  N73  1  0.92506000  0.77591000  0.57625000  1.0
  N  N74  1  0.07494000  0.22409000  0.42375000  1.0
  N  N75  1  0.39425000  0.36471000  0.48489000  1.0
  N  N76  1  0.60575000  0.63529000  0.51511000  1.0
  O  O77  1  0.26477000  0.13429000  0.95920000  1.0
  O  O78  1  0.73523000  0.86572000  0.04080000  1.0
  O  O79  1  0.92693000  0.27587000  0.93387000  1.0
  O  O80  1  0.07307000  0.72413000  0.06613000  1.0
  O  O81  1  0.20696000  0.38648000  0.80311000  1.0
  O  O82  1  0.79304000  0.61352000  0.19689000  1.0
  O  O83  1  0.18480000  0.45187000  0.00431000  1.0
  O  O84  1  0.81519000  0.54813000  0.99569000  1.0
  O  O85  1  0.50000000  0.50000000  0.00000000  1.0
  O  O86  1  0.40189000  0.80862000  0.03079000  1.0
  O  O87  1  0.59811000  0.19138000  0.96920000  1.0
  O  O88  1  0.32033000  0.56026000  0.17020000  1.0
  O  O89  1  0.67967000  0.43975000  0.82980000  1.0
