# generated using pymatgen
data_ZnH16C21N2O7
_symmetry_space_group_name_H-M   'P 1'
_cell_length_a   9.79153000
_cell_length_b   11.12890000
_cell_length_c   23.79390000
_cell_angle_alpha   89.21260000
_cell_angle_beta   78.17700000
_cell_angle_gamma   84.55220000
_symmetry_Int_Tables_number   1
_chemical_formula_structural   ZnH16C21N2O7
_chemical_formula_sum   'Zn2 H32 C42 N4 O14'
_cell_volume   2526.28458195
_cell_formula_units_Z   2
loop_
 _symmetry_equiv_pos_site_id
 _symmetry_equiv_pos_as_xyz
  1  'x, y, z'
loop_
 _atom_site_type_symbol
 _atom_site_label
 _atom_site_symmetry_multiplicity
 _atom_site_fract_x
 _atom_site_fract_y
 _atom_site_fract_z
 _atom_site_occupancy
  Zn  Zn0  1  0.64897000  0.51129000  0.48088000  1.0
  Zn  Zn1  1  0.35402000  0.48426000  0.51528000  1.0
  H  H2  1  0.49106000  0.80582000  0.94490000  1.0
  H  H3  1  0.49964000  0.19946000  0.05288000  1.0
  H  H4  1  0.48059000  0.80520000  0.05222000  1.0
  H  H5  1  0.51168000  0.19994000  0.94545000  1.0
  H  H6  1  0.67724000  0.39686000  0.20089000  1.0
  H  H7  1  0.31293000  0.60243000  0.79547000  1.0
  H  H8  1  0.67227000  0.40276000  0.30631000  1.0
  H  H9  1  0.31965000  0.59068000  0.69004000  1.0
  H  H10  1  0.27675000  0.60910000  0.23077000  1.0
  H  H11  1  0.71953000  0.40064000  0.76807000  1.0
  H  H12  1  0.39257000  0.10779000  0.50095000  1.0
  H  H13  1  0.62143000  0.88767000  0.48662000  1.0
  H  H14  1  0.71475000  0.09490000  0.48090000  1.0
  H  H15  1  0.29841000  0.90314000  0.51207000  1.0
  H  H16  1  0.87131000  0.42638000  0.52593000  1.0
  H  H17  1  0.13523000  0.55282000  0.46249000  1.0
  H  H18  1  0.80161000  0.61303000  0.35713000  1.0
  H  H19  1  0.72271000  0.72945000  0.40665000  1.0
  H  H20  1  0.87539000  0.75377000  0.35379000  1.0
  H  H21  1  0.93726000  0.71707000  0.44968000  1.0
  H  H22  1  0.02058000  0.60445000  0.39889000  1.0
  H  H23  1  0.23644000  0.21556000  0.56121000  1.0
  H  H24  1  0.26695000  0.31865000  0.61253000  1.0
  H  H25  1  0.13009000  0.22177000  0.63170000  1.0
  H  H26  1  0.02953000  0.42971000  0.61436000  1.0
  H  H27  1  0.99619000  0.32496000  0.56522000  1.0
  H  H28  1  0.34555000  0.71753000  0.39514000  1.0
  H  H29  1  0.17463000  0.77904000  0.38837000  1.0
  H  H30  1  0.32160000  0.79856000  0.33112000  1.0
  H  H31  1  0.82803000  0.22036000  0.61504000  1.0
  H  H32  1  0.66429000  0.28430000  0.60081000  1.0
  H  H33  1  0.67076000  0.20799000  0.66779000  1.0
  C  C34  1  0.42987000  0.73008000  0.50352000  1.0
  C  C35  1  0.58137000  0.26700000  0.49024000  1.0
  C  C36  1  0.58910000  0.44383000  0.23030000  1.0
  C  C37  1  0.40304000  0.55691000  0.76653000  1.0
  C  C38  1  0.58597000  0.44698000  0.28888000  1.0
  C  C39  1  0.40726000  0.55060000  0.70791000  1.0
  C  C40  1  0.47280000  0.50589000  0.32768000  1.0
  C  C41  1  0.52281000  0.49299000  0.66981000  1.0
  C  C42  1  0.36091000  0.56483000  0.30575000  1.0
  C  C43  1  0.63590000  0.43869000  0.69244000  1.0
  C  C44  1  0.36309000  0.56142000  0.24688000  1.0
  C  C45  1  0.63249000  0.44532000  0.75132000  1.0
  C  C46  1  0.47649000  0.50131000  0.20969000  1.0
  C  C47  1  0.51671000  0.50368000  0.78784000  1.0
  C  C48  1  0.40708000  0.86360000  0.50345000  1.0
  C  C49  1  0.60580000  0.13348000  0.48792000  1.0
  C  C50  1  0.51532000  0.93325000  0.49411000  1.0
  C  C51  1  0.49883000  0.06280000  0.49452000  1.0
  C  C52  1  0.07630000  0.49837000  0.49576000  1.0
  C  C53  1  0.92823000  0.48868000  0.49614000  1.0
  C  C54  1  0.47846000  0.50047000  0.39030000  1.0
  C  C55  1  0.51852000  0.49455000  0.60701000  1.0
  C  C56  1  0.51066000  0.39030000  0.87663000  1.0
  C  C57  1  0.48191000  0.61504000  0.12096000  1.0
  C  C58  1  0.50610000  0.61658000  0.87623000  1.0
  C  C59  1  0.48355000  0.38896000  0.12158000  1.0
  C  C60  1  0.49823000  0.61402000  0.93914000  1.0
  C  C61  1  0.49238000  0.39128000  0.05862000  1.0
  C  C62  1  0.49876000  0.50281000  0.96866000  1.0
  C  C63  1  0.49238000  0.50246000  0.02904000  1.0
  C  C64  1  0.50549000  0.39194000  0.93934000  1.0
  C  C65  1  0.48617000  0.61327000  0.05832000  1.0
  C  C66  1  0.49140000  0.72172000  0.96892000  1.0
  C  C67  1  0.49955000  0.28353000  0.02883000  1.0
  C  C68  1  0.48550000  0.72139000  0.02838000  1.0
  C  C69  1  0.50617000  0.28382000  0.96931000  1.0
  C  C70  1  0.91795000  0.64165000  0.42360000  1.0
  C  C71  1  0.82335000  0.68704000  0.38297000  1.0
  C  C72  1  0.08033000  0.36962000  0.57815000  1.0
  C  C73  1  0.18530000  0.27597000  0.59690000  1.0
  C  C74  1  0.27555000  0.73694000  0.36483000  1.0
  C  C75  1  0.72534000  0.26615000  0.63443000  1.0
  N  N76  1  0.51209000  0.50368000  0.84888000  1.0
  N  N77  1  0.47960000  0.50184000  0.14880000  1.0
  N  N78  1  0.14570000  0.44609000  0.53135000  1.0
  N  N79  1  0.85647000  0.55029000  0.46402000  1.0
  O  O80  1  0.55671000  0.68346000  0.49058000  1.0
  O  O81  1  0.45461000  0.31351000  0.49933000  1.0
  O  O82  1  0.32148000  0.67199000  0.51607000  1.0
  O  O83  1  0.68987000  0.32540000  0.48337000  1.0
  O  O84  1  0.60054000  0.49377000  0.40167000  1.0
  O  O85  1  0.39752000  0.48893000  0.59544000  1.0
  O  O86  1  0.36384000  0.50091000  0.42680000  1.0
  O  O87  1  0.63180000  0.50348000  0.57082000  1.0
  O  O88  1  0.51304000  0.29646000  0.84975000  1.0
  O  O89  1  0.48104000  0.70885000  0.14768000  1.0
  O  O90  1  0.50783000  0.71085000  0.84876000  1.0
  O  O91  1  0.47960000  0.29494000  0.14924000  1.0
  O  O92  1  0.24575000  0.62833000  0.33943000  1.0
  O  O93  1  0.75275000  0.37581000  0.65970000  1.0
