# generated using pymatgen
data_CdH16C20N6O5
_symmetry_space_group_name_H-M   'P 1'
_cell_length_a   7.24643000
_cell_length_b   10.32970000
_cell_length_c   13.75250000
_cell_angle_alpha   104.82000000
_cell_angle_beta   91.91780000
_cell_angle_gamma   96.17260000
_symmetry_Int_Tables_number   1
_chemical_formula_structural   CdH16C20N6O5
_chemical_formula_sum   'Cd2 H32 C40 N12 O10'
_cell_volume   987.41526788
_cell_formula_units_Z   2
loop_
 _symmetry_equiv_pos_site_id
 _symmetry_equiv_pos_as_xyz
  1  'x, y, z'
loop_
 _atom_site_type_symbol
 _atom_site_label
 _atom_site_symmetry_multiplicity
 _atom_site_fract_x
 _atom_site_fract_y
 _atom_site_fract_z
 _atom_site_occupancy
  Cd  Cd0  1  0.20442000  0.78152000  0.88420000  1.0
  Cd  Cd1  1  0.79558000  0.21849000  0.11580000  1.0
  H  H2  1  0.86002000  0.83775000  0.00301000  1.0
  H  H3  1  0.13999000  0.16226000  0.99699000  1.0
  H  H4  1  0.84547000  0.68923000  0.92925000  1.0
  H  H5  1  0.15453000  0.31078000  0.07075000  1.0
  H  H6  1  0.07639000  0.16967000  0.33069000  1.0
  H  H7  1  0.92361000  0.83032000  0.66931000  1.0
  H  H8  1  0.24842000  0.16825000  0.41953000  1.0
  H  H9  1  0.75158000  0.83174000  0.58047000  1.0
  H  H10  1  0.34649000  0.05621000  0.04869000  1.0
  H  H11  1  0.65353000  0.94379000  0.95132000  1.0
  H  H12  1  0.28872000  0.66195000  0.06986000  1.0
  H  H13  1  0.71127000  0.33805000  0.93014000  1.0
  H  H14  1  0.34745000  0.73797000  0.25857000  1.0
  H  H15  1  0.65252000  0.26203000  0.74143000  1.0
  H  H16  1  0.40116000  0.98326000  0.34369000  1.0
  H  H17  1  0.59882000  0.01674000  0.65631000  1.0
  H  H18  1  0.16320000  0.42396000  0.48400000  1.0
  H  H19  1  0.83677000  0.57603000  0.51599000  1.0
  H  H20  1  0.14246000  0.63992000  0.61671000  1.0
  H  H21  1  0.85753000  0.36007000  0.38329000  1.0
  H  H22  1  0.32321000  0.85129000  0.60005000  1.0
  H  H23  1  0.67679000  0.14870000  0.39995000  1.0
  H  H24  1  0.56488000  0.64524000  0.34560000  1.0
  H  H25  1  0.43512000  0.35474000  0.65440000  1.0
  H  H26  1  0.18673000  0.29045000  0.89250000  1.0
  H  H27  1  0.81330000  0.70955000  0.10750000  1.0
  H  H28  1  0.00529000  0.39869000  0.62817000  1.0
  H  H29  1  0.99473000  0.60133000  0.37184000  1.0
  H  H30  1  0.98782000  0.15899000  0.52778000  1.0
  H  H31  1  0.01217000  0.84103000  0.47222000  1.0
  H  H32  1  0.06914000  0.98393000  0.61247000  1.0
  H  H33  1  0.93085000  0.01608000  0.38753000  1.0
  C  C34  1  0.34784000  0.98872000  0.09756000  1.0
  C  C35  1  0.65217000  0.01128000  0.90244000  1.0
  C  C36  1  0.31636000  0.76836000  0.11026000  1.0
  C  C37  1  0.68363000  0.23164000  0.88974000  1.0
  C  C38  1  0.34772000  0.81179000  0.21462000  1.0
  C  C39  1  0.65226000  0.18821000  0.78538000  1.0
  C  C40  1  0.37614000  0.94938000  0.26197000  1.0
  C  C41  1  0.62385000  0.05061000  0.73803000  1.0
  C  C42  1  0.37653000  0.04101000  0.20218000  1.0
  C  C43  1  0.62348000  0.95898000  0.79782000  1.0
  C  C44  1  0.40841000  0.18779000  0.24023000  1.0
  C  C45  1  0.59159000  0.81220000  0.75976000  1.0
  C  C46  1  0.39182000  0.39838000  0.32451000  1.0
  C  C47  1  0.60817000  0.60161000  0.67549000  1.0
  C  C48  1  0.35974000  0.51899000  0.40187000  1.0
  C  C49  1  0.64026000  0.48100000  0.59812000  1.0
  C  C50  1  0.24140000  0.51823000  0.48045000  1.0
  C  C51  1  0.75858000  0.48176000  0.51955000  1.0
  C  C52  1  0.22905000  0.63817000  0.55315000  1.0
  C  C53  1  0.77095000  0.36182000  0.44684000  1.0
  C  C54  1  0.33317000  0.75586000  0.54457000  1.0
  C  C55  1  0.66683000  0.24413000  0.45543000  1.0
  C  C56  1  0.46431000  0.64263000  0.40261000  1.0
  C  C57  1  0.53569000  0.35736000  0.59738000  1.0
  C  C58  1  0.14036000  0.25921000  0.81300000  1.0
  C  C59  1  0.85966000  0.74080000  0.18701000  1.0
  C  C60  1  0.09746000  0.35783000  0.76566000  1.0
  C  C61  1  0.90256000  0.64218000  0.23435000  1.0
  C  C62  1  0.04025000  0.32051000  0.66307000  1.0
  C  C63  1  0.95977000  0.67949000  0.33694000  1.0
  C  C64  1  0.03059000  0.18648000  0.60773000  1.0
  C  C65  1  0.96943000  0.81352000  0.39227000  1.0
  C  C66  1  0.07348000  0.08864000  0.65516000  1.0
  C  C67  1  0.92653000  0.91137000  0.34484000  1.0
  C  C68  1  0.12494000  0.12354000  0.75867000  1.0
  C  C69  1  0.87509000  0.87647000  0.24134000  1.0
  C  C70  1  0.15812000  0.01489000  0.80880000  1.0
  C  C71  1  0.84188000  0.98511000  0.19120000  1.0
  C  C72  1  0.11639000  0.50403000  0.82243000  1.0
  C  C73  1  0.88362000  0.49599000  0.17757000  1.0
  N  N74  1  0.31600000  0.85637000  0.05288000  1.0
  N  N75  1  0.68400000  0.14363000  0.94712000  1.0
  N  N76  1  0.52034000  0.26924000  0.20113000  1.0
  N  N77  1  0.47965000  0.73076000  0.79887000  1.0
  N  N78  1  0.51048000  0.40000000  0.25313000  1.0
  N  N79  1  0.48951000  0.60000000  0.74688000  1.0
  N  N80  1  0.32365000  0.26603000  0.31812000  1.0
  N  N81  1  0.67635000  0.73396000  0.68187000  1.0
  N  N82  1  0.18970000  0.22293000  0.37703000  1.0
  N  N83  1  0.81030000  0.77706000  0.62297000  1.0
  N  N84  1  0.45147000  0.75885000  0.47143000  1.0
  N  N85  1  0.54854000  0.24114000  0.52857000  1.0
  O  O86  1  0.13731000  0.89254000  0.75508000  1.0
  O  O87  1  0.86269000  0.10746000  0.24491000  1.0
  O  O88  1  0.20489000  0.04430000  0.90271000  1.0
  O  O89  1  0.79509000  0.95569000  0.09729000  1.0
  O  O90  1  0.19147000  0.54078000  0.91107000  1.0
  O  O91  1  0.80853000  0.45924000  0.08893000  1.0
  O  O92  1  0.05680000  0.58565000  0.77539000  1.0
  O  O93  1  0.94320000  0.41436000  0.22461000  1.0
  O  O94  1  0.89321000  0.78297000  0.93598000  1.0
  O  O95  1  0.10680000  0.21703000  0.06402000  1.0
