# generated using pymatgen
data_AlH5C11NO5F2
_symmetry_space_group_name_H-M   'P 1'
_cell_length_a   6.66085000
_cell_length_b   11.11450000
_cell_length_c   16.94080000
_cell_angle_alpha   85.01570000
_cell_angle_beta   83.83720000
_cell_angle_gamma   73.60320000
_symmetry_Int_Tables_number   1
_chemical_formula_structural   AlH5C11NO5F2
_chemical_formula_sum   'Al2 H10 C22 N2 O10 F4'
_cell_volume   1194.09489029
_cell_formula_units_Z   2
loop_
 _symmetry_equiv_pos_site_id
 _symmetry_equiv_pos_as_xyz
  1  'x, y, z'
loop_
 _atom_site_type_symbol
 _atom_site_label
 _atom_site_symmetry_multiplicity
 _atom_site_fract_x
 _atom_site_fract_y
 _atom_site_fract_z
 _atom_site_occupancy
  Al  Al0  1  0.50000000  0.49999000  0.50001000  1.0
  Al  Al1  1  0.00000000  0.50000000  0.50000000  1.0
  H  H2  1  0.20364000  0.63455000  0.43310000  1.0
  H  H3  1  0.79640000  0.36541000  0.56689000  1.0
  H  H4  1  0.84124000  0.54819000  0.73379000  1.0
  H  H5  1  0.77656000  0.54697000  0.88231000  1.0
  H  H6  1  0.44510000  0.45546000  0.89903000  1.0
  H  H7  1  0.55491000  0.54452000  0.10097000  1.0
  H  H8  1  0.22344000  0.45308000  0.11770000  1.0
  H  H9  1  0.15875000  0.45185000  0.26621000  1.0
  H  H10  1  0.25073000  0.87182000  0.53808000  1.0
  H  H11  1  0.74927000  0.12817000  0.46190000  1.0
  C  C12  1  0.63792000  0.72630000  0.50131000  1.0
  C  C13  1  0.79754000  0.49636000  0.35644000  1.0
  C  C14  1  0.36208000  0.27369000  0.49869000  1.0
  C  C15  1  0.20246000  0.50363000  0.64356000  1.0
  C  C16  1  0.17597000  0.50442000  0.73227000  1.0
  C  C17  1  0.97132000  0.52925000  0.77108000  1.0
  C  C18  1  0.93506000  0.52794000  0.85307000  1.0
  C  C19  1  0.10698000  0.50069000  0.89970000  1.0
  C  C20  1  0.31196000  0.47684000  0.86301000  1.0
  C  C21  1  0.34358000  0.47859000  0.78062000  1.0
  C  C22  1  0.68804000  0.52316000  0.13699000  1.0
  C  C23  1  0.89303000  0.49932000  0.10031000  1.0
  C  C24  1  0.06495000  0.47209000  0.14693000  1.0
  C  C25  1  0.02868000  0.47078000  0.22893000  1.0
  C  C26  1  0.82402000  0.49559000  0.26773000  1.0
  C  C27  1  0.65642000  0.52140000  0.21938000  1.0
  C  C28  1  0.42784000  0.13334000  0.49979000  1.0
  C  C29  1  0.57215000  0.86665000  0.50018000  1.0
  C  C30  1  0.29150000  0.05750000  0.52141000  1.0
  C  C31  1  0.70849000  0.94250000  0.47856000  1.0
  C  C32  1  0.36086000  0.92769000  0.52154000  1.0
  C  C33  1  0.63912000  0.07230000  0.47844000  1.0
  N  N34  1  0.09202000  0.49475000  0.98372000  1.0
  N  N35  1  0.90799000  0.50526000  0.01629000  1.0
  O  O36  1  0.49082000  0.67272000  0.51082000  1.0
  O  O37  1  0.96459000  0.48268000  0.39062000  1.0
  O  O38  1  0.16685000  0.32854000  0.50760000  1.0
  O  O39  1  0.38654000  0.48766000  0.60904000  1.0
  O  O40  1  0.50920000  0.32727000  0.48919000  1.0
  O  O41  1  0.03541000  0.51732000  0.60938000  1.0
  O  O42  1  0.83316000  0.67145000  0.49240000  1.0
  O  O43  1  0.61346000  0.51233000  0.39097000  1.0
  O  O44  1  0.23331000  0.55605000  0.46513000  1.0
  O  O45  1  0.76670000  0.44393000  0.53488000  1.0
  F  F46  1  0.54576000  0.45236000  0.74863000  1.0
  F  F47  1  0.45425000  0.54762000  0.25138000  1.0
  F  F48  1  0.08491000  0.10880000  0.54425000  1.0
  F  F49  1  0.91507000  0.89120000  0.45572000  1.0
