# generated using pymatgen
data_CuH15C13(NO2)2
_symmetry_space_group_name_H-M   'P 1'
_cell_length_a   7.58151000
_cell_length_b   8.12321000
_cell_length_c   11.08920000
_cell_angle_alpha   97.38300000
_cell_angle_beta   90.57960000
_cell_angle_gamma   104.73100000
_symmetry_Int_Tables_number   1
_chemical_formula_structural   CuH15C13(NO2)2
_chemical_formula_sum   'Cu2 H30 C26 N4 O8'
_cell_volume   654.36541117
_cell_formula_units_Z   2
loop_
 _symmetry_equiv_pos_site_id
 _symmetry_equiv_pos_as_xyz
  1  'x, y, z'
loop_
 _atom_site_type_symbol
 _atom_site_label
 _atom_site_symmetry_multiplicity
 _atom_site_fract_x
 _atom_site_fract_y
 _atom_site_fract_z
 _atom_site_occupancy
  Cu  Cu0  1  0.40312000  0.44233000  0.08872000  1.0
  Cu  Cu1  1  0.59688000  0.55768000  0.91128000  1.0
  H  H2  1  0.73958000  0.44207000  0.29826000  1.0
  H  H3  1  0.26042000  0.55794000  0.70175000  1.0
  H  H4  1  0.01797000  0.46093000  0.18182000  1.0
  H  H5  1  0.98202000  0.53907000  0.81819000  1.0
  H  H6  1  0.93397000  0.19869000  0.50167000  1.0
  H  H7  1  0.06603000  0.80129000  0.49833000  1.0
  H  H8  1  0.22702000  0.11958000  0.46131000  1.0
  H  H9  1  0.77297000  0.88040000  0.53868000  1.0
  H  H10  1  0.40146000  0.21568000  0.28060000  1.0
  H  H11  1  0.59853000  0.78432000  0.71939000  1.0
  H  H12  1  0.57933000  0.42352000  0.46631000  1.0
  H  H13  1  0.42067000  0.57647000  0.53370000  1.0
  H  H14  1  0.77422000  0.41411000  0.55002000  1.0
  H  H15  1  0.22578000  0.58588000  0.44999000  1.0
  H  H16  1  0.56003000  0.23183000  0.67647000  1.0
  H  H17  1  0.43997000  0.76816000  0.32353000  1.0
  H  H18  1  0.60745000  0.06529000  0.29647000  1.0
  H  H19  1  0.39255000  0.93470000  0.70354000  1.0
  H  H20  1  0.73378000  0.05471000  0.08238000  1.0
  H  H21  1  0.26620000  0.94527000  0.91764000  1.0
  H  H22  1  0.90856000  0.17182000  0.99431000  1.0
  H  H23  1  0.09141000  0.82816000  0.00571000  1.0
  H  H24  1  0.71301000  0.01960000  0.92125000  1.0
  H  H25  1  0.28696000  0.98040000  0.07878000  1.0
  H  H26  1  0.92907000  0.93437000  0.22508000  1.0
  H  H27  1  0.07098000  0.06566000  0.77488000  1.0
  H  H28  1  0.02045000  0.75746000  0.23695000  1.0
  H  H29  1  0.97958000  0.24255000  0.76301000  1.0
  H  H30  1  0.85162000  0.80015000  0.34029000  1.0
  H  H31  1  0.14842000  0.19988000  0.65968000  1.0
  C  C32  1  0.05789000  0.38399000  0.24596000  1.0
  C  C33  1  0.94210000  0.61600000  0.75404000  1.0
  C  C34  1  0.94668000  0.33395000  0.34368000  1.0
  C  C35  1  0.05331000  0.66605000  0.65633000  1.0
  C  C36  1  0.01223000  0.23911000  0.42412000  1.0
  C  C37  1  0.98777000  0.76088000  0.57588000  1.0
  C  C38  1  0.17539000  0.19509000  0.40172000  1.0
  C  C39  1  0.82460000  0.80489000  0.59827000  1.0
  C  C40  1  0.27417000  0.24854000  0.30237000  1.0
  C  C41  1  0.72582000  0.75145000  0.69762000  1.0
  C  C42  1  0.68510000  0.35302000  0.46869000  1.0
  C  C43  1  0.31490000  0.64698000  0.53132000  1.0
  C  C44  1  0.59449000  0.16839000  0.48408000  1.0
  C  C45  1  0.40551000  0.83160000  0.51593000  1.0
  C  C46  1  0.53461000  0.13034000  0.59882000  1.0
  C  C47  1  0.46539000  0.86965000  0.40119000  1.0
  C  C48  1  0.56042000  0.03622000  0.38591000  1.0
  C  C49  1  0.43958000  0.96377000  0.61409000  1.0
  C  C50  1  0.66158000  0.25652000  0.00003000  1.0
  C  C51  1  0.33840000  0.74347000  0.00000000  1.0
  C  C52  1  0.76124000  0.11763000  0.00057000  1.0
  C  C53  1  0.23873000  0.88236000  0.99945000  1.0
  C  C54  1  0.74812000  0.68903000  0.15800000  1.0
  C  C55  1  0.25191000  0.31100000  0.84198000  1.0
  C  C56  1  0.89551000  0.80236000  0.24683000  1.0
  C  C57  1  0.10452000  0.19767000  0.75313000  1.0
  N  N58  1  0.21655000  0.34368000  0.22734000  1.0
  N  N59  1  0.78344000  0.65633000  0.77266000  1.0
  N  N60  1  0.78525000  0.37746000  0.35961000  1.0
  N  N61  1  0.21474000  0.62254000  0.64040000  1.0
  O  O62  1  0.54252000  0.26298000  0.07999000  1.0
  O  O63  1  0.45743000  0.73700000  0.92003000  1.0
  O  O64  1  0.70340000  0.35686000  0.91912000  1.0
  O  O65  1  0.29661000  0.64316000  0.08092000  1.0
  O  O66  1  0.61263000  0.58910000  0.20220000  1.0
  O  O67  1  0.38741000  0.41092000  0.79778000  1.0
  O  O68  1  0.77109000  0.70073000  0.04591000  1.0
  O  O69  1  0.22892000  0.29930000  0.95406000  1.0
