# generated using pymatgen
data_MnH16C16(NO)6
_symmetry_space_group_name_H-M   'P 1'
_cell_length_a   6.93522000
_cell_length_b   7.90567000
_cell_length_c   16.10780000
_cell_angle_alpha   90.32000000
_cell_angle_beta   90.00030000
_cell_angle_gamma   89.99980000
_symmetry_Int_Tables_number   1
_chemical_formula_structural   MnH16C16(NO)6
_chemical_formula_sum   'Mn2 H32 C32 N12 O12'
_cell_volume   883.13760823
_cell_formula_units_Z   2
loop_
 _symmetry_equiv_pos_site_id
 _symmetry_equiv_pos_as_xyz
  1  'x, y, z'
loop_
 _atom_site_type_symbol
 _atom_site_label
 _atom_site_symmetry_multiplicity
 _atom_site_fract_x
 _atom_site_fract_y
 _atom_site_fract_z
 _atom_site_occupancy
  Mn  Mn0  1  0.50000000  0.50000000  0.50000000  1.0
  Mn  Mn1  1  0.00000000  0.00000000  0.50000000  1.0
  H  H2  1  0.68939000  0.63542000  0.35236000  1.0
  H  H3  1  0.18938000  0.86458000  0.64764000  1.0
  H  H4  1  0.31062000  0.36458000  0.64764000  1.0
  H  H5  1  0.81062000  0.13541000  0.35236000  1.0
  H  H6  1  0.66223000  0.75714000  0.43178000  1.0
  H  H7  1  0.16223000  0.74286000  0.56822000  1.0
  H  H8  1  0.33777000  0.24286000  0.56822000  1.0
  H  H9  1  0.83777000  0.25714000  0.43178000  1.0
  H  H10  1  0.77572000  0.00357000  0.66571000  1.0
  H  H11  1  0.27572000  0.49643000  0.33428000  1.0
  H  H12  1  0.22428000  0.99644000  0.33428000  1.0
  H  H13  1  0.72429000  0.50357000  0.66572000  1.0
  H  H14  1  0.54533000  0.07774000  0.63723000  1.0
  H  H15  1  0.04533000  0.42227000  0.36277000  1.0
  H  H16  1  0.45466000  0.92227000  0.36277000  1.0
  H  H17  1  0.95467000  0.57773000  0.63723000  1.0
  H  H18  1  0.95365000  0.82821000  0.76816000  1.0
  H  H19  1  0.45364000  0.67179000  0.23184000  1.0
  H  H20  1  0.04634000  0.17179000  0.23183000  1.0
  H  H21  1  0.54636000  0.32821000  0.76816000  1.0
  H  H22  1  0.02691000  0.67813000  0.89727000  1.0
  H  H23  1  0.52690000  0.82187000  0.10273000  1.0
  H  H24  1  0.97309000  0.32187000  0.10273000  1.0
  H  H25  1  0.47310000  0.17813000  0.89727000  1.0
  H  H26  1  0.76840000  0.57786000  0.99144000  1.0
  H  H27  1  0.26840000  0.92214000  0.00856000  1.0
  H  H28  1  0.23160000  0.42214000  0.00856000  1.0
  H  H29  1  0.73161000  0.07786000  0.99144000  1.0
  H  H30  1  0.42073000  0.62447000  0.95728000  1.0
  H  H31  1  0.92073000  0.87553000  0.04271000  1.0
  H  H32  1  0.57927000  0.37553000  0.04271000  1.0
  H  H33  1  0.07928000  0.12447000  0.95729000  1.0
  C  C34  1  0.62647000  0.84322000  0.57817000  1.0
  C  C35  1  0.12649000  0.65676000  0.42183000  1.0
  C  C36  1  0.37353000  0.15678000  0.42183000  1.0
  C  C37  1  0.87352000  0.34324000  0.57817000  1.0
  C  C38  1  0.62735000  0.96321000  0.65279000  1.0
  C  C39  1  0.12735000  0.53679000  0.34721000  1.0
  C  C40  1  0.37265000  0.03679000  0.34721000  1.0
  C  C41  1  0.87266000  0.46321000  0.65279000  1.0
  C  C42  1  0.64188000  0.81011000  0.78979000  1.0
  C  C43  1  0.14187000  0.68988000  0.21020000  1.0
  C  C44  1  0.35812000  0.18989000  0.21020000  1.0
  C  C45  1  0.85814000  0.31012000  0.78980000  1.0
  C  C46  1  0.83724000  0.78438000  0.80787000  1.0
  C  C47  1  0.33724000  0.71562000  0.19213000  1.0
  C  C48  1  0.16276000  0.21562000  0.19212000  1.0
  C  C49  1  0.66277000  0.28438000  0.80787000  1.0
  C  C50  1  0.87646000  0.69962000  0.88107000  1.0
  C  C51  1  0.37645000  0.80038000  0.11893000  1.0
  C  C52  1  0.12354000  0.30038000  0.11893000  1.0
  C  C53  1  0.62355000  0.19963000  0.88107000  1.0
  C  C54  1  0.72810000  0.64291000  0.93452000  1.0
  C  C55  1  0.22810000  0.85709000  0.06548000  1.0
  C  C56  1  0.27190000  0.35709000  0.06548000  1.0
  C  C57  1  0.77190000  0.14292000  0.93452000  1.0
  C  C58  1  0.53482000  0.66810000  0.91629000  1.0
  C  C59  1  0.03482000  0.83190000  0.08371000  1.0
  C  C60  1  0.46517000  0.33190000  0.08371000  1.0
  C  C61  1  0.96519000  0.16810000  0.91630000  1.0
  C  C62  1  0.49174000  0.75335000  0.84228000  1.0
  C  C63  1  0.99173000  0.74665000  0.15772000  1.0
  C  C64  1  0.50826000  0.24666000  0.15772000  1.0
  C  C65  1  0.00827000  0.25335000  0.84228000  1.0
  N  N66  1  0.54755000  0.88851000  0.72642000  1.0
  N  N67  1  0.04755000  0.61149000  0.27358000  1.0
  N  N68  1  0.45245000  0.11150000  0.27358000  1.0
  N  N69  1  0.95245000  0.38851000  0.72642000  1.0
  N  N70  1  0.35365000  0.87789000  0.73806000  1.0
  N  N71  1  0.85365000  0.62210000  0.26194000  1.0
  N  N72  1  0.64635000  0.12211000  0.26194000  1.0
  N  N73  1  0.14636000  0.37790000  0.73806000  1.0
  N  N74  1  0.31788000  0.79823000  0.80718000  1.0
  N  N75  1  0.81788000  0.70177000  0.19281000  1.0
  N  N76  1  0.68211000  0.20177000  0.19281000  1.0
  N  N77  1  0.18212000  0.29823000  0.80719000  1.0
  O  O78  1  0.54343000  0.70197000  0.58594000  1.0
  O  O79  1  0.04343000  0.79805000  0.41406000  1.0
  O  O80  1  0.45658000  0.29803000  0.41406000  1.0
  O  O81  1  0.95658000  0.20195000  0.58595000  1.0
  O  O82  1  0.70836000  0.89628000  0.51226000  1.0
  O  O83  1  0.20835000  0.60373000  0.48774000  1.0
  O  O84  1  0.29164000  0.10372000  0.48774000  1.0
  O  O85  1  0.79165000  0.39627000  0.51226000  1.0
  O  O86  1  0.59887000  0.66626000  0.39806000  1.0
  O  O87  1  0.09886000  0.83374000  0.60195000  1.0
  O  O88  1  0.40114000  0.33374000  0.60194000  1.0
  O  O89  1  0.90114000  0.16626000  0.39805000  1.0
