# generated using pymatgen
data_MnH12C8(NO4)2
_symmetry_space_group_name_H-M   'P 1'
_cell_length_a   7.60005000
_cell_length_b   7.74959000
_cell_length_c   9.45940000
_cell_angle_alpha   89.99930000
_cell_angle_beta   89.99980000
_cell_angle_gamma   71.32000000
_symmetry_Int_Tables_number   1
_chemical_formula_structural   MnH12C8(NO4)2
_chemical_formula_sum   'Mn2 H24 C16 N4 O16'
_cell_volume   527.78428079
_cell_formula_units_Z   2
loop_
 _symmetry_equiv_pos_site_id
 _symmetry_equiv_pos_as_xyz
  1  'x, y, z'
loop_
 _atom_site_type_symbol
 _atom_site_label
 _atom_site_symmetry_multiplicity
 _atom_site_fract_x
 _atom_site_fract_y
 _atom_site_fract_z
 _atom_site_occupancy
  Mn  Mn0  1  0.00000000  0.00000000  0.00000000  1.0
  Mn  Mn1  1  0.50000000  0.00000000  0.50000000  1.0
  H  H2  1  0.16047000  0.66409000  0.38547000  1.0
  H  H3  1  0.33953000  0.33591000  0.88547000  1.0
  H  H4  1  0.83953000  0.33591000  0.61453000  1.0
  H  H5  1  0.66047000  0.66409000  0.11453000  1.0
  H  H6  1  0.91568000  0.77315000  0.39176000  1.0
  H  H7  1  0.58432000  0.22686000  0.89176000  1.0
  H  H8  1  0.08432000  0.22685000  0.60824000  1.0
  H  H9  1  0.41568000  0.77314000  0.10824000  1.0
  H  H10  1  0.15215000  0.84896000  0.58548000  1.0
  H  H11  1  0.34784000  0.15104000  0.08548000  1.0
  H  H12  1  0.84784000  0.15104000  0.41452000  1.0
  H  H13  1  0.65216000  0.84896000  0.91452000  1.0
  H  H14  1  0.14221000  0.74428000  0.75049000  1.0
  H  H15  1  0.35780000  0.25570000  0.25049000  1.0
  H  H16  1  0.85778000  0.25572000  0.24951000  1.0
  H  H17  1  0.64221000  0.74429000  0.74951000  1.0
  H  H18  1  0.95309000  0.35656000  0.91183000  1.0
  H  H19  1  0.54691000  0.64344000  0.41183000  1.0
  H  H20  1  0.04691000  0.64344000  0.08817000  1.0
  H  H21  1  0.45309000  0.35656000  0.58817000  1.0
  H  H22  1  0.95904000  0.36539000  0.07989000  1.0
  H  H23  1  0.54096000  0.63461000  0.57989000  1.0
  H  H24  1  0.04096000  0.63461000  0.92011000  1.0
  H  H25  1  0.45904000  0.36538000  0.42011000  1.0
  C  C26  1  0.00187000  0.50678000  0.65156000  1.0
  C  C27  1  0.49812000  0.49322000  0.15155000  1.0
  C  C28  1  0.99812000  0.49322000  0.34844000  1.0
  C  C29  1  0.50188000  0.50678000  0.84844000  1.0
  C  C30  1  0.02907000  0.65060000  0.42465000  1.0
  C  C31  1  0.47093000  0.34940000  0.92465000  1.0
  C  C32  1  0.97093000  0.34940000  0.57535000  1.0
  C  C33  1  0.52907000  0.65060000  0.07535000  1.0
  C  C34  1  0.88433000  0.94814000  0.68180000  1.0
  C  C35  1  0.61568000  0.05186000  0.18179000  1.0
  C  C36  1  0.11567000  0.05186000  0.31821000  1.0
  C  C37  1  0.38433000  0.94814000  0.81821000  1.0
  C  C38  1  0.06572000  0.79298000  0.65289000  1.0
  C  C39  1  0.43428000  0.20702000  0.15289000  1.0
  C  C40  1  0.93428000  0.20702000  0.34711000  1.0
  C  C41  1  0.56572000  0.79298000  0.84711000  1.0
  N  N42  1  0.03478000  0.64036000  0.57839000  1.0
  N  N43  1  0.46522000  0.35964000  0.07839000  1.0
  N  N44  1  0.96522000  0.35964000  0.42161000  1.0
  N  N45  1  0.53478000  0.64036000  0.92161000  1.0
  O  O46  1  0.76500000  0.98362000  0.58341000  1.0
  O  O47  1  0.73501000  0.01638000  0.08341000  1.0
  O  O48  1  0.23500000  0.01638000  0.41659000  1.0
  O  O49  1  0.26500000  0.98362000  0.91660000  1.0
  O  O50  1  0.99791000  0.50493000  0.78517000  1.0
  O  O51  1  0.50208000  0.49507000  0.28517000  1.0
  O  O52  1  0.00208000  0.49507000  0.21483000  1.0
  O  O53  1  0.49792000  0.50493000  0.71483000  1.0
  O  O54  1  0.92287000  0.30161000  0.99943000  1.0
  O  O55  1  0.57713000  0.69839000  0.49943000  1.0
  O  O56  1  0.07714000  0.69839000  0.00057000  1.0
  O  O57  1  0.42287000  0.30161000  0.50057000  1.0
  O  O58  1  0.86669000  0.03549000  0.79679000  1.0
  O  O59  1  0.63332000  0.96451000  0.29679000  1.0
  O  O60  1  0.13331000  0.96452000  0.20321000  1.0
  O  O61  1  0.36668000  0.03549000  0.70321000  1.0
