# generated using pymatgen
data_NdCrH4C6NO6
_symmetry_space_group_name_H-M   'P 1'
_cell_length_a   6.78563000
_cell_length_b   7.22762000
_cell_length_c   19.38850000
_cell_angle_alpha   90.00020000
_cell_angle_beta   89.99990000
_cell_angle_gamma   90.00000000
_symmetry_Int_Tables_number   1
_chemical_formula_structural   NdCrH4C6NO6
_chemical_formula_sum   'Nd4 Cr4 H16 C24 N4 O24'
_cell_volume   950.88872346
_cell_formula_units_Z   4
loop_
 _symmetry_equiv_pos_site_id
 _symmetry_equiv_pos_as_xyz
  1  'x, y, z'
loop_
 _atom_site_type_symbol
 _atom_site_label
 _atom_site_symmetry_multiplicity
 _atom_site_fract_x
 _atom_site_fract_y
 _atom_site_fract_z
 _atom_site_occupancy
  Nd  Nd0  1  0.88182000  0.13933000  0.22381000  1.0
  Nd  Nd1  1  0.61818000  0.86066000  0.72381000  1.0
  Nd  Nd2  1  0.11818000  0.63933000  0.27619000  1.0
  Nd  Nd3  1  0.38182000  0.36066000  0.77619000  1.0
  Cr  Cr4  1  0.32897000  0.11922000  0.27989000  1.0
  Cr  Cr5  1  0.17103000  0.88076000  0.77989000  1.0
  Cr  Cr6  1  0.67103000  0.61923000  0.22011000  1.0
  Cr  Cr7  1  0.82897000  0.38077000  0.72011000  1.0
  H  H8  1  0.95872000  0.84629000  0.08286000  1.0
  H  H9  1  0.54127000  0.15371000  0.58286000  1.0
  H  H10  1  0.04128000  0.34629000  0.41714000  1.0
  H  H11  1  0.45872000  0.65371000  0.91714000  1.0
  H  H12  1  0.88554000  0.82666000  0.95552000  1.0
  H  H13  1  0.61446000  0.17335000  0.45553000  1.0
  H  H14  1  0.11446000  0.32665000  0.54448000  1.0
  H  H15  1  0.38554000  0.67335000  0.04448000  1.0
  H  H16  1  0.49936000  0.21474000  0.11463000  1.0
  H  H17  1  0.00064000  0.78526000  0.61463000  1.0
  H  H18  1  0.50064000  0.71474000  0.38537000  1.0
  H  H19  1  0.99936000  0.28526000  0.88537000  1.0
  H  H20  1  0.41132000  0.21292000  0.98886000  1.0
  H  H21  1  0.08868000  0.78709000  0.48886000  1.0
  H  H22  1  0.58868000  0.71292000  0.51114000  1.0
  H  H23  1  0.91132000  0.28708000  0.01114000  1.0
  C  C24  1  0.83751000  0.92457000  0.05995000  1.0
  C  C25  1  0.66248000  0.07543000  0.55995000  1.0
  C  C26  1  0.16248000  0.42457000  0.44005000  1.0
  C  C27  1  0.33751000  0.57543000  0.94005000  1.0
  C  C28  1  0.79615000  0.91230000  0.98960000  1.0
  C  C29  1  0.70385000  0.08769000  0.48960000  1.0
  C  C30  1  0.20385000  0.41231000  0.51040000  1.0
  C  C31  1  0.29615000  0.58769000  0.01040000  1.0
  C  C32  1  0.58114000  0.13058000  0.07777000  1.0
  C  C33  1  0.91886000  0.86942000  0.57777000  1.0
  C  C34  1  0.41886000  0.63058000  0.42223000  1.0
  C  C35  1  0.08114000  0.36942000  0.92223000  1.0
  C  C36  1  0.64441000  0.02188000  0.96277000  1.0
  C  C37  1  0.85559000  0.97812000  0.46277000  1.0
  C  C38  1  0.35560000  0.52188000  0.53723000  1.0
  C  C39  1  0.14440000  0.47812000  0.03723000  1.0
  C  C40  1  0.53217000  0.12899000  0.00821000  1.0
  C  C41  1  0.96783000  0.87101000  0.50821000  1.0
  C  C42  1  0.46783000  0.62899000  0.49179000  1.0
  C  C43  1  0.03217000  0.37101000  0.99179000  1.0
  C  C44  1  0.60608000  0.03670000  0.88658000  1.0
  C  C45  1  0.89392000  0.96330000  0.38659000  1.0
  C  C46  1  0.39393000  0.53671000  0.61341000  1.0
  C  C47  1  0.10608000  0.46330000  0.11342000  1.0
  N  N48  1  0.73524000  0.03483000  0.10308000  1.0
  N  N49  1  0.76476000  0.96517000  0.60308000  1.0
  N  N50  1  0.26476000  0.53483000  0.39692000  1.0
  N  N51  1  0.23524000  0.46517000  0.89692000  1.0
  O  O52  1  0.64498000  0.89920000  0.84844000  1.0
  O  O53  1  0.85502000  0.10081000  0.34844000  1.0
  O  O54  1  0.35503000  0.39920000  0.65156000  1.0
  O  O55  1  0.14498000  0.60080000  0.15156000  1.0
  O  O56  1  0.53669000  0.19115000  0.86640000  1.0
  O  O57  1  0.96331000  0.80886000  0.36640000  1.0
  O  O58  1  0.46331000  0.69114000  0.63360000  1.0
  O  O59  1  0.03669000  0.30885000  0.13360000  1.0
  O  O60  1  0.53420000  0.15262000  0.23616000  1.0
  O  O61  1  0.96580000  0.84738000  0.73616000  1.0
  O  O62  1  0.46580000  0.65261000  0.26384000  1.0
  O  O63  1  0.03420000  0.34739000  0.76384000  1.0
  O  O64  1  0.37549000  0.06013000  0.35791000  1.0
  O  O65  1  0.12451000  0.93987000  0.85791000  1.0
  O  O66  1  0.62450000  0.56013000  0.14209000  1.0
  O  O67  1  0.87549000  0.43987000  0.64209000  1.0
  O  O68  1  0.18488000  0.95722000  0.24104000  1.0
  O  O69  1  0.31512000  0.04278000  0.74103000  1.0
  O  O70  1  0.81512000  0.45722000  0.25897000  1.0
  O  O71  1  0.68487000  0.54278000  0.75897000  1.0
  O  O72  1  0.18427000  0.30665000  0.27680000  1.0
  O  O73  1  0.31572000  0.69335000  0.77680000  1.0
  O  O74  1  0.81573000  0.80665000  0.22320000  1.0
  O  O75  1  0.68427000  0.19335000  0.72320000  1.0
