# generated using pymatgen
data_Zn2H8C14N2O9
_symmetry_space_group_name_H-M   'P 1'
_cell_length_a   7.99618000
_cell_length_b   8.76882000
_cell_length_c   20.72010000
_cell_angle_alpha   89.99990000
_cell_angle_beta   93.09900000
_cell_angle_gamma   89.99940000
_symmetry_Int_Tables_number   1
_chemical_formula_structural   Zn2H8C14N2O9
_chemical_formula_sum   'Zn8 H32 C56 N8 O36'
_cell_volume   1450.70795726
_cell_formula_units_Z   4
loop_
 _symmetry_equiv_pos_site_id
 _symmetry_equiv_pos_as_xyz
  1  'x, y, z'
loop_
 _atom_site_type_symbol
 _atom_site_label
 _atom_site_symmetry_multiplicity
 _atom_site_fract_x
 _atom_site_fract_y
 _atom_site_fract_z
 _atom_site_occupancy
  Zn  Zn0  1  0.76687000  0.52126000  0.85578000  1.0
  Zn  Zn1  1  0.73314000  0.02125000  0.64422000  1.0
  Zn  Zn2  1  0.23313000  0.47874000  0.14422000  1.0
  Zn  Zn3  1  0.26687000  0.97874000  0.35578000  1.0
  Zn  Zn4  1  0.37159000  0.22369000  0.01773000  1.0
  Zn  Zn5  1  0.12841000  0.72368000  0.48227000  1.0
  Zn  Zn6  1  0.62841000  0.77632000  0.98227000  1.0
  Zn  Zn7  1  0.87159000  0.27631000  0.51773000  1.0
  H  H8  1  0.29673000  0.50441000  0.96711000  1.0
  H  H9  1  0.20327000  0.00441000  0.53289000  1.0
  H  H10  1  0.70327000  0.49559000  0.03289000  1.0
  H  H11  1  0.79673000  0.99558000  0.46711000  1.0
  H  H12  1  0.47110000  0.43567000  0.94075000  1.0
  H  H13  1  0.02890000  0.93567000  0.55925000  1.0
  H  H14  1  0.52890000  0.56433000  0.05925000  1.0
  H  H15  1  0.97110000  0.06433000  0.44075000  1.0
  H  H16  1  0.77206000  0.04376000  0.85765000  1.0
  H  H17  1  0.72794000  0.54376000  0.64235000  1.0
  H  H18  1  0.22793000  0.95624000  0.14235000  1.0
  H  H19  1  0.27206000  0.45624000  0.35765000  1.0
  H  H20  1  0.04830000  0.93396000  0.83323000  1.0
  H  H21  1  0.45170000  0.43396000  0.66677000  1.0
  H  H22  1  0.95169000  0.06604000  0.16677000  1.0
  H  H23  1  0.54830000  0.56603000  0.33323000  1.0
  H  H24  1  0.30122000  0.99669000  0.90795000  1.0
  H  H25  1  0.19879000  0.49669000  0.59205000  1.0
  H  H26  1  0.69878000  0.00331000  0.09205000  1.0
  H  H27  1  0.80121000  0.50331000  0.40795000  1.0
  H  H28  1  0.20236000  0.76122000  0.80041000  1.0
  H  H29  1  0.29764000  0.26122000  0.69958000  1.0
  H  H30  1  0.79763000  0.23879000  0.19958000  1.0
  H  H31  1  0.70237000  0.73878000  0.30042000  1.0
  H  H32  1  0.11551000  0.87499000  0.69318000  1.0
  H  H33  1  0.38449000  0.37499000  0.80682000  1.0
  H  H34  1  0.88449000  0.12502000  0.30682000  1.0
  H  H35  1  0.61551000  0.62501000  0.19318000  1.0
  H  H36  1  0.34001000  0.98274000  0.62498000  1.0
  H  H37  1  0.15999000  0.48274000  0.87502000  1.0
  H  H38  1  0.66000000  0.01726000  0.37502000  1.0
  H  H39  1  0.84001000  0.51726000  0.12498000  1.0
  C  C40  1  0.01722000  0.20144000  0.97871000  1.0
  C  C41  1  0.48278000  0.70143000  0.52129000  1.0
  C  C42  1  0.98278000  0.79857000  0.02129000  1.0
  C  C43  1  0.51722000  0.29856000  0.47871000  1.0
  C  C44  1  0.87169000  0.16945000  0.94041000  1.0
  C  C45  1  0.62831000  0.66945000  0.55959000  1.0
  C  C46  1  0.12831000  0.83055000  0.05959000  1.0
  C  C47  1  0.37169000  0.33055000  0.44041000  1.0
  C  C48  1  0.88413000  0.07163000  0.88754000  1.0
  C  C49  1  0.61587000  0.57162000  0.61246000  1.0
  C  C50  1  0.11587000  0.92838000  0.11246000  1.0
  C  C51  1  0.38413000  0.42837000  0.38754000  1.0
  C  C52  1  0.03831000  0.00951000  0.87440000  1.0
  C  C53  1  0.46169000  0.50951000  0.62560000  1.0
  C  C54  1  0.96168000  0.99049000  0.12560000  1.0
  C  C55  1  0.53831000  0.49048000  0.37440000  1.0
  C  C56  1  0.17759000  0.04428000  0.91506000  1.0
  C  C57  1  0.32241000  0.54428000  0.58495000  1.0
  C  C58  1  0.82240000  0.95572000  0.08494000  1.0
  C  C59  1  0.67759000  0.45572000  0.41505000  1.0
  C  C60  1  0.01501000  0.31089000  0.03526000  1.0
  C  C61  1  0.48500000  0.81088000  0.46474000  1.0
  C  C62  1  0.98499000  0.68912000  0.96474000  1.0
  C  C63  1  0.51500000  0.18912000  0.53526000  1.0
  C  C64  1  0.70285000  0.23832000  0.95100000  1.0
  C  C65  1  0.79715000  0.73831000  0.54900000  1.0
  C  C66  1  0.29715000  0.76169000  0.04900000  1.0
  C  C67  1  0.20285000  0.26169000  0.45100000  1.0
  C  C68  1  0.58271000  0.84903000  0.74494000  1.0
  C  C69  1  0.91730000  0.34902000  0.75506000  1.0
  C  C70  1  0.41729000  0.15097000  0.25506000  1.0
  C  C71  1  0.08271000  0.65097000  0.24494000  1.0
  C  C72  1  0.46584000  0.80112000  0.78843000  1.0
  C  C73  1  0.03416000  0.30112000  0.71157000  1.0
  C  C74  1  0.53416000  0.19888000  0.21157000  1.0
  C  C75  1  0.96584000  0.69888000  0.28843000  1.0
  C  C76  1  0.29575000  0.80500000  0.76870000  1.0
  C  C77  1  0.20425000  0.30499000  0.73130000  1.0
  C  C78  1  0.70424000  0.19501000  0.23130000  1.0
  C  C79  1  0.79576000  0.69500000  0.26870000  1.0
  C  C80  1  0.24744000  0.86646000  0.70873000  1.0
  C  C81  1  0.25256000  0.36646000  0.79127000  1.0
  C  C82  1  0.75256000  0.13355000  0.29127000  1.0
  C  C83  1  0.74744000  0.63354000  0.20873000  1.0
  C  C84  1  0.37055000  0.92505000  0.67052000  1.0
  C  C85  1  0.12945000  0.42505000  0.82948000  1.0
  C  C86  1  0.62945000  0.07495000  0.32948000  1.0
  C  C87  1  0.87055000  0.57495000  0.17052000  1.0
  C  C88  1  0.51882000  0.75688000  0.85631000  1.0
  C  C89  1  0.98118000  0.25688000  0.64369000  1.0
  C  C90  1  0.48117000  0.24312000  0.14369000  1.0
  C  C91  1  0.01882000  0.74312000  0.35631000  1.0
  C  C92  1  0.76944000  0.82949000  0.75748000  1.0
  C  C93  1  0.73056000  0.32949000  0.74252000  1.0
  C  C94  1  0.23055000  0.17051000  0.24252000  1.0
  C  C95  1  0.26945000  0.67051000  0.25748000  1.0
  N  N96  1  0.53402000  0.91423000  0.68798000  1.0
  N  N97  1  0.96598000  0.41423000  0.81202000  1.0
  N  N98  1  0.46599000  0.08577000  0.31202000  1.0
  N  N99  1  0.03402000  0.58577000  0.18798000  1.0
  N  N100  1  0.16569000  0.13749000  0.96600000  1.0
  N  N101  1  0.33431000  0.63749000  0.53400000  1.0
  N  N102  1  0.83431000  0.86251000  0.03400000  1.0
  N  N103  1  0.66569000  0.36251000  0.46600000  1.0
  O  O104  1  0.36461000  0.41263000  0.96105000  1.0
  O  O105  1  0.13539000  0.91263000  0.53895000  1.0
  O  O106  1  0.63539000  0.58738000  0.03895000  1.0
  O  O107  1  0.86461000  0.08737000  0.46105000  1.0
  O  O108  1  0.66801000  0.36311000  0.92205000  1.0
  O  O109  1  0.83199000  0.86311000  0.57795000  1.0
  O  O110  1  0.33199000  0.63690000  0.07796000  1.0
  O  O111  1  0.16801000  0.13690000  0.42205000  1.0
  O  O112  1  0.60286000  0.16152000  0.98367000  1.0
  O  O113  1  0.89714000  0.66152000  0.51633000  1.0
  O  O114  1  0.39714000  0.83848000  0.01632000  1.0
  O  O115  1  0.10286000  0.33848000  0.48367000  1.0
  O  O116  1  0.87779000  0.36643000  0.04914000  1.0
  O  O117  1  0.62221000  0.86642000  0.45086000  1.0
  O  O118  1  0.12221000  0.63358000  0.95086000  1.0
  O  O119  1  0.37779000  0.13358000  0.54914000  1.0
  O  O120  1  0.15825000  0.33830000  0.06459000  1.0
  O  O121  1  0.34175000  0.83830000  0.43541000  1.0
  O  O122  1  0.84175000  0.66170000  0.93540000  1.0
  O  O123  1  0.65825000  0.16169000  0.56459000  1.0
  O  O124  1  0.52332000  0.61791000  0.87256000  1.0
  O  O125  1  0.97668000  0.11790000  0.62744000  1.0
  O  O126  1  0.47667000  0.38209000  0.12744000  1.0
  O  O127  1  0.02332000  0.88209000  0.37256000  1.0
  O  O128  1  0.55217000  0.86706000  0.89525000  1.0
  O  O129  1  0.94783000  0.36706000  0.60475000  1.0
  O  O130  1  0.44783000  0.13293000  0.10475000  1.0
  O  O131  1  0.05217000  0.63294000  0.39525000  1.0
  O  O132  1  0.82363000  0.73660000  0.80032000  1.0
  O  O133  1  0.67638000  0.23659000  0.69969000  1.0
  O  O134  1  0.17637000  0.26340000  0.19968000  1.0
  O  O135  1  0.32363000  0.76340000  0.30032000  1.0
  O  O136  1  0.86161000  0.91032000  0.72263000  1.0
  O  O137  1  0.63839000  0.41032000  0.77737000  1.0
  O  O138  1  0.13839000  0.08968000  0.27737000  1.0
  O  O139  1  0.36161000  0.58968000  0.22263000  1.0
