# generated using pymatgen
data_MnH16C26N6(OF2)2
_symmetry_space_group_name_H-M   'P 1'
_cell_length_a   7.59307000
_cell_length_b   8.73345000
_cell_length_c   10.16180000
_cell_angle_alpha   68.17150000
_cell_angle_beta   80.49770000
_cell_angle_gamma   78.93810000
_symmetry_Int_Tables_number   1
_chemical_formula_structural   MnH16C26N6(OF2)2
_chemical_formula_sum   'Mn1 H16 C26 N6 O2 F4'
_cell_volume   610.66981118
_cell_formula_units_Z   1
loop_
 _symmetry_equiv_pos_site_id
 _symmetry_equiv_pos_as_xyz
  1  'x, y, z'
loop_
 _atom_site_type_symbol
 _atom_site_label
 _atom_site_symmetry_multiplicity
 _atom_site_fract_x
 _atom_site_fract_y
 _atom_site_fract_z
 _atom_site_occupancy
  Mn  Mn0  1  0.00000000  0.00000000  0.00000000  1.0
  H  H1  1  0.11763000  0.49415000  0.28490000  1.0
  H  H2  1  0.88237000  0.50584000  0.71510000  1.0
  H  H3  1  0.11641000  0.27749000  0.52915000  1.0
  H  H4  1  0.88359000  0.72251000  0.47085000  1.0
  H  H5  1  0.39269000  0.77163000  0.85530000  1.0
  H  H6  1  0.60731000  0.22837000  0.14471000  1.0
  H  H7  1  0.64153000  0.53143000  0.90497000  1.0
  H  H8  1  0.35847000  0.46856000  0.09503000  1.0
  H  H9  1  0.17713000  0.00392000  0.72784000  1.0
  H  H10  1  0.82287000  0.99608000  0.27216000  1.0
  H  H11  1  0.01087000  0.75182000  0.80422000  1.0
  H  H12  1  0.98913000  0.24818000  0.19578000  1.0
  H  H13  1  0.00953000  0.90643000  0.62901000  1.0
  H  H14  1  0.99047000  0.09357000  0.37099000  1.0
  H  H15  1  0.82479000  0.91528000  0.76162000  1.0
  H  H16  1  0.17521000  0.08472000  0.23838000  1.0
  C  C17  1  0.36271000  0.13070000  0.47665000  1.0
  C  C18  1  0.63729000  0.86929000  0.52335000  1.0
  C  C19  1  0.49588000  0.88351000  0.63438000  1.0
  C  C20  1  0.50412000  0.11649000  0.36562000  1.0
  C  C21  1  0.22452000  0.38802000  0.31018000  1.0
  C  C22  1  0.77548000  0.61198000  0.68982000  1.0
  C  C23  1  0.22326000  0.26958000  0.44493000  1.0
  C  C24  1  0.77674000  0.73042000  0.55508000  1.0
  C  C25  1  0.49941000  0.75859000  0.77253000  1.0
  C  C26  1  0.50059000  0.24141000  0.22748000  1.0
  C  C27  1  0.63665000  0.62667000  0.79900000  1.0
  C  C28  1  0.36334000  0.37332000  0.20100000  1.0
  C  C29  1  0.37171000  0.78318000  0.13148000  1.0
  C  C30  1  0.62830000  0.21682000  0.86852000  1.0
  C  C31  1  0.68926000  0.76857000  0.13120000  1.0
  C  C32  1  0.31075000  0.23143000  0.86880000  1.0
  C  C33  1  0.52453000  0.72424000  0.20431000  1.0
  C  C34  1  0.47547000  0.27577000  0.79569000  1.0
  C  C35  1  0.36687000  0.63215000  0.45329000  1.0
  C  C36  1  0.63312000  0.36786000  0.54671000  1.0
  C  C37  1  0.51265000  0.61263000  0.35343000  1.0
  C  C38  1  0.48735000  0.38737000  0.64657000  1.0
  C  C39  1  0.97143000  0.88438000  0.74299000  1.0
  C  C40  1  0.02857000  0.11562000  0.25701000  1.0
  C  C41  1  0.64530000  0.47603000  0.40634000  1.0
  C  C42  1  0.35470000  0.52397000  0.59366000  1.0
  N  N43  1  0.36213000  0.01374000  0.60831000  1.0
  N  N44  1  0.63787000  0.98626000  0.39170000  1.0
  N  N45  1  0.82957000  0.80626000  0.07083000  1.0
  N  N46  1  0.17043000  0.19374000  0.92916000  1.0
  N  N47  1  0.24215000  0.82622000  0.06980000  1.0
  N  N48  1  0.75785000  0.17378000  0.93019000  1.0
  O  O49  1  0.05573000  0.98900000  0.78627000  1.0
  O  O50  1  0.94427000  0.01100000  0.21373000  1.0
  F  F51  1  0.78913000  0.44407000  0.31656000  1.0
  F  F52  1  0.21086000  0.55593000  0.68344000  1.0
  F  F53  1  0.23319000  0.76310000  0.41322000  1.0
  F  F54  1  0.76681000  0.23690000  0.58678000  1.0
