# generated using pymatgen
data_MnH20C20(NO3)2
_symmetry_space_group_name_H-M   'P 1'
_cell_length_a   5.50831000
_cell_length_b   7.90853000
_cell_length_c   10.84250000
_cell_angle_alpha   108.91900000
_cell_angle_beta   98.15030000
_cell_angle_gamma   96.79070000
_symmetry_Int_Tables_number   1
_chemical_formula_structural   MnH20C20(NO3)2
_chemical_formula_sum   'Mn1 H20 C20 N2 O6'
_cell_volume   435.44521033
_cell_formula_units_Z   1
loop_
 _symmetry_equiv_pos_site_id
 _symmetry_equiv_pos_as_xyz
  1  'x, y, z'
loop_
 _atom_site_type_symbol
 _atom_site_label
 _atom_site_symmetry_multiplicity
 _atom_site_fract_x
 _atom_site_fract_y
 _atom_site_fract_z
 _atom_site_occupancy
  Mn  Mn0  1  0.00014000  0.99957000  0.99968000  1.0
  H  H1  1  0.26850000  0.58298000  0.25167000  1.0
  H  H2  1  0.73195000  0.41702000  0.74837000  1.0
  H  H3  1  0.50909000  0.68585000  0.19158000  1.0
  H  H4  1  0.49152000  0.31422000  0.80839000  1.0
  H  H5  1  0.09027000  0.79864000  0.44218000  1.0
  H  H6  1  0.90989000  0.20149000  0.55778000  1.0
  H  H7  1  0.78410000  0.95941000  0.33798000  1.0
  H  H8  1  0.21585000  0.04063000  0.66198000  1.0
  H  H9  1  0.68290000  0.27771000  0.11407000  1.0
  H  H10  1  0.31805000  0.72357000  0.88564000  1.0
  H  H11  1  0.66698000  0.49176000  0.33045000  1.0
  H  H12  1  0.33333333  0.50949000  0.66944000  1.0
  H  H13  1  0.35418000  0.34952000  0.48506000  1.0
  H  H14  1  0.64428000  0.64962000  0.51542000  1.0
  H  H15  1  0.34534000  0.14547000  0.26113000  1.0
  H  H16  1  0.65331000  0.85357000  0.73927000  1.0
  H  H17  1  0.55985000  0.90743000  0.06787000  1.0
  H  H18  1  0.44059000  0.09227000  0.93217000  1.0
  H  H19  1  0.76159000  0.77055000  0.06298000  1.0
  H  H20  1  0.23873000  0.22895000  0.93682000  1.0
  C  C21  1  0.14595000  0.75531000  0.15015000  1.0
  C  C22  1  0.85422000  0.24433000  0.84969000  1.0
  C  C23  1  0.34754000  0.70931000  0.23950000  1.0
  C  C24  1  0.65289000  0.29064000  0.76046000  1.0
  C  C25  1  0.42756000  0.85987000  0.37377000  1.0
  C  C26  1  0.57253000  0.14021000  0.62619000  1.0
  C  C27  1  0.27121000  0.88623000  0.46726000  1.0
  C  C28  1  0.72899000  0.11380000  0.53274000  1.0
  C  C29  1  0.65767000  0.97684000  0.40832000  1.0
  C  C30  1  0.34244000  0.02318000  0.59169000  1.0
  C  C31  1  0.82823000  0.29601000  0.19849000  1.0
  C  C32  1  0.17233000  0.70491000  0.80139000  1.0
  C  C33  1  0.82065000  0.41673000  0.32230000  1.0
  C  C34  1  0.17931000  0.58403000  0.67765000  1.0
  C  C35  1  0.00507000  0.44054000  0.43348000  1.0
  C  C36  1  0.99432000  0.55975000  0.56662000  1.0
  C  C37  1  0.19946000  0.34057000  0.40733000  1.0
  C  C38  1  0.79953000  0.65916000  0.59301000  1.0
  C  C39  1  0.19665000  0.22333000  0.28071000  1.0
  C  C40  1  0.80245000  0.77627000  0.71961000  1.0
  N  N41  1  0.01030000  0.19432000  0.17525000  1.0
  N  N42  1  0.98955000  0.80598000  0.82496000  1.0
  O  O43  1  0.21830000  0.87153000  0.09601000  1.0
  O  O44  1  0.78191000  0.12822000  0.90395000  1.0
  O  O45  1  0.92152000  0.68430000  0.13686000  1.0
  O  O46  1  0.07858000  0.31517000  0.86272000  1.0
  O  O47  1  0.68324000  0.85382000  0.01656000  1.0
  O  O48  1  0.31716000  0.14595000  0.98342000  1.0
