# generated using pymatgen
data_AlH24C27N19O6
_symmetry_space_group_name_H-M   'P 1'
_cell_length_a   3.79943000
_cell_length_b   17.45490687
_cell_length_c   18.24348427
_cell_angle_alpha   118.01706435
_cell_angle_beta   94.07496426
_cell_angle_gamma   91.18618299
_symmetry_Int_Tables_number   1
_chemical_formula_structural   AlH24C27N19O6
_chemical_formula_sum   'Al1 H24 C27 N19 O6'
_cell_volume   1063.38362991
_cell_formula_units_Z   1
loop_
 _symmetry_equiv_pos_site_id
 _symmetry_equiv_pos_as_xyz
  1  'x, y, z'
loop_
 _atom_site_type_symbol
 _atom_site_label
 _atom_site_symmetry_multiplicity
 _atom_site_fract_x
 _atom_site_fract_y
 _atom_site_fract_z
 _atom_site_occupancy
  Al  Al0  1  0.49207000  0.99779000  0.49354000  1.0
  H  H1  1  0.83769000  0.05146000  0.32984000  1.0
  H  H2  1  0.49075000  0.03689000  0.26342000  1.0
  H  H3  1  0.60370000  0.90905000  0.03913000  1.0
  H  H4  1  0.67912000  0.00393000  0.13839000  1.0
  H  H5  1  0.01086000  0.78139000  0.33002000  1.0
  H  H6  1  0.29761000  0.73017000  0.26138000  1.0
  H  H7  1  0.93395000  0.63266000  0.03873000  1.0
  H  H8  1  0.97623000  0.63873000  0.13960000  1.0
  H  H9  1  0.13698000  0.46663000  0.85701000  1.0
  H  H10  1  0.39869000  0.37987000  0.83749000  1.0
  H  H11  1  0.31134000  0.17066000  0.70081000  1.0
  H  H12  1  0.17704000  0.24948000  0.79162000  1.0
  H  H13  1  0.54134000  0.46146000  0.60416000  1.0
  H  H14  1  0.40291000  0.35763000  0.52579000  1.0
  H  H15  1  0.72006000  0.16865000  0.45355000  1.0
  H  H16  1  0.74788000  0.26710000  0.45548000  1.0
  H  H17  1  0.18200000  0.89340000  0.86082000  1.0
  H  H18  1  0.90920000  0.96344000  0.84378000  1.0
  H  H19  1  0.85881000  0.03305000  0.70362000  1.0
  H  H20  1  0.09205000  0.04492000  0.79166000  1.0
  H  H21  1  0.49238000  0.63958000  0.60208000  1.0
  H  H22  1  0.52941000  0.66135000  0.51833000  1.0
  H  H23  1  0.20058000  0.78663000  0.45386000  1.0
  H  H24  1  0.11579000  0.69171000  0.45476000  1.0
  C  C25  1  0.93961000  0.93207000  0.36161000  1.0
  C  C26  1  0.02026000  0.92847000  0.56178000  1.0
  C  C27  1  0.01595000  0.13419000  0.56036000  1.0
  C  C28  1  0.90916000  0.75251000  0.13844000  1.0
  C  C29  1  0.79923000  0.79769000  0.09207000  1.0
  C  C30  1  0.14931000  0.87965000  0.74365000  1.0
  C  C31  1  0.27778000  0.79375000  0.70409000  1.0
  C  C32  1  0.87596000  0.40965000  0.70280000  1.0
  C  C33  1  0.76004000  0.36212000  0.61511000  1.0
  C  C34  1  0.29721000  0.75211000  0.61499000  1.0
  C  C35  1  0.20900000  0.79664000  0.56932000  1.0
  C  C36  1  0.08525000  0.88135000  0.60968000  1.0
  C  C37  1  0.04830000  0.92195000  0.69638000  1.0
  C  C38  1  0.81078000  0.27247000  0.56920000  1.0
  C  C39  1  0.98543000  0.22817000  0.60814000  1.0
  C  C40  1  0.10909000  0.27421000  0.69385000  1.0
  C  C41  1  0.05133000  0.36349000  0.74111000  1.0
  C  C42  1  0.74207000  0.88954000  0.13877000  1.0
  C  C43  1  0.79842000  0.93299000  0.22664000  1.0
  C  C44  1  0.89631000  0.88620000  0.26872000  1.0
  C  C45  1  0.94952000  0.79725000  0.22641000  1.0
  C  C46  1  0.79215000  0.62553000  0.87847000  1.0
  C  C47  1  0.56012000  0.75502000  0.87925000  1.0
  C  C48  1  0.74792000  0.75257000  0.00227000  1.0
  C  C49  1  0.80847000  0.50130000  0.75072000  1.0
  C  C50  1  0.59899000  0.62430000  0.74865000  1.0
  C  C51  1  0.39504000  0.75016000  0.75181000  1.0
  N  N52  1  0.65088000  0.66831000  0.83545000  1.0
  N  N53  1  0.60806000  0.79541000  0.96171000  1.0
  N  N54  1  0.84094000  0.66841000  0.96084000  1.0
  N  N55  1  0.87319000  0.54273000  0.83532000  1.0
  N  N56  1  0.67852000  0.54198000  0.70779000  1.0
  N  N57  1  0.42917000  0.79449000  0.83675000  1.0
  N  N58  1  0.47082000  0.66546000  0.70835000  1.0
  N  N59  1  0.75103000  0.02406000  0.26824000  1.0
  N  N60  1  0.63038000  0.93877000  0.10282000  1.0
  N  N61  1  0.04131000  0.74771000  0.26801000  1.0
  N  N62  1  0.98083000  0.66703000  0.10213000  1.0
  N  N63  1  0.16492000  0.40106000  0.82522000  1.0
  N  N64  1  0.28062000  0.23514000  0.73688000  1.0
  N  N65  1  0.59729000  0.39790000  0.56907000  1.0
  N  N66  1  0.67813000  0.23288000  0.48520000  1.0
  N  N67  1  0.12415000  0.92688000  0.82858000  1.0
  N  N68  1  0.92553000  0.00536000  0.74043000  1.0
  N  N69  1  0.39989000  0.66891000  0.56804000  1.0
  N  N70  1  0.25258000  0.75091000  0.48357000  1.0
  O  O71  1  0.26775000  0.09601000  0.57824000  1.0
  O  O72  1  0.19581000  0.98921000  0.39834000  1.0
  O  O73  1  0.21379000  0.91245000  0.50131000  1.0
  O  O74  1  0.77757000  0.08970000  0.49959000  1.0
  O  O75  1  0.78352000  0.98437000  0.57936000  1.0
  O  O76  1  0.71619000  0.91170000  0.39972000  1.0
