# generated using pymatgen
data_GdH9C5(NO4)2
_symmetry_space_group_name_H-M   'P 1'
_cell_length_a   6.58574000
_cell_length_b   6.74352000
_cell_length_c   6.74363000
_cell_angle_alpha   64.08860000
_cell_angle_beta   73.08220000
_cell_angle_gamma   73.08330000
_symmetry_Int_Tables_number   1
_chemical_formula_structural   GdH9C5(NO4)2
_chemical_formula_sum   'Gd1 H9 C5 N2 O8'
_cell_volume   253.01301156
_cell_formula_units_Z   1
loop_
 _symmetry_equiv_pos_site_id
 _symmetry_equiv_pos_as_xyz
  1  'x, y, z'
loop_
 _atom_site_type_symbol
 _atom_site_label
 _atom_site_symmetry_multiplicity
 _atom_site_fract_x
 _atom_site_fract_y
 _atom_site_fract_z
 _atom_site_occupancy
  Gd  Gd0  1  0.99999000  0.94473000  0.05527000  1.0
  H  H1  1  0.49999000  0.02473000  0.97528000  1.0
  H  H2  1  0.87722000  0.41478000  0.20637000  1.0
  H  H3  1  0.12277000  0.79363000  0.58521000  1.0
  H  H4  1  0.60160000  0.15313000  0.41271000  1.0
  H  H5  1  0.39839000  0.58729000  0.84689000  1.0
  H  H6  1  0.47192000  0.44274000  0.31345000  1.0
  H  H7  1  0.52810000  0.68658000  0.55722000  1.0
  H  H8  1  0.17802000  0.39373000  0.58379000  1.0
  H  H9  1  0.82202000  0.41623000  0.60626000  1.0
  C  C10  1  0.49999000  0.87120000  0.12880000  1.0
  C  C11  1  0.04270000  0.41447000  0.10319000  1.0
  C  C12  1  0.95728000  0.89681000  0.58553000  1.0
  C  C13  1  0.29861000  0.24112000  0.58250000  1.0
  C  C14  1  0.70142000  0.41749000  0.75890000  1.0
  N  N15  1  0.47096000  0.27974000  0.42249000  1.0
  N  N16  1  0.52905000  0.57751000  0.72026000  1.0
  O  O17  1  0.33306000  0.78169000  0.20669000  1.0
  O  O18  1  0.66692000  0.79332000  0.21831000  1.0
  O  O19  1  0.26741000  0.04979000  0.72494000  1.0
  O  O20  1  0.73260000  0.27505000  0.95024000  1.0
  O  O21  1  0.12912000  0.57956000  0.05916000  1.0
  O  O22  1  0.87088000  0.94082000  0.42045000  1.0
  O  O23  1  0.13232000  0.25613000  0.03760000  1.0
  O  O24  1  0.86768000  0.96239000  0.74387000  1.0
