# generated using pymatgen
data_CuH4C3N3Cl
_symmetry_space_group_name_H-M   'P 1'
_cell_length_a   6.47832000
_cell_length_b   6.50561000
_cell_length_c   6.88821000
_cell_angle_alpha   81.80930000
_cell_angle_beta   67.94450000
_cell_angle_gamma   86.91180000
_symmetry_Int_Tables_number   1
_chemical_formula_structural   CuH4C3N3Cl
_chemical_formula_sum   'Cu2 H8 C6 N6 Cl2'
_cell_volume   266.31743083
_cell_formula_units_Z   2
loop_
 _symmetry_equiv_pos_site_id
 _symmetry_equiv_pos_as_xyz
  1  'x, y, z'
loop_
 _atom_site_type_symbol
 _atom_site_label
 _atom_site_symmetry_multiplicity
 _atom_site_fract_x
 _atom_site_fract_y
 _atom_site_fract_z
 _atom_site_occupancy
  Cu  Cu0  1  0.51197000  0.27226000  0.96972000  1.0
  Cu  Cu1  1  0.48801000  0.72775000  0.03031000  1.0
  H  H2  1  0.23841000  0.35807000  0.63468000  1.0
  H  H3  1  0.76160000  0.64192000  0.36530000  1.0
  H  H4  1  0.11024000  0.71565000  0.82315000  1.0
  H  H5  1  0.88977000  0.28437000  0.17684000  1.0
  H  H6  1  0.92773000  0.21972000  0.56142000  1.0
  H  H7  1  0.07225000  0.78027000  0.43859000  1.0
  H  H8  1  0.80498000  0.98136000  0.71556000  1.0
  H  H9  1  0.19502000  0.01864000  0.28445000  1.0
  C  C10  1  0.24852000  0.19977000  0.70521000  1.0
  C  C11  1  0.75149000  0.80025000  0.29478000  1.0
  C  C12  1  0.18485000  0.86756000  0.79870000  1.0
  C  C13  1  0.81515000  0.13242000  0.20129000  1.0
  C  C14  1  0.95875000  0.05436000  0.59871000  1.0
  C  C15  1  0.04123000  0.94565000  0.40129000  1.0
  N  N16  1  0.37530000  0.12946000  0.81309000  1.0
  N  N17  1  0.62470000  0.87055000  0.18690000  1.0
  N  N18  1  0.33626000  0.91628000  0.87043000  1.0
  N  N19  1  0.66374000  0.08372000  0.12955000  1.0
  N  N20  1  0.12584000  0.04092000  0.69463000  1.0
  N  N21  1  0.87418000  0.95907000  0.30537000  1.0
  Cl  Cl22  1  0.22441000  0.46160000  0.21027000  1.0
  Cl  Cl23  1  0.77558000  0.53841000  0.78974000  1.0
