# generated using pymatgen
data_CdHC2O3
_symmetry_space_group_name_H-M   'P 1'
_cell_length_a   3.64546000
_cell_length_b   8.73728795
_cell_length_c   10.56540000
_cell_angle_alpha   90.00277445
_cell_angle_beta   90.00160000
_cell_angle_gamma   78.41929419
_symmetry_Int_Tables_number   1
_chemical_formula_structural   CdHC2O3
_chemical_formula_sum   'Cd4 H4 C8 O12'
_cell_volume   329.67250434
_cell_formula_units_Z   4
loop_
 _symmetry_equiv_pos_site_id
 _symmetry_equiv_pos_as_xyz
  1  'x, y, z'
loop_
 _atom_site_type_symbol
 _atom_site_label
 _atom_site_symmetry_multiplicity
 _atom_site_fract_x
 _atom_site_fract_y
 _atom_site_fract_z
 _atom_site_occupancy
  Cd  Cd0  1  0.72045000  0.07341000  0.37597000  1.0
  Cd  Cd1  1  0.77956000  0.42658000  0.87597000  1.0
  Cd  Cd2  1  0.27957000  0.92659000  0.62403000  1.0
  Cd  Cd3  1  0.22043000  0.57342000  0.12404000  1.0
  H  H4  1  0.31368000  0.82199000  0.36597000  1.0
  H  H5  1  0.18633000  0.67799000  0.86598000  1.0
  H  H6  1  0.68632000  0.17801000  0.63403000  1.0
  H  H7  1  0.81368000  0.32200000  0.13403000  1.0
  C  C8  1  0.03389000  0.39886000  0.44456000  1.0
  C  C9  1  0.46611000  0.10115000  0.94456000  1.0
  C  C10  1  0.96603000  0.60117000  0.55545000  1.0
  C  C11  1  0.53397000  0.89884000  0.05543000  1.0
  C  C12  1  0.09561000  0.55914000  0.42498000  1.0
  C  C13  1  0.40436000  0.94086000  0.92497000  1.0
  C  C14  1  0.90431000  0.44088000  0.57502000  1.0
  C  C15  1  0.59571000  0.05912000  0.07502000  1.0
  O  O16  1  0.08119000  0.27813000  0.37586000  1.0
  O  O17  1  0.41879000  0.22187000  0.87585000  1.0
  O  O18  1  0.91876000  0.72189000  0.62415000  1.0
  O  O19  1  0.58127000  0.77811000  0.12415000  1.0
  O  O20  1  0.21227000  0.63154000  0.33492000  1.0
  O  O21  1  0.28767000  0.86846000  0.83493000  1.0
  O  O22  1  0.78763000  0.36848000  0.66509000  1.0
  O  O23  1  0.71236000  0.13152000  0.16506000  1.0
  O  O24  1  0.29500000  0.92571000  0.40530000  1.0
  O  O25  1  0.20503000  0.57428000  0.90530000  1.0
  O  O26  1  0.70503000  0.07429000  0.59470000  1.0
  O  O27  1  0.79497000  0.42572000  0.09470000  1.0
