# generated using pymatgen
data_CoH12C4(ClO2)2
_symmetry_space_group_name_H-M   'P 1'
_cell_length_a   6.82974000
_cell_length_b   7.89709415
_cell_length_c   9.09815000
_cell_angle_alpha   89.97291445
_cell_angle_beta   89.93460000
_cell_angle_gamma   115.22681879
_symmetry_Int_Tables_number   1
_chemical_formula_structural   CoH12C4(ClO2)2
_chemical_formula_sum   'Co2 H24 C8 Cl4 O8'
_cell_volume   443.90896214
_cell_formula_units_Z   2
loop_
 _symmetry_equiv_pos_site_id
 _symmetry_equiv_pos_as_xyz
  1  'x, y, z'
loop_
 _atom_site_type_symbol
 _atom_site_label
 _atom_site_symmetry_multiplicity
 _atom_site_fract_x
 _atom_site_fract_y
 _atom_site_fract_z
 _atom_site_occupancy
  Co  Co0  1  0.50000000  0.50000000  0.50000000  1.0
  Co  Co1  1  0.50000000  0.00000000  0.00000000  1.0
  H  H2  1  0.00507000  0.50789000  0.28520000  1.0
  H  H3  1  0.99892000  0.99222000  0.78503000  1.0
  H  H4  1  0.99493000  0.49210000  0.71480000  1.0
  H  H5  1  0.00106000  0.00779000  0.21498000  1.0
  H  H6  1  0.94737000  0.75861000  0.60291000  1.0
  H  H7  1  0.05370000  0.74295000  0.10511000  1.0
  H  H8  1  0.05264000  0.24138000  0.39709000  1.0
  H  H9  1  0.94630000  0.25707000  0.89490000  1.0
  H  H10  1  0.44828000  0.16464000  0.59256000  1.0
  H  H11  1  0.55229000  0.33532000  0.09254000  1.0
  H  H12  1  0.55171000  0.83536000  0.40744000  1.0
  H  H13  1  0.44771000  0.66468000  0.90746000  1.0
  H  H14  1  0.74370000  0.31802000  0.31505000  1.0
  H  H15  1  0.25879000  0.18319000  0.81618000  1.0
  H  H16  1  0.25631000  0.68198000  0.68495000  1.0
  H  H17  1  0.74121000  0.81683000  0.18382000  1.0
  H  H18  1  0.39568000  0.14629000  0.42185000  1.0
  H  H19  1  0.60546000  0.35438000  0.92186000  1.0
  H  H20  1  0.60430000  0.85369000  0.57814000  1.0
  H  H21  1  0.39454000  0.64561000  0.07814000  1.0
  H  H22  1  0.12425000  0.76779000  0.45374000  1.0
  H  H23  1  0.87856000  0.73199000  0.95454000  1.0
  H  H24  1  0.87575000  0.23220000  0.54626000  1.0
  H  H25  1  0.12144000  0.26802000  0.04547000  1.0
  C  C26  1  0.00833000  0.67651000  0.53568000  1.0
  C  C27  1  0.99263000  0.82404000  0.03680000  1.0
  C  C28  1  0.99167000  0.32348000  0.46432000  1.0
  C  C29  1  0.00736000  0.17597000  0.96321000  1.0
  C  C30  1  0.88928000  0.42073000  0.36892000  1.0
  C  C31  1  0.11267000  0.07978000  0.86929000  1.0
  C  C32  1  0.11073000  0.57926000  0.63108000  1.0
  C  C33  1  0.88732000  0.92022000  0.13071000  1.0
  Cl  Cl34  1  0.57424000  0.53416000  0.76171000  1.0
  Cl  Cl35  1  0.42659000  0.96644000  0.26191000  1.0
  Cl  Cl36  1  0.42577000  0.46584000  0.23829000  1.0
  Cl  Cl37  1  0.57341000  0.03356000  0.73809000  1.0
  O  O38  1  0.82358000  0.53966000  0.45798000  1.0
  O  O39  1  0.17792000  0.96179000  0.95965000  1.0
  O  O40  1  0.17642000  0.46032000  0.54202000  1.0
  O  O41  1  0.82207000  0.03822000  0.04035000  1.0
  O  O42  1  0.38768000  0.21350000  0.51223000  1.0
  O  O43  1  0.61339000  0.28692000  0.01211000  1.0
  O  O44  1  0.61232000  0.78650000  0.48781000  1.0
  O  O45  1  0.38663000  0.71309000  0.98785000  1.0
