# generated using pymatgen
data_Cu3H7(C5N4)2
_symmetry_space_group_name_H-M   'P 1'
_cell_length_a   7.82536000
_cell_length_b   8.66744000
_cell_length_c   10.37790000
_cell_angle_alpha   111.45500000
_cell_angle_beta   99.63770000
_cell_angle_gamma   103.68100000
_symmetry_Int_Tables_number   1
_chemical_formula_structural   Cu3H7(C5N4)2
_chemical_formula_sum   'Cu6 H14 C20 N16'
_cell_volume   610.91666204
_cell_formula_units_Z   2
loop_
 _symmetry_equiv_pos_site_id
 _symmetry_equiv_pos_as_xyz
  1  'x, y, z'
loop_
 _atom_site_type_symbol
 _atom_site_label
 _atom_site_symmetry_multiplicity
 _atom_site_fract_x
 _atom_site_fract_y
 _atom_site_fract_z
 _atom_site_occupancy
  Cu  Cu0  1  0.38223000  0.17292000  0.38580000  1.0
  Cu  Cu1  1  0.61778000  0.82708000  0.61420000  1.0
  Cu  Cu2  1  0.53758000  0.95285000  0.23112000  1.0
  Cu  Cu3  1  0.46242000  0.04716000  0.76888000  1.0
  Cu  Cu4  1  0.68340000  0.68854000  0.98731000  1.0
  Cu  Cu5  1  0.31659000  0.31146000  0.01270000  1.0
  H  H6  1  0.28116000  0.28070000  0.61007000  1.0
  H  H7  1  0.71883000  0.71930000  0.38993000  1.0
  H  H8  1  0.73150000  0.28218000  0.44627000  1.0
  H  H9  1  0.26851000  0.71783000  0.55373000  1.0
  H  H10  1  0.31969000  0.54912000  0.82363000  1.0
  H  H11  1  0.68032000  0.45089000  0.17637000  1.0
  H  H12  1  0.78595000  0.54017000  0.66585000  1.0
  H  H13  1  0.21404000  0.45982000  0.33414000  1.0
  H  H14  1  0.09693000  0.68032000  0.97898000  1.0
  H  H15  1  0.90307000  0.31968000  0.02100000  1.0
  H  H16  1  0.97376000  0.76242000  0.87241000  1.0
  H  H17  1  0.02624000  0.23758000  0.12759000  1.0
  H  H18  1  0.21719000  0.80939000  0.90246000  1.0
  H  H19  1  0.78280000  0.19061000  0.09754000  1.0
  C  C20  1  0.47226000  0.41821000  0.47162000  1.0
  C  C21  1  0.52775000  0.58178000  0.52838000  1.0
  C  C22  1  0.97339000  0.09761000  0.37682000  1.0
  C  C23  1  0.02661000  0.90240000  0.62319000  1.0
  C  C24  1  0.99981000  0.25177000  0.50789000  1.0
  C  C25  1  0.00019000  0.74823000  0.49211000  1.0
  C  C26  1  0.44292000  0.10268000  0.17087000  1.0
  C  C27  1  0.55709000  0.89732000  0.82914000  1.0
  C  C28  1  0.16708000  0.33140000  0.61732000  1.0
  C  C29  1  0.83290000  0.66860000  0.38269000  1.0
  C  C30  1  0.86283000  0.33024000  0.52719000  1.0
  C  C31  1  0.13716000  0.66974000  0.47279000  1.0
  C  C32  1  0.62951000  0.44866000  0.89484000  1.0
  C  C33  1  0.37048000  0.55134000  0.10516000  1.0
  C  C34  1  0.19141000  0.48126000  0.73794000  1.0
  C  C35  1  0.80858000  0.51873000  0.26205000  1.0
  C  C36  1  0.89223000  0.47838000  0.65096000  1.0
  C  C37  1  0.10776000  0.52162000  0.34904000  1.0
  C  C38  1  0.08775000  0.71161000  0.88542000  1.0
  C  C39  1  0.91225000  0.28842000  0.11459000  1.0
  N  N40  1  0.11115000  0.04289000  0.33269000  1.0
  N  N41  1  0.88884000  0.95710000  0.66731000  1.0
  N  N42  1  0.48722000  0.02838000  0.45869000  1.0
  N  N43  1  0.51278000  0.97162000  0.54132000  1.0
  N  N44  1  0.03371000  0.89884000  0.20848000  1.0
  N  N45  1  0.96630000  0.10115000  0.79152000  1.0
  N  N46  1  0.85505000  0.86649000  0.17715000  1.0
  N  N47  1  0.14497000  0.13351000  0.82285000  1.0
  N  N48  1  0.81142000  0.98804000  0.27928000  1.0
  N  N49  1  0.18860000  0.01196000  0.72072000  1.0
  N  N50  1  0.42544000  0.70561000  0.16481000  1.0
  N  N51  1  0.57455000  0.29439000  0.83519000  1.0
  N  N52  1  0.39579000  0.17153000  0.09847000  1.0
  N  N53  1  0.60420000  0.82847000  0.90153000  1.0
  N  N54  1  0.05536000  0.55247000  0.75403000  1.0
  N  N55  1  0.94464000  0.44753000  0.24597000  1.0
