# generated using pymatgen
data_CuH12C15S2IN
_symmetry_space_group_name_H-M   'P 1'
_cell_length_a   6.76730000
_cell_length_b   8.87014000
_cell_length_c   12.12830000
_cell_angle_alpha   83.25040000
_cell_angle_beta   88.96550000
_cell_angle_gamma   88.64480000
_symmetry_Int_Tables_number   1
_chemical_formula_structural   CuH12C15S2IN
_chemical_formula_sum   'Cu2 H24 C30 S4 I2 N2'
_cell_volume   722.69071953
_cell_formula_units_Z   2
loop_
 _symmetry_equiv_pos_site_id
 _symmetry_equiv_pos_as_xyz
  1  'x, y, z'
loop_
 _atom_site_type_symbol
 _atom_site_label
 _atom_site_symmetry_multiplicity
 _atom_site_fract_x
 _atom_site_fract_y
 _atom_site_fract_z
 _atom_site_occupancy
  Cu  Cu0  1  0.40539000  0.40610000  0.93923000  1.0
  Cu  Cu1  1  0.59461000  0.59391000  0.06077000  1.0
  H  H2  1  0.03511000  0.48812000  0.78699000  1.0
  H  H3  1  0.96489000  0.51188000  0.21300000  1.0
  H  H4  1  0.14260000  0.66316000  0.73542000  1.0
  H  H5  1  0.85741000  0.33683000  0.26456000  1.0
  H  H6  1  0.85808000  0.34802000  0.66646000  1.0
  H  H7  1  0.14195000  0.65197000  0.33353000  1.0
  H  H8  1  0.25083000  0.69398000  0.52088000  1.0
  H  H9  1  0.74921000  0.30601000  0.47911000  1.0
  H  H10  1  0.26640000  0.91740000  0.84173000  1.0
  H  H11  1  0.73358000  0.08260000  0.15828000  1.0
  H  H12  1  0.28342000  0.86842000  0.64909000  1.0
  H  H13  1  0.71654000  0.13157000  0.35093000  1.0
  H  H14  1  0.35058000  0.07620000  0.49743000  1.0
  H  H15  1  0.64940000  0.92378000  0.50258000  1.0
  H  H16  1  0.40020000  0.33919000  0.54505000  1.0
  H  H17  1  0.59981000  0.66079000  0.45495000  1.0
  H  H18  1  0.23016000  0.97363000  0.97913000  1.0
  H  H19  1  0.76984000  0.02638000  0.02088000  1.0
  H  H20  1  0.25870000  0.24959000  0.36992000  1.0
  H  H21  1  0.74131000  0.75042000  0.63009000  1.0
  H  H22  1  0.15335000  0.96041000  0.37705000  1.0
  H  H23  1  0.84663000  0.03960000  0.62295000  1.0
  H  H24  1  0.16099000  0.87466000  0.17506000  1.0
  H  H25  1  0.83898000  0.12536000  0.82494000  1.0
  C  C26  1  0.13142000  0.54366000  0.72127000  1.0
  C  C27  1  0.86859000  0.45634000  0.27872000  1.0
  C  C28  1  0.06151000  0.52455000  0.60752000  1.0
  C  C29  1  0.93852000  0.47544000  0.39246000  1.0
  C  C30  1  0.92089000  0.41477000  0.59337000  1.0
  C  C31  1  0.07916000  0.58523000  0.40661000  1.0
  C  C32  1  0.13942000  0.60927000  0.51233000  1.0
  C  C33  1  0.86061000  0.39072000  0.48765000  1.0
  C  C34  1  0.35654000  0.27761000  0.72017000  1.0
  C  C35  1  0.64346000  0.72239000  0.27983000  1.0
  C  C36  1  0.31789000  0.16042000  0.80732000  1.0
  C  C37  1  0.68211000  0.83958000  0.19268000  1.0
  C  C38  1  0.29319000  0.01281000  0.77838000  1.0
  C  C39  1  0.70679000  0.98719000  0.22163000  1.0
  C  C40  1  0.30362000  0.98386000  0.66842000  1.0
  C  C41  1  0.69636000  0.01613000  0.33159000  1.0
  C  C42  1  0.34055000  0.10010000  0.58324000  1.0
  C  C43  1  0.65943000  0.89989000  0.41676000  1.0
  C  C44  1  0.36928000  0.24623000  0.60972000  1.0
  C  C45  1  0.63073000  0.75375000  0.39029000  1.0
  C  C46  1  0.26224000  0.08877000  0.99757000  1.0
  C  C47  1  0.73774000  0.91124000  0.00243000  1.0
  C  C48  1  0.25055000  0.10402000  0.11272000  1.0
  C  C49  1  0.74943000  0.89599000  0.88729000  1.0
  C  C50  1  0.24886000  0.18307000  0.30061000  1.0
  C  C51  1  0.75116000  0.81694000  0.69940000  1.0
  C  C52  1  0.19415000  0.03335000  0.30202000  1.0
  C  C53  1  0.80584000  0.96666000  0.69798000  1.0
  C  C54  1  0.19607000  0.98762000  0.19491000  1.0
  C  C55  1  0.80390000  0.01240000  0.80510000  1.0
  S  S56  1  0.38629000  0.46777000  0.74671000  1.0
  S  S57  1  0.61373000  0.53222000  0.25329000  1.0
  S  S58  1  0.30211000  0.26836000  0.17015000  1.0
  S  S59  1  0.69790000  0.73165000  0.82986000  1.0
  I  I60  1  0.22055000  0.64006000  0.01283000  1.0
  I  I61  1  0.77945000  0.35995000  0.98717000  1.0
  N  N62  1  0.30799000  0.19624000  0.91824000  1.0
  N  N63  1  0.69200000  0.80377000  0.08176000  1.0
