# generated using pymatgen
data_CuHg2H28C12N8(Cl3O2)2
_symmetry_space_group_name_H-M   'P 1'
_cell_length_a   8.91484000
_cell_length_b   10.19560000
_cell_length_c   14.78640000
_cell_angle_alpha   97.87820000
_cell_angle_beta   89.99990000
_cell_angle_gamma   90.00000000
_symmetry_Int_Tables_number   1
_chemical_formula_structural   CuHg2H28C12N8(Cl3O2)2
_chemical_formula_sum   'Cu2 Hg4 H56 C24 N16 Cl12 O8'
_cell_volume   1331.28279178
_cell_formula_units_Z   2
loop_
 _symmetry_equiv_pos_site_id
 _symmetry_equiv_pos_as_xyz
  1  'x, y, z'
loop_
 _atom_site_type_symbol
 _atom_site_label
 _atom_site_symmetry_multiplicity
 _atom_site_fract_x
 _atom_site_fract_y
 _atom_site_fract_z
 _atom_site_occupancy
  Cu  Cu0  1  0.62243000  0.50923000  0.74442000  1.0
  Cu  Cu1  1  0.12243000  0.49076000  0.25557000  1.0
  Hg  Hg2  1  0.06586000  0.36447000  0.65312000  1.0
  Hg  Hg3  1  0.56585000  0.63553000  0.34688000  1.0
  Hg  Hg4  1  0.17734000  0.64075000  0.85065000  1.0
  Hg  Hg5  1  0.67734000  0.35925000  0.14935000  1.0
  H  H6  1  0.60950000  0.43171000  0.89992000  1.0
  H  H7  1  0.10950000  0.56829000  0.10008000  1.0
  H  H8  1  0.44296000  0.41832000  0.85092000  1.0
  H  H9  1  0.94295000  0.58168000  0.14908000  1.0
  H  H10  1  0.69974000  0.24095000  0.83269000  1.0
  H  H11  1  0.19974000  0.75905000  0.16731000  1.0
  H  H12  1  0.53647000  0.91660000  0.92078000  1.0
  H  H13  1  0.03647000  0.08340000  0.07922000  1.0
  H  H14  1  0.51261000  0.06411000  0.81367000  1.0
  H  H15  1  0.01260000  0.93590000  0.18633000  1.0
  H  H16  1  0.36347000  0.17941000  0.81942000  1.0
  H  H17  1  0.86347000  0.82059000  0.18058000  1.0
  H  H18  1  0.54977000  0.68243000  0.06776000  1.0
  H  H19  1  0.04977000  0.31757000  0.93224000  1.0
  H  H20  1  0.59573000  0.72185000  0.96123000  1.0
  H  H21  1  0.09573000  0.27815000  0.03877000  1.0
  H  H22  1  0.59546000  0.17318000  0.97341000  1.0
  H  H23  1  0.09546000  0.82682000  0.02659000  1.0
  H  H24  1  0.43125000  0.27122000  0.97752000  1.0
  H  H25  1  0.93124000  0.72878000  0.02248000  1.0
  H  H26  1  0.34407000  0.97410000  0.13782000  1.0
  H  H27  1  0.84407000  0.02590000  0.86218000  1.0
  H  H28  1  0.44809000  0.84943000  0.17552000  1.0
  H  H29  1  0.94809000  0.15057000  0.82449000  1.0
  H  H30  1  0.36373000  0.09983000  0.05726000  1.0
  H  H31  1  0.86373000  0.90017000  0.94275000  1.0
  H  H32  1  0.28061000  0.05324000  0.94910000  1.0
  H  H33  1  0.78060000  0.94676000  0.05090000  1.0
  H  H34  1  0.76554000  0.57056000  0.60707000  1.0
  H  H35  1  0.26554000  0.42944000  0.39293000  1.0
  H  H36  1  0.59959000  0.64351000  0.61531000  1.0
  H  H37  1  0.09959000  0.35649000  0.38469000  1.0
  H  H38  1  0.87712000  0.71009000  0.71949000  1.0
  H  H39  1  0.37712000  0.28990000  0.28051000  1.0
  H  H40  1  0.72240000  0.08558000  0.57015000  1.0
  H  H41  1  0.22240000  0.91442000  0.42985000  1.0
  H  H42  1  0.66739000  0.91534000  0.65841000  1.0
  H  H43  1  0.16739000  0.08465000  0.34159000  1.0
  H  H44  1  0.85819000  0.92729000  0.68698000  1.0
  H  H45  1  0.35819000  0.07271000  0.31302000  1.0
  H  H46  1  0.91921000  0.02810000  0.35624000  1.0
  H  H47  1  0.41921000  0.97190000  0.64376000  1.0
  H  H48  1  0.83086000  0.16049000  0.31899000  1.0
  H  H49  1  0.33087000  0.83951000  0.68101000  1.0
  H  H50  1  0.71815000  0.79366000  0.50889000  1.0
  H  H51  1  0.21815000  0.20635000  0.49111000  1.0
  H  H52  1  0.89957000  0.74832000  0.54138000  1.0
  H  H53  1  0.39957000  0.25168000  0.45862000  1.0
  H  H54  1  0.66309000  0.28223000  0.52804000  1.0
  H  H55  1  0.16309000  0.71777000  0.47196000  1.0
  H  H56  1  0.71183000  0.31857000  0.42094000  1.0
  H  H57  1  0.21183000  0.68143000  0.57906000  1.0
  H  H58  1  0.99018000  0.97541000  0.55213000  1.0
  H  H59  1  0.49018000  0.02459000  0.44787000  1.0
  H  H60  1  0.92375000  0.91106000  0.44221000  1.0
  H  H61  1  0.42375000  0.08894000  0.55779000  1.0
  C  C62  1  0.60090000  0.23724000  0.70380000  1.0
  C  C63  1  0.10090000  0.76276000  0.29620000  1.0
  C  C64  1  0.58620000  0.26027000  0.80773000  1.0
  C  C65  1  0.08621000  0.73973000  0.19227000  1.0
  C  C66  1  0.47797000  0.16390000  0.84401000  1.0
  C  C67  1  0.97797000  0.83610000  0.15600000  1.0
  C  C68  1  0.47929000  0.17531000  0.94808000  1.0
  C  C69  1  0.97929000  0.82469000  0.05192000  1.0
  C  C70  1  0.38853000  0.06749000  0.98527000  1.0
  C  C71  1  0.88853000  0.93251000  0.01474000  1.0
  C  C72  1  0.47683000  0.86266000  0.04184000  1.0
  C  C73  1  0.97683000  0.13734000  0.95816000  1.0
  C  C74  1  0.68297000  0.77519000  0.79412000  1.0
  C  C75  1  0.18297000  0.22480000  0.20587000  1.0
  C  C76  1  0.76295000  0.74064000  0.70246000  1.0
  C  C77  1  0.26295000  0.25936000  0.29754000  1.0
  C  C78  1  0.77339000  0.86085000  0.65124000  1.0
  C  C79  1  0.27339000  0.13915000  0.34876000  1.0
  C  C80  1  0.81639000  0.82868000  0.55062000  1.0
  C  C81  1  0.31639000  0.17133000  0.44937000  1.0
  C  C82  1  0.88844000  0.94495000  0.51234000  1.0
  C  C83  1  0.38844000  0.05505000  0.48766000  1.0
  C  C84  1  0.78687000  0.14072000  0.45018000  1.0
  C  C85  1  0.28687000  0.85928000  0.54982000  1.0
  N  N86  1  0.55529000  0.40159000  0.83919000  1.0
  N  N87  1  0.05529000  0.59841000  0.16080000  1.0
  N  N88  1  0.46823000  0.94148000  0.97715000  1.0
  N  N89  1  0.96823000  0.05853000  0.02285000  1.0
  N  N90  1  0.56533000  0.75446000  0.02738000  1.0
  N  N91  1  0.06533000  0.24554000  0.97262000  1.0
  N  N92  1  0.40119000  0.88694000  0.12135000  1.0
  N  N93  1  0.90120000  0.11306000  0.87865000  1.0
  N  N94  1  0.69123000  0.62123000  0.65245000  1.0
  N  N95  1  0.19123000  0.37877000  0.34755000  1.0
  N  N96  1  0.79020000  0.05960000  0.51366000  1.0
  N  N97  1  0.29020000  0.94039000  0.48634000  1.0
  N  N98  1  0.87039000  0.11865000  0.37319000  1.0
  N  N99  1  0.37039000  0.88135000  0.62681000  1.0
  N  N100  1  0.69745000  0.24806000  0.46281000  1.0
  N  N101  1  0.19745000  0.75194000  0.53718000  1.0
  Cl  Cl102  1  0.97542000  0.47501000  0.52959000  1.0
  Cl  Cl103  1  0.47541000  0.52499000  0.47041000  1.0
  Cl  Cl104  1  0.11776000  0.15192000  0.69906000  1.0
  Cl  Cl105  1  0.61776000  0.84808000  0.30093000  1.0
  Cl  Cl106  1  0.93495000  0.47844000  0.80888000  1.0
  Cl  Cl107  1  0.43495000  0.52156000  0.19112000  1.0
  Cl  Cl108  1  0.30794000  0.52792000  0.69298000  1.0
  Cl  Cl109  1  0.80794000  0.47208000  0.30702000  1.0
  Cl  Cl110  1  0.13492000  0.85338000  0.80348000  1.0
  Cl  Cl111  1  0.63493000  0.14662000  0.19653000  1.0
  Cl  Cl112  1  0.26735000  0.52467000  0.97176000  1.0
  Cl  Cl113  1  0.76735000  0.47534000  0.02824000  1.0
  O  O114  1  0.63307000  0.33799000  0.66299000  1.0
  O  O115  1  0.13308000  0.66201000  0.33701000  1.0
  O  O116  1  0.58998000  0.12199000  0.66200000  1.0
  O  O117  1  0.08998000  0.87800000  0.33800000  1.0
  O  O118  1  0.61310000  0.68064000  0.82655000  1.0
  O  O119  1  0.11309000  0.31935000  0.17344000  1.0
  O  O120  1  0.68728000  0.89114000  0.83562000  1.0
  O  O121  1  0.18728000  0.10885000  0.16438000  1.0
