# generated using pymatgen
data_Zn4H32C32N2O13
_symmetry_space_group_name_H-M   'P 1'
_cell_length_a   17.89070000
_cell_length_b   18.52930000
_cell_length_c   19.68666869
_cell_angle_alpha   63.39074515
_cell_angle_beta   63.25715348
_cell_angle_gamma   89.91500000
_symmetry_Int_Tables_number   1
_chemical_formula_structural   Zn4H32C32N2O13
_chemical_formula_sum   'Zn8 H64 C64 N4 O26'
_cell_volume   5044.56706419
_cell_formula_units_Z   2
loop_
 _symmetry_equiv_pos_site_id
 _symmetry_equiv_pos_as_xyz
  1  'x, y, z'
loop_
 _atom_site_type_symbol
 _atom_site_label
 _atom_site_symmetry_multiplicity
 _atom_site_fract_x
 _atom_site_fract_y
 _atom_site_fract_z
 _atom_site_occupancy
  Zn  Zn0  1  0.94668000  0.53234000  0.92480000  1.0
  Zn  Zn1  1  0.96968000  0.38160000  0.07081000  1.0
  Zn  Zn2  1  0.96924000  0.55687000  0.06265000  1.0
  Zn  Zn3  1  0.13323000  0.54372000  0.91139000  1.0
  Zn  Zn4  1  0.56096000  0.96801000  0.06156000  1.0
  Zn  Zn5  1  0.53744000  0.95251000  0.91976000  1.0
  Zn  Zn6  1  0.54714000  0.12605000  0.91337000  1.0
  Zn  Zn7  1  0.37680000  0.96910000  0.06978000  1.0
  H  H8  1  0.22142000  0.82366000  0.34962000  1.0
  H  H9  1  0.47424000  0.84012000  0.31857000  1.0
  H  H10  1  0.28117000  0.67862000  0.63402000  1.0
  H  H11  1  0.02807000  0.66760000  0.66585000  1.0
  H  H12  1  0.68924000  0.27575000  0.63911000  1.0
  H  H13  1  0.67741000  0.03626000  0.65885000  1.0
  H  H14  1  0.83689000  0.23240000  0.34507000  1.0
  H  H15  1  0.83848000  0.47183000  0.32528000  1.0
  H  H16  1  0.90034000  0.79914000  0.88448000  1.0
  H  H17  1  0.88311000  0.78403000  0.98622000  1.0
  H  H18  1  0.79726000  0.87970000  0.97937000  1.0
  H  H19  1  0.81213000  0.89146000  0.87954000  1.0
  H  H20  1  0.67536000  0.76637000  0.12402000  1.0
  H  H21  1  0.60078000  0.70099000  0.12705000  1.0
  H  H22  1  0.75984000  0.66917000  0.12871000  1.0
  H  H23  1  0.68655000  0.60648000  0.12765000  1.0
  H  H24  1  0.79642000  0.70747000  0.88273000  1.0
  H  H25  1  0.71070000  0.62710000  0.98176000  1.0
  H  H26  1  0.62069000  0.71869000  0.98345000  1.0
  H  H27  1  0.70523000  0.79799000  0.88250000  1.0
  H  H28  1  0.21571000  0.30690000  0.87771000  1.0
  H  H29  1  0.13131000  0.22866000  0.98150000  1.0
  H  H30  1  0.22040000  0.13623000  0.98148000  1.0
  H  H31  1  0.30472000  0.21534000  0.87824000  1.0
  H  H32  1  0.20503000  0.12016000  0.12084000  1.0
  H  H33  1  0.27884000  0.18583000  0.11815000  1.0
  H  H34  1  0.11728000  0.21404000  0.12044000  1.0
  H  H35  1  0.19257000  0.28017000  0.11567000  1.0
  H  H36  1  0.32328000  0.40375000  0.86943000  1.0
  H  H37  1  0.31396000  0.39430000  0.96596000  1.0
  H  H38  1  0.40170000  0.30060000  0.96896000  1.0
  H  H39  1  0.41211000  0.31121000  0.87168000  1.0
  H  H40  1  0.90674000  0.27418000  0.91824000  1.0
  H  H41  1  0.86976000  0.35847000  0.86502000  1.0
  H  H42  1  0.78431000  0.26826000  0.85942000  1.0
  H  H43  1  0.82083000  0.18418000  0.91382000  1.0
  H  H44  1  0.65257000  0.30427000  0.94635000  1.0
  H  H45  1  0.59403000  0.24510000  0.06218000  1.0
  H  H46  1  0.73734000  0.39354000  0.95406000  1.0
  H  H47  1  0.67957000  0.33241000  0.06982000  1.0
  H  H48  1  0.82475000  0.18771000  0.08539000  1.0
  H  H49  1  0.73241000  0.21211000  0.14696000  1.0
  H  H50  1  0.64564000  0.12292000  0.14154000  1.0
  H  H51  1  0.73788000  0.09819000  0.08045000  1.0
  H  H52  1  0.18120000  0.81336000  0.90454000  1.0
  H  H53  1  0.27601000  0.78741000  0.84756000  1.0
  H  H54  1  0.35691000  0.88223000  0.85227000  1.0
  H  H55  1  0.26123000  0.90448000  0.91318000  1.0
  H  H56  1  0.40901000  0.76290000  0.93025000  1.0
  H  H57  1  0.35370000  0.70396000  0.04604000  1.0
  H  H58  1  0.32369000  0.66786000  0.92925000  1.0
  H  H59  1  0.26685000  0.61132000  0.04513000  1.0
  H  H60  1  0.09773000  0.73274000  0.07186000  1.0
  H  H61  1  0.13009000  0.64828000  0.12997000  1.0
  H  H62  1  0.21798000  0.73750000  0.13423000  1.0
  H  H63  1  0.18175000  0.82112000  0.08040000  1.0
  H  H64  1  0.09797000  0.80114000  0.43690000  1.0
  H  H65  1  0.01351000  0.74176000  0.54049000  1.0
  H  H66  1  0.40342000  0.74410000  0.54880000  1.0
  H  H67  1  0.48814000  0.78818000  0.44482000  1.0
  H  H68  1  0.70250000  0.39415000  0.55745000  1.0
  H  H69  1  0.76024000  0.47900000  0.45573000  1.0
  H  H70  1  0.76898000  0.11356000  0.42718000  1.0
  H  H71  1  0.72791000  0.02896000  0.52869000  1.0
  C  C72  1  0.85611000  0.35835000  0.00569000  1.0
  C  C73  1  0.89155000  0.39566000  0.23028000  1.0
  C  C74  1  0.85434000  0.63494000  0.99956000  1.0
  C  C75  1  0.15084000  0.64661000  0.98406000  1.0
  C  C76  1  0.11261000  0.61984000  0.75492000  1.0
  C  C77  1  0.15031000  0.36879000  0.98814000  1.0
  C  C78  1  0.64053000  0.85960000  0.99484000  1.0
  C  C79  1  0.63236000  0.11258000  0.75377000  1.0
  C  C80  1  0.64590000  0.14119000  0.99448000  1.0
  C  C81  1  0.36624000  0.14453000  0.99030000  1.0
  C  C82  1  0.39100000  0.88473000  0.22898000  1.0
  C  C83  1  0.35929000  0.86912000  0.99182000  1.0
  C  C84  1  0.26085000  0.80924000  0.38073000  1.0
  C  C85  1  0.40453000  0.81787000  0.36311000  1.0
  C  C86  1  0.37080000  0.77315000  0.45332000  1.0
  C  C87  1  0.27856000  0.74377000  0.51112000  1.0
  C  C88  1  0.24161000  0.69647000  0.60319000  1.0
  C  C89  1  0.09780000  0.68937000  0.62126000  1.0
  C  C90  1  0.13141000  0.73523000  0.53103000  1.0
  C  C91  1  0.22372000  0.76345000  0.47295000  1.0
  C  C92  1  0.35009000  0.83588000  0.32671000  1.0
  C  C93  1  0.15244000  0.66968000  0.65737000  1.0
  C  C94  1  0.70426000  0.24010000  0.60527000  1.0
  C  C95  1  0.69846000  0.10384000  0.61656000  1.0
  C  C96  1  0.74194000  0.13965000  0.52584000  1.0
  C  C97  1  0.76963000  0.22905000  0.47126000  1.0
  C  C98  1  0.81695000  0.26803000  0.37886000  1.0
  C  C99  1  0.81896000  0.40427000  0.36756000  1.0
  C  C100  1  0.77313000  0.36847000  0.45831000  1.0
  C  C101  1  0.74837000  0.27908000  0.51287000  1.0
  C  C102  1  0.68011000  0.15381000  0.65611000  1.0
  C  C103  1  0.84148000  0.35437000  0.32802000  1.0
  C  C104  1  0.84999000  0.78287000  0.95124000  1.0
  C  C105  1  0.79209000  0.84516000  0.94798000  1.0
  C  C106  1  0.69661000  0.79779000  0.99565000  1.0
  C  C107  1  0.66946000  0.73321000  0.09166000  1.0
  C  C108  1  0.72644000  0.67010000  0.09338000  1.0
  C  C109  1  0.79438000  0.69324000  0.99865000  1.0
  C  C110  1  0.74797000  0.69122000  0.94998000  1.0
  C  C111  1  0.68860000  0.75195000  0.94983000  1.0
  C  C112  1  0.19959000  0.26211000  0.94534000  1.0
  C  C113  1  0.25869000  0.20072000  0.94571000  1.0
  C  C114  1  0.30965000  0.20639000  0.98996000  1.0
  C  C115  1  0.24382000  0.18439000  0.08480000  1.0
  C  C116  1  0.18581000  0.24656000  0.08390000  1.0
  C  C117  1  0.21068000  0.31050000  0.98850000  1.0
  C  C118  1  0.30593000  0.35812000  0.93709000  1.0
  C  C119  1  0.36441000  0.29641000  0.93860000  1.0
  C  C120  1  0.84830000  0.29502000  0.92114000  1.0
  C  C121  1  0.79132000  0.23533000  0.91770000  1.0
  C  C122  1  0.70050000  0.19819000  0.00096000  1.0
  C  C123  1  0.65960000  0.27077000  0.00451000  1.0
  C  C124  1  0.71632000  0.32960000  0.00913000  1.0
  C  C125  1  0.79685000  0.29810000  0.00713000  1.0
  C  C126  1  0.76761000  0.20974000  0.08592000  1.0
  C  C127  1  0.71019000  0.15058000  0.08243000  1.0
  C  C128  1  0.23781000  0.79197000  0.90689000  1.0
  C  C129  1  0.29210000  0.85360000  0.91081000  1.0
  C  C130  1  0.30146000  0.80746000  0.99332000  1.0
  C  C131  1  0.34440000  0.73591000  0.98902000  1.0
  C  C132  1  0.28753000  0.67396000  0.98779000  1.0
  C  C133  1  0.20698000  0.70421000  0.98872000  1.0
  C  C134  1  0.15478000  0.71093000  0.07183000  1.0
  C  C135  1  0.21137000  0.77040000  0.07566000  1.0
  N  N136  1  0.07628000  0.75074000  0.49720000  1.0
  N  N137  1  0.42592000  0.75414000  0.48720000  1.0
  N  N138  1  0.75430000  0.41845000  0.49616000  1.0
  N  N139  1  0.76148000  0.08962000  0.48795000  1.0
  O  O140  1  0.00725000  0.50282000  0.99147000  1.0
  O  O141  1  0.87422000  0.43521000  0.94905000  1.0
  O  O142  1  0.91081000  0.34899000  0.19591000  1.0
  O  O143  1  0.88828000  0.62506000  0.04697000  1.0
  O  O144  1  0.88466000  0.32808000  0.05883000  1.0
  O  O145  1  0.86764000  0.60170000  0.95212000  1.0
  O  O146  1  0.91127000  0.47533000  0.18826000  1.0
  O  O147  1  0.06945000  0.63214000  0.03216000  1.0
  O  O148  1  0.16293000  0.60423000  0.78698000  1.0
  O  O149  1  0.18854000  0.61884000  0.93163000  1.0
  O  O150  1  0.03004000  0.59673000  0.79898000  1.0
  O  O151  1  0.06973000  0.33391000  0.04177000  1.0
  O  O152  1  0.18405000  0.44664000  0.93443000  1.0
  O  O153  1  0.50312000  0.00508000  0.99236000  1.0
  O  O154  1  0.64087000  0.89992000  0.03309000  1.0
  O  O155  1  0.61591000  0.03299000  0.79583000  1.0
  O  O156  1  0.62350000  0.17613000  0.93652000  1.0
  O  O157  1  0.59737000  0.86678000  0.95636000  1.0
  O  O158  1  0.62776000  0.06302000  0.04646000  1.0
  O  O159  1  0.61103000  0.15908000  0.78822000  1.0
  O  O160  1  0.44706000  0.17484000  0.93593000  1.0
  O  O161  1  0.34208000  0.90787000  0.19581000  1.0
  O  O162  1  0.32794000  0.06721000  0.04424000  1.0
  O  O163  1  0.47341000  0.89985000  0.18586000  1.0
  O  O164  1  0.43795000  0.89608000  0.92965000  1.0
  O  O165  1  0.32596000  0.88984000  0.05077000  1.0
