# generated using pymatgen
data_CuH4C6SN2Cl
_symmetry_space_group_name_H-M   'P 1'
_cell_length_a   3.73048000
_cell_length_b   10.09397022
_cell_length_c   10.09391260
_cell_angle_alpha   74.01482543
_cell_angle_beta   79.49324078
_cell_angle_gamma   79.49240144
_symmetry_Int_Tables_number   1
_chemical_formula_structural   CuH4C6SN2Cl
_chemical_formula_sum   'Cu2 H8 C12 S2 N4 Cl2'
_cell_volume   355.73803804
_cell_formula_units_Z   2
loop_
 _symmetry_equiv_pos_site_id
 _symmetry_equiv_pos_as_xyz
  1  'x, y, z'
loop_
 _atom_site_type_symbol
 _atom_site_label
 _atom_site_symmetry_multiplicity
 _atom_site_fract_x
 _atom_site_fract_y
 _atom_site_fract_z
 _atom_site_occupancy
  Cu  Cu0  1  0.69351000  0.80870000  0.80848000  1.0
  Cu  Cu1  1  0.69357000  0.30848000  0.30871000  1.0
  H  H2  1  0.63129000  0.57280000  0.65843000  1.0
  H  H3  1  0.13614000  0.65754000  0.57192000  1.0
  H  H4  1  0.13620000  0.07193000  0.15754000  1.0
  H  H5  1  0.63137000  0.15843000  0.07281000  1.0
  H  H6  1  0.51647000  0.34528000  0.63942000  1.0
  H  H7  1  0.49372000  0.63860000  0.34446000  1.0
  H  H8  1  0.49379000  0.84446000  0.13858000  1.0
  H  H9  1  0.51649000  0.13942000  0.84529000  1.0
  C  C10  1  0.68988000  0.49592000  0.87755000  1.0
  C  C11  1  0.93849000  0.87688000  0.49529000  1.0
  C  C12  1  0.93851000  0.99529000  0.37686000  1.0
  C  C13  1  0.68993000  0.37754000  0.99592000  1.0
  C  C14  1  0.62706000  0.48352000  0.74807000  1.0
  C  C15  1  0.14068000  0.74732000  0.48279000  1.0
  C  C16  1  0.14070000  0.98278000  0.24733000  1.0
  C  C17  1  0.62712000  0.24809000  0.98352000  1.0
  C  C18  1  0.56421000  0.35608000  0.73905000  1.0
  C  C19  1  0.33798000  0.73830000  0.35531000  1.0
  C  C20  1  0.33797000  0.85532000  0.23832000  1.0
  C  C21  1  0.56424000  0.23906000  0.85608000  1.0
  S  S22  1  0.82096000  0.57102000  0.07101000  1.0
  S  S23  1  0.54294000  0.07042000  0.57043000  1.0
  N  N24  1  0.75874000  0.61197000  0.90669000  1.0
  N  N25  1  0.72654000  0.90611000  0.61133000  1.0
  N  N26  1  0.72658000  0.11132000  0.40611000  1.0
  N  N27  1  0.75876000  0.40670000  0.11198000  1.0
  Cl  Cl28  1  0.10133000  0.90318000  0.90096000  1.0
  Cl  Cl29  1  0.10138000  0.40096000  0.40320000  1.0
