# generated using pymatgen
data_ZnH13C16ClO7
_symmetry_space_group_name_H-M   'P 1'
_cell_length_a   7.13603000
_cell_length_b   9.24543000
_cell_length_c   14.35310000
_cell_angle_alpha   80.89980000
_cell_angle_beta   75.60690000
_cell_angle_gamma   67.31030000
_symmetry_Int_Tables_number   1
_chemical_formula_structural   ZnH13C16ClO7
_chemical_formula_sum   'Zn2 H26 C32 Cl2 O14'
_cell_volume   844.18893718
_cell_formula_units_Z   2
loop_
 _symmetry_equiv_pos_site_id
 _symmetry_equiv_pos_as_xyz
  1  'x, y, z'
loop_
 _atom_site_type_symbol
 _atom_site_label
 _atom_site_symmetry_multiplicity
 _atom_site_fract_x
 _atom_site_fract_y
 _atom_site_fract_z
 _atom_site_occupancy
  Zn  Zn0  1  0.05688000  0.95148000  0.51978000  1.0
  Zn  Zn1  1  0.52820000  0.04860000  0.48023000  1.0
  H  H2  1  0.63904000  0.27686000  0.74464000  1.0
  H  H3  1  0.66045000  0.72300000  0.25540000  1.0
  H  H4  1  0.66646000  0.51721000  0.57344000  1.0
  H  H5  1  0.75601000  0.48287000  0.42680000  1.0
  H  H6  1  0.88568000  0.36930000  0.61501000  1.0
  H  H7  1  0.86938000  0.63055000  0.38526000  1.0
  H  H8  1  0.70484000  0.51912000  0.69108000  1.0
  H  H9  1  0.91447000  0.48057000  0.30926000  1.0
  H  H10  1  0.44877000  0.13866000  0.78053000  1.0
  H  H11  1  0.36746000  0.86139000  0.21963000  1.0
  H  H12  1  0.19103000  0.06656000  0.90748000  1.0
  H  H13  1  0.16469000  0.93365000  0.09262000  1.0
  H  H14  1  0.75221000  0.53974000  0.89293000  1.0
  H  H15  1  0.18472000  0.46036000  0.10692000  1.0
  H  H16  1  0.01287000  0.61516000  0.76209000  1.0
  H  H17  1  0.38948000  0.38493000  0.23791000  1.0
  H  H18  1  0.08178000  0.31580000  0.05163000  1.0
  H  H19  1  0.44904000  0.68443000  0.94836000  1.0
  H  H20  1  0.12733000  0.24515000  0.22153000  1.0
  H  H21  1  0.59398000  0.75500000  0.77845000  1.0
  H  H22  1  0.66140000  0.03627000  0.27731000  1.0
  H  H23  1  0.97513000  0.96351000  0.72255000  1.0
  H  H24  1  0.82327000  0.79226000  0.60989000  1.0
  H  H25  1  0.22553000  0.20776000  0.39012000  1.0
  H  H26  1  0.05060000  0.66870000  0.56980000  1.0
  H  H27  1  0.28932000  0.33129000  0.43021000  1.0
  C  C28  1  0.64354000  0.21152000  0.60777000  1.0
  C  C29  1  0.46262000  0.78856000  0.39224000  1.0
  C  C30  1  0.59438000  0.33896000  0.67680000  1.0
  C  C31  1  0.60977000  0.66100000  0.32324000  1.0
  C  C32  1  0.72128000  0.44306000  0.63597000  1.0
  C  C33  1  0.79963000  0.55683000  0.36425000  1.0
  C  C34  1  0.24718000  0.38428000  0.76414000  1.0
  C  C35  1  0.39514000  0.61578000  0.23589000  1.0
  C  C36  1  0.29800000  0.22880000  0.80419000  1.0
  C  C37  1  0.33056000  0.77128000  0.19588000  1.0
  C  C38  1  0.15231000  0.18708000  0.87617000  1.0
  C  C39  1  0.21523000  0.81305000  0.12384000  1.0
  C  C40  1  0.95789000  0.29954000  0.90760000  1.0
  C  C41  1  0.16481000  0.70055000  0.09232000  1.0
  C  C42  1  0.90473000  0.45345000  0.86699000  1.0
  C  C43  1  0.22492000  0.54664000  0.13293000  1.0
  C  C44  1  0.04893000  0.49563000  0.79490000  1.0
  C  C45  1  0.33900000  0.50445000  0.20510000  1.0
  C  C46  1  0.84112000  0.22231000  0.07023000  1.0
  C  C47  1  0.13368000  0.77756000  0.92965000  1.0
  C  C48  1  0.98712000  0.25812000  0.10263000  1.0
  C  C49  1  0.34785000  0.74181000  0.89729000  1.0
  C  C50  1  0.01172000  0.21858000  0.19752000  1.0
  C  C51  1  0.42784000  0.78133000  0.80241000  1.0
  C  C52  1  0.89489000  0.13896000  0.26176000  1.0
  C  C53  1  0.29568000  0.86086000  0.73813000  1.0
  C  C54  1  0.74946000  0.10205000  0.22952000  1.0
  C  C55  1  0.08115000  0.89775000  0.77035000  1.0
  C  C56  1  0.71977000  0.14606000  0.13583000  1.0
  C  C57  1  0.00171000  0.85378000  0.86405000  1.0
  C  C58  1  0.93256000  0.08498000  0.36012000  1.0
  C  C59  1  0.37766000  0.91498000  0.63978000  1.0
  Cl  Cl60  1  0.53278000  0.10704000  0.09894000  1.0
  Cl  Cl61  1  0.73882000  0.89291000  0.90091000  1.0
  O  O62  1  0.81681000  0.10094000  0.61000000  1.0
  O  O63  1  0.52791000  0.89895000  0.39005000  1.0
  O  O64  1  0.51580000  0.22627000  0.55599000  1.0
  O  O65  1  0.29775000  0.77398000  0.44397000  1.0
  O  O66  1  0.38050000  0.43929000  0.69596000  1.0
  O  O67  1  0.51528000  0.56076000  0.30406000  1.0
  O  O68  1  0.80835000  0.25766000  0.97839000  1.0
  O  O69  1  0.04432000  0.74233000  0.02152000  1.0
  O  O70  1  0.06420000  0.11670000  0.39154000  1.0
  O  O71  1  0.57242000  0.88332000  0.60831000  1.0
  O  O72  1  0.84111000  0.99673000  0.41500000  1.0
  O  O73  1  0.25274000  0.00333000  0.58499000  1.0
  O  O74  1  0.97566000  0.76573000  0.60229000  1.0
  O  O75  1  0.34381000  0.23425000  0.39774000  1.0
