# generated using pymatgen
data_CdH16C18(N7O)2
_symmetry_space_group_name_H-M   'P 1'
_cell_length_a   7.71722000
_cell_length_b   7.83963000
_cell_length_c   8.87388000
_cell_angle_alpha   98.89300000
_cell_angle_beta   95.87940000
_cell_angle_gamma   109.11500000
_symmetry_Int_Tables_number   1
_chemical_formula_structural   CdH16C18(N7O)2
_chemical_formula_sum   'Cd1 H16 C18 N14 O2'
_cell_volume   494.38932890
_cell_formula_units_Z   1
loop_
 _symmetry_equiv_pos_site_id
 _symmetry_equiv_pos_as_xyz
  1  'x, y, z'
loop_
 _atom_site_type_symbol
 _atom_site_label
 _atom_site_symmetry_multiplicity
 _atom_site_fract_x
 _atom_site_fract_y
 _atom_site_fract_z
 _atom_site_occupancy
  Cd  Cd0  1  0.00000000  0.00000000  0.00000000  1.0
  H  H1  1  0.33090000  0.24593000  0.87788000  1.0
  H  H2  1  0.66910000  0.75407000  0.12212000  1.0
  H  H3  1  0.23887000  0.38244000  0.95729000  1.0
  H  H4  1  0.76113000  0.61756000  0.04271000  1.0
  H  H5  1  0.87363000  0.54304000  0.77763000  1.0
  H  H6  1  0.12637000  0.45696000  0.22237000  1.0
  H  H7  1  0.82540000  0.78825000  0.38860000  1.0
  H  H8  1  0.17459000  0.21175000  0.61140000  1.0
  H  H9  1  0.65465000  0.97442000  0.41555000  1.0
  H  H10  1  0.34535000  0.02558000  0.58445000  1.0
  H  H11  1  0.83581000  0.27242000  0.58576000  1.0
  H  H12  1  0.16420000  0.72757000  0.41425000  1.0
  H  H13  1  0.56606000  0.54279000  0.29957000  1.0
  H  H14  1  0.43394000  0.45721000  0.70043000  1.0
  H  H15  1  0.39169000  0.24444000  0.12773000  1.0
  H  H16  1  0.60831000  0.75556000  0.87226000  1.0
  C  C17  1  0.39751000  0.90964000  0.16052000  1.0
  C  C18  1  0.60249000  0.09036000  0.83948000  1.0
  C  C19  1  0.87759000  0.64290000  0.70498000  1.0
  C  C20  1  0.12241000  0.35710000  0.29502000  1.0
  C  C21  1  0.84709000  0.77115000  0.50742000  1.0
  C  C22  1  0.15291000  0.22885000  0.49258000  1.0
  C  C23  1  0.50997000  0.08740000  0.25894000  1.0
  C  C24  1  0.49003000  0.91260000  0.74106000  1.0
  C  C25  1  0.63719000  0.09889000  0.38847000  1.0
  C  C26  1  0.36281000  0.90111000  0.61153000  1.0
  C  C27  1  0.73893000  0.26754000  0.48548000  1.0
  C  C28  1  0.26107000  0.73246000  0.51452000  1.0
  C  C29  1  0.71445000  0.42758000  0.45245000  1.0
  C  C30  1  0.28555000  0.57242000  0.54755000  1.0
  C  C31  1  0.58832000  0.41884000  0.32412000  1.0
  C  C32  1  0.41168000  0.58116000  0.67588000  1.0
  C  C33  1  0.48839000  0.24991000  0.22799000  1.0
  C  C34  1  0.51160000  0.75009000  0.77201000  1.0
  N  N35  1  0.23238000  0.87370000  0.06975000  1.0
  N  N36  1  0.76762000  0.12629000  0.93025000  1.0
  N  N37  1  0.17326000  0.69416000  0.00313000  1.0
  N  N38  1  0.82674000  0.30584000  0.99687000  1.0
  N  N39  1  0.29717000  0.62380000  0.05023000  1.0
  N  N40  1  0.70283000  0.37620000  0.94977000  1.0
  N  N41  1  0.44048000  0.75520000  0.14931000  1.0
  N  N42  1  0.55952000  0.24480000  0.85069000  1.0
  N  N43  1  0.94125000  0.82351000  0.75312000  1.0
  N  N44  1  0.05875000  0.17649000  0.24688000  1.0
  N  N45  1  0.92265000  0.90544000  0.62889000  1.0
  N  N46  1  0.07735000  0.09456000  0.37111000  1.0
  N  N47  1  0.81352000  0.60272000  0.54964000  1.0
  N  N48  1  0.18648000  0.39728000  0.45036000  1.0
  O  O49  1  0.20975000  0.25221000  0.90317000  1.0
  O  O50  1  0.79025000  0.74778000  0.09683000  1.0
