# generated using pymatgen
data_CdH8C15N4O5
_symmetry_space_group_name_H-M   'P 1'
_cell_length_a   11.95530000
_cell_length_b   12.96040000
_cell_length_c   13.04290000
_cell_angle_alpha   94.45510000
_cell_angle_beta   111.85400000
_cell_angle_gamma   110.45400000
_symmetry_Int_Tables_number   1
_chemical_formula_structural   CdH8C15N4O5
_chemical_formula_sum   'Cd4 H32 C60 N16 O20'
_cell_volume   1706.55464501
_cell_formula_units_Z   4
loop_
 _symmetry_equiv_pos_site_id
 _symmetry_equiv_pos_as_xyz
  1  'x, y, z'
loop_
 _atom_site_type_symbol
 _atom_site_label
 _atom_site_symmetry_multiplicity
 _atom_site_fract_x
 _atom_site_fract_y
 _atom_site_fract_z
 _atom_site_occupancy
  Cd  Cd0  1  0.52427000  0.32233000  0.32511000  1.0
  Cd  Cd1  1  0.47573000  0.67767000  0.67489000  1.0
  Cd  Cd2  1  0.85576000  0.54650000  0.52851000  1.0
  Cd  Cd3  1  0.14424000  0.45350000  0.47149000  1.0
  H  H4  1  0.73759000  0.69575000  0.90957000  1.0
  H  H5  1  0.26241000  0.30425000  0.09043000  1.0
  H  H6  1  0.44771000  0.57907000  0.29358000  1.0
  H  H7  1  0.55229000  0.42093000  0.70642000  1.0
  H  H8  1  0.74490000  0.65461000  0.16558000  1.0
  H  H9  1  0.25510000  0.34539000  0.83442000  1.0
  H  H10  1  0.36675000  0.65569000  0.96331000  1.0
  H  H11  1  0.63325000  0.34431000  0.03669000  1.0
  H  H12  1  0.94798000  0.27340000  0.65367000  1.0
  H  H13  1  0.05202000  0.72660000  0.34633000  1.0
  H  H14  1  0.80938000  0.97100000  0.76936000  1.0
  H  H15  1  0.19062000  0.02900000  0.23063000  1.0
  H  H16  1  0.54296000  0.12434000  0.60712000  1.0
  H  H17  1  0.45704000  0.87566000  0.39288000  1.0
  H  H18  1  0.26755000  0.92798000  0.86019000  1.0
  H  H19  1  0.73245000  0.07203000  0.13981000  1.0
  H  H20  1  0.20822000  0.08981000  0.89692000  1.0
  H  H21  1  0.79178000  0.91019000  0.10308000  1.0
  H  H22  1  0.87944000  0.95970000  0.56561000  1.0
  H  H23  1  0.12056000  0.04030000  0.43439000  1.0
  H  H24  1  0.93823000  0.80026000  0.52778000  1.0
  H  H25  1  0.06177000  0.19974000  0.47221000  1.0
  H  H26  1  0.95355000  0.49445000  0.76462000  1.0
  H  H27  1  0.04646000  0.50555000  0.23538000  1.0
  H  H28  1  0.39012000  0.89787000  0.70610000  1.0
  H  H29  1  0.60988000  0.10213000  0.29390000  1.0
  H  H30  1  0.00686000  0.78956000  0.98727000  1.0
  H  H31  1  0.99314000  0.21045000  0.01273000  1.0
  H  H32  1  0.14285000  0.47886000  0.91703000  1.0
  H  H33  1  0.85715000  0.52115000  0.08297000  1.0
  H  H34  1  0.19686000  0.77251000  0.13970000  1.0
  H  H35  1  0.80314000  0.22749000  0.86030000  1.0
  C  C36  1  0.56546000  0.95195000  0.71359000  1.0
  C  C37  1  0.43454000  0.04805000  0.28641000  1.0
  C  C38  1  0.14965000  0.76414000  0.67169000  1.0
  C  C39  1  0.85035000  0.23586000  0.32831000  1.0
  C  C40  1  0.60476000  0.61363000  0.23909000  1.0
  C  C41  1  0.39524000  0.38637000  0.76091000  1.0
  C  C42  1  0.47923000  0.60102000  0.22684000  1.0
  C  C43  1  0.52077000  0.39898000  0.77316000  1.0
  C  C44  1  0.64630000  0.64351000  0.15450000  1.0
  C  C45  1  0.35370000  0.35649000  0.84550000  1.0
  C  C46  1  0.69555000  0.59218000  0.34088000  1.0
  C  C47  1  0.30445000  0.40782000  0.65912000  1.0
  C  C48  1  0.59377000  0.67248000  0.95775000  1.0
  C  C49  1  0.40624000  0.32752000  0.04225000  1.0
  C  C50  1  0.55815000  0.65502000  0.05467000  1.0
  C  C51  1  0.44185000  0.34498000  0.94533000  1.0
  C  C52  1  0.43239000  0.64463000  0.04161000  1.0
  C  C53  1  0.56761000  0.35537000  0.95839000  1.0
  C  C54  1  0.71845000  0.29949000  0.56743000  1.0
  C  C55  1  0.28155000  0.70051000  0.43257000  1.0
  C  C56  1  0.86827000  0.20743000  0.66303000  1.0
  C  C57  1  0.13173000  0.79257000  0.33697000  1.0
  C  C58  1  0.89145000  0.12162000  0.71363000  1.0
  C  C59  1  0.10855000  0.87838000  0.28637000  1.0
  C  C60  1  0.79177000  0.03746000  0.72833000  1.0
  C  C61  1  0.20822000  0.96254000  0.27167000  1.0
  C  C62  1  0.66681000  0.03986000  0.69136000  1.0
  C  C63  1  0.33319000  0.96014000  0.30864000  1.0
  C  C64  1  0.64057000  0.12350000  0.63727000  1.0
  C  C65  1  0.35943000  0.87650000  0.36273000  1.0
  C  C66  1  0.74203000  0.20748000  0.62389000  1.0
  C  C67  1  0.25797000  0.79252000  0.37611000  1.0
  C  C68  1  0.85173000  0.65135000  0.77910000  1.0
  C  C69  1  0.14827000  0.34865000  0.22090000  1.0
  C  C70  1  0.39495000  0.62016000  0.12930000  1.0
  C  C71  1  0.60506000  0.37984000  0.87070000  1.0
  C  C72  1  0.18279000  0.93543000  0.79580000  1.0
  C  C73  1  0.81721000  0.06457000  0.20420000  1.0
  C  C74  1  0.15036000  0.02527000  0.81708000  1.0
  C  C75  1  0.84965000  0.97473000  0.18292000  1.0
  C  C76  1  0.96322000  0.95163000  0.63058000  1.0
  C  C77  1  0.03679000  0.04837000  0.36942000  1.0
  C  C78  1  0.99620000  0.86167000  0.60992000  1.0
  C  C79  1  0.00380000  0.13833000  0.39008000  1.0
  C  C80  1  0.10634000  0.85280000  0.69217000  1.0
  C  C81  1  0.89366000  0.14720000  0.30783000  1.0
  C  C82  1  0.96805000  0.64409000  0.86490000  1.0
  C  C83  1  0.03195000  0.35591000  0.13511000  1.0
  C  C84  1  0.18115000  0.62609000  0.03655000  1.0
  C  C85  1  0.81885000  0.37391000  0.96346000  1.0
  C  C86  1  0.00878000  0.55792000  0.84536000  1.0
  C  C87  1  0.99122000  0.44209000  0.15464000  1.0
  C  C88  1  0.04082000  0.03331000  0.73395000  1.0
  C  C89  1  0.95918000  0.96669000  0.26605000  1.0
  C  C90  1  0.03699000  0.72194000  0.97134000  1.0
  C  C91  1  0.96301000  0.27807000  0.02866000  1.0
  C  C92  1  0.11489000  0.54846000  0.93095000  1.0
  C  C93  1  0.88511000  0.45154000  0.06905000  1.0
  C  C94  1  0.14340000  0.71331000  0.05665000  1.0
  C  C95  1  0.85660000  0.28669000  0.94335000  1.0
  N  N96  1  0.27827000  0.78441000  0.70818000  1.0
  N  N97  1  0.72173000  0.21559000  0.29182000  1.0
  N  N98  1  0.28129000  0.68556000  0.67532000  1.0
  N  N99  1  0.71871000  0.31444000  0.32468000  1.0
  N  N100  1  0.16088000  0.60676000  0.62078000  1.0
  N  N101  1  0.83912000  0.39324000  0.37922000  1.0
  N  N102  1  0.07587000  0.65367000  0.61688000  1.0
  N  N103  1  0.92413000  0.34633000  0.38312000  1.0
  N  N104  1  0.80974000  0.62705000  0.66475000  1.0
  N  N105  1  0.19027000  0.37295000  0.33525000  1.0
  N  N106  1  0.69929000  0.64467000  0.61921000  1.0
  N  N107  1  0.30071000  0.35533000  0.38079000  1.0
  N  N108  1  0.67512000  0.67842000  0.70287000  1.0
  N  N109  1  0.32488000  0.32158000  0.29713000  1.0
  N  N110  1  0.76769000  0.68407000  0.80380000  1.0
  N  N111  1  0.23231000  0.31593000  0.19620000  1.0
  O  O112  1  0.58736000  0.87349000  0.75456000  1.0
  O  O113  1  0.41263000  0.12651000  0.24544000  1.0
  O  O114  1  0.81900000  0.64827000  0.37990000  1.0
  O  O115  1  0.18100000  0.35173000  0.62009000  1.0
  O  O116  1  0.64544000  0.51550000  0.38784000  1.0
  O  O117  1  0.35457000  0.48450000  0.61216000  1.0
  O  O118  1  0.71886000  0.69600000  0.98217000  1.0
  O  O119  1  0.28114000  0.30400000  0.01783000  1.0
  O  O120  1  0.50843000  0.66283000  0.86221000  1.0
  O  O121  1  0.49158000  0.33717000  0.13779000  1.0
  O  O122  1  0.82236000  0.38904000  0.59283000  1.0
  O  O123  1  0.17764000  0.61096000  0.40717000  1.0
  O  O124  1  0.60104000  0.28070000  0.49999000  1.0
  O  O125  1  0.39897000  0.71930000  0.50001000  1.0
  O  O126  1  0.27781000  0.61451000  0.12940000  1.0
  O  O127  1  0.72219000  0.38549000  0.87060000  1.0
  O  O128  1  0.01923000  0.12851000  0.75703000  1.0
  O  O129  1  0.98076000  0.87149000  0.24297000  1.0
  O  O130  1  0.45410000  0.96458000  0.68912000  1.0
  O  O131  1  0.54590000  0.03542000  0.31087000  1.0
