# generated using pymatgen
data_HgH10C11(BrN2)2
_symmetry_space_group_name_H-M   'P 1'
_cell_length_a   5.04082000
_cell_length_b   15.86080000
_cell_length_c   20.79230000
_cell_angle_alpha   89.99960000
_cell_angle_beta   89.99970000
_cell_angle_gamma   94.09320000
_symmetry_Int_Tables_number   1
_chemical_formula_structural   HgH10C11(BrN2)2
_chemical_formula_sum   'Hg4 H40 C44 Br8 N16'
_cell_volume   1658.13399901
_cell_formula_units_Z   4
loop_
 _symmetry_equiv_pos_site_id
 _symmetry_equiv_pos_as_xyz
  1  'x, y, z'
loop_
 _atom_site_type_symbol
 _atom_site_label
 _atom_site_symmetry_multiplicity
 _atom_site_fract_x
 _atom_site_fract_y
 _atom_site_fract_z
 _atom_site_occupancy
  Hg  Hg0  1  0.99900000  0.27037000  0.15754000  1.0
  Hg  Hg1  1  0.00100000  0.22962000  0.65754000  1.0
  Hg  Hg2  1  0.00096000  0.72961000  0.84246000  1.0
  Hg  Hg3  1  0.99903000  0.77039000  0.34246000  1.0
  H  H4  1  0.18719000  0.08832000  0.20364000  1.0
  H  H5  1  0.81282000  0.41168000  0.70364000  1.0
  H  H6  1  0.81283000  0.91168000  0.79636000  1.0
  H  H7  1  0.18718000  0.58832000  0.29636000  1.0
  H  H8  1  0.51413000  0.01972000  0.27276000  1.0
  H  H9  1  0.48588000  0.48028000  0.77276000  1.0
  H  H10  1  0.48590000  0.98029000  0.72725000  1.0
  H  H11  1  0.51409000  0.51972000  0.22724000  1.0
  H  H12  1  0.77395000  0.27029000  0.34209000  1.0
  H  H13  1  0.22607000  0.22972000  0.84210000  1.0
  H  H14  1  0.22604000  0.72973000  0.65791000  1.0
  H  H15  1  0.77398000  0.77027000  0.15790000  1.0
  H  H16  1  0.42717000  0.32607000  0.27357000  1.0
  H  H17  1  0.57283000  0.17394000  0.77357000  1.0
  H  H18  1  0.57280000  0.67395000  0.72643000  1.0
  H  H19  1  0.42723000  0.82606000  0.22643000  1.0
  H  H20  1  0.97619000  0.20188000  0.41128000  1.0
  H  H21  1  0.02382000  0.29812000  0.91128000  1.0
  H  H22  1  0.02382000  0.79813000  0.58873000  1.0
  H  H23  1  0.97617000  0.70186000  0.08871000  1.0
  H  H24  1  0.43045000  0.24446000  0.43661000  1.0
  H  H25  1  0.56952000  0.25554000  0.93661000  1.0
  H  H26  1  0.56952000  0.75555000  0.56339000  1.0
  H  H27  1  0.43042000  0.74444000  0.06338000  1.0
  H  H28  1  0.74524000  0.29055000  0.52503000  1.0
  H  H29  1  0.25475000  0.20945000  0.02504000  1.0
  H  H30  1  0.25477000  0.70947000  0.47495000  1.0
  H  H31  1  0.74520000  0.79052000  0.97496000  1.0
  H  H32  1  0.58871000  0.06655000  0.62442000  1.0
  H  H33  1  0.41131000  0.43346000  0.12442000  1.0
  H  H34  1  0.41135000  0.93347000  0.37558000  1.0
  H  H35  1  0.58867000  0.56653000  0.87557000  1.0
  H  H36  1  0.25157000  0.01277000  0.54189000  1.0
  H  H37  1  0.74844000  0.48724000  0.04188000  1.0
  H  H38  1  0.74847000  0.98725000  0.45812000  1.0
  H  H39  1  0.25152000  0.51274000  0.95810000  1.0
  H  H40  1  0.87955000  0.03745000  0.34235000  1.0
  H  H41  1  0.12045000  0.46256000  0.84235000  1.0
  H  H42  1  0.12046000  0.96257000  0.65765000  1.0
  H  H43  1  0.87952000  0.53742000  0.15765000  1.0
  C  C44  1  0.31823000  0.12574000  0.23623000  1.0
  C  C45  1  0.68178000  0.37426000  0.73623000  1.0
  C  C46  1  0.68178000  0.87427000  0.76377000  1.0
  C  C47  1  0.31822000  0.62574000  0.26377000  1.0
  C  C48  1  0.50084000  0.08794000  0.27447000  1.0
  C  C49  1  0.49919000  0.41207000  0.77447000  1.0
  C  C50  1  0.49918000  0.91207000  0.72553000  1.0
  C  C51  1  0.50081000  0.58793000  0.22553000  1.0
  C  C52  1  0.66902000  0.13866000  0.31482000  1.0
  C  C53  1  0.33102000  0.36135000  0.81482000  1.0
  C  C54  1  0.33100000  0.86135000  0.68518000  1.0
  C  C55  1  0.66899000  0.63864000  0.18518000  1.0
  C  C56  1  0.64330000  0.22631000  0.31453000  1.0
  C  C57  1  0.35673000  0.27369000  0.81452000  1.0
  C  C58  1  0.35670000  0.77370000  0.68548000  1.0
  C  C59  1  0.64332000  0.72630000  0.18548000  1.0
  C  C60  1  0.45131000  0.25827000  0.27532000  1.0
  C  C61  1  0.54871000  0.24173000  0.77532000  1.0
  C  C62  1  0.54867000  0.74174000  0.72469000  1.0
  C  C63  1  0.45135000  0.75827000  0.22468000  1.0
  C  C64  1  0.00110000  0.13499000  0.40118000  1.0
  C  C65  1  0.99889000  0.36501000  0.90118000  1.0
  C  C66  1  0.99890000  0.86502000  0.59882000  1.0
  C  C67  1  0.00108000  0.63496000  0.09881000  1.0
  C  C68  1  0.31583000  0.12350000  0.48205000  1.0
  C  C69  1  0.68416000  0.37650000  0.98205000  1.0
  C  C70  1  0.68418000  0.87651000  0.51795000  1.0
  C  C71  1  0.31579000  0.62348000  0.01794000  1.0
  C  C72  1  0.45590000  0.20345000  0.47788000  1.0
  C  C73  1  0.54409000  0.29656000  0.97788000  1.0
  C  C74  1  0.54409000  0.79657000  0.52211000  1.0
  C  C75  1  0.45587000  0.70342000  0.02211000  1.0
  C  C76  1  0.63304000  0.22906000  0.52643000  1.0
  C  C77  1  0.36697000  0.27094000  0.02643000  1.0
  C  C78  1  0.36699000  0.77095000  0.47356000  1.0
  C  C79  1  0.63298000  0.72904000  0.97356000  1.0
  C  C80  1  0.54345000  0.10412000  0.58242000  1.0
  C  C81  1  0.45656000  0.39589000  0.08242000  1.0
  C  C82  1  0.45660000  0.89590000  0.41758000  1.0
  C  C83  1  0.54339000  0.60409000  0.91757000  1.0
  C  C84  1  0.36083000  0.07403000  0.53667000  1.0
  C  C85  1  0.63917000  0.42597000  0.03666000  1.0
  C  C86  1  0.63920000  0.92598000  0.46334000  1.0
  C  C87  1  0.36080000  0.57401000  0.96333000  1.0
  Br  Br88  1  0.79418000  0.13686000  0.10586000  1.0
  Br  Br89  1  0.20585000  0.36314000  0.60588000  1.0
  Br  Br90  1  0.20585000  0.86312000  0.89413000  1.0
  Br  Br91  1  0.79420000  0.63688000  0.39412000  1.0
  Br  Br92  1  0.96581000  0.41082000  0.21909000  1.0
  Br  Br93  1  0.03428000  0.08918000  0.71909000  1.0
  Br  Br94  1  0.03408000  0.58917000  0.78092000  1.0
  Br  Br95  1  0.96580000  0.91083000  0.28091000  1.0
  N  N96  1  0.29100000  0.20947000  0.23677000  1.0
  N  N97  1  0.70900000  0.29053000  0.73678000  1.0
  N  N98  1  0.70899000  0.79053000  0.76323000  1.0
  N  N99  1  0.29103000  0.70948000  0.26322000  1.0
  N  N100  1  0.85243000  0.09991000  0.35229000  1.0
  N  N101  1  0.14757000  0.40010000  0.85229000  1.0
  N  N102  1  0.14757000  0.90011000  0.64772000  1.0
  N  N103  1  0.85243000  0.59989000  0.14771000  1.0
  N  N104  1  0.15047000  0.08858000  0.43442000  1.0
  N  N105  1  0.84950000  0.41142000  0.93441000  1.0
  N  N106  1  0.84952000  0.91143000  0.56559000  1.0
  N  N107  1  0.15046000  0.58856000  0.06558000  1.0
  N  N108  1  0.67941000  0.18003000  0.57733000  1.0
  N  N109  1  0.32059000  0.31998000  0.07734000  1.0
  N  N110  1  0.32062000  0.82000000  0.42266000  1.0
  N  N111  1  0.67937000  0.68000000  0.92266000  1.0
