# generated using pymatgen
data_CdH11C14S2N8ClO
_symmetry_space_group_name_H-M   'P 1'
_cell_length_a   5.65435000
_cell_length_b   12.94600000
_cell_length_c   13.56780000
_cell_angle_alpha   89.64840000
_cell_angle_beta   84.28030000
_cell_angle_gamma   86.97460000
_symmetry_Int_Tables_number   1
_chemical_formula_structural   CdH11C14S2N8ClO
_chemical_formula_sum   'Cd2 H22 C28 S4 N16 Cl2 O2'
_cell_volume   986.85701473
_cell_formula_units_Z   2
loop_
 _symmetry_equiv_pos_site_id
 _symmetry_equiv_pos_as_xyz
  1  'x, y, z'
loop_
 _atom_site_type_symbol
 _atom_site_label
 _atom_site_symmetry_multiplicity
 _atom_site_fract_x
 _atom_site_fract_y
 _atom_site_fract_z
 _atom_site_occupancy
  Cd  Cd0  1  0.01210000  0.79270000  0.33251000  1.0
  Cd  Cd1  1  0.98791000  0.20730000  0.66748000  1.0
  H  H2  1  0.46875000  0.48832000  0.18886000  1.0
  H  H3  1  0.53123000  0.51169000  0.81115000  1.0
  H  H4  1  0.41091000  0.23164000  0.99416000  1.0
  H  H5  1  0.58911000  0.76837000  0.00585000  1.0
  H  H6  1  0.81383000  0.16435000  0.10017000  1.0
  H  H7  1  0.18619000  0.83565000  0.89982000  1.0
  H  H8  1  0.03843000  0.15036000  0.00061000  1.0
  H  H9  1  0.96158000  0.84964000  0.99939000  1.0
  H  H10  1  0.49030000  0.88550000  0.15203000  1.0
  H  H11  1  0.50971000  0.11449000  0.84796000  1.0
  H  H12  1  0.79896000  0.01333000  0.22769000  1.0
  H  H13  1  0.20106000  0.98666000  0.77230000  1.0
  H  H14  1  0.13812000  0.53734000  0.30725000  1.0
  H  H15  1  0.86185000  0.46267000  0.69275000  1.0
  H  H16  1  0.87035000  0.46934000  0.31431000  1.0
  H  H17  1  0.12962000  0.53066000  0.68570000  1.0
  H  H18  1  0.82054000  0.32454000  0.45121000  1.0
  H  H19  1  0.17947000  0.67546000  0.54880000  1.0
  H  H20  1  0.45849000  0.37452000  0.57537000  1.0
  H  H21  1  0.54150000  0.62549000  0.42463000  1.0
  H  H22  1  0.73103000  0.25333000  0.21843000  1.0
  H  H23  1  0.26896000  0.74667000  0.78157000  1.0
  C  C24  1  0.13372000  0.24933000  0.11464000  1.0
  C  C25  1  0.86627000  0.75067000  0.88535000  1.0
  C  C26  1  0.04514000  0.30939000  0.19731000  1.0
  C  C27  1  0.95485000  0.69060000  0.80268000  1.0
  C  C28  1  0.16665000  0.39530000  0.22448000  1.0
  C  C29  1  0.83334000  0.60470000  0.77551000  1.0
  C  C30  1  0.37689000  0.42069000  0.16911000  1.0
  C  C31  1  0.62311000  0.57931000  0.83090000  1.0
  C  C32  1  0.46447000  0.36112000  0.08668000  1.0
  C  C33  1  0.53553000  0.63889000  0.91332000  1.0
  C  C34  1  0.34446000  0.27604000  0.05989000  1.0
  C  C35  1  0.65556000  0.72396000  0.94012000  1.0
  C  C36  1  0.00771000  0.15793000  0.08155000  1.0
  C  C37  1  0.99231000  0.84207000  0.91845000  1.0
  C  C38  1  0.33161000  0.93670000  0.15380000  1.0
  C  C39  1  0.66841000  0.06330000  0.84620000  1.0
  C  C40  1  0.97950000  0.99982000  0.19320000  1.0
  C  C41  1  0.02051000  0.00018000  0.80680000  1.0
  C  C42  1  0.06484000  0.46059000  0.31145000  1.0
  C  C43  1  0.93514000  0.53941000  0.68856000  1.0
  C  C44  1  0.99251000  0.35098000  0.46569000  1.0
  C  C45  1  0.00748000  0.64902000  0.53431000  1.0
  C  C46  1  0.31981000  0.37655000  0.52546000  1.0
  C  C47  1  0.68018000  0.62346000  0.47454000  1.0
  C  C48  1  0.54159000  0.68858000  0.23632000  1.0
  C  C49  1  0.45838000  0.31142000  0.76369000  1.0
  C  C50  1  0.47830000  0.89150000  0.40567000  1.0
  C  C51  1  0.52170000  0.10850000  0.59433000  1.0
  S  S52  1  0.22356000  0.89469000  0.47317000  1.0
  S  S53  1  0.77645000  0.10531000  0.52684000  1.0
  S  S54  1  0.81176000  0.68328000  0.18201000  1.0
  S  S55  1  0.18823000  0.31672000  0.81799000  1.0
  N  N56  1  0.09283000  0.06102000  0.12539000  1.0
  N  N57  1  0.90720000  0.93898000  0.87461000  1.0
  N  N58  1  0.31912000  0.02237000  0.09956000  1.0
  N  N59  1  0.68089000  0.97763000  0.90043000  1.0
  N  N60  1  0.12652000  0.91980000  0.21236000  1.0
  N  N61  1  0.87350000  0.08020000  0.78764000  1.0
  N  N62  1  0.12095000  0.41457000  0.40572000  1.0
  N  N63  1  0.87904000  0.58544000  0.59428000  1.0
  N  N64  1  0.33149000  0.43147000  0.44224000  1.0
  N  N65  1  0.66848000  0.56854000  0.55776000  1.0
  N  N66  1  0.11378000  0.32552000  0.54281000  1.0
  N  N67  1  0.88621000  0.67449000  0.45719000  1.0
  N  N68  1  0.66131000  0.89115000  0.35456000  1.0
  N  N69  1  0.33870000  0.10886000  0.64543000  1.0
  N  N70  1  0.34586000  0.68998000  0.27732000  1.0
  N  N71  1  0.65415000  0.31001000  0.72268000  1.0
  Cl  Cl72  1  0.71730000  0.39552000  0.01351000  1.0
  Cl  Cl73  1  0.28269000  0.60449000  0.98649000  1.0
  O  O74  1  0.84041000  0.28915000  0.25577000  1.0
  O  O75  1  0.15958000  0.71084000  0.74423000  1.0
