# generated using pymatgen
data_NiH20C16(SN3)2
_symmetry_space_group_name_H-M   'P 1'
_cell_length_a   8.57539000
_cell_length_b   10.85210000
_cell_length_c   16.42720000
_cell_angle_alpha   71.89150000
_cell_angle_beta   75.84430000
_cell_angle_gamma   71.35860000
_symmetry_Int_Tables_number   1
_chemical_formula_structural   NiH20C16(SN3)2
_chemical_formula_sum   'Ni3 H60 C48 S6 N18'
_cell_volume   1358.77125302
_cell_formula_units_Z   3
loop_
 _symmetry_equiv_pos_site_id
 _symmetry_equiv_pos_as_xyz
  1  'x, y, z'
loop_
 _atom_site_type_symbol
 _atom_site_label
 _atom_site_symmetry_multiplicity
 _atom_site_fract_x
 _atom_site_fract_y
 _atom_site_fract_z
 _atom_site_occupancy
  Ni  Ni0  1  0.99980000  0.50005000  0.50000000  1.0
  Ni  Ni1  1  0.67537000  0.49852000  0.83521000  1.0
  Ni  Ni2  1  0.32469000  0.50157000  0.16474000  1.0
  H  H3  1  0.76928000  0.71327000  0.59163000  1.0
  H  H4  1  0.23079000  0.28691000  0.40849000  1.0
  H  H5  1  0.68025000  0.95795000  0.56750000  1.0
  H  H6  1  0.31992000  0.04219000  0.43254000  1.0
  H  H7  1  0.03824000  0.97965000  0.32775000  1.0
  H  H8  1  0.96201000  0.02028000  0.67230000  1.0
  H  H9  1  0.10487000  0.73288000  0.36256000  1.0
  H  H10  1  0.89526000  0.26696000  0.63757000  1.0
  H  H11  1  0.54914000  0.17554000  0.48511000  1.0
  H  H12  1  0.45105000  0.82441000  0.51492000  1.0
  H  H13  1  0.64678000  0.30754000  0.45993000  1.0
  H  H14  1  0.35326000  0.69248000  0.54001000  1.0
  H  H15  1  0.69226000  0.16954000  0.55041000  1.0
  H  H16  1  0.30793000  0.83054000  0.44958000  1.0
  H  H17  1  0.01721000  0.18227000  0.34339000  1.0
  H  H18  1  0.98289000  0.81783000  0.65658000  1.0
  H  H19  1  0.83789000  0.31774000  0.35154000  1.0
  H  H20  1  0.16206000  0.68227000  0.64836000  1.0
  H  H21  1  0.84821000  0.20608000  0.28969000  1.0
  H  H22  1  0.15195000  0.79377000  0.71030000  1.0
  H  H23  1  0.93261000  0.26607000  0.77225000  1.0
  H  H24  1  0.06736000  0.73377000  0.22764000  1.0
  H  H25  1  0.03115000  0.01961000  0.81851000  1.0
  H  H26  1  0.96876000  0.98031000  0.18147000  1.0
  H  H27  1  0.65093000  0.03853000  0.04839000  1.0
  H  H28  1  0.34897000  0.96160000  0.95157000  1.0
  H  H29  1  0.57672000  0.28322000  0.99246000  1.0
  H  H30  1  0.42301000  0.71688000  0.00736000  1.0
  H  H31  1  0.00145000  0.80440000  0.84883000  1.0
  H  H32  1  0.99844000  0.19558000  0.15121000  1.0
  H  H33  1  0.04339000  0.67996000  0.94656000  1.0
  H  H34  1  0.95649000  0.32004000  0.05349000  1.0
  H  H35  1  0.14764000  0.80907000  0.90809000  1.0
  H  H36  1  0.85227000  0.19090000  0.09194000  1.0
  H  H37  1  0.81271000  0.82696000  0.10175000  1.0
  H  H38  1  0.18718000  0.17315000  0.89827000  1.0
  H  H39  1  0.85759000  0.68897000  0.05653000  1.0
  H  H40  1  0.14238000  0.31109000  0.94356000  1.0
  H  H41  1  0.67109000  0.81916000  0.04048000  1.0
  H  H42  1  0.32884000  0.18085000  0.95956000  1.0
  H  H43  1  0.43482000  0.71700000  0.72286000  1.0
  H  H44  1  0.56505000  0.28290000  0.27728000  1.0
  H  H45  1  0.33772000  0.96415000  0.67828000  1.0
  H  H46  1  0.66222000  0.03579000  0.32181000  1.0
  H  H47  1  0.68771000  0.97363000  0.82698000  1.0
  H  H48  1  0.31235000  0.02631000  0.17302000  1.0
  H  H49  1  0.76207000  0.72588000  0.86653000  1.0
  H  H50  1  0.23803000  0.27408000  0.13346000  1.0
  H  H51  1  0.34889000  0.16849000  0.61312000  1.0
  H  H52  1  0.65121000  0.83137000  0.38688000  1.0
  H  H53  1  0.32130000  0.31078000  0.65128000  1.0
  H  H54  1  0.67867000  0.68911000  0.34870000  1.0
  H  H55  1  0.20442000  0.19262000  0.70878000  1.0
  H  H56  1  0.79568000  0.80721000  0.29122000  1.0
  H  H57  1  0.51471000  0.18386000  0.82600000  1.0
  H  H58  1  0.48533000  0.81608000  0.17398000  1.0
  H  H59  1  0.47691000  0.31531000  0.73116000  1.0
  H  H60  1  0.52310000  0.68465000  0.26883000  1.0
  H  H61  1  0.66855000  0.18877000  0.73097000  1.0
  H  H62  1  0.33148000  0.81120000  0.26901000  1.0
  C  C63  1  0.00749000  0.49303000  0.69087000  1.0
  C  C64  1  0.99217000  0.50696000  0.30906000  1.0
  C  C65  1  0.82441000  0.77612000  0.53321000  1.0
  C  C66  1  0.17579000  0.22398000  0.46690000  1.0
  C  C67  1  0.77518000  0.91440000  0.51938000  1.0
  C  C68  1  0.22500000  0.08570000  0.48068000  1.0
  C  C69  1  0.84967000  0.99600000  0.44398000  1.0
  C  C70  1  0.15054000  0.00399000  0.55605000  1.0
  C  C71  1  0.97332000  0.92614000  0.38696000  1.0
  C  C72  1  0.02694000  0.07380000  0.61311000  1.0
  C  C73  1  0.01159000  0.78738000  0.40630000  1.0
  C  C74  1  0.98858000  0.21256000  0.59380000  1.0
  C  C75  1  0.66600000  0.19879000  0.48371000  1.0
  C  C76  1  0.33417000  0.80122000  0.51628000  1.0
  C  C77  1  0.88075000  0.21272000  0.34886000  1.0
  C  C78  1  0.11935000  0.78725000  0.65112000  1.0
  C  C79  1  0.66947000  0.49701000  0.64509000  1.0
  C  C80  1  0.33159000  0.50321000  0.35468000  1.0
  C  C81  1  0.66599000  0.50511000  0.02517000  1.0
  C  C82  1  0.33312000  0.49485000  0.97499000  1.0
  C  C83  1  0.87373000  0.21115000  0.83322000  1.0
  C  C84  1  0.12610000  0.78879000  0.16666000  1.0
  C  C85  1  0.92822000  0.07243000  0.85941000  1.0
  C  C86  1  0.07162000  0.92752000  0.14053000  1.0
  C  C87  1  0.84904000  0.00168000  0.93848000  1.0
  C  C88  1  0.15083000  0.99833000  0.06150000  1.0
  C  C89  1  0.71832000  0.08264000  0.98654000  1.0
  C  C90  1  0.28154000  0.91745000  0.01339000  1.0
  C  C91  1  0.67535000  0.22096000  0.95511000  1.0
  C  C92  1  0.32441000  0.77912000  0.04474000  1.0
  C  C93  1  0.02825000  0.78658000  0.91442000  1.0
  C  C94  1  0.97164000  0.21341000  0.08562000  1.0
  C  C95  1  0.80371000  0.79752000  0.04506000  1.0
  C  C96  1  0.19620000  0.20254000  0.95498000  1.0
  C  C97  1  0.48698000  0.77831000  0.74459000  1.0
  C  C98  1  0.51293000  0.22162000  0.25550000  1.0
  C  C99  1  0.43347000  0.91713000  0.71951000  1.0
  C  C100  1  0.56649000  0.08280000  0.28056000  1.0
  C  C101  1  0.50465000  0.99568000  0.74737000  1.0
  C  C102  1  0.49538000  0.00426000  0.25265000  1.0
  C  C103  1  0.62711000  0.92240000  0.80182000  1.0
  C  C104  1  0.37292000  0.07754000  0.19819000  1.0
  C  C105  1  0.66990000  0.78337000  0.82401000  1.0
  C  C106  1  0.33013000  0.21656000  0.17602000  1.0
  C  C107  1  0.32693000  0.20387000  0.67178000  1.0
  C  C108  1  0.67314000  0.79601000  0.32821000  1.0
  C  C109  1  0.53363000  0.20806000  0.75468000  1.0
  C  C110  1  0.46639000  0.79189000  0.24530000  1.0
  S  S111  1  0.97498000  0.50286000  0.79079000  1.0
  S  S112  1  0.02286000  0.49685000  0.20932000  1.0
  S  S113  1  0.69796000  0.50469000  0.54209000  1.0
  S  S114  1  0.30496000  0.49531000  0.45760000  1.0
  S  S115  1  0.62306000  0.50263000  0.12769000  1.0
  S  S116  1  0.37636000  0.49749000  0.87246000  1.0
  N  N117  1  0.03190000  0.48371000  0.61863000  1.0
  N  N118  1  0.97181000  0.51663000  0.38097000  1.0
  N  N119  1  0.93975000  0.71085000  0.47782000  1.0
  N  N120  1  0.06038000  0.28920000  0.52231000  1.0
  N  N121  1  0.80386000  0.13203000  0.42728000  1.0
  N  N122  1  0.19631000  0.86795000  0.57273000  1.0
  N  N123  1  0.65201000  0.49046000  0.71995000  1.0
  N  N124  1  0.34460000  0.51016000  0.28006000  1.0
  N  N125  1  0.69750000  0.50872000  0.95026000  1.0
  N  N126  1  0.30162000  0.49117000  0.04991000  1.0
  N  N127  1  0.74904000  0.28707000  0.87900000  1.0
  N  N128  1  0.25072000  0.71295000  0.12081000  1.0
  N  N129  1  0.89392000  0.86561000  0.96576000  1.0
  N  N130  1  0.10598000  0.13441000  0.03427000  1.0
  N  N131  1  0.60322000  0.70974000  0.79632000  1.0
  N  N132  1  0.39671000  0.29021000  0.20375000  1.0
  N  N133  1  0.45906000  0.13200000  0.72353000  1.0
  N  N134  1  0.54099000  0.86793000  0.27646000  1.0
