# generated using pymatgen
data_Zn4H52C76N16O13
_symmetry_space_group_name_H-M   'P 1'
_cell_length_a   14.82860000
_cell_length_b   18.72070000
_cell_length_c   22.29030000
_cell_angle_alpha   86.48100000
_cell_angle_beta   79.53050000
_cell_angle_gamma   75.78370000
_symmetry_Int_Tables_number   1
_chemical_formula_structural   Zn4H52C76N16O13
_chemical_formula_sum   'Zn8 H104 C152 N32 O26'
_cell_volume   5897.55518755
_cell_formula_units_Z   2
loop_
 _symmetry_equiv_pos_site_id
 _symmetry_equiv_pos_as_xyz
  1  'x, y, z'
loop_
 _atom_site_type_symbol
 _atom_site_label
 _atom_site_symmetry_multiplicity
 _atom_site_fract_x
 _atom_site_fract_y
 _atom_site_fract_z
 _atom_site_occupancy
  Zn  Zn0  1  0.39824000  0.80273000  0.87131000  1.0
  Zn  Zn1  1  0.60176000  0.19727000  0.12869000  1.0
  Zn  Zn2  1  0.36053000  0.06427000  0.69572000  1.0
  Zn  Zn3  1  0.63947000  0.93573000  0.30428000  1.0
  Zn  Zn4  1  0.31062000  0.70338000  0.13224000  1.0
  Zn  Zn5  1  0.68938000  0.29663000  0.86776000  1.0
  Zn  Zn6  1  0.23823000  0.95579000  0.94920000  1.0
  Zn  Zn7  1  0.76176000  0.04421000  0.05080000  1.0
  H  H8  1  0.43197000  0.64096000  0.01370000  1.0
  H  H9  1  0.56803000  0.35904000  0.98630000  1.0
  H  H10  1  0.48222000  0.68680000  0.94879000  1.0
  H  H11  1  0.51778000  0.31320000  0.05121000  1.0
  H  H12  1  0.14536000  0.92295000  0.07797000  1.0
  H  H13  1  0.85464000  0.07705000  0.92203000  1.0
  H  H14  1  0.15798000  0.84446000  0.12810000  1.0
  H  H15  1  0.84202000  0.15554000  0.87190000  1.0
  H  H16  1  0.45850000  0.82793000  0.73869000  1.0
  H  H17  1  0.54150000  0.17207000  0.26131000  1.0
  H  H18  1  0.44451000  0.90325000  0.68699000  1.0
  H  H19  1  0.55549000  0.09675000  0.31301000  1.0
  H  H20  1  0.64367000  0.87393000  0.56161000  1.0
  H  H21  1  0.35633000  0.12607000  0.43839000  1.0
  H  H22  1  0.68054000  0.62703000  0.72668000  1.0
  H  H23  1  0.31945000  0.37297000  0.27332000  1.0
  H  H24  1  0.17957000  0.02469000  0.72997000  1.0
  H  H25  1  0.82043000  0.97531000  0.27003000  1.0
  H  H26  1  0.12796000  0.72830000  0.09254000  1.0
  H  H27  1  0.87205000  0.27170000  0.90746000  1.0
  H  H28  1  0.95404000  0.87631000  0.39602000  1.0
  H  H29  1  0.04596000  0.12369000  0.60398000  1.0
  H  H30  1  0.22908000  0.12236000  0.81529000  1.0
  H  H31  1  0.77092000  0.87764000  0.18471000  1.0
  H  H32  1  0.23386000  0.09758000  0.89138000  1.0
  H  H33  1  0.76614000  0.90242000  0.10862000  1.0
  H  H34  1  0.85598000  0.57728000  0.71270000  1.0
  H  H35  1  0.14401000  0.42272000  0.28730000  1.0
  H  H36  1  0.12109000  0.88011000  0.96001000  1.0
  H  H37  1  0.87891000  0.11989000  0.03999000  1.0
  H  H38  1  0.04593000  0.94687000  0.93937000  1.0
  H  H39  1  0.95407000  0.05313000  0.06063000  1.0
  H  H40  1  0.00353000  0.83981000  0.28618000  1.0
  H  H41  1  0.99647000  0.16019000  0.71382000  1.0
  H  H42  1  0.82013000  0.84538000  0.52941000  1.0
  H  H43  1  0.17987000  0.15462000  0.47059000  1.0
  H  H44  1  0.20174000  0.46189000  0.13631000  1.0
  H  H45  1  0.79826000  0.53810000  0.86369000  1.0
  H  H46  1  0.07467000  0.96602000  0.68474000  1.0
  H  H47  1  0.92534000  0.03398000  0.31526000  1.0
  H  H48  1  0.29621000  0.57113000  0.82638000  1.0
  H  H49  1  0.70379000  0.42887000  0.17362000  1.0
  H  H50  1  0.02133000  0.65552000  0.06658000  1.0
  H  H51  1  0.97867000  0.34448000  0.93342000  1.0
  H  H52  1  0.24246000  0.79935000  0.42319000  1.0
  H  H53  1  0.75754000  0.20065000  0.57681000  1.0
  H  H54  1  0.15211000  0.40869000  0.06165000  1.0
  H  H55  1  0.84789000  0.59131000  0.93835000  1.0
  H  H56  1  0.30471000  0.54231000  0.15466000  1.0
  H  H57  1  0.69529000  0.45768000  0.84534000  1.0
  H  H58  1  0.91266000  0.59216000  0.10759000  1.0
  H  H59  1  0.08734000  0.40784000  0.89241000  1.0
  H  H60  1  0.36023000  0.02473000  0.56488000  1.0
  H  H61  1  0.63977000  0.97527000  0.43512000  1.0
  H  H62  1  0.69329000  0.75825000  0.87516000  1.0
  H  H63  1  0.30671000  0.24175000  0.12484000  1.0
  H  H64  1  0.20297000  0.88415000  0.48852000  1.0
  H  H65  1  0.79703000  0.11585000  0.51148000  1.0
  H  H66  1  0.86792000  0.71684000  0.85636000  1.0
  H  H67  1  0.13208000  0.28316000  0.14364000  1.0
  H  H68  1  0.82741000  0.03721000  0.62429000  1.0
  H  H69  1  0.17259000  0.96279000  0.37571000  1.0
  H  H70  1  0.23093000  0.84095000  0.80884000  1.0
  H  H71  1  0.76907000  0.15905000  0.19116000  1.0
  H  H72  1  0.26001000  0.97208000  0.51121000  1.0
  H  H73  1  0.73999000  0.02792000  0.48879000  1.0
  H  H74  1  0.96890000  0.97818000  0.62788000  1.0
  H  H75  1  0.03110000  0.02182000  0.37212000  1.0
  H  H76  1  0.00888000  0.71512000  0.79892000  1.0
  H  H77  1  0.99112000  0.28488000  0.20108000  1.0
  H  H78  1  0.24272000  0.52663000  0.75583000  1.0
  H  H79  1  0.75728000  0.47337000  0.24417000  1.0
  H  H80  1  0.59388000  0.64097000  0.16696000  1.0
  H  H81  1  0.40612000  0.35903000  0.83304000  1.0
  H  H82  1  0.59533000  0.48858000  0.02989000  1.0
  H  H83  1  0.40467000  0.51142000  0.97011000  1.0
  H  H84  1  0.65290000  0.06652000  0.65310000  1.0
  H  H85  1  0.34710000  0.93348000  0.34690000  1.0
  H  H86  1  0.12426000  0.77762000  0.76988000  1.0
  H  H87  1  0.87573000  0.22238000  0.23012000  1.0
  H  H88  1  0.77105000  0.44386000  0.02074000  1.0
  H  H89  1  0.22895000  0.55614000  0.97926000  1.0
  H  H90  1  0.96371000  0.15826000  0.08897000  1.0
  H  H91  1  0.03629000  0.84174000  0.91103000  1.0
  H  H92  1  0.91336000  0.29465000  0.09559000  1.0
  H  H93  1  0.08664000  0.70535000  0.90441000  1.0
  H  H94  1  0.18366000  0.31165000  0.99391000  1.0
  H  H95  1  0.81634000  0.68835000  0.00609000  1.0
  H  H96  1  0.99900000  0.41392000  0.77538000  1.0
  H  H97  1  0.00100000  0.58608000  0.22462000  1.0
  H  H98  1  0.39641000  0.64274000  0.86094000  1.0
  H  H99  1  0.60359000  0.35726000  0.13906000  1.0
  H  H100  1  0.29063000  0.76297000  0.31466000  1.0
  H  H101  1  0.70937000  0.23704000  0.68534000  1.0
  H  H102  1  0.76851000  0.59936000  0.15649000  1.0
  H  H103  1  0.23149000  0.40064000  0.84351000  1.0
  H  H104  1  0.22842000  0.17647000  0.97974000  1.0
  H  H105  1  0.77158000  0.82353000  0.02026000  1.0
  H  H106  1  0.27822000  0.43573000  0.69483000  1.0
  H  H107  1  0.72178000  0.56427000  0.30517000  1.0
  H  H108  1  0.05511000  0.27635000  0.76710000  1.0
  H  H109  1  0.94489000  0.72365000  0.23290000  1.0
  H  H110  1  0.33213000  0.29961000  0.68557000  1.0
  H  H111  1  0.66787000  0.70039000  0.31443000  1.0
  C  C112  1  0.36743000  0.75095000  0.00040000  1.0
  C  C113  1  0.63257000  0.24906000  0.99960000  1.0
  C  C114  1  0.53310000  0.98743000  0.62827000  1.0
  C  C115  1  0.46690000  0.01257000  0.37173000  1.0
  C  C116  1  0.38329000  0.92538000  0.77663000  1.0
  C  C117  1  0.61672000  0.07462000  0.22337000  1.0
  C  C118  1  0.68536000  0.90930000  0.57437000  1.0
  C  C119  1  0.31464000  0.09070000  0.42563000  1.0
  C  C120  1  0.72228000  0.64471000  0.75589000  1.0
  C  C121  1  0.27772000  0.35529000  0.24412000  1.0
  C  C122  1  0.57117000  0.72570000  0.81042000  1.0
  C  C123  1  0.42883000  0.27430000  0.18958000  1.0
  C  C124  1  0.23175000  0.19769000  0.72540000  1.0
  C  C125  1  0.76825000  0.80231000  0.27461000  1.0
  C  C126  1  0.19534000  0.01023000  0.68195000  1.0
  C  C127  1  0.80467000  0.98977000  0.31805000  1.0
  C  C128  1  0.14221000  0.66889000  0.10039000  1.0
  C  C129  1  0.85780000  0.33111000  0.89961000  1.0
  C  C130  1  0.02765000  0.85168000  0.37757000  1.0
  C  C131  1  0.97236000  0.14832000  0.62243000  1.0
  C  C132  1  0.81991000  0.61810000  0.74734000  1.0
  C  C133  1  0.18009000  0.38190000  0.25266000  1.0
  C  C134  1  0.15054000  0.80068000  0.29370000  1.0
  C  C135  1  0.84946000  0.19932000  0.70630000  1.0
  C  C136  1  0.25282000  0.83532000  0.04681000  1.0
  C  C137  1  0.74718000  0.16468000  0.95319000  1.0
  C  C138  1  0.09462000  0.84240000  0.41651000  1.0
  C  C139  1  0.90538000  0.15760000  0.58349000  1.0
  C  C140  1  0.67598000  0.69493000  0.80232000  1.0
  C  C141  1  0.32402000  0.30507000  0.19769000  1.0
  C  C142  1  0.15831000  0.96300000  0.59343000  1.0
  C  C143  1  0.84169000  0.03700000  0.40657000  1.0
  C  C144  1  0.63811000  0.97210000  0.60870000  1.0
  C  C145  1  0.36189000  0.02789000  0.39130000  1.0
  C  C146  1  0.05515000  0.83154000  0.31673000  1.0
  C  C147  1  0.94485000  0.16846000  0.68327000  1.0
  C  C148  1  0.78299000  0.89305000  0.55726000  1.0
  C  C149  1  0.21701000  0.10695000  0.44274000  1.0
  C  C150  1  0.18366000  0.52035000  0.12438000  1.0
  C  C151  1  0.81634000  0.47965000  0.87563000  1.0
  C  C152  1  0.13689000  0.97835000  0.65601000  1.0
  C  C153  1  0.86312000  0.02165000  0.34399000  1.0
  C  C154  1  0.27943000  0.63077000  0.82023000  1.0
  C  C155  1  0.72057000  0.36923000  0.17977000  1.0
  C  C156  1  0.08233000  0.62799000  0.08709000  1.0
  C  C157  1  0.91768000  0.37201000  0.91291000  1.0
  C  C158  1  0.30832000  0.02117000  0.83057000  1.0
  C  C159  1  0.69169000  0.97883000  0.16943000  1.0
  C  C160  1  0.01351000  0.39210000  0.05829000  1.0
  C  C161  1  0.98649000  0.60790000  0.94171000  1.0
  C  C162  1  0.04474000  0.31228000  0.04605000  1.0
  C  C163  1  0.95526000  0.68772000  0.95395000  1.0
  C  C164  1  0.18952000  0.80916000  0.39356000  1.0
  C  C165  1  0.81048000  0.19084000  0.60643000  1.0
  C  C166  1  0.07661000  0.43340000  0.06738000  1.0
  C  C167  1  0.92339000  0.56660000  0.93262000  1.0
  C  C168  1  0.87405000  0.64429000  0.78274000  1.0
  C  C169  1  0.12595000  0.35571000  0.21726000  1.0
  C  C170  1  0.24049000  0.56503000  0.13596000  1.0
  C  C171  1  0.75951000  0.43497000  0.86405000  1.0
  C  C172  1  0.97779000  0.61509000  0.77364000  1.0
  C  C173  1  0.02220000  0.38491000  0.22637000  1.0
  C  C174  1  0.10282000  0.55176000  0.09885000  1.0
  C  C175  1  0.89718000  0.44824000  0.90115000  1.0
  C  C176  1  0.18106000  0.78173000  0.22765000  1.0
  C  C177  1  0.81894000  0.21827000  0.77235000  1.0
  C  C178  1  0.06447000  0.87328000  0.47850000  1.0
  C  C179  1  0.93553000  0.12672000  0.52150000  1.0
  C  C180  1  0.94307000  0.53577000  0.09256000  1.0
  C  C181  1  0.05693000  0.46423000  0.90744000  1.0
  C  C182  1  0.13522000  0.62703000  0.77816000  1.0
  C  C183  1  0.86479000  0.37297000  0.22184000  1.0
  C  C184  1  0.29576000  0.01157000  0.58953000  1.0
  C  C185  1  0.70424000  0.98844000  0.41046000  1.0
  C  C186  1  0.72946000  0.71965000  0.83884000  1.0
  C  C187  1  0.27054000  0.28036000  0.16116000  1.0
  C  C188  1  0.12854000  0.89469000  0.50868000  1.0
  C  C189  1  0.87146000  0.10531000  0.49132000  1.0
  C  C190  1  0.82758000  0.69615000  0.82801000  1.0
  C  C191  1  0.17242000  0.30385000  0.17199000  1.0
  C  C192  1  0.78822000  0.00048000  0.61069000  1.0
  C  C193  1  0.21178000  0.99952000  0.38931000  1.0
  C  C194  1  0.24237000  0.78106000  0.81156000  1.0
  C  C195  1  0.75763000  0.21894000  0.18844000  1.0
  C  C196  1  0.09513000  0.93312000  0.56325000  1.0
  C  C197  1  0.90487000  0.06688000  0.43675000  1.0
  C  C198  1  0.24011000  0.98055000  0.56015000  1.0
  C  C199  1  0.75989000  0.01945000  0.43985000  1.0
  C  C200  1  0.83571000  0.93839000  0.57534000  1.0
  C  C201  1  0.16429000  0.06161000  0.42466000  1.0
  C  C202  1  0.99844000  0.94672000  0.58647000  1.0
  C  C203  1  0.00156000  0.05328000  0.41353000  1.0
  C  C204  1  0.04053000  0.50662000  0.08566000  1.0
  C  C205  1  0.95947000  0.49338000  0.91434000  1.0
  C  C206  1  0.03811000  0.65849000  0.78419000  1.0
  C  C207  1  0.96189000  0.34151000  0.21581000  1.0
  C  C208  1  0.16803000  0.55360000  0.76017000  1.0
  C  C209  1  0.83197000  0.44640000  0.23983000  1.0
  C  C210  1  0.78157000  0.51904000  0.08711000  1.0
  C  C211  1  0.21843000  0.48095000  0.91289000  1.0
  C  C212  1  0.93893000  0.92245000  0.55434000  1.0
  C  C213  1  0.06107000  0.07756000  0.44566000  1.0
  C  C214  1  0.63356000  0.59804000  0.13489000  1.0
  C  C215  1  0.36644000  0.40196000  0.86511000  1.0
  C  C216  1  0.58437000  0.56656000  0.09974000  1.0
  C  C217  1  0.41563000  0.43345000  0.90026000  1.0
  C  C218  1  0.63416000  0.51136000  0.05803000  1.0
  C  C219  1  0.36584000  0.48864000  0.94197000  1.0
  C  C220  1  0.69026000  0.01773000  0.62661000  1.0
  C  C221  1  0.30974000  0.98227000  0.37339000  1.0
  C  C222  1  0.88487000  0.49126000  0.08118000  1.0
  C  C223  1  0.11513000  0.50874000  0.91882000  1.0
  C  C224  1  0.18318000  0.74517000  0.79021000  1.0
  C  C225  1  0.81682000  0.25483000  0.20979000  1.0
  C  C226  1  0.20006000  0.66798000  0.79508000  1.0
  C  C227  1  0.79994000  0.33202000  0.20492000  1.0
  C  C228  1  0.19738000  0.28000000  0.72677000  1.0
  C  C229  1  0.80262000  0.72000000  0.27323000  1.0
  C  C230  1  0.47985000  0.59472000  0.10303000  1.0
  C  C231  1  0.52015000  0.40528000  0.89697000  1.0
  C  C232  1  0.13514000  0.43390000  0.73776000  1.0
  C  C233  1  0.86486000  0.56610000  0.26224000  1.0
  C  C234  1  0.10350000  0.51370000  0.75026000  1.0
  C  C235  1  0.89650000  0.48630000  0.24974000  1.0
  C  C236  1  0.73176000  0.48742000  0.05228000  1.0
  C  C237  1  0.26824000  0.51258000  0.94772000  1.0
  C  C238  1  0.01027000  0.19195000  0.06584000  1.0
  C  C239  1  0.98973000  0.80805000  0.93416000  1.0
  C  C240  1  0.98280000  0.26797000  0.07109000  1.0
  C  C241  1  0.01720000  0.73203000  0.92891000  1.0
  C  C242  1  0.13420000  0.27848000  0.01381000  1.0
  C  C243  1  0.86580000  0.72152000  0.98619000  1.0
  C  C244  1  0.09805000  0.15823000  0.03169000  1.0
  C  C245  1  0.90195000  0.84177000  0.96831000  1.0
  C  C246  1  0.07208000  0.38836000  0.75625000  1.0
  C  C247  1  0.92792000  0.61164000  0.24375000  1.0
  C  C248  1  0.33533000  0.67056000  0.84045000  1.0
  C  C249  1  0.66467000  0.32944000  0.15955000  1.0
  C  C250  1  0.21712000  0.78837000  0.33289000  1.0
  C  C251  1  0.78288000  0.21163000  0.66711000  1.0
  C  C252  1  0.73146000  0.57500000  0.12824000  1.0
  C  C253  1  0.26854000  0.42500000  0.87176000  1.0
  C  C254  1  0.15974000  0.20244000  0.00578000  1.0
  C  C255  1  0.84026000  0.79756000  0.99422000  1.0
  C  C256  1  0.22888000  0.40137000  0.71146000  1.0
  C  C257  1  0.77112000  0.59862000  0.28854000  1.0
  C  C258  1  0.10301000  0.31218000  0.75140000  1.0
  C  C259  1  0.89699000  0.68782000  0.24860000  1.0
  C  C260  1  0.25955000  0.32529000  0.70572000  1.0
  C  C261  1  0.74045000  0.67471000  0.29428000  1.0
  C  C262  1  0.12401000  0.07678000  0.02123000  1.0
  C  C263  1  0.87599000  0.92322000  0.97877000  1.0
  N  N264  1  0.34956000  0.00044000  0.77236000  1.0
  N  N265  1  0.65044000  0.99956000  0.22764000  1.0
  N  N266  1  0.27393000  0.02638000  0.64944000  1.0
  N  N267  1  0.72607000  0.97362000  0.35056000  1.0
  N  N268  1  0.43211000  0.68736000  0.98662000  1.0
  N  N269  1  0.56789000  0.31264000  0.01338000  1.0
  N  N270  1  0.30668000  0.76566000  0.05496000  1.0
  N  N271  1  0.69331000  0.23434000  0.94504000  1.0
  N  N272  1  0.36590000  0.90143000  0.83463000  1.0
  N  N273  1  0.63410000  0.09857000  0.16537000  1.0
  N  N274  1  0.22054000  0.63801000  0.12394000  1.0
  N  N275  1  0.77946000  0.36199000  0.87606000  1.0
  N  N276  1  0.28005000  0.86262000  0.99120000  1.0
  N  N277  1  0.71995000  0.13738000  0.00880000  1.0
  N  N278  1  0.31683000  0.74466000  0.83701000  1.0
  N  N279  1  0.68317000  0.25534000  0.16299000  1.0
  N  N280  1  0.31633000  0.96348000  0.86942000  1.0
  N  N281  1  0.68367000  0.03652000  0.13058000  1.0
  N  N282  1  0.35395000  0.80773000  0.96111000  1.0
  N  N283  1  0.64605000  0.19227000  0.03889000  1.0
  N  N284  1  0.18121000  0.87124000  0.08825000  1.0
  N  N285  1  0.81879000  0.12876000  0.91175000  1.0
  N  N286  1  0.42419000  0.88091000  0.72936000  1.0
  N  N287  1  0.57581000  0.11910000  0.27064000  1.0
  N  N288  1  0.97174000  0.88639000  0.50153000  1.0
  N  N289  1  0.02826000  0.11361000  0.49847000  1.0
  N  N290  1  0.91990000  0.42066000  0.06473000  1.0
  N  N291  1  0.08009000  0.57934000  0.93527000  1.0
  N  N292  1  0.01020000  0.54431000  0.75693000  1.0
  N  N293  1  0.98980000  0.45569000  0.24307000  1.0
  N  N294  1  0.26623000  0.09172000  0.84697000  1.0
  N  N295  1  0.73377000  0.90828000  0.15303000  1.0
  O  O296  1  0.12155000  0.79649000  0.19211000  1.0
  O  O297  1  0.87845000  0.20351000  0.80789000  1.0
  O  O298  1  0.07351000  0.03499000  0.04776000  1.0
  O  O299  1  0.92649000  0.96501000  0.95224000  1.0
  O  O300  1  0.52999000  0.73462000  0.76538000  1.0
  O  O301  1  0.47001000  0.26538000  0.23462000  1.0
  O  O302  1  0.43941000  0.64824000  0.14008000  1.0
  O  O303  1  0.56060000  0.35176000  0.85992000  1.0
  O  O304  1  0.17727000  0.15817000  0.75053000  1.0
  O  O305  1  0.82273000  0.84183000  0.24947000  1.0
  O  O306  1  0.31845000  0.17228000  0.69962000  1.0
  O  O307  1  0.68156000  0.82772000  0.30038000  1.0
  O  O308  1  0.52911000  0.74356000  0.86621000  1.0
  O  O309  1  0.47089000  0.25644000  0.13378000  1.0
  O  O310  1  0.26984000  0.75086000  0.21132000  1.0
  O  O311  1  0.73017000  0.24914000  0.78868000  1.0
  O  O312  1  0.49368000  0.04852000  0.65674000  1.0
  O  O313  1  0.50632000  0.95148000  0.34326000  1.0
  O  O314  1  0.43828000  0.56819000  0.06845000  1.0
  O  O315  1  0.56172000  0.43181000  0.93155000  1.0
  O  O316  1  0.20084000  0.05410000  0.98224000  1.0
  O  O317  1  0.79916000  0.94590000  0.01776000  1.0
  O  O318  1  0.48995000  0.94071000  0.61772000  1.0
  O  O319  1  0.51005000  0.05929000  0.38228000  1.0
  O  O320  1  0.11584000  0.92386000  0.93358000  1.0
  O  O321  1  0.88416000  0.07614000  0.06642000  1.0
