# generated using pymatgen
data_ZnH25C20SN2ClO6
_symmetry_space_group_name_H-M   'P 1'
_cell_length_a   9.69421000
_cell_length_b   11.39276617
_cell_length_c   11.53280000
_cell_angle_alpha   84.09824625
_cell_angle_beta   89.99680000
_cell_angle_gamma   64.83710607
_symmetry_Int_Tables_number   1
_chemical_formula_structural   ZnH25C20SN2ClO6
_chemical_formula_sum   'Zn2 H50 C40 S2 N4 Cl2 O12'
_cell_volume   1145.39371443
_cell_formula_units_Z   2
loop_
 _symmetry_equiv_pos_site_id
 _symmetry_equiv_pos_as_xyz
  1  'x, y, z'
loop_
 _atom_site_type_symbol
 _atom_site_label
 _atom_site_symmetry_multiplicity
 _atom_site_fract_x
 _atom_site_fract_y
 _atom_site_fract_z
 _atom_site_occupancy
  Zn  Zn0  1  0.13706000  0.55839000  0.65026000  1.0
  Zn  Zn1  1  0.69541000  0.44152000  0.34964000  1.0
  H  H2  1  0.69368000  0.99167000  0.65799000  1.0
  H  H3  1  0.68551000  0.00807000  0.34192000  1.0
  H  H4  1  0.83904000  0.75181000  0.65585000  1.0
  H  H5  1  0.59091000  0.24795000  0.34390000  1.0
  H  H6  1  0.34866000  0.66311000  0.63757000  1.0
  H  H7  1  0.01153000  0.33706000  0.36215000  1.0
  H  H8  1  0.50088000  0.79100000  0.63668000  1.0
  H  H9  1  0.29161000  0.20944000  0.36320000  1.0
  H  H10  1  0.09097000  0.14503000  0.65005000  1.0
  H  H11  1  0.23612000  0.85506000  0.35014000  1.0
  H  H12  1  0.24841000  0.22903000  0.58559000  1.0
  H  H13  1  0.47741000  0.77117000  0.41439000  1.0
  H  H14  1  0.42414000  0.20186000  0.65899000  1.0
  H  H15  1  0.62595000  0.79849000  0.34105000  1.0
  H  H16  1  0.27100000  0.19239000  0.74124000  1.0
  H  H17  1  0.46337000  0.80795000  0.25876000  1.0
  H  H18  1  0.85456000  0.22312000  0.59878000  1.0
  H  H19  1  0.07771000  0.77670000  0.40134000  1.0
  H  H20  1  0.61611000  0.28923000  0.57047000  1.0
  H  H21  1  0.90532000  0.71058000  0.42959000  1.0
  H  H22  1  0.94835000  0.16759000  0.80607000  1.0
  H  H23  1  0.11589000  0.83244000  0.19407000  1.0
  H  H24  1  0.64832000  0.15049000  0.84380000  1.0
  H  H25  1  0.79880000  0.84954000  0.15635000  1.0
  H  H26  1  0.82699000  0.06653000  0.92288000  1.0
  H  H27  1  0.89360000  0.93345000  0.07724000  1.0
  H  H28  1  0.65653000  0.22563000  0.04817000  1.0
  H  H29  1  0.88196000  0.77445000  0.95194000  1.0
  H  H30  1  0.77677000  0.37204000  0.06391000  1.0
  H  H31  1  0.14850000  0.62807000  0.93608000  1.0
  H  H32  1  0.79497000  0.48359000  0.89061000  1.0
  H  H33  1  0.27833000  0.51646000  0.10933000  1.0
  H  H34  1  0.96696000  0.34818000  0.86914000  1.0
  H  H35  1  0.31502000  0.65188000  0.13074000  1.0
  H  H36  1  0.81169000  0.38684000  0.70798000  1.0
  H  H37  1  0.19853000  0.61313000  0.29199000  1.0
  H  H38  1  0.57719000  0.53125000  0.77588000  1.0
  H  H39  1  0.10827000  0.46872000  0.22421000  1.0
  H  H40  1  0.54785000  0.40460000  0.71788000  1.0
  H  H41  1  0.95232000  0.59542000  0.28213000  1.0
  H  H42  1  0.45541000  0.36733000  0.89779000  1.0
  H  H43  1  0.82277000  0.63239000  0.10223000  1.0
  H  H44  1  0.52470000  0.46538000  0.96641000  1.0
  H  H45  1  0.99019000  0.53458000  0.03358000  1.0
  H  H46  1  0.93618000  0.12479000  0.11782000  1.0
  H  H47  1  0.06070000  0.87540000  0.88234000  1.0
  H  H48  1  0.14250000  0.22110000  0.97184000  1.0
  H  H49  1  0.36355000  0.77885000  0.02799000  1.0
  H  H50  1  0.19755000  0.07731000  0.08313000  1.0
  H  H51  1  0.27478000  0.92272000  0.91678000  1.0
  C  C52  1  0.89474000  0.02692000  0.65836000  1.0
  C  C53  1  0.92176000  0.97293000  0.34176000  1.0
  C  C54  1  0.81769000  0.94892000  0.65883000  1.0
  C  C55  1  0.76672000  0.05088000  0.34112000  1.0
  C  C56  1  0.89891000  0.81412000  0.65639000  1.0
  C  C57  1  0.71309000  0.18570000  0.34343000  1.0
  C  C58  1  0.13205000  0.82917000  0.65016000  1.0
  C  C59  1  0.96120000  0.17080000  0.34980000  1.0
  C  C60  1  0.29283000  0.76772000  0.64363000  1.0
  C  C61  1  0.06040000  0.23242000  0.35626000  1.0
  C  C62  1  0.37726000  0.83855000  0.64292000  1.0
  C  C63  1  0.21567000  0.16173000  0.35707000  1.0
  C  C64  1  0.30395000  0.97561000  0.64800000  1.0
  C  C65  1  0.27955000  0.02462000  0.35210000  1.0
  C  C66  1  0.14632000  0.03938000  0.65215000  1.0
  C  C67  1  0.18578000  0.96071000  0.34805000  1.0
  C  C68  1  0.05711000  0.96775000  0.65406000  1.0
  C  C69  1  0.02493000  0.03219000  0.34605000  1.0
  C  C70  1  0.32986000  0.17344000  0.65901000  1.0
  C  C71  1  0.50327000  0.82686000  0.34102000  1.0
  C  C72  1  0.80570000  0.17269000  0.66083000  1.0
  C  C73  1  0.97843000  0.82717000  0.33930000  1.0
  C  C74  1  0.82544000  0.20826000  0.78372000  1.0
  C  C75  1  0.03370000  0.79169000  0.21638000  1.0
  C  C76  1  0.74578000  0.16207000  0.88072000  1.0
  C  C77  1  0.90785000  0.83791000  0.11940000  1.0
  C  C78  1  0.69100000  0.26440000  0.96779000  1.0
  C  C79  1  0.95525000  0.73562000  0.03229000  1.0
  C  C80  1  0.82075000  0.30307000  0.99789000  1.0
  C  C81  1  0.12358000  0.69699000  0.00212000  1.0
  C  C82  1  0.84675000  0.37770000  0.88744000  1.0
  C  C83  1  0.22430000  0.62235000  0.11250000  1.0
  C  C84  1  0.60170000  0.42751000  0.78995000  1.0
  C  C85  1  0.02912000  0.57246000  0.21010000  1.0
  C  C86  1  0.55577000  0.38674000  0.91000000  1.0
  C  C87  1  0.94248000  0.61317000  0.09003000  1.0
  C  C88  1  0.96080000  0.18891000  0.05219000  1.0
  C  C89  1  0.14951000  0.81117000  0.94785000  1.0
  C  C90  1  0.10685000  0.16149000  0.03390000  1.0
  C  C91  1  0.26823000  0.83852000  0.96601000  1.0
  S  S92  1  0.85932000  0.52212000  0.54231000  1.0
  S  S93  1  0.38160000  0.47762000  0.45758000  1.0
  N  N94  1  0.05076000  0.75567000  0.65204000  1.0
  N  N95  1  0.80644000  0.24423000  0.34779000  1.0
  N  N96  1  0.77184000  0.35439000  0.78380000  1.0
  N  N97  1  0.12618000  0.64560000  0.21621000  1.0
  Cl  Cl98  1  0.15671000  0.44832000  0.82391000  1.0
  Cl  Cl99  1  0.60491000  0.55181000  0.17611000  1.0
  O  O100  1  0.39821000  0.03559000  0.64752000  1.0
  O  O101  1  0.43375000  0.96471000  0.35258000  1.0
  O  O102  1  0.65007000  0.21132000  0.62920000  1.0
  O  O103  1  0.86136000  0.78855000  0.37092000  1.0
  O  O104  1  0.98535000  0.56865000  0.52641000  1.0
  O  O105  1  0.55413000  0.43109000  0.47358000  1.0
  O  O106  1  0.74081000  0.60614000  0.61364000  1.0
  O  O107  1  0.34713000  0.39354000  0.38628000  1.0
  O  O108  1  0.80112000  0.53402000  0.41835000  1.0
  O  O109  1  0.33511000  0.46582000  0.58151000  1.0
  O  O110  1  0.92713000  0.38412000  0.59397000  1.0
  O  O111  1  0.31155000  0.61560000  0.40587000  1.0
