# generated using pymatgen
data_Zn2H39C37(NO)11
_symmetry_space_group_name_H-M   'P 1'
_cell_length_a   10.80780000
_cell_length_b   15.94180000
_cell_length_c   17.02840000
_cell_angle_alpha   87.93280000
_cell_angle_beta   89.53250000
_cell_angle_gamma   87.20290000
_symmetry_Int_Tables_number   1
_chemical_formula_structural   Zn2H39C37(NO)11
_chemical_formula_sum   'Zn2 H39 C37 N11 O11'
_cell_volume   2928.45883386
_cell_formula_units_Z   1
loop_
 _symmetry_equiv_pos_site_id
 _symmetry_equiv_pos_as_xyz
  1  'x, y, z'
loop_
 _atom_site_type_symbol
 _atom_site_label
 _atom_site_symmetry_multiplicity
 _atom_site_fract_x
 _atom_site_fract_y
 _atom_site_fract_z
 _atom_site_occupancy
  Zn  Zn0  1  0.49134000  0.58912000  0.49785000  1.0
  Zn  Zn1  1  0.50713000  0.41271000  0.49881000  1.0
  H  H2  1  0.90519000  0.57989000  0.60267000  1.0
  H  H3  1  0.09334000  0.41282000  0.41682000  1.0
  H  H4  1  0.91022000  0.37324000  0.51010000  1.0
  H  H5  1  0.11625000  0.37075000  0.55093000  1.0
  H  H6  1  0.39293000  0.61135000  0.74157000  1.0
  H  H7  1  0.35457000  0.60213000  0.88799000  1.0
  H  H8  1  0.44378000  0.65043000  0.10176000  1.0
  H  H9  1  0.49188000  0.64361000  0.24711000  1.0
  H  H10  1  0.54681000  0.35828000  0.74836000  1.0
  H  H11  1  0.50979000  0.34881000  0.89521000  1.0
  H  H12  1  0.87953000  0.64256000  0.51670000  1.0
  H  H13  1  0.38484000  0.38790000  0.26065000  1.0
  H  H14  1  0.65097000  0.72133000  0.44744000  1.0
  H  H15  1  0.67566000  0.12149000  0.40520000  1.0
  H  H16  1  0.29909000  0.71964000  0.54656000  1.0
  H  H17  1  0.28584000  0.87906000  0.54936000  1.0
  H  H18  1  0.39116000  0.27610000  0.57953000  1.0
  H  H19  1  0.08483000  0.62996000  0.47476000  1.0
  H  H20  1  0.08381000  0.44375000  0.62343000  1.0
  H  H21  1  0.89328000  0.44665000  0.39004000  1.0
  H  H22  1  0.45835000  0.30907000  0.06731000  1.0
  H  H23  1  0.31431000  0.26036000  0.08749000  1.0
  H  H24  1  0.41345000  0.28294000  0.16720000  1.0
  H  H25  1  0.67103000  0.95065000  0.44102000  1.0
  H  H26  1  0.74743000  0.85245000  0.41770000  1.0
  H  H27  1  0.70925000  0.34882000  0.42092000  1.0
  H  H28  1  0.76017000  0.25749000  0.37403000  1.0
  H  H29  1  0.19187000  0.07639000  0.61338000  1.0
  H  H30  1  0.24702000  0.05982000  0.51496000  1.0
  H  H31  1  0.19807000  0.16421000  0.54464000  1.0
  H  H32  1  0.11206000  0.54476000  0.68333000  1.0
  H  H33  1  0.01041000  0.63717000  0.68485000  1.0
  H  H34  1  0.17238000  0.64389000  0.70136000  1.0
  H  H35  1  0.87664000  0.45347000  0.66150000  1.0
  H  H36  1  0.77083000  0.40354000  0.61503000  1.0
  H  H37  1  0.81579000  0.58519000  0.35734000  1.0
  H  H38  1  0.95596000  0.57488000  0.31821000  1.0
  H  H39  1  0.22489000  0.48848000  0.34595000  1.0
  H  H40  1  0.16039000  0.58012000  0.36511000  1.0
  C  C41  1  0.47997000  0.50800000  0.34640000  1.0
  C  C42  1  0.12182000  0.50000000  0.50763000  1.0
  C  C43  1  0.06747000  0.43139000  0.56146000  1.0
  C  C44  1  0.07757000  0.48117000  0.42164000  1.0
  C  C45  1  0.44707000  0.51400000  0.26095000  1.0
  C  C46  1  0.39990000  0.44468000  0.22494000  1.0
  C  C47  1  0.37195000  0.44797000  0.14515000  1.0
  C  C48  1  0.39542000  0.52194000  0.09978000  1.0
  C  C49  1  0.43213000  0.59339000  0.13784000  1.0
  C  C50  1  0.45958000  0.58949000  0.21741000  1.0
  C  C51  1  0.39598000  0.54930000  0.85663000  1.0
  C  C52  1  0.74000000  0.51044000  0.49598000  1.0
  C  C53  1  0.41741000  0.55433000  0.77631000  1.0
  C  C54  1  0.43111000  0.47482000  0.89938000  1.0
  C  C55  1  0.47275000  0.48569000  0.73720000  1.0
  C  C56  1  0.50477000  0.41098000  0.77964000  1.0
  C  C57  1  0.48389000  0.40558000  0.86035000  1.0
  C  C58  1  0.45214000  0.23986000  0.54060000  1.0
  C  C59  1  0.44374000  0.15334000  0.53934000  1.0
  C  C60  1  0.52607000  0.10925000  0.48746000  1.0
  C  C61  1  0.61031000  0.15518000  0.44329000  1.0
  C  C62  1  0.61263000  0.24307000  0.44791000  1.0
  C  C63  1  0.49535000  0.49285000  0.65039000  1.0
  C  C64  1  0.57365000  0.84770000  0.46727000  1.0
  C  C65  1  0.57123000  0.75903000  0.46865000  1.0
  C  C66  1  0.46635000  0.89228000  0.49767000  1.0
  C  C67  1  0.37354000  0.75849000  0.52507000  1.0
  C  C68  1  0.36718000  0.84516000  0.52599000  1.0
  C  C69  1  0.26241000  0.49661000  0.50615000  1.0
  C  C70  1  0.92793000  0.58506000  0.53963000  1.0
  C  C71  1  0.06790000  0.58909000  0.52661000  1.0
  C  C72  1  0.92686000  0.42617000  0.54793000  1.0
  C  C73  1  0.93462000  0.50129000  0.41637000  1.0
  C  C74  1  0.88048000  0.50770000  0.50063000  1.0
  C  C75  1  0.37984000  0.30465000  0.10867000  1.0
  C  C76  1  0.24329000  0.10348000  0.56365000  1.0
  C  C77  1  0.10345000  0.61238000  0.66749000  1.0
  N  N78  1  0.39050000  0.53062000  0.01733000  1.0
  N  N79  1  0.42422000  0.46447000  0.98212000  1.0
  N  N80  1  0.53131000  0.28430000  0.49605000  1.0
  N  N81  1  0.54016000  0.02193000  0.47929000  1.0
  N  N82  1  0.44907000  0.97892000  0.50268000  1.0
  N  N83  1  0.47606000  0.71717000  0.49644000  1.0
  N  N84  1  0.67359000  0.88659000  0.43849000  1.0
  N  N85  1  0.69361000  0.28859000  0.40504000  1.0
  N  N86  1  0.86416000  0.40772000  0.62226000  1.0
  N  N87  1  0.90806000  0.57922000  0.37009000  1.0
  N  N88  1  0.14144000  0.51936000  0.35487000  1.0
  O  O89  1  0.52022000  0.57299000  0.37704000  1.0
  O  O90  1  0.46342000  0.43768000  0.38237000  1.0
  O  O91  1  0.67957000  0.57737000  0.51335000  1.0
  O  O92  1  0.69053000  0.44355000  0.47457000  1.0
  O  O93  1  0.46530000  0.56310000  0.61635000  1.0
  O  O94  1  0.54196000  0.42805000  0.61666000  1.0
  O  O95  1  0.31231000  0.56313000  0.48085000  1.0
  O  O96  1  0.32064000  0.42761000  0.52568000  1.0
  O  O97  1  0.31295000  0.38426000  0.11121000  1.0
  O  O98  1  0.36588000  0.11529000  0.59212000  1.0
  O  O99  1  0.13127000  0.63118000  0.58712000  1.0
