# generated using pymatgen
data_CdH28C28(N5O3)2
_symmetry_space_group_name_H-M   'P 1'
_cell_length_a   8.84553000
_cell_length_b   8.87477000
_cell_length_c   10.02090000
_cell_angle_alpha   84.97040000
_cell_angle_beta   70.54900000
_cell_angle_gamma   76.68250000
_symmetry_Int_Tables_number   1
_chemical_formula_structural   CdH28C28(N5O3)2
_chemical_formula_sum   'Cd1 H28 C28 N10 O6'
_cell_volume   721.76509612
_cell_formula_units_Z   1
loop_
 _symmetry_equiv_pos_site_id
 _symmetry_equiv_pos_as_xyz
  1  'x, y, z'
loop_
 _atom_site_type_symbol
 _atom_site_label
 _atom_site_symmetry_multiplicity
 _atom_site_fract_x
 _atom_site_fract_y
 _atom_site_fract_z
 _atom_site_occupancy
  Cd  Cd0  1  0.00000000  0.00000000  0.00000000  1.0
  H  H1  1  0.66542000  0.18288000  0.89743000  1.0
  H  H2  1  0.33458000  0.81712000  0.10257000  1.0
  H  H3  1  0.82475000  0.60603000  0.83234000  1.0
  H  H4  1  0.17525000  0.39397000  0.16766000  1.0
  H  H5  1  0.04161000  0.38078000  0.93241000  1.0
  H  H6  1  0.95839000  0.61922000  0.06759000  1.0
  H  H7  1  0.48193000  0.57124000  0.88246000  1.0
  H  H8  1  0.51807000  0.42876000  0.11754000  1.0
  H  H9  1  0.50041000  0.39294000  0.80591000  1.0
  H  H10  1  0.49959000  0.60706000  0.19409000  1.0
  H  H11  1  0.53856000  0.79064000  0.75402000  1.0
  H  H12  1  0.46144000  0.20936000  0.24598000  1.0
  H  H13  1  0.63039000  0.92879000  0.52687000  1.0
  H  H14  1  0.36961000  0.07121000  0.47313000  1.0
  H  H15  1  0.77154000  0.77811000  0.30261000  1.0
  H  H16  1  0.22846000  0.22189000  0.69739000  1.0
  H  H17  1  0.80821000  0.49275000  0.30924000  1.0
  H  H18  1  0.19179000  0.50725000  0.69076000  1.0
  H  H19  1  0.73188000  0.25254000  0.63624000  1.0
  H  H20  1  0.26812000  0.74746000  0.36375000  1.0
  H  H21  1  0.59597000  0.27582000  0.53876000  1.0
  H  H22  1  0.40404000  0.72418000  0.46124000  1.0
  H  H23  1  0.70863000  0.17526000  0.29068000  1.0
  H  H24  1  0.29138000  0.82474000  0.70932000  1.0
  H  H25  1  0.05234000  0.23076000  0.48190000  1.0
  H  H26  1  0.94766000  0.76924000  0.51811000  1.0
  H  H27  1  0.21802000  0.07951000  0.22520000  1.0
  H  H28  1  0.78199000  0.92048000  0.77480000  1.0
  C  C29  1  0.74127000  0.26416000  0.89507000  1.0
  C  C30  1  0.25873000  0.73584000  0.10493000  1.0
  C  C31  1  0.82632000  0.48521000  0.86028000  1.0
  C  C32  1  0.17368000  0.51479000  0.13972000  1.0
  C  C33  1  0.93114000  0.37398000  0.91058000  1.0
  C  C34  1  0.06885000  0.62602000  0.08943000  1.0
  C  C35  1  0.56540000  0.48504000  0.80420000  1.0
  C  C36  1  0.43460000  0.51495000  0.19580000  1.0
  C  C37  1  0.61797000  0.56329000  0.66140000  1.0
  C  C38  1  0.38203000  0.43671000  0.33859000  1.0
  C  C39  1  0.59623000  0.72470000  0.65620000  1.0
  C  C40  1  0.40376000  0.27529000  0.34380000  1.0
  C  C41  1  0.64832000  0.80306000  0.52776000  1.0
  C  C42  1  0.35168000  0.19694000  0.47224000  1.0
  C  C43  1  0.72597000  0.71890000  0.40306000  1.0
  C  C44  1  0.27403000  0.28110000  0.59694000  1.0
  C  C45  1  0.74741000  0.55766000  0.40721000  1.0
  C  C46  1  0.25259000  0.44235000  0.59279000  1.0
  C  C47  1  0.69345000  0.47831000  0.53515000  1.0
  C  C48  1  0.30655000  0.52169000  0.46485000  1.0
  C  C49  1  0.71055000  0.30416000  0.53897000  1.0
  C  C50  1  0.28945000  0.69584000  0.46103000  1.0
  C  C51  1  0.82609000  0.16966000  0.30470000  1.0
  C  C52  1  0.17392000  0.83035000  0.69529000  1.0
  C  C53  1  0.00781000  0.19609000  0.40348000  1.0
  C  C54  1  0.99219000  0.80391000  0.59652000  1.0
  C  C55  1  0.08753000  0.12213000  0.27604000  1.0
  C  C56  1  0.91247000  0.87787000  0.72396000  1.0
  N  N57  1  0.87693000  0.23709000  0.93124000  1.0
  N  N58  1  0.12307000  0.76291000  0.06876000  1.0
  N  N59  1  0.70694000  0.41372000  0.85102000  1.0
  N  N60  1  0.29306000  0.58628000  0.14898000  1.0
  N  N61  1  0.84244000  0.22499000  0.42013000  1.0
  N  N62  1  0.15757000  0.77501000  0.57987000  1.0
  N  N63  1  0.97254000  0.10658000  0.21555000  1.0
  N  N64  1  0.02746000  0.89342000  0.78445000  1.0
  N  N65  1  0.62074000  0.89538000  0.12501000  1.0
  N  N66  1  0.37926000  0.10462000  0.87499000  1.0
  O  O67  1  0.70508000  0.99541000  0.12496000  1.0
  O  O68  1  0.29492000  0.00459000  0.87504000  1.0
  O  O69  1  0.47103000  0.92085000  0.20038000  1.0
  O  O70  1  0.52897000  0.07915000  0.79962000  1.0
  O  O71  1  0.68696000  0.77438000  0.05273000  1.0
  O  O72  1  0.31304000  0.22562000  0.94727000  1.0
