# generated using pymatgen
data_CdH11C18N2O5
_symmetry_space_group_name_H-M   'P 1'
_cell_length_a   7.51886000
_cell_length_b   12.40810000
_cell_length_c   17.28100000
_cell_angle_alpha   90.00000000
_cell_angle_beta   90.00000000
_cell_angle_gamma   96.04910000
_symmetry_Int_Tables_number   1
_chemical_formula_structural   CdH11C18N2O5
_chemical_formula_sum   'Cd4 H44 C72 N8 O20'
_cell_volume   1603.24991088
_cell_formula_units_Z   4
loop_
 _symmetry_equiv_pos_site_id
 _symmetry_equiv_pos_as_xyz
  1  'x, y, z'
loop_
 _atom_site_type_symbol
 _atom_site_label
 _atom_site_symmetry_multiplicity
 _atom_site_fract_x
 _atom_site_fract_y
 _atom_site_fract_z
 _atom_site_occupancy
  Cd  Cd0  1  0.57707000  0.38530000  0.69168000  1.0
  Cd  Cd1  1  0.42293000  0.11470000  0.19168000  1.0
  Cd  Cd2  1  0.42293000  0.61470000  0.30832000  1.0
  Cd  Cd3  1  0.57707000  0.88530000  0.80832000  1.0
  H  H4  1  0.90764000  0.07018000  0.01492000  1.0
  H  H5  1  0.09236000  0.42982000  0.51492000  1.0
  H  H6  1  0.09237000  0.92982000  0.98508000  1.0
  H  H7  1  0.90763000  0.57018000  0.48508000  1.0
  H  H8  1  0.09258000  0.22351000  0.07935000  1.0
  H  H9  1  0.90741000  0.27650000  0.57935000  1.0
  H  H10  1  0.90742000  0.77650000  0.92065000  1.0
  H  H11  1  0.09258000  0.72350000  0.42065000  1.0
  H  H12  1  0.13062000  0.40574000  0.01417000  1.0
  H  H13  1  0.86938000  0.09427000  0.51417000  1.0
  H  H14  1  0.86938000  0.59427000  0.98583000  1.0
  H  H15  1  0.13062000  0.90573000  0.48583000  1.0
  H  H16  1  0.96378000  0.63305000  0.80844000  1.0
  H  H17  1  0.03623000  0.86695000  0.30844000  1.0
  H  H18  1  0.03623000  0.36695000  0.19156000  1.0
  H  H19  1  0.96377000  0.13305000  0.69156000  1.0
  H  H20  1  0.14464000  0.69076000  0.69280000  1.0
  H  H21  1  0.85536000  0.80924000  0.19281000  1.0
  H  H22  1  0.85537000  0.30924000  0.30719000  1.0
  H  H23  1  0.14464000  0.19076000  0.80720000  1.0
  H  H24  1  0.37208000  0.57313000  0.64345000  1.0
  H  H25  1  0.62792000  0.92686000  0.14346000  1.0
  H  H26  1  0.62793000  0.42686000  0.35654000  1.0
  H  H27  1  0.37208000  0.07313000  0.85654000  1.0
  H  H28  1  0.25505000  0.35078000  0.82062000  1.0
  H  H29  1  0.74495000  0.14922000  0.32062000  1.0
  H  H30  1  0.74495000  0.64921000  0.17938000  1.0
  H  H31  1  0.25505000  0.85078000  0.67938000  1.0
  H  H32  1  0.45843000  0.31993000  0.52015000  1.0
  H  H33  1  0.54157000  0.18007000  0.02015000  1.0
  H  H34  1  0.54157000  0.68007000  0.47985000  1.0
  H  H35  1  0.45843000  0.81994000  0.97985000  1.0
  H  H36  1  0.43666000  0.16092000  0.43345000  1.0
  H  H37  1  0.56334000  0.33908000  0.93346000  1.0
  H  H38  1  0.56333000  0.83908000  0.56655000  1.0
  H  H39  1  0.43666000  0.66092000  0.06654000  1.0
  H  H40  1  0.58189000  0.97076000  0.63040000  1.0
  H  H41  1  0.41811000  0.52924000  0.13040000  1.0
  H  H42  1  0.41811000  0.02923000  0.36960000  1.0
  H  H43  1  0.58189000  0.47077000  0.86960000  1.0
  H  H44  1  0.59694000  0.13791000  0.70822000  1.0
  H  H45  1  0.40305000  0.36209000  0.20822000  1.0
  H  H46  1  0.40305000  0.86208000  0.29178000  1.0
  H  H47  1  0.59694000  0.63792000  0.79178000  1.0
  C  C48  1  0.74365000  0.06658000  0.87868000  1.0
  C  C49  1  0.25635000  0.43342000  0.37868000  1.0
  C  C50  1  0.25635000  0.93342000  0.12132000  1.0
  C  C51  1  0.74365000  0.56658000  0.62132000  1.0
  C  C52  1  0.84948000  0.16271000  0.91507000  1.0
  C  C53  1  0.15052000  0.33729000  0.41507000  1.0
  C  C54  1  0.15052000  0.83729000  0.08493000  1.0
  C  C55  1  0.84948000  0.66271000  0.58493000  1.0
  C  C56  1  0.92951000  0.14932000  0.98725000  1.0
  C  C57  1  0.07049000  0.35068000  0.48725000  1.0
  C  C58  1  0.07049000  0.85068000  0.01275000  1.0
  C  C59  1  0.92951000  0.64932000  0.51275000  1.0
  C  C60  1  0.03245000  0.23513000  0.02300000  1.0
  C  C61  1  0.96755000  0.26487000  0.52300000  1.0
  C  C62  1  0.96755000  0.76487000  0.97700000  1.0
  C  C63  1  0.03244000  0.73512000  0.47700000  1.0
  C  C64  1  0.05619000  0.33611000  0.98665000  1.0
  C  C65  1  0.94380000  0.16390000  0.48665000  1.0
  C  C66  1  0.94381000  0.66390000  0.01335000  1.0
  C  C67  1  0.05619000  0.83610000  0.51335000  1.0
  C  C68  1  0.97741000  0.34938000  0.91481000  1.0
  C  C69  1  0.02259000  0.15062000  0.41481000  1.0
  C  C70  1  0.02260000  0.65062000  0.08519000  1.0
  C  C71  1  0.97741000  0.84937000  0.58519000  1.0
  C  C72  1  0.87224000  0.26438000  0.87784000  1.0
  C  C73  1  0.12776000  0.23562000  0.37784000  1.0
  C  C74  1  0.12776000  0.73562000  0.12216000  1.0
  C  C75  1  0.87224000  0.76438000  0.62216000  1.0
  C  C76  1  0.77587000  0.29102000  0.80472000  1.0
  C  C77  1  0.22413000  0.20898000  0.30472000  1.0
  C  C78  1  0.22413000  0.70898000  0.19528000  1.0
  C  C79  1  0.77587000  0.79102000  0.69528000  1.0
  C  C80  1  0.09143000  0.48531000  0.82194000  1.0
  C  C81  1  0.90858000  0.01469000  0.32195000  1.0
  C  C82  1  0.90858000  0.51469000  0.17805000  1.0
  C  C83  1  0.09142000  0.98531000  0.67806000  1.0
  C  C84  1  0.06458000  0.58372000  0.78703000  1.0
  C  C85  1  0.93543000  0.91628000  0.28703000  1.0
  C  C86  1  0.93543000  0.41628000  0.21297000  1.0
  C  C87  1  0.06458000  0.08372000  0.71297000  1.0
  C  C88  1  0.16604000  0.61593000  0.72229000  1.0
  C  C89  1  0.83397000  0.88408000  0.22230000  1.0
  C  C90  1  0.83397000  0.38407000  0.27770000  1.0
  C  C91  1  0.16603000  0.11592000  0.77771000  1.0
  C  C92  1  0.29095000  0.55073000  0.69436000  1.0
  C  C93  1  0.70906000  0.94927000  0.19436000  1.0
  C  C94  1  0.70906000  0.44927000  0.30564000  1.0
  C  C95  1  0.29094000  0.05073000  0.80564000  1.0
  C  C96  1  0.22399000  0.42533000  0.79287000  1.0
  C  C97  1  0.77601000  0.07467000  0.29287000  1.0
  C  C98  1  0.77601000  0.57467000  0.20713000  1.0
  C  C99  1  0.22399000  0.92532000  0.70713000  1.0
  C  C100  1  0.48076000  0.24012000  0.54225000  1.0
  C  C101  1  0.51924000  0.25988000  0.04225000  1.0
  C  C102  1  0.51924000  0.75988000  0.45775000  1.0
  C  C103  1  0.48076000  0.74013000  0.95775000  1.0
  C  C104  1  0.46898000  0.14990000  0.49425000  1.0
  C  C105  1  0.53102000  0.35011000  0.99425000  1.0
  C  C106  1  0.53102000  0.85010000  0.50575000  1.0
  C  C107  1  0.46898000  0.64990000  0.00575000  1.0
  C  C108  1  0.50387000  0.04908000  0.52451000  1.0
  C  C109  1  0.49613000  0.45092000  0.02451000  1.0
  C  C110  1  0.49613000  0.95092000  0.47549000  1.0
  C  C111  1  0.50387000  0.54909000  0.97548000  1.0
  C  C112  1  0.54997000  0.04538000  0.60309000  1.0
  C  C113  1  0.45003000  0.45462000  0.10309000  1.0
  C  C114  1  0.45003000  0.95462000  0.39691000  1.0
  C  C115  1  0.54996000  0.54538000  0.89691000  1.0
  C  C116  1  0.55863000  0.13905000  0.64740000  1.0
  C  C117  1  0.44136000  0.36095000  0.14740000  1.0
  C  C118  1  0.44137000  0.86094000  0.35260000  1.0
  C  C119  1  0.55863000  0.63906000  0.85260000  1.0
  N  N120  1  0.32036000  0.45782000  0.72997000  1.0
  N  N121  1  0.67965000  0.04219000  0.22997000  1.0
  N  N122  1  0.67965000  0.54218000  0.27003000  1.0
  N  N123  1  0.32036000  0.95781000  0.77003000  1.0
  N  N124  1  0.52419000  0.23489000  0.61756000  1.0
  N  N125  1  0.47581000  0.26511000  0.11756000  1.0
  N  N126  1  0.47581000  0.76510000  0.38244000  1.0
  N  N127  1  0.52419000  0.73490000  0.88244000  1.0
  O  O128  1  0.68250000  0.98783000  0.92172000  1.0
  O  O129  1  0.31750000  0.51218000  0.42172000  1.0
  O  O130  1  0.31750000  0.01218000  0.07828000  1.0
  O  O131  1  0.68250000  0.48782000  0.57828000  1.0
  O  O132  1  0.72203000  0.06578000  0.80527000  1.0
  O  O133  1  0.27798000  0.43422000  0.30527000  1.0
  O  O134  1  0.27797000  0.93422000  0.19473000  1.0
  O  O135  1  0.72202000  0.56578000  0.69473000  1.0
  O  O136  1  0.61112000  0.30801000  0.81346000  1.0
  O  O137  1  0.38888000  0.19199000  0.31346000  1.0
  O  O138  1  0.38888000  0.69199000  0.18654000  1.0
  O  O139  1  0.61112000  0.80801000  0.68654000  1.0
  O  O140  1  0.85966000  0.30461000  0.74178000  1.0
  O  O141  1  0.14034000  0.19539000  0.24178000  1.0
  O  O142  1  0.14034000  0.69538000  0.25822000  1.0
  O  O143  1  0.85966000  0.80462000  0.75822000  1.0
  O  O144  1  0.98529000  0.45469000  0.88456000  1.0
  O  O145  1  0.01471000  0.04531000  0.38457000  1.0
  O  O146  1  0.01472000  0.54531000  0.11543000  1.0
  O  O147  1  0.98529000  0.95468000  0.61544000  1.0
