# generated using pymatgen
data_CoH8C8(NO)4
_symmetry_space_group_name_H-M   'P 1'
_cell_length_a   8.21327000
_cell_length_b   8.21841000
_cell_length_c   9.14262000
_cell_angle_alpha   84.44660000
_cell_angle_beta   84.07120000
_cell_angle_gamma   76.12970000
_symmetry_Int_Tables_number   1
_chemical_formula_structural   CoH8C8(NO)4
_chemical_formula_sum   'Co2 H16 C16 N8 O8'
_cell_volume   594.26806401
_cell_formula_units_Z   2
loop_
 _symmetry_equiv_pos_site_id
 _symmetry_equiv_pos_as_xyz
  1  'x, y, z'
loop_
 _atom_site_type_symbol
 _atom_site_label
 _atom_site_symmetry_multiplicity
 _atom_site_fract_x
 _atom_site_fract_y
 _atom_site_fract_z
 _atom_site_occupancy
  Co  Co0  1  0.65668000  0.35092000  0.24509000  1.0
  Co  Co1  1  0.35071000  0.64962000  0.74960000  1.0
  H  H2  1  0.78512000  0.79543000  0.97064000  1.0
  H  H3  1  0.20396000  0.20736000  0.53060000  1.0
  H  H4  1  0.20254000  0.19007000  0.02577000  1.0
  H  H5  1  0.81117000  0.79863000  0.47472000  1.0
  H  H6  1  0.81850000  0.12637000  0.96670000  1.0
  H  H7  1  0.87044000  0.18128000  0.53327000  1.0
  H  H8  1  0.17009000  0.85939000  0.02535000  1.0
  H  H9  1  0.14246000  0.82955000  0.47408000  1.0
  H  H10  1  0.62187000  0.74553000  0.22483000  1.0
  H  H11  1  0.25930000  0.36916000  0.27632000  1.0
  H  H12  1  0.36658000  0.24432000  0.77534000  1.0
  H  H13  1  0.75549000  0.63524000  0.72450000  1.0
  H  H14  1  0.55012000  0.00567000  0.36480000  1.0
  H  H15  1  0.99921000  0.45253000  0.14023000  1.0
  H  H16  1  0.44668000  0.98271000  0.63237000  1.0
  H  H17  1  0.01672000  0.55495000  0.86647000  1.0
  C  C18  1  0.74244000  0.88894000  0.05029000  1.0
  C  C19  1  0.11098000  0.25323000  0.45157000  1.0
  C  C20  1  0.24671000  0.09763000  0.94520000  1.0
  C  C21  1  0.90345000  0.75389000  0.55465000  1.0
  C  C22  1  0.75772000  0.05226000  0.04977000  1.0
  C  C23  1  0.94644000  0.24183000  0.45169000  1.0
  C  C24  1  0.23196000  0.93425000  0.94401000  1.0
  C  C25  1  0.06716000  0.76804000  0.55541000  1.0
  C  C26  1  0.61949000  0.99585000  0.25735000  1.0
  C  C27  1  0.00678000  0.38227000  0.24694000  1.0
  C  C28  1  0.37540000  0.99251000  0.73880000  1.0
  C  C29  1  0.00758000  0.62553000  0.76020000  1.0
  C  C30  1  0.50928000  0.58954000  0.46277000  1.0
  C  C31  1  0.41007000  0.48547000  0.03417000  1.0
  C  C32  1  0.48350000  0.42064000  0.53947000  1.0
  C  C33  1  0.57762000  0.51856000  0.95989000  1.0
  N  N34  1  0.68072000  0.11731000  0.18013000  1.0
  N  N35  1  0.88275000  0.32295000  0.32287000  1.0
  N  N36  1  0.31289000  0.87018000  0.81433000  1.0
  N  N37  1  0.13061000  0.68732000  0.68458000  1.0
  N  N38  1  0.65443000  0.85665000  0.18184000  1.0
  N  N39  1  0.14594000  0.34234000  0.32155000  1.0
  N  N40  1  0.33721000  0.13141000  0.81532000  1.0
  N  N41  1  0.86886000  0.66396000  0.68425000  1.0
  O  O42  1  0.56891000  0.58520000  0.32859000  1.0
  O  O43  1  0.41748000  0.41211000  0.16316000  1.0
  O  O44  1  0.40929000  0.42706000  0.67042000  1.0
  O  O45  1  0.57281000  0.59246000  0.82963000  1.0
  O  O46  1  0.47063000  0.71794000  0.53534000  1.0
  O  O47  1  0.28034000  0.53158000  0.96410000  1.0
  O  O48  1  0.53502000  0.28963000  0.47137000  1.0
  O  O49  1  0.70788000  0.47271000  0.02966000  1.0
