# generated using pymatgen
data_Ag2H22C30(N3O4)3
_symmetry_space_group_name_H-M   'P 1'
_cell_length_a   7.74222000
_cell_length_b   14.70860000
_cell_length_c   14.79550000
_cell_angle_alpha   91.08380000
_cell_angle_beta   99.63430000
_cell_angle_gamma   97.02260000
_symmetry_Int_Tables_number   1
_chemical_formula_structural   Ag2H22C30(N3O4)3
_chemical_formula_sum   'Ag4 H44 C60 N18 O24'
_cell_volume   1647.30995263
_cell_formula_units_Z   2
loop_
 _symmetry_equiv_pos_site_id
 _symmetry_equiv_pos_as_xyz
  1  'x, y, z'
loop_
 _atom_site_type_symbol
 _atom_site_label
 _atom_site_symmetry_multiplicity
 _atom_site_fract_x
 _atom_site_fract_y
 _atom_site_fract_z
 _atom_site_occupancy
  Ag  Ag0  1  0.56981000  0.62454000  0.19253000  1.0
  Ag  Ag1  1  0.43021000  0.37546000  0.80747000  1.0
  Ag  Ag2  1  0.09380000  0.74020000  0.55980000  1.0
  Ag  Ag3  1  0.90620000  0.25980000  0.44020000  1.0
  H  H4  1  0.28700000  0.30124000  0.31321000  1.0
  H  H5  1  0.71299000  0.69876000  0.68679000  1.0
  H  H6  1  0.82902000  0.60780000  0.40068000  1.0
  H  H7  1  0.17098000  0.39221000  0.59933000  1.0
  H  H8  1  0.99497000  0.88992000  0.38619000  1.0
  H  H9  1  0.00504000  0.11008000  0.61381000  1.0
  H  H10  1  0.80080000  0.92075000  0.24056000  1.0
  H  H11  1  0.19921000  0.07925000  0.75944000  1.0
  H  H12  1  0.58979000  0.85608000  0.23956000  1.0
  H  H13  1  0.41021000  0.14392000  0.76045000  1.0
  H  H14  1  0.91423000  0.72062000  0.16373000  1.0
  H  H15  1  0.08577000  0.27938000  0.83627000  1.0
  H  H16  1  0.70350000  0.73495000  0.87737000  1.0
  H  H17  1  0.29651000  0.26505000  0.12263000  1.0
  H  H18  1  0.53301000  0.90577000  0.07587000  1.0
  H  H19  1  0.46700000  0.09424000  0.92414000  1.0
  H  H20  1  0.99105000  0.65993000  0.94044000  1.0
  H  H21  1  0.00895000  0.34008000  0.05956000  1.0
  H  H22  1  0.02700000  0.63722000  0.05974000  1.0
  H  H23  1  0.97301000  0.36278000  0.94026000  1.0
  H  H24  1  0.71611000  0.55906000  0.83544000  1.0
  H  H25  1  0.28390000  0.44094000  0.16456000  1.0
  H  H26  1  0.61878000  0.37239000  0.03992000  1.0
  H  H27  1  0.38122000  0.62762000  0.96009000  1.0
  H  H28  1  0.40910000  0.91318000  0.92309000  1.0
  H  H29  1  0.59090000  0.08682000  0.07691000  1.0
  H  H30  1  0.58420000  0.91905000  0.85790000  1.0
  H  H31  1  0.41581000  0.08095000  0.14210000  1.0
  H  H32  1  0.42957000  0.87337000  0.69805000  1.0
  H  H33  1  0.57044000  0.12663000  0.30195000  1.0
  H  H34  1  0.10778000  0.63734000  0.75678000  1.0
  H  H35  1  0.89223000  0.36266000  0.24322000  1.0
  H  H36  1  0.70679000  0.50315000  0.44663000  1.0
  H  H37  1  0.29320000  0.49684000  0.55337000  1.0
  H  H38  1  0.51119000  0.22484000  0.59413000  1.0
  H  H39  1  0.48880000  0.77516000  0.40587000  1.0
  H  H40  1  0.94668000  0.44205000  0.72133000  1.0
  H  H41  1  0.05331000  0.55795000  0.27867000  1.0
  H  H42  1  0.72165000  0.21273000  0.82148000  1.0
  H  H43  1  0.27835000  0.78727000  0.17852000  1.0
  H  H44  1  0.81875000  0.85128000  0.71703000  1.0
  H  H45  1  0.18125000  0.14872000  0.28297000  1.0
  H  H46  1  0.88205000  0.14373000  0.03442000  1.0
  H  H47  1  0.11795000  0.85627000  0.96558000  1.0
  C  C48  1  0.84201000  0.67732000  0.37792000  1.0
  C  C49  1  0.15799000  0.32268000  0.62208000  1.0
  C  C50  1  0.92829000  0.82064000  0.37275000  1.0
  C  C51  1  0.07173000  0.17936000  0.62725000  1.0
  C  C52  1  0.72554000  0.85197000  0.22833000  1.0
  C  C53  1  0.27446000  0.14803000  0.77167000  1.0
  C  C54  1  0.72341000  0.81720000  0.13141000  1.0
  C  C55  1  0.27659000  0.18280000  0.86859000  1.0
  C  C56  1  0.82502000  0.74993000  0.11038000  1.0
  C  C57  1  0.17497000  0.25007000  0.88962000  1.0
  C  C58  1  0.81768000  0.72002000  0.01932000  1.0
  C  C59  1  0.18233000  0.27998000  0.98068000  1.0
  C  C60  1  0.70993000  0.75815000  0.94854000  1.0
  C  C61  1  0.29008000  0.24185000  0.05147000  1.0
  C  C62  1  0.60926000  0.82637000  0.96880000  1.0
  C  C63  1  0.39074000  0.17363000  0.03120000  1.0
  C  C64  1  0.61564000  0.85472000  0.06000000  1.0
  C  C65  1  0.38436000  0.14528000  0.94001000  1.0
  C  C66  1  0.92608000  0.64530000  0.99999000  1.0
  C  C67  1  0.07393000  0.35470000  0.00001000  1.0
  C  C68  1  0.71831000  0.52464000  0.90000000  1.0
  C  C69  1  0.28170000  0.47536000  0.10000000  1.0
  C  C70  1  0.66782000  0.43221000  0.00542000  1.0
  C  C71  1  0.33218000  0.56779000  0.99458000  1.0
  C  C72  1  0.49885000  0.87283000  0.89410000  1.0
  C  C73  1  0.50116000  0.12717000  0.10591000  1.0
  C  C74  1  0.36414000  0.81842000  0.73271000  1.0
  C  C75  1  0.63586000  0.18158000  0.26730000  1.0
  C  C76  1  0.20012000  0.70013000  0.76576000  1.0
  C  C77  1  0.79989000  0.29987000  0.23424000  1.0
  C  C78  1  0.47243000  0.41029000  0.33216000  1.0
  C  C79  1  0.52756000  0.58971000  0.66784000  1.0
  C  C80  1  0.88266000  0.51090000  0.60840000  1.0
  C  C81  1  0.11732000  0.48910000  0.39160000  1.0
  C  C82  1  0.74747000  0.32356000  0.71082000  1.0
  C  C83  1  0.25252000  0.67645000  0.28918000  1.0
  C  C84  1  0.33698000  0.21735000  0.43295000  1.0
  C  C85  1  0.66301000  0.78265000  0.56706000  1.0
  C  C86  1  0.47409000  0.29830000  0.47170000  1.0
  C  C87  1  0.52591000  0.70170000  0.52830000  1.0
  C  C88  1  0.53130000  0.37943000  0.42879000  1.0
  C  C89  1  0.46869000  0.62056000  0.57121000  1.0
  C  C90  1  0.66385000  0.44168000  0.48009000  1.0
  C  C91  1  0.33614000  0.55832000  0.51991000  1.0
  C  C92  1  0.74376000  0.43134000  0.57047000  1.0
  C  C93  1  0.25623000  0.56866000  0.42953000  1.0
  C  C94  1  0.68451000  0.35101000  0.61390000  1.0
  C  C95  1  0.31548000  0.64899000  0.38609000  1.0
  C  C96  1  0.55386000  0.28770000  0.56229000  1.0
  C  C97  1  0.44614000  0.71230000  0.43771000  1.0
  C  C98  1  0.84492000  0.10606000  0.85182000  1.0
  C  C99  1  0.15508000  0.89394000  0.14817000  1.0
  C  C100  1  0.97937000  0.93190000  0.81212000  1.0
  C  C101  1  0.02063000  0.06810000  0.18788000  1.0
  C  C102  1  0.98843000  0.96935000  0.90836000  1.0
  C  C103  1  0.01157000  0.03065000  0.09164000  1.0
  C  C104  1  0.92033000  0.05020000  0.92851000  1.0
  C  C105  1  0.07967000  0.94979000  0.07149000  1.0
  C  C106  1  0.93243000  0.07996000  0.02001000  1.0
  C  C107  1  0.06757000  0.92004000  0.97999000  1.0
  N  N108  1  0.95378000  0.74795000  0.42433000  1.0
  N  N109  1  0.04623000  0.25206000  0.57567000  1.0
  N  N110  1  0.74968000  0.70327000  0.30127000  1.0
  N  N111  1  0.25033000  0.29674000  0.69873000  1.0
  N  N112  1  0.80569000  0.79475000  0.29866000  1.0
  N  N113  1  0.19431000  0.20525000  0.70134000  1.0
  N  N114  1  0.81567000  0.55662000  0.98047000  1.0
  N  N115  1  0.18433000  0.44338000  0.01953000  1.0
  N  N116  1  0.78505000  0.49904000  0.04881000  1.0
  N  N117  1  0.21496000  0.50096000  0.95119000  1.0
  N  N118  1  0.62239000  0.44545000  0.91353000  1.0
  N  N119  1  0.37761000  0.55455000  0.08648000  1.0
  N  N120  1  0.39229000  0.80921000  0.82379000  1.0
  N  N121  1  0.60771000  0.19079000  0.17621000  1.0
  N  N122  1  0.28768000  0.73453000  0.84635000  1.0
  N  N123  1  0.71232000  0.26547000  0.15365000  1.0
  N  N124  1  0.24298000  0.75015000  0.69364000  1.0
  N  N125  1  0.75703000  0.24985000  0.30636000  1.0
  O  O126  1  0.34221000  0.36035000  0.27756000  1.0
  O  O127  1  0.65778000  0.63965000  0.72243000  1.0
  O  O128  1  0.54648000  0.48227000  0.30639000  1.0
  O  O129  1  0.45352000  0.51773000  0.69361000  1.0
  O  O130  1  0.90175000  0.57948000  0.56178000  1.0
  O  O131  1  0.09824000  0.42052000  0.43821000  1.0
  O  O132  1  0.98095000  0.50606000  0.68918000  1.0
  O  O133  1  0.01903000  0.49394000  0.31082000  1.0
  O  O134  1  0.89022000  0.36368000  0.75859000  1.0
  O  O135  1  0.10977000  0.63632000  0.24141000  1.0
  O  O136  1  0.65171000  0.25852000  0.74072000  1.0
  O  O137  1  0.34829000  0.74148000  0.25928000  1.0
  O  O138  1  0.32658000  0.14601000  0.47546000  1.0
  O  O139  1  0.67339000  0.85399000  0.52454000  1.0
  O  O140  1  0.23219000  0.22828000  0.35525000  1.0
  O  O141  1  0.76781000  0.77172000  0.64475000  1.0
  O  O142  1  0.86259000  0.08996000  0.77188000  1.0
  O  O143  1  0.13741000  0.91004000  0.22812000  1.0
  O  O144  1  0.76234000  0.17306000  0.87856000  1.0
  O  O145  1  0.23766000  0.82694000  0.12144000  1.0
  O  O146  1  0.82174000  0.88708000  0.77828000  1.0
  O  O147  1  0.17826000  0.11292000  0.22172000  1.0
  O  O148  1  0.11070000  0.93617000  0.77484000  1.0
  O  O149  1  0.88929000  0.06383000  0.22516000  1.0
