# generated using pymatgen
data_ZnH28(C2N)14
_symmetry_space_group_name_H-M   'P 1'
_cell_length_a   8.64514000
_cell_length_b   12.63940000
_cell_length_c   13.02190000
_cell_angle_alpha   90.00000000
_cell_angle_beta   89.99990000
_cell_angle_gamma   106.40100000
_symmetry_Int_Tables_number   1
_chemical_formula_structural   ZnH28(C2N)14
_chemical_formula_sum   'Zn2 H56 C56 N28'
_cell_volume   1364.99601918
_cell_formula_units_Z   2
loop_
 _symmetry_equiv_pos_site_id
 _symmetry_equiv_pos_as_xyz
  1  'x, y, z'
loop_
 _atom_site_type_symbol
 _atom_site_label
 _atom_site_symmetry_multiplicity
 _atom_site_fract_x
 _atom_site_fract_y
 _atom_site_fract_z
 _atom_site_occupancy
  Zn  Zn0  1  0.00000000  0.00000000  0.50000000  1.0
  Zn  Zn1  1  0.50000000  0.00000000  0.00000000  1.0
  H  H2  1  0.94605000  0.22993000  0.43237000  1.0
  H  H3  1  0.55395000  0.77007000  0.93238000  1.0
  H  H4  1  0.05395000  0.77007000  0.56762000  1.0
  H  H5  1  0.44605000  0.22993000  0.06763000  1.0
  H  H6  1  0.38958000  0.44632000  0.31985000  1.0
  H  H7  1  0.11042000  0.55368000  0.81985000  1.0
  H  H8  1  0.61042000  0.55368000  0.68015000  1.0
  H  H9  1  0.88958000  0.44632000  0.18015000  1.0
  H  H10  1  0.51349000  0.28780000  0.34101000  1.0
  H  H11  1  0.98651000  0.71220000  0.84101000  1.0
  H  H12  1  0.48651000  0.71220000  0.65899000  1.0
  H  H13  1  0.01349000  0.28780000  0.15899000  1.0
  H  H14  1  0.34341000  0.11026000  0.41149000  1.0
  H  H15  1  0.15660000  0.88974000  0.91149000  1.0
  H  H16  1  0.65660000  0.88974000  0.58852000  1.0
  H  H17  1  0.84341000  0.11026000  0.08851000  1.0
  H  H18  1  0.87007000  0.49278000  0.40005000  1.0
  H  H19  1  0.62993000  0.50722000  0.90005000  1.0
  H  H20  1  0.12993000  0.50722000  0.59995000  1.0
  H  H21  1  0.37007000  0.49278000  0.09995000  1.0
  H  H22  1  0.89935000  0.38872000  0.48522000  1.0
  H  H23  1  0.60065000  0.61128000  0.98522000  1.0
  H  H24  1  0.10065000  0.61128000  0.51478000  1.0
  H  H25  1  0.39934000  0.38872000  0.01478000  1.0
  H  H26  1  0.82399000  0.35163000  0.36073000  1.0
  H  H27  1  0.67601000  0.64837000  0.86073000  1.0
  H  H28  1  0.17601000  0.64837000  0.63927000  1.0
  H  H29  1  0.32398000  0.35163000  0.13927000  1.0
  H  H30  1  0.90285000  0.03314000  0.27927000  1.0
  H  H31  1  0.59715000  0.96687000  0.77927000  1.0
  H  H32  1  0.09715000  0.96686000  0.72073000  1.0
  H  H33  1  0.40284000  0.03313000  0.22073000  1.0
  H  H34  1  0.89185000  0.94768000  0.10570000  1.0
  H  H35  1  0.60814000  0.05231000  0.60570000  1.0
  H  H36  1  0.10814000  0.05231000  0.89430000  1.0
  H  H37  1  0.39186000  0.94769000  0.39430000  1.0
  H  H38  1  0.98200000  0.77796000  0.08498000  1.0
  H  H39  1  0.51800000  0.22204000  0.58498000  1.0
  H  H40  1  0.01800000  0.22203000  0.91502000  1.0
  H  H41  1  0.48200000  0.77797000  0.41502000  1.0
  H  H42  1  0.08968000  0.79612000  0.40892000  1.0
  H  H43  1  0.41032000  0.20388000  0.90892000  1.0
  H  H44  1  0.91032000  0.20388000  0.59108000  1.0
  H  H45  1  0.58969000  0.79612000  0.09108000  1.0
  H  H46  1  0.20923000  0.57572000  0.14880000  1.0
  H  H47  1  0.29077000  0.42428000  0.64881000  1.0
  H  H48  1  0.79076000  0.42428000  0.85119000  1.0
  H  H49  1  0.70924000  0.57572000  0.35119000  1.0
  H  H50  1  0.21199000  0.70656000  0.09423000  1.0
  H  H51  1  0.28801000  0.29344000  0.59423000  1.0
  H  H52  1  0.78801000  0.29343000  0.90577000  1.0
  H  H53  1  0.71199000  0.70656000  0.40577000  1.0
  H  H54  1  0.03302000  0.59595000  0.09111000  1.0
  H  H55  1  0.46699000  0.40405000  0.59111000  1.0
  H  H56  1  0.96698000  0.40405000  0.90888000  1.0
  H  H57  1  0.53302000  0.59595000  0.40889000  1.0
  C  C58  1  0.07269000  0.24644000  0.41282000  1.0
  C  C59  1  0.42732000  0.75356000  0.91282000  1.0
  C  C60  1  0.92731000  0.75355000  0.58718000  1.0
  C  C61  1  0.57269000  0.24645000  0.08718000  1.0
  C  C62  1  0.15798000  0.35080000  0.37592000  1.0
  C  C63  1  0.34202000  0.64920000  0.87592000  1.0
  C  C64  1  0.84202000  0.64920000  0.62408000  1.0
  C  C65  1  0.65798000  0.35080000  0.12408000  1.0
  C  C66  1  0.32038000  0.36646000  0.34944000  1.0
  C  C67  1  0.17962000  0.63354000  0.84945000  1.0
  C  C68  1  0.67962000  0.63354000  0.65056000  1.0
  C  C69  1  0.82038000  0.36647000  0.15056000  1.0
  C  C70  1  0.38835000  0.27994000  0.36075000  1.0
  C  C71  1  0.11165000  0.72006000  0.86076000  1.0
  C  C72  1  0.61165000  0.72006000  0.63925000  1.0
  C  C73  1  0.88835000  0.27994000  0.13925000  1.0
  C  C74  1  0.29358000  0.17931000  0.39908000  1.0
  C  C75  1  0.20643000  0.82070000  0.89908000  1.0
  C  C76  1  0.70643000  0.82070000  0.60093000  1.0
  C  C77  1  0.79357000  0.17931000  0.10093000  1.0
  C  C78  1  0.07729000  0.43872000  0.36667000  1.0
  C  C79  1  0.42272000  0.56128000  0.86667000  1.0
  C  C80  1  0.92271000  0.56128000  0.63333000  1.0
  C  C81  1  0.57728000  0.43872000  0.13333000  1.0
  C  C82  1  0.90792000  0.41738000  0.40512000  1.0
  C  C83  1  0.59208000  0.58262000  0.90513000  1.0
  C  C84  1  0.09208000  0.58262000  0.59487000  1.0
  C  C85  1  0.40792000  0.41738000  0.09487000  1.0
  C  C86  1  0.94127000  0.95906000  0.26771000  1.0
  C  C87  1  0.55874000  0.04095000  0.76771000  1.0
  C  C88  1  0.05874000  0.04094000  0.73229000  1.0
  C  C89  1  0.44126000  0.95905000  0.23229000  1.0
  C  C90  1  0.93551000  0.91093000  0.17125000  1.0
  C  C91  1  0.56450000  0.08907000  0.67126000  1.0
  C  C92  1  0.06449000  0.08906000  0.82874000  1.0
  C  C93  1  0.43551000  0.91094000  0.32875000  1.0
  C  C94  1  0.98591000  0.81629000  0.16024000  1.0
  C  C95  1  0.51409000  0.18371000  0.66024000  1.0
  C  C96  1  0.01409000  0.18371000  0.83976000  1.0
  C  C97  1  0.48591000  0.81629000  0.33976000  1.0
  C  C98  1  0.04017000  0.77116000  0.24693000  1.0
  C  C99  1  0.45982000  0.22883000  0.74693000  1.0
  C  C100  1  0.95982000  0.22883000  0.75307000  1.0
  C  C101  1  0.54018000  0.77117000  0.25307000  1.0
  C  C102  1  0.04370000  0.82653000  0.34062000  1.0
  C  C103  1  0.45631000  0.17347000  0.84062000  1.0
  C  C104  1  0.95630000  0.17347000  0.65938000  1.0
  C  C105  1  0.54370000  0.82653000  0.15938000  1.0
  C  C106  1  0.09392000  0.67074000  0.24031000  1.0
  C  C107  1  0.40607000  0.32926000  0.74031000  1.0
  C  C108  1  0.90607000  0.32926000  0.75969000  1.0
  C  C109  1  0.59393000  0.67074000  0.25969000  1.0
  C  C110  1  0.14001000  0.63526000  0.13771000  1.0
  C  C111  1  0.35999000  0.36474000  0.63771000  1.0
  C  C112  1  0.85999000  0.36474000  0.86229000  1.0
  C  C113  1  0.64001000  0.63526000  0.36229000  1.0
  N  N114  1  0.13810000  0.16269000  0.42542000  1.0
  N  N115  1  0.36190000  0.83731000  0.92542000  1.0
  N  N116  1  0.86190000  0.83731000  0.57458000  1.0
  N  N117  1  0.63810000  0.16269000  0.07459000  1.0
  N  N118  1  0.16020000  0.53080000  0.32484000  1.0
  N  N119  1  0.33980000  0.46920000  0.82484000  1.0
  N  N120  1  0.83980000  0.46920000  0.67516000  1.0
  N  N121  1  0.66019000  0.53080000  0.17516000  1.0
  N  N122  1  0.09752000  0.61759000  0.32530000  1.0
  N  N123  1  0.40248000  0.38241000  0.82530000  1.0
  N  N124  1  0.90248000  0.38241000  0.67470000  1.0
  N  N125  1  0.59751000  0.61759000  0.17470000  1.0
  N  N126  1  0.99529000  0.91761000  0.35130000  1.0
  N  N127  1  0.50472000  0.08240000  0.85130000  1.0
  N  N128  1  0.00471000  0.08239000  0.64870000  1.0
  N  N129  1  0.49528000  0.91761000  0.14870000  1.0
  N  N130  1  0.22910000  0.97477000  0.53209000  1.0
  N  N131  1  0.27090000  0.02523000  0.03210000  1.0
  N  N132  1  0.77090000  0.02523000  0.46790000  1.0
  N  N133  1  0.72910000  0.97477000  0.96791000  1.0
  N  N134  1  0.28025000  0.91085000  0.57945000  1.0
  N  N135  1  0.21975000  0.08915000  0.07945000  1.0
  N  N136  1  0.71975000  0.08915000  0.42055000  1.0
  N  N137  1  0.78025000  0.91085000  0.92055000  1.0
  N  N138  1  0.33503000  0.84942000  0.62493000  1.0
  N  N139  1  0.16496000  0.15058000  0.12493000  1.0
  N  N140  1  0.66496000  0.15058000  0.37507000  1.0
  N  N141  1  0.83503000  0.84941000  0.87507000  1.0
