# generated using pymatgen
data_Zn2H5C5N13O
_symmetry_space_group_name_H-M   'P 1'
_cell_length_a   10.94400000
_cell_length_b   11.11540000
_cell_length_c   11.91740000
_cell_angle_alpha   103.97200000
_cell_angle_beta   89.99990000
_cell_angle_gamma   89.99980000
_symmetry_Int_Tables_number   1
_chemical_formula_structural   Zn2H5C5N13O
_chemical_formula_sum   'Zn8 H20 C20 N52 O4'
_cell_volume   1406.82370170
_cell_formula_units_Z   4
loop_
 _symmetry_equiv_pos_site_id
 _symmetry_equiv_pos_as_xyz
  1  'x, y, z'
loop_
 _atom_site_type_symbol
 _atom_site_label
 _atom_site_symmetry_multiplicity
 _atom_site_fract_x
 _atom_site_fract_y
 _atom_site_fract_z
 _atom_site_occupancy
  Zn  Zn0  1  0.87770000  0.50115000  0.82852000  1.0
  Zn  Zn1  1  0.37770000  0.49886000  0.67148000  1.0
  Zn  Zn2  1  0.12230000  0.49885000  0.17148000  1.0
  Zn  Zn3  1  0.62230000  0.50115000  0.32852000  1.0
  Zn  Zn4  1  0.16961000  0.50953000  0.87062000  1.0
  Zn  Zn5  1  0.66961000  0.49047000  0.62938000  1.0
  Zn  Zn6  1  0.83039000  0.49047000  0.12937000  1.0
  Zn  Zn7  1  0.33039000  0.50953000  0.37063000  1.0
  H  H8  1  0.80822000  0.76232000  0.97827000  1.0
  H  H9  1  0.30822000  0.23769000  0.52173000  1.0
  H  H10  1  0.19178000  0.23768000  0.02174000  1.0
  H  H11  1  0.69178000  0.76231000  0.47827000  1.0
  H  H12  1  0.81011000  0.95782000  0.10813000  1.0
  H  H13  1  0.31011000  0.04219000  0.39187000  1.0
  H  H14  1  0.18989000  0.04218000  0.89186000  1.0
  H  H15  1  0.68989000  0.95781000  0.60814000  1.0
  H  H16  1  0.97636000  0.06260000  0.20063000  1.0
  H  H17  1  0.47636000  0.93740000  0.29938000  1.0
  H  H18  1  0.02364000  0.93740000  0.79936000  1.0
  H  H19  1  0.52364000  0.06260000  0.70063000  1.0
  H  H20  1  0.18417000  0.96202000  0.16344000  1.0
  H  H21  1  0.68417000  0.03797000  0.33656000  1.0
  H  H22  1  0.81584000  0.03798000  0.83655000  1.0
  H  H23  1  0.31583000  0.96203000  0.66344000  1.0
  H  H24  1  0.20025000  0.75052000  0.03076000  1.0
  H  H25  1  0.70025000  0.24948000  0.46924000  1.0
  H  H26  1  0.79975000  0.24948000  0.96923000  1.0
  H  H27  1  0.29975000  0.75053000  0.53076000  1.0
  C  C28  1  0.00711000  0.73634000  0.99067000  1.0
  C  C29  1  0.50711000  0.26366000  0.50934000  1.0
  C  C30  1  0.99289000  0.26365000  0.00933000  1.0
  C  C31  1  0.49289000  0.73634000  0.49067000  1.0
  C  C32  1  0.89487000  0.79990000  0.01559000  1.0
  C  C33  1  0.39487000  0.20010000  0.48442000  1.0
  C  C34  1  0.10513000  0.20010000  0.98441000  1.0
  C  C35  1  0.60514000  0.79990000  0.51559000  1.0
  C  C36  1  0.99112000  0.97252000  0.14231000  1.0
  C  C37  1  0.49112000  0.02748000  0.35769000  1.0
  C  C38  1  0.00889000  0.02748000  0.85768000  1.0
  C  C39  1  0.50888000  0.97253000  0.64231000  1.0
  C  C40  1  0.10398000  0.91465000  0.12041000  1.0
  C  C41  1  0.60398000  0.08534000  0.37960000  1.0
  C  C42  1  0.89603000  0.08535000  0.87958000  1.0
  C  C43  1  0.39602000  0.91466000  0.62041000  1.0
  C  C44  1  0.11230000  0.79785000  0.04659000  1.0
  C  C45  1  0.61230000  0.20215000  0.45341000  1.0
  C  C46  1  0.88771000  0.20215000  0.95340000  1.0
  C  C47  1  0.38770000  0.79785000  0.54659000  1.0
  N  N48  1  0.02845000  0.39549000  0.80130000  1.0
  N  N49  1  0.52845000  0.60451000  0.69870000  1.0
  N  N50  1  0.97155000  0.60451000  0.19870000  1.0
  N  N51  1  0.47155000  0.39549000  0.30131000  1.0
  N  N52  1  0.04123000  0.29467000  0.73404000  1.0
  N  N53  1  0.54122000  0.70533000  0.76596000  1.0
  N  N54  1  0.95877000  0.70533000  0.26596000  1.0
  N  N55  1  0.45877000  0.29467000  0.23404000  1.0
  N  N56  1  0.05547000  0.19876000  0.67157000  1.0
  N  N57  1  0.55547000  0.80124000  0.82843000  1.0
  N  N58  1  0.94453000  0.80124000  0.32843000  1.0
  N  N59  1  0.44454000  0.19876000  0.17157000  1.0
  N  N60  1  0.77156000  0.50598000  0.97183000  1.0
  N  N61  1  0.27156000  0.49402000  0.52818000  1.0
  N  N62  1  0.22844000  0.49402000  0.02817000  1.0
  N  N63  1  0.72844000  0.50598000  0.47183000  1.0
  N  N64  1  0.66783000  0.54593000  0.96465000  1.0
  N  N65  1  0.16783000  0.45407000  0.53535000  1.0
  N  N66  1  0.33218000  0.45406000  0.03535000  1.0
  N  N67  1  0.83217000  0.54593000  0.46465000  1.0
  N  N68  1  0.57134000  0.58429000  0.95666000  1.0
  N  N69  1  0.07134000  0.41571000  0.54334000  1.0
  N  N70  1  0.42865000  0.41571000  0.04334000  1.0
  N  N71  1  0.92866000  0.58429000  0.45666000  1.0
  N  N72  1  0.80684000  0.61338000  0.73301000  1.0
  N  N73  1  0.30684000  0.38662000  0.76699000  1.0
  N  N74  1  0.19315000  0.38661000  0.26699000  1.0
  N  N75  1  0.69315000  0.61338000  0.23301000  1.0
  N  N76  1  0.83212000  0.71544000  0.72097000  1.0
  N  N77  1  0.33212000  0.28456000  0.77902000  1.0
  N  N78  1  0.16787000  0.28456000  0.27903000  1.0
  N  N79  1  0.66787000  0.71544000  0.22098000  1.0
  N  N80  1  0.85254000  0.81311000  0.70647000  1.0
  N  N81  1  0.35254000  0.18689000  0.79353000  1.0
  N  N82  1  0.14746000  0.18689000  0.29353000  1.0
  N  N83  1  0.64746000  0.81311000  0.20647000  1.0
  N  N84  1  0.75741000  0.37172000  0.70946000  1.0
  N  N85  1  0.25742000  0.62829000  0.79054000  1.0
  N  N86  1  0.24258000  0.62829000  0.29054000  1.0
  N  N87  1  0.74258000  0.37171000  0.20946000  1.0
  N  N88  1  0.73401000  0.26475000  0.70562000  1.0
  N  N89  1  0.23402000  0.73525000  0.79438000  1.0
  N  N90  1  0.26598000  0.73524000  0.29438000  1.0
  N  N91  1  0.76598000  0.26476000  0.20562000  1.0
  N  N92  1  0.71332000  0.16137000  0.70205000  1.0
  N  N93  1  0.21332000  0.83863000  0.79795000  1.0
  N  N94  1  0.28669000  0.83864000  0.29795000  1.0
  N  N95  1  0.78669000  0.16136000  0.20205000  1.0
  N  N96  1  0.89220000  0.91305000  0.08935000  1.0
  N  N97  1  0.39220000  0.08695000  0.41066000  1.0
  N  N98  1  0.10781000  0.08695000  0.91065000  1.0
  N  N99  1  0.60780000  0.91305000  0.58935000  1.0
  O  O100  1  0.01379000  0.62601000  0.91993000  1.0
  O  O101  1  0.51379000  0.37400000  0.58007000  1.0
  O  O102  1  0.98621000  0.37399000  0.08006000  1.0
  O  O103  1  0.48621000  0.62601000  0.41994000  1.0
