# generated using pymatgen
data_SrH4C2(SO3)2
_symmetry_space_group_name_H-M   'P 1'
_cell_length_a   4.97436000
_cell_length_b   4.97435000
_cell_length_c   14.98270000
_cell_angle_alpha   87.18950000
_cell_angle_beta   87.18950000
_cell_angle_gamma   66.48880000
_symmetry_Int_Tables_number   1
_chemical_formula_structural   SrH4C2(SO3)2
_chemical_formula_sum   'Sr2 H8 C4 S4 O12'
_cell_volume   339.37264152
_cell_formula_units_Z   2
loop_
 _symmetry_equiv_pos_site_id
 _symmetry_equiv_pos_as_xyz
  1  'x, y, z'
loop_
 _atom_site_type_symbol
 _atom_site_label
 _atom_site_symmetry_multiplicity
 _atom_site_fract_x
 _atom_site_fract_y
 _atom_site_fract_z
 _atom_site_occupancy
  Sr  Sr0  1  0.03064000  0.96936000  0.25000000  1.0
  Sr  Sr1  1  0.96936000  0.03064000  0.75000000  1.0
  H  H2  1  0.33957000  0.31636000  0.53486000  1.0
  H  H3  1  0.68364000  0.66043000  0.96514000  1.0
  H  H4  1  0.66043000  0.68364000  0.46514000  1.0
  H  H5  1  0.31636000  0.33957000  0.03486000  1.0
  H  H6  1  0.16807000  0.12046000  0.47951000  1.0
  H  H7  1  0.87954000  0.83194000  0.02049000  1.0
  H  H8  1  0.83193000  0.87954000  0.52049000  1.0
  H  H9  1  0.12046000  0.16806000  0.97951000  1.0
  C  C10  1  0.37587000  0.14376000  0.48710000  1.0
  C  C11  1  0.85624000  0.62413000  0.01290000  1.0
  C  C12  1  0.62413000  0.85624000  0.51290000  1.0
  C  C13  1  0.14376000  0.37587000  0.98710000  1.0
  S  S14  1  0.45394000  0.28370000  0.38168000  1.0
  S  S15  1  0.71631000  0.54605000  0.11832000  1.0
  S  S16  1  0.54605000  0.71631000  0.61832000  1.0
  S  S17  1  0.28369000  0.45395000  0.88168000  1.0
  O  O18  1  0.45401000  0.08158000  0.31176000  1.0
  O  O19  1  0.91842000  0.54599000  0.18825000  1.0
  O  O20  1  0.54599000  0.91842000  0.68825000  1.0
  O  O21  1  0.08158000  0.45401000  0.81175000  1.0
  O  O22  1  0.75064000  0.28275000  0.38485000  1.0
  O  O23  1  0.71725000  0.24936000  0.11515000  1.0
  O  O24  1  0.24936000  0.71725000  0.61515000  1.0
  O  O25  1  0.28275000  0.75064000  0.88485000  1.0
  O  O26  1  0.22277000  0.57873000  0.37089000  1.0
  O  O27  1  0.42127000  0.77723000  0.12911000  1.0
  O  O28  1  0.77723000  0.42126000  0.62911000  1.0
  O  O29  1  0.57874000  0.22277000  0.87089000  1.0
