# generated using pymatgen
data_Zn2H23C45Br(NO9)2
_symmetry_space_group_name_H-M   'P 1'
_cell_length_a   16.51960000
_cell_length_b   17.90880000
_cell_length_c   33.20820000
_cell_angle_alpha   90.27190000
_cell_angle_beta   89.78060000
_cell_angle_gamma   89.97570000
_symmetry_Int_Tables_number   1
_chemical_formula_structural   Zn2H23C45Br(NO9)2
_chemical_formula_sum   'Zn4 H46 C90 Br2 N4 O36'
_cell_volume   9824.33657881
_cell_formula_units_Z   2
loop_
 _symmetry_equiv_pos_site_id
 _symmetry_equiv_pos_as_xyz
  1  'x, y, z'
loop_
 _atom_site_type_symbol
 _atom_site_label
 _atom_site_symmetry_multiplicity
 _atom_site_fract_x
 _atom_site_fract_y
 _atom_site_fract_z
 _atom_site_occupancy
  Zn  Zn0  1  0.58423000  0.49996000  0.50040000  1.0
  Zn  Zn1  1  0.41545000  0.49995000  0.50068000  1.0
  Zn  Zn2  1  0.41583000  0.50222000  0.96168000  1.0
  Zn  Zn3  1  0.58449000  0.50210000  0.96144000  1.0
  H  H4  1  0.28670000  0.58225000  0.54469000  1.0
  H  H5  1  0.28773000  0.41794000  0.45555000  1.0
  H  H6  1  0.71234000  0.58191000  0.54501000  1.0
  H  H7  1  0.71268000  0.41796000  0.45563000  1.0
  H  H8  1  0.63054000  0.73779000  0.50028000  1.0
  H  H9  1  0.36946000  0.73785000  0.50016000  1.0
  H  H10  1  0.63069000  0.26201000  0.49987000  1.0
  H  H11  1  0.36961000  0.26227000  0.49983000  1.0
  H  H12  1  0.36928000  0.50034000  0.62930000  1.0
  H  H13  1  0.29413000  0.50077000  0.69405000  1.0
  H  H14  1  0.62863000  0.50015000  0.62784000  1.0
  H  H15  1  0.63075000  0.50101000  0.83275000  1.0
  H  H16  1  0.70591000  0.50088000  0.76796000  1.0
  H  H17  1  0.37141000  0.50115000  0.83420000  1.0
  H  H18  1  0.36930000  0.50236000  0.09002000  1.0
  H  H19  1  0.63042000  0.50250000  0.08951000  1.0
  H  H20  1  0.36954000  0.50026000  0.37262000  1.0
  H  H21  1  0.63064000  0.50047000  0.37214000  1.0
  H  H22  1  0.71287000  0.58442000  0.91767000  1.0
  H  H23  1  0.71259000  0.42084000  0.00636000  1.0
  H  H24  1  0.28778000  0.58407000  0.91732000  1.0
  H  H25  1  0.28721000  0.42075000  0.00619000  1.0
  H  H26  1  0.36948000  0.74023000  0.96119000  1.0
  H  H27  1  0.63057000  0.73994000  0.96131000  1.0
  H  H28  1  0.36947000  0.26438000  0.96184000  1.0
  H  H29  1  0.63053000  0.26436000  0.96185000  1.0
  H  H30  1  0.07237000  0.40897000  0.45074000  1.0
  H  H31  1  0.07124000  0.59131000  0.54913000  1.0
  H  H32  1  0.92811000  0.40900000  0.45078000  1.0
  H  H33  1  0.92765000  0.59113000  0.54929000  1.0
  H  H34  1  0.36401000  0.93608000  0.49979000  1.0
  H  H35  1  0.63596000  0.93599000  0.49996000  1.0
  H  H36  1  0.36402000  0.06406000  0.50007000  1.0
  H  H37  1  0.63597000  0.06377000  0.50014000  1.0
  H  H38  1  0.63582000  0.50202000  0.19642000  1.0
  H  H39  1  0.36391000  0.50185000  0.19695000  1.0
  H  H40  1  0.63612000  0.50149000  0.26523000  1.0
  H  H41  1  0.36415000  0.50115000  0.26571000  1.0
  H  H42  1  0.92794000  0.41263000  0.01120000  1.0
  H  H43  1  0.92831000  0.59387000  0.91312000  1.0
  H  H44  1  0.07186000  0.41227000  0.01113000  1.0
  H  H45  1  0.07248000  0.59340000  0.91294000  1.0
  H  H46  1  0.63612000  0.93819000  0.96105000  1.0
  H  H47  1  0.36425000  0.93849000  0.96088000  1.0
  H  H48  1  0.63612000  0.06616000  0.96137000  1.0
  H  H49  1  0.36398000  0.06620000  0.96131000  1.0
  C  C50  1  0.50008000  0.64634000  0.50095000  1.0
  C  C51  1  0.49853000  0.50054000  0.57947000  1.0
  C  C52  1  0.50026000  0.35361000  0.49974000  1.0
  C  C53  1  0.50007000  0.49954000  0.42165000  1.0
  C  C54  1  0.49990000  0.64858000  0.96109000  1.0
  C  C55  1  0.50146000  0.50195000  0.88259000  1.0
  C  C56  1  0.49993000  0.35581000  0.96204000  1.0
  C  C57  1  0.49989000  0.50195000  0.04048000  1.0
  C  C58  1  0.25088000  0.54619000  0.52516000  1.0
  C  C59  1  0.16652000  0.54796000  0.52601000  1.0
  C  C60  1  0.12243000  0.50005000  0.50003000  1.0
  C  C61  1  0.16712000  0.45216000  0.47410000  1.0
  C  C62  1  0.25149000  0.45393000  0.47509000  1.0
  C  C63  1  0.03703000  0.50002000  0.50000000  1.0
  C  C64  1  0.96265000  0.50000000  0.50004000  1.0
  C  C65  1  0.87725000  0.49999000  0.50011000  1.0
  C  C66  1  0.83275000  0.54779000  0.52617000  1.0
  C  C67  1  0.74839000  0.54599000  0.52536000  1.0
  C  C68  1  0.74861000  0.45391000  0.47518000  1.0
  C  C69  1  0.83297000  0.45217000  0.47416000  1.0
  C  C70  1  0.50000000  0.73023000  0.50049000  1.0
  C  C71  1  0.57377000  0.76858000  0.50032000  1.0
  C  C72  1  0.57384000  0.84614000  0.50012000  1.0
  C  C73  1  0.49998000  0.88680000  0.50005000  1.0
  C  C74  1  0.42614000  0.84618000  0.50006000  1.0
  C  C75  1  0.42623000  0.76862000  0.50026000  1.0
  C  C76  1  0.49998000  0.96558000  0.49998000  1.0
  C  C77  1  0.49999000  0.03438000  0.49993000  1.0
  C  C78  1  0.50004000  0.11316000  0.49984000  1.0
  C  C79  1  0.57393000  0.15372000  0.49982000  1.0
  C  C80  1  0.57390000  0.23127000  0.49973000  1.0
  C  C81  1  0.50016000  0.26972000  0.49967000  1.0
  C  C82  1  0.42635000  0.23143000  0.49972000  1.0
  C  C83  1  0.42622000  0.15387000  0.49979000  1.0
  C  C84  1  0.42595000  0.50051000  0.64601000  1.0
  C  C85  1  0.42540000  0.50061000  0.68823000  1.0
  C  C86  1  0.35103000  0.50075000  0.71058000  1.0
  C  C87  1  0.57267000  0.50043000  0.64525000  1.0
  C  C88  1  0.57509000  0.50058000  0.68741000  1.0
  C  C89  1  0.64878000  0.50069000  0.71038000  1.0
  C  C90  1  0.57409000  0.50112000  0.81603000  1.0
  C  C91  1  0.57465000  0.50092000  0.77381000  1.0
  C  C92  1  0.64902000  0.50081000  0.75145000  1.0
  C  C93  1  0.42735000  0.50122000  0.81679000  1.0
  C  C94  1  0.42495000  0.50102000  0.77463000  1.0
  C  C95  1  0.35127000  0.50096000  0.75164000  1.0
  C  C96  1  0.49897000  0.50049000  0.62469000  1.0
  C  C97  1  0.50037000  0.50069000  0.70961000  1.0
  C  C98  1  0.50107000  0.50139000  0.83735000  1.0
  C  C99  1  0.49968000  0.50089000  0.75242000  1.0
  C  C100  1  0.49985000  0.50201000  0.08570000  1.0
  C  C101  1  0.42606000  0.50202000  0.10652000  1.0
  C  C102  1  0.42599000  0.50183000  0.14833000  1.0
  C  C103  1  0.49988000  0.50164000  0.17008000  1.0
  C  C104  1  0.57375000  0.50189000  0.14805000  1.0
  C  C105  1  0.57366000  0.50209000  0.10623000  1.0
  C  C106  1  0.49993000  0.50136000  0.21253000  1.0
  C  C107  1  0.50007000  0.50112000  0.24962000  1.0
  C  C108  1  0.50011000  0.50079000  0.29207000  1.0
  C  C109  1  0.42621000  0.50056000  0.31409000  1.0
  C  C110  1  0.42629000  0.50018000  0.35590000  1.0
  C  C111  1  0.50009000  0.49998000  0.37644000  1.0
  C  C112  1  0.57390000  0.50030000  0.35564000  1.0
  C  C113  1  0.57399000  0.50070000  0.31382000  1.0
  C  C114  1  0.74886000  0.54865000  0.93711000  1.0
  C  C115  1  0.83322000  0.55065000  0.93625000  1.0
  C  C116  1  0.87754000  0.50310000  0.96211000  1.0
  C  C117  1  0.83303000  0.45535000  0.98793000  1.0
  C  C118  1  0.74866000  0.45680000  0.98693000  1.0
  C  C119  1  0.96294000  0.50316000  0.96210000  1.0
  C  C120  1  0.03732000  0.50304000  0.96210000  1.0
  C  C121  1  0.12274000  0.50290000  0.96203000  1.0
  C  C122  1  0.16732000  0.55038000  0.93608000  1.0
  C  C123  1  0.25167000  0.54840000  0.93688000  1.0
  C  C124  1  0.25135000  0.45668000  0.98677000  1.0
  C  C125  1  0.16698000  0.45517000  0.98783000  1.0
  C  C126  1  0.50001000  0.73249000  0.96113000  1.0
  C  C127  1  0.42627000  0.77095000  0.96111000  1.0
  C  C128  1  0.42625000  0.84852000  0.96110000  1.0
  C  C129  1  0.50015000  0.88905000  0.96117000  1.0
  C  C130  1  0.57398000  0.84834000  0.96118000  1.0
  C  C131  1  0.57383000  0.77078000  0.96118000  1.0
  C  C132  1  0.50019000  0.96782000  0.96129000  1.0
  C  C133  1  0.50012000  0.03660000  0.96146000  1.0
  C  C134  1  0.50005000  0.11538000  0.96168000  1.0
  C  C135  1  0.42618000  0.15602000  0.96175000  1.0
  C  C136  1  0.42624000  0.23358000  0.96194000  1.0
  C  C137  1  0.49999000  0.27194000  0.96203000  1.0
  C  C138  1  0.57379000  0.23357000  0.96194000  1.0
  C  C139  1  0.57390000  0.15601000  0.96176000  1.0
  Br  Br140  1  0.24953000  0.50132000  0.77920000  1.0
  Br  Br141  1  0.75052000  0.50076000  0.68281000  1.0
  N  N142  1  0.29072000  0.50002000  0.50018000  1.0
  N  N143  1  0.70896000  0.49993000  0.50032000  1.0
  N  N144  1  0.70921000  0.50255000  0.96195000  1.0
  N  N145  1  0.29108000  0.50243000  0.96176000  1.0
  O  O146  1  0.56881000  0.61413000  0.50102000  1.0
  O  O147  1  0.43140000  0.61404000  0.50122000  1.0
  O  O148  1  0.42968000  0.50068000  0.56233000  1.0
  O  O149  1  0.56709000  0.50040000  0.56181000  1.0
  O  O150  1  0.43157000  0.38595000  0.50007000  1.0
  O  O151  1  0.56898000  0.38579000  0.49952000  1.0
  O  O152  1  0.56874000  0.49957000  0.43893000  1.0
  O  O153  1  0.43132000  0.49926000  0.43915000  1.0
  O  O154  1  0.43118000  0.61641000  0.96118000  1.0
  O  O155  1  0.56857000  0.61620000  0.96099000  1.0
  O  O156  1  0.57030000  0.50230000  0.89975000  1.0
  O  O157  1  0.43289000  0.50205000  0.90023000  1.0
  O  O158  1  0.56863000  0.38808000  0.96176000  1.0
  O  O159  1  0.43122000  0.38806000  0.96226000  1.0
  O  O160  1  0.43122000  0.50216000  0.02319000  1.0
  O  O161  1  0.56863000  0.50174000  0.02298000  1.0
  O  O162  1  0.13100000  0.40412000  0.44810000  1.0
  O  O163  1  0.12980000  0.59598000  0.55198000  1.0
  O  O164  1  0.86953000  0.40424000  0.44808000  1.0
  O  O165  1  0.86904000  0.59576000  0.55216000  1.0
  O  O166  1  0.35335000  0.88246000  0.49989000  1.0
  O  O167  1  0.64662000  0.88236000  0.50004000  1.0
  O  O168  1  0.35340000  0.11769000  0.49983000  1.0
  O  O169  1  0.64668000  0.11739000  0.49991000  1.0
  O  O170  1  0.64652000  0.50197000  0.16748000  1.0
  O  O171  1  0.35323000  0.50185000  0.16805000  1.0
  O  O172  1  0.64676000  0.50100000  0.29413000  1.0
  O  O173  1  0.35346000  0.50071000  0.29465000  1.0
  O  O174  1  0.86933000  0.40767000  0.01383000  1.0
  O  O175  1  0.86972000  0.59847000  0.91036000  1.0
  O  O176  1  0.13045000  0.40750000  0.01377000  1.0
  O  O177  1  0.13109000  0.59817000  0.91023000  1.0
  O  O178  1  0.64677000  0.88456000  0.96119000  1.0
  O  O179  1  0.35352000  0.88487000  0.96103000  1.0
  O  O180  1  0.64672000  0.11979000  0.96162000  1.0
  O  O181  1  0.35338000  0.11984000  0.96158000  1.0
