# generated using pymatgen
data_Al2H5C20S2Cl4O10F
_symmetry_space_group_name_H-M   'P 1'
_cell_length_a   6.62288000
_cell_length_b   11.04132435
_cell_length_c   12.71370000
_cell_angle_alpha   88.54295075
_cell_angle_beta   75.17410000
_cell_angle_gamma   73.82161129
_symmetry_Int_Tables_number   1
_chemical_formula_structural   Al2H5C20S2Cl4O10F
_chemical_formula_sum   'Al2 H5 C20 S2 Cl4 O10 F1'
_cell_volume   862.09714079
_cell_formula_units_Z   1
loop_
 _symmetry_equiv_pos_site_id
 _symmetry_equiv_pos_as_xyz
  1  'x, y, z'
loop_
 _atom_site_type_symbol
 _atom_site_label
 _atom_site_symmetry_multiplicity
 _atom_site_fract_x
 _atom_site_fract_y
 _atom_site_fract_z
 _atom_site_occupancy
  Al  Al0  1  0.99965000  0.50121000  0.49931000  1.0
  Al  Al1  1  0.50199000  0.49755000  0.49797000  1.0
  H  H2  1  0.35303000  0.35705000  0.41577000  1.0
  H  H3  1  0.63927000  0.65081000  0.56234000  1.0
  H  H4  1  0.74717000  0.55789000  0.85027000  1.0
  H  H5  1  0.53860000  0.23268000  0.65229000  1.0
  H  H6  1  0.79843000  0.76377000  0.64824000  1.0
  C  C7  1  0.86273000  0.27481000  0.50937000  1.0
  C  C8  1  0.83887000  0.50036000  0.30379000  1.0
  C  C9  1  0.14174000  0.72524000  0.49189000  1.0
  C  C10  1  0.16363000  0.50323000  0.69421000  1.0
  C  C11  1  0.10969000  0.47743000  0.11541000  1.0
  C  C12  1  0.89160000  0.53376000  0.88108000  1.0
  C  C13  1  0.90199000  0.50552000  0.18518000  1.0
  C  C14  1  0.10038000  0.50535000  0.81346000  1.0
  C  C15  1  0.89627000  0.52508000  0.99147000  1.0
  C  C16  1  0.10973000  0.48893000  0.00477000  1.0
  C  C17  1  0.93433000  0.13327000  0.50718000  1.0
  C  C18  1  0.80033000  0.06667000  0.57675000  1.0
  C  C19  1  0.12931000  0.06792000  0.43578000  1.0
  C  C20  1  0.59792000  0.13014000  0.64919000  1.0
  C  C21  1  0.47005000  0.06374000  0.71494000  1.0
  C  C22  1  0.07280000  0.86672000  0.49856000  1.0
  C  C23  1  0.19898000  0.93345000  0.43098000  1.0
  C  C24  1  0.87246000  0.93151000  0.57340000  1.0
  C  C25  1  0.74246000  0.86601000  0.64536000  1.0
  C  C26  1  0.54460000  0.92958000  0.71367000  1.0
  S  S27  1  0.70197000  0.54543000  0.11427000  1.0
  S  S28  1  0.30413000  0.46762000  0.88236000  1.0
  Cl  Cl29  1  0.43411000  0.85524000  0.33680000  1.0
  Cl  Cl30  1  0.28405000  0.14664000  0.34515000  1.0
  Cl  Cl31  1  0.22119000  0.14418000  0.79808000  1.0
  Cl  Cl32  1  0.38983000  0.84465000  0.79656000  1.0
  O  O33  1  0.98778000  0.33215000  0.53288000  1.0
  O  O34  1  0.63556000  0.51979000  0.34848000  1.0
  O  O35  1  0.32185000  0.67004000  0.51247000  1.0
  O  O36  1  0.01031000  0.53199000  0.64632000  1.0
  O  O37  1  0.00979000  0.67184000  0.46961000  1.0
  O  O38  1  0.36770000  0.47449000  0.64835000  1.0
  O  O39  1  0.68258000  0.32605000  0.48676000  1.0
  O  O40  1  0.99073000  0.47516000  0.35244000  1.0
  O  O41  1  0.29970000  0.43959000  0.45342000  1.0
  O  O42  1  0.69817000  0.56056000  0.54565000  1.0
  F  F43  1  0.29443000  0.43951000  0.14784000  1.0
