# generated using pymatgen
data_NaH6C4N5O4
_symmetry_space_group_name_H-M   'P 1'
_cell_length_a   6.25774000
_cell_length_b   8.30253000
_cell_length_c   15.24610000
_cell_angle_alpha   90.00100000
_cell_angle_beta   90.00590000
_cell_angle_gamma   74.52600000
_symmetry_Int_Tables_number   1
_chemical_formula_structural   NaH6C4N5O4
_chemical_formula_sum   'Na4 H24 C16 N20 O16'
_cell_volume   763.39946717
_cell_formula_units_Z   4
loop_
 _symmetry_equiv_pos_site_id
 _symmetry_equiv_pos_as_xyz
  1  'x, y, z'
loop_
 _atom_site_type_symbol
 _atom_site_label
 _atom_site_symmetry_multiplicity
 _atom_site_fract_x
 _atom_site_fract_y
 _atom_site_fract_z
 _atom_site_occupancy
  Na  Na0  1  0.78288000  0.95227000  0.94926000  1.0
  Na  Na1  1  0.71711000  0.04772000  0.44927000  1.0
  Na  Na2  1  0.21710000  0.04772000  0.05073000  1.0
  Na  Na3  1  0.28291000  0.95229000  0.55074000  1.0
  H  H4  1  0.17223000  0.78964000  0.76639000  1.0
  H  H5  1  0.32774000  0.21035000  0.26638000  1.0
  H  H6  1  0.82775000  0.21035000  0.23362000  1.0
  H  H7  1  0.67228000  0.78966000  0.73362000  1.0
  H  H8  1  0.17818000  0.99654000  0.85391000  1.0
  H  H9  1  0.32180000  0.00343000  0.35389000  1.0
  H  H10  1  0.82179000  0.00346000  0.14610000  1.0
  H  H11  1  0.67820000  0.99658000  0.64611000  1.0
  H  H12  1  0.98430000  0.05874000  0.78465000  1.0
  H  H13  1  0.51567000  0.94124000  0.28464000  1.0
  H  H14  1  0.01569000  0.94126000  0.21534000  1.0
  H  H15  1  0.48434000  0.05876000  0.71535000  1.0
  H  H16  1  0.80562000  0.29099000  0.03173000  1.0
  H  H17  1  0.69440000  0.70901000  0.53173000  1.0
  H  H18  1  0.19436000  0.70901000  0.96827000  1.0
  H  H19  1  0.30562000  0.29098000  0.46827000  1.0
  H  H20  1  0.85427000  0.28446000  0.93142000  1.0
  H  H21  1  0.64571000  0.71553000  0.43143000  1.0
  H  H22  1  0.14574000  0.71553000  0.06858000  1.0
  H  H23  1  0.35428000  0.28446000  0.56858000  1.0
  H  H24  1  0.30497000  0.36069000  0.98746000  1.0
  H  H25  1  0.19499000  0.63931000  0.48746000  1.0
  H  H26  1  0.69504000  0.63929000  0.01254000  1.0
  H  H27  1  0.80501000  0.36071000  0.51254000  1.0
  C  C28  1  0.27652000  0.53172000  0.80203000  1.0
  C  C29  1  0.22350000  0.46827000  0.30202000  1.0
  C  C30  1  0.72342000  0.46828000  0.19797000  1.0
  C  C31  1  0.77664000  0.53173000  0.69797000  1.0
  C  C32  1  0.32492000  0.38361000  0.74668000  1.0
  C  C33  1  0.17516000  0.61638000  0.24668000  1.0
  C  C34  1  0.67502000  0.61639000  0.25332000  1.0
  C  C35  1  0.82498000  0.38361000  0.75332000  1.0
  C  C36  1  0.35996000  0.22420000  0.87102000  1.0
  C  C37  1  0.14004000  0.77580000  0.37101000  1.0
  C  C38  1  0.64003000  0.77581000  0.12898000  1.0
  C  C39  1  0.85998000  0.22419000  0.62898000  1.0
  C  C40  1  0.25703000  0.60134000  0.66082000  1.0
  C  C41  1  0.24300000  0.39865000  0.16081000  1.0
  C  C42  1  0.74298000  0.39866000  0.33919000  1.0
  C  C43  1  0.75695000  0.60135000  0.83919000  1.0
  N  N44  1  0.23805000  0.66494000  0.74640000  1.0
  N  N45  1  0.26196000  0.33506000  0.24640000  1.0
  N  N46  1  0.76196000  0.33507000  0.25360000  1.0
  N  N47  1  0.73798000  0.66494000  0.75361000  1.0
  N  N48  1  0.27509000  0.52701000  0.88736000  1.0
  N  N49  1  0.22488000  0.47300000  0.38735000  1.0
  N  N50  1  0.72503000  0.47299000  0.11265000  1.0
  N  N51  1  0.77499000  0.52701000  0.61265000  1.0
  N  N52  1  0.31787000  0.36942000  0.91957000  1.0
  N  N53  1  0.18210000  0.63058000  0.41957000  1.0
  N  N54  1  0.68204000  0.63058000  0.08043000  1.0
  N  N55  1  0.81793000  0.36942000  0.58043000  1.0
  N  N56  1  0.36982000  0.23164000  0.78143000  1.0
  N  N57  1  0.13021000  0.76835000  0.28143000  1.0
  N  N58  1  0.63024000  0.76835000  0.21856000  1.0
  N  N59  1  0.86975000  0.23165000  0.71857000  1.0
  N  N60  1  0.31453000  0.42724000  0.66169000  1.0
  N  N61  1  0.18553000  0.57275000  0.16168000  1.0
  N  N62  1  0.68550000  0.57276000  0.33831000  1.0
  N  N63  1  0.81443000  0.42724000  0.83831000  1.0
  O  O64  1  0.05387000  0.96357000  0.82546000  1.0
  O  O65  1  0.44610000  0.03641000  0.32545000  1.0
  O  O66  1  0.94610000  0.03645000  0.17454000  1.0
  O  O67  1  0.55391000  0.96358000  0.67454000  1.0
  O  O68  1  0.86467000  0.21071000  0.98402000  1.0
  O  O69  1  0.63532000  0.78929000  0.48402000  1.0
  O  O70  1  0.13532000  0.78929000  0.01598000  1.0
  O  O71  1  0.36466000  0.21071000  0.51598000  1.0
  O  O72  1  0.38702000  0.08573000  0.91054000  1.0
  O  O73  1  0.11296000  0.91428000  0.41054000  1.0
  O  O74  1  0.61303000  0.91427000  0.08946000  1.0
  O  O75  1  0.88703000  0.08573000  0.58946000  1.0
  O  O76  1  0.22590000  0.69218000  0.59445000  1.0
  O  O77  1  0.27414000  0.30781000  0.09445000  1.0
  O  O78  1  0.77409000  0.30781000  0.40555000  1.0
  O  O79  1  0.72589000  0.69219000  0.90555000  1.0
