# generated using pymatgen
data_ZnH9C14NO5
_symmetry_space_group_name_H-M   'P 1'
_cell_length_a   8.68757000
_cell_length_b   13.08680000
_cell_length_c   34.59730000
_cell_angle_alpha   90.23470000
_cell_angle_beta   90.03560000
_cell_angle_gamma   89.96160000
_symmetry_Int_Tables_number   1
_chemical_formula_structural   ZnH9C14NO5
_chemical_formula_sum   'Zn4 H36 C56 N4 O20'
_cell_volume   3933.41858473
_cell_formula_units_Z   4
loop_
 _symmetry_equiv_pos_site_id
 _symmetry_equiv_pos_as_xyz
  1  'x, y, z'
loop_
 _atom_site_type_symbol
 _atom_site_label
 _atom_site_symmetry_multiplicity
 _atom_site_fract_x
 _atom_site_fract_y
 _atom_site_fract_z
 _atom_site_occupancy
  Zn  Zn0  1  0.34142000  0.99153000  0.49998000  1.0
  Zn  Zn1  1  0.64571000  0.00809000  0.50003000  1.0
  Zn  Zn2  1  0.74873000  0.98592000  0.00004000  1.0
  Zn  Zn3  1  0.44456000  0.00286000  0.00000000  1.0
  H  H4  1  0.41154000  0.00550000  0.11456000  1.0
  H  H5  1  0.37777000  0.00783000  0.18553000  1.0
  H  H6  1  0.87149000  0.99289000  0.19890000  1.0
  H  H7  1  0.22200000  0.99400000  0.30082000  1.0
  H  H8  1  0.71528000  0.00922000  0.31488000  1.0
  H  H9  1  0.67988000  0.00853000  0.38579000  1.0
  H  H10  1  0.72325000  0.99940000  0.25477000  1.0
  H  H11  1  0.37094000  0.99922000  0.24526000  1.0
  H  H12  1  0.41084000  0.99940000  0.88539000  1.0
  H  H13  1  0.37750000  0.00276000  0.81442000  1.0
  H  H14  1  0.87157000  0.99641000  0.80127000  1.0
  H  H15  1  0.22170000  0.99814000  0.69906000  1.0
  H  H16  1  0.71541000  0.00654000  0.68521000  1.0
  H  H17  1  0.68013000  0.00562000  0.61428000  1.0
  H  H18  1  0.72306000  0.99993000  0.74530000  1.0
  H  H19  1  0.37081000  0.00013000  0.75469000  1.0
  H  H20  1  0.34710000  0.66638000  0.50003000  1.0
  H  H21  1  0.83637000  0.70596000  0.49992000  1.0
  H  H22  1  0.76803000  0.33814000  0.50013000  1.0
  H  H23  1  0.27867000  0.29890000  0.50015000  1.0
  H  H24  1  0.74225000  0.66076000  0.00019000  1.0
  H  H25  1  0.25316000  0.70141000  0.00034000  1.0
  H  H26  1  0.32047000  0.33329000  0.00013000  1.0
  H  H27  1  0.80993000  0.29327000  0.00014000  1.0
  H  H28  1  0.94727000  0.98570000  0.09569000  1.0
  H  H29  1  0.02735000  0.98032000  0.14234000  1.0
  H  H30  1  0.14396000  0.98903000  0.40395000  1.0
  H  H31  1  0.06484000  0.98260000  0.35719000  1.0
  H  H32  1  0.94676000  0.98834000  0.90456000  1.0
  H  H33  1  0.02793000  0.98785000  0.85794000  1.0
  H  H34  1  0.14406000  0.99205000  0.59587000  1.0
  H  H35  1  0.06425000  0.98913000  0.64259000  1.0
  H  H36  1  0.19504000  0.55959000  0.50011000  1.0
  H  H37  1  0.91909000  0.44507000  0.50002000  1.0
  H  H38  1  0.89360000  0.55391000  0.00042000  1.0
  H  H39  1  0.16955000  0.44067000  0.00042000  1.0
  C  C40  1  0.56786000  0.80873000  0.49996000  1.0
  C  C41  1  0.42923000  0.99886000  0.42661000  1.0
  C  C42  1  0.54194000  0.19571000  0.50010000  1.0
  C  C43  1  0.42923000  0.99936000  0.57337000  1.0
  C  C44  1  0.52220000  0.80349000  0.00015000  1.0
  C  C45  1  0.66149000  0.99481000  0.07341000  1.0
  C  C46  1  0.54682000  0.19039000  0.00004000  1.0
  C  C47  1  0.66106000  0.99342000  0.92666000  1.0
  C  C48  1  0.65744000  0.99730000  0.11586000  1.0
  C  C49  1  0.51122000  0.00241000  0.13364000  1.0
  C  C50  1  0.49281000  0.00341000  0.17316000  1.0
  C  C51  1  0.62395000  0.99940000  0.19752000  1.0
  C  C52  1  0.76955000  0.99521000  0.18036000  1.0
  C  C53  1  0.79100000  0.99408000  0.13983000  1.0
  C  C54  1  0.61283000  0.99981000  0.23956000  1.0
  C  C55  1  0.48120000  0.00001000  0.26054000  1.0
  C  C56  1  0.32344000  0.99682000  0.31952000  1.0
  C  C57  1  0.46940000  0.00064000  0.30256000  1.0
  C  C58  1  0.59998000  0.00520000  0.32709000  1.0
  C  C59  1  0.58062000  0.00507000  0.36658000  1.0
  C  C60  1  0.43406000  0.00041000  0.38415000  1.0
  C  C61  1  0.30104000  0.99659000  0.36002000  1.0
  C  C62  1  0.65699000  0.99574000  0.88421000  1.0
  C  C63  1  0.51074000  0.99864000  0.86637000  1.0
  C  C64  1  0.49259000  0.00031000  0.82683000  1.0
  C  C65  1  0.62386000  0.99905000  0.80252000  1.0
  C  C66  1  0.76948000  0.99681000  0.81975000  1.0
  C  C67  1  0.79075000  0.99524000  0.86031000  1.0
  C  C68  1  0.61270000  0.00010000  0.76048000  1.0
  C  C69  1  0.48108000  0.00077000  0.73946000  1.0
  C  C70  1  0.32327000  0.99951000  0.68042000  1.0
  C  C71  1  0.46933000  0.00161000  0.69745000  1.0
  C  C72  1  0.60003000  0.00420000  0.67297000  1.0
  C  C73  1  0.58078000  0.00388000  0.63346000  1.0
  C  C74  1  0.43413000  0.00097000  0.61583000  1.0
  C  C75  1  0.30096000  0.99913000  0.63991000  1.0
  C  C76  1  0.46095000  0.63105000  0.50000000  1.0
  C  C77  1  0.73777000  0.65483000  0.49994000  1.0
  C  C78  1  0.76050000  0.55050000  0.49998000  1.0
  C  C79  1  0.63382000  0.48063000  0.50001000  1.0
  C  C80  1  0.65414000  0.37339000  0.50007000  1.0
  C  C81  1  0.37716000  0.35011000  0.50010000  1.0
  C  C82  1  0.35419000  0.45427000  0.50009000  1.0
  C  C83  1  0.48110000  0.52398000  0.50001000  1.0
  C  C84  1  0.58787000  0.69551000  0.49997000  1.0
  C  C85  1  0.52713000  0.30916000  0.50008000  1.0
  C  C86  1  0.62831000  0.62563000  0.00023000  1.0
  C  C87  1  0.35158000  0.65004000  0.00032000  1.0
  C  C88  1  0.32847000  0.54575000  0.00032000  1.0
  C  C89  1  0.45497000  0.47556000  0.00026000  1.0
  C  C90  1  0.43445000  0.36833000  0.00017000  1.0
  C  C91  1  0.71146000  0.34460000  0.00016000  1.0
  C  C92  1  0.73459000  0.44872000  0.00024000  1.0
  C  C93  1  0.60782000  0.51861000  0.00027000  1.0
  C  C94  1  0.50162000  0.69035000  0.00024000  1.0
  C  C95  1  0.56142000  0.30388000  0.00011000  1.0
  N  N96  1  0.93584000  0.99123000  0.12484000  1.0
  N  N97  1  0.15590000  0.99414000  0.37481000  1.0
  N  N98  1  0.93544000  0.99438000  0.87543000  1.0
  N  N99  1  0.15585000  0.99840000  0.62500000  1.0
  O  O100  1  0.43167000  0.84430000  0.50006000  1.0
  O  O101  1  0.69226000  0.86289000  0.49986000  1.0
  O  O102  1  0.55681000  0.00242000  0.44474000  1.0
  O  O103  1  0.29688000  0.99329000  0.44447000  1.0
  O  O104  1  0.67823000  0.15567000  0.50018000  1.0
  O  O105  1  0.41777000  0.14443000  0.50004000  1.0
  O  O106  1  0.29674000  0.99424000  0.55548000  1.0
  O  O107  1  0.55687000  0.00247000  0.55530000  1.0
  O  O108  1  0.65846000  0.83877000  0.99998000  1.0
  O  O109  1  0.39796000  0.85789000  0.00022000  1.0
  O  O110  1  0.53370000  0.99802000  0.05538000  1.0
  O  O111  1  0.79367000  0.98884000  0.05543000  1.0
  O  O112  1  0.41070000  0.15025000  0.99993000  1.0
  O  O113  1  0.67103000  0.13904000  0.00010000  1.0
  O  O114  1  0.79340000  0.98847000  0.94464000  1.0
  O  O115  1  0.53320000  0.99587000  0.94465000  1.0
  O  O116  1  0.20496000  0.48552000  0.50010000  1.0
  O  O117  1  0.90966000  0.51916000  0.50001000  1.0
  O  O118  1  0.88387000  0.47983000  0.00028000  1.0
  O  O119  1  0.17920000  0.51474000  0.00036000  1.0
