# generated using pymatgen
data_Sm2H16C28N4O17
_symmetry_space_group_name_H-M   'P 1'
_cell_length_a   10.45700000
_cell_length_b   12.07700000
_cell_length_c   12.68900000
_cell_angle_alpha   110.03800000
_cell_angle_beta   100.77000000
_cell_angle_gamma   90.62350000
_symmetry_Int_Tables_number   1
_chemical_formula_structural   Sm2H16C28N4O17
_chemical_formula_sum   'Sm4 H32 C56 N8 O34'
_cell_volume   1474.07962156
_cell_formula_units_Z   2
loop_
 _symmetry_equiv_pos_site_id
 _symmetry_equiv_pos_as_xyz
  1  'x, y, z'
loop_
 _atom_site_type_symbol
 _atom_site_label
 _atom_site_symmetry_multiplicity
 _atom_site_fract_x
 _atom_site_fract_y
 _atom_site_fract_z
 _atom_site_occupancy
  Sm  Sm0  1  0.99222000  0.32093000  0.88792000  1.0
  Sm  Sm1  1  0.00778000  0.67907000  0.11208000  1.0
  Sm  Sm2  1  0.14452000  0.06041000  0.64202000  1.0
  Sm  Sm3  1  0.85548000  0.93958000  0.35798000  1.0
  H  H4  1  0.66189000  0.22598000  0.88697000  1.0
  H  H5  1  0.33811000  0.77401000  0.11303000  1.0
  H  H6  1  0.87443000  0.86288000  0.87209000  1.0
  H  H7  1  0.12557000  0.13712000  0.12791000  1.0
  H  H8  1  0.63261000  0.86414000  0.87218000  1.0
  H  H9  1  0.36740000  0.13586000  0.12782000  1.0
  H  H10  1  0.52475000  0.05004000  0.88153000  1.0
  H  H11  1  0.47525000  0.94995000  0.11847000  1.0
  H  H12  1  0.27948000  0.87427000  0.72059000  1.0
  H  H13  1  0.72052000  0.12573000  0.27941000  1.0
  H  H14  1  0.21851000  0.95794000  0.81986000  1.0
  H  H15  1  0.78150000  0.04206000  0.18014000  1.0
  H  H16  1  0.21489000  0.51757000  0.79906000  1.0
  H  H17  1  0.78511000  0.48243000  0.20094000  1.0
  H  H18  1  0.54207000  0.31373000  0.83865000  1.0
  H  H19  1  0.45793000  0.68627000  0.16135000  1.0
  H  H20  1  0.60418000  0.69120000  0.93436000  1.0
  H  H21  1  0.39582000  0.30880000  0.06564000  1.0
  H  H22  1  0.64214000  0.29619000  0.67035000  1.0
  H  H23  1  0.35786000  0.70382000  0.32965000  1.0
  H  H24  1  0.40760000  0.26383000  0.55981000  1.0
  H  H25  1  0.59240000  0.73617000  0.44019000  1.0
  H  H26  1  0.52135000  0.95694000  0.31084000  1.0
  H  H27  1  0.47864000  0.04307000  0.68916000  1.0
  H  H28  1  0.34809000  0.09099000  0.37650000  1.0
  H  H29  1  0.65191000  0.90901000  0.62350000  1.0
  H  H30  1  0.22137000  0.39090000  0.57477000  1.0
  H  H31  1  0.77863000  0.60910000  0.42523000  1.0
  H  H32  1  0.13403000  0.58510000  0.34353000  1.0
  H  H33  1  0.86597000  0.41490000  0.65648000  1.0
  H  H34  1  0.99146000  0.21875000  0.23496000  1.0
  H  H35  1  0.00854000  0.78125000  0.76504000  1.0
  C  C36  1  0.70253000  0.14177000  0.87954000  1.0
  C  C37  1  0.29747000  0.85824000  0.12046000  1.0
  C  C38  1  0.88655000  0.03950000  0.86893000  1.0
  C  C39  1  0.11345000  0.96050000  0.13107000  1.0
  C  C40  1  0.82073000  0.93919000  0.87052000  1.0
  C  C41  1  0.17927000  0.06081000  0.12948000  1.0
  C  C42  1  0.68826000  0.94103000  0.87269000  1.0
  C  C43  1  0.31174000  0.05897000  0.12731000  1.0
  C  C44  1  0.62791000  0.04460000  0.87823000  1.0
  C  C45  1  0.37209000  0.95540000  0.12177000  1.0
  C  C46  1  0.28336000  0.29131000  0.77246000  1.0
  C  C47  1  0.71664000  0.70868000  0.22753000  1.0
  C  C48  1  0.83922000  0.16102000  0.60628000  1.0
  C  C49  1  0.16078000  0.83897000  0.39372000  1.0
  C  C50  1  0.69923000  0.14448000  0.54576000  1.0
  C  C51  1  0.30077000  0.85552000  0.45423000  1.0
  C  C52  1  0.31927000  0.51205000  0.82369000  1.0
  C  C53  1  0.68072000  0.48795000  0.17631000  1.0
  C  C54  1  0.36988000  0.40395000  0.81636000  1.0
  C  C55  1  0.63012000  0.59605000  0.18364000  1.0
  C  C56  1  0.50493000  0.39942000  0.84814000  1.0
  C  C57  1  0.49507000  0.60058000  0.15186000  1.0
  C  C58  1  0.59016000  0.50172000  0.89279000  1.0
  C  C59  1  0.40984000  0.49827000  0.10720000  1.0
  C  C60  1  0.40631000  0.61260000  0.86282000  1.0
  C  C61  1  0.59369000  0.38740000  0.13718000  1.0
  C  C62  1  0.73440000  0.49775000  0.93520000  1.0
  C  C63  1  0.26560000  0.50225000  0.06480000  1.0
  C  C64  1  0.53975000  0.61032000  0.90023000  1.0
  C  C65  1  0.46025000  0.38968000  0.09977000  1.0
  C  C66  1  0.60943000  0.22315000  0.58981000  1.0
  C  C67  1  0.39056000  0.77685000  0.41019000  1.0
  C  C68  1  0.48120000  0.20528000  0.52849000  1.0
  C  C69  1  0.51880000  0.79473000  0.47151000  1.0
  C  C70  1  0.54300000  0.03377000  0.38928000  1.0
  C  C71  1  0.45700000  0.96624000  0.61072000  1.0
  C  C72  1  0.44753000  0.10880000  0.42646000  1.0
  C  C73  1  0.55247000  0.89120000  0.57354000  1.0
  C  C74  1  0.08404000  0.18246000  0.43480000  1.0
  C  C75  1  0.91595000  0.81754000  0.56520000  1.0
  C  C76  1  0.10253000  0.29335000  0.40818000  1.0
  C  C77  1  0.89746000  0.70665000  0.59182000  1.0
  C  C78  1  0.17533000  0.39315000  0.49132000  1.0
  C  C79  1  0.82467000  0.60685000  0.50868000  1.0
  C  C80  1  0.06266000  0.39983000  0.27482000  1.0
  C  C81  1  0.93734000  0.60017000  0.72518000  1.0
  C  C82  1  0.12598000  0.50303000  0.36051000  1.0
  C  C83  1  0.87402000  0.49697000  0.63950000  1.0
  C  C84  1  0.04732000  0.29683000  0.30008000  1.0
  C  C85  1  0.95268000  0.70318000  0.69992000  1.0
  C  C86  1  0.18302000  0.49643000  0.46639000  1.0
  C  C87  1  0.81699000  0.50357000  0.53362000  1.0
  C  C88  1  0.02741000  0.04048000  0.86156000  1.0
  C  C89  1  0.97259000  0.95952000  0.13844000  1.0
  C  C90  1  0.01810000  0.39787000  0.15452000  1.0
  C  C91  1  0.98190000  0.60213000  0.84548000  1.0
  N  N92  1  0.82885000  0.13951000  0.87247000  1.0
  N  N93  1  0.17115000  0.86049000  0.12752000  1.0
  N  N94  1  0.66716000  0.05131000  0.44731000  1.0
  N  N95  1  0.33284000  0.94869000  0.55269000  1.0
  N  N96  1  0.35611000  0.72486000  0.86078000  1.0
  N  N97  1  0.64389000  0.27513000  0.13922000  1.0
  N  N98  1  0.25743000  0.60158000  0.55442000  1.0
  N  N99  1  0.74257000  0.39842000  0.44558000  1.0
  O  O100  1  0.15903000  0.29335000  0.75915000  1.0
  O  O101  1  0.84096000  0.70665000  0.24085000  1.0
  O  O102  1  0.33799000  0.19469000  0.74538000  1.0
  O  O103  1  0.66200000  0.80531000  0.25462000  1.0
  O  O104  1  0.91530000  0.08432000  0.56108000  1.0
  O  O105  1  0.08470000  0.91569000  0.43892000  1.0
  O  O106  1  0.87363000  0.24872000  0.69727000  1.0
  O  O107  1  0.12637000  0.75128000  0.30273000  1.0
  O  O108  1  0.23809000  0.72493000  0.82250000  1.0
  O  O109  1  0.76191000  0.27507000  0.17751000  1.0
  O  O110  1  0.79778000  0.59626000  0.99510000  1.0
  O  O111  1  0.20222000  0.40373000  0.00490000  1.0
  O  O112  1  0.78063000  0.39705000  0.90845000  1.0
  O  O113  1  0.21937000  0.60294000  0.09154000  1.0
  O  O114  1  0.43496000  0.81350000  0.89602000  1.0
  O  O115  1  0.56505000  0.18650000  0.10398000  1.0
  O  O116  1  0.07005000  0.12306000  0.82809000  1.0
  O  O117  1  0.92995000  0.87694000  0.17192000  1.0
  O  O118  1  0.16190000  0.17321000  0.52089000  1.0
  O  O119  1  0.83809000  0.82679000  0.47911000  1.0
  O  O120  1  0.99205000  0.10725000  0.36926000  1.0
  O  O121  1  0.00795000  0.89275000  0.63074000  1.0
  O  O122  1  0.35716000  0.58646000  0.61672000  1.0
  O  O123  1  0.64284000  0.41354000  0.38328000  1.0
  O  O124  1  0.21685000  0.69978000  0.56138000  1.0
  O  O125  1  0.78315000  0.30022000  0.43863000  1.0
  O  O126  1  0.09586000  0.96485000  0.88424000  1.0
  O  O127  1  0.90414000  0.03516000  0.11576000  1.0
  O  O128  1  0.27173000  0.95796000  0.76108000  1.0
  O  O129  1  0.72827000  0.04204000  0.23892000  1.0
  O  O130  1  0.00542000  0.29892000  0.07341000  1.0
  O  O131  1  0.99458000  0.70108000  0.92659000  1.0
  O  O132  1  0.99933000  0.49573000  0.13848000  1.0
  O  O133  1  0.00066000  0.50427000  0.86152000  1.0
