# generated using pymatgen
data_HgH3C5I2NCl2
_symmetry_space_group_name_H-M   'P 1'
_cell_length_a   4.30587000
_cell_length_b   15.30727053
_cell_length_c   18.29090000
_cell_angle_alpha   111.26475400
_cell_angle_beta   96.71670000
_cell_angle_gamma   97.98144017
_symmetry_Int_Tables_number   1
_chemical_formula_structural   HgH3C5I2NCl2
_chemical_formula_sum   'Hg4 H12 C20 I8 N4 Cl8'
_cell_volume   1094.17021548
_cell_formula_units_Z   4
loop_
 _symmetry_equiv_pos_site_id
 _symmetry_equiv_pos_as_xyz
  1  'x, y, z'
loop_
 _atom_site_type_symbol
 _atom_site_label
 _atom_site_symmetry_multiplicity
 _atom_site_fract_x
 _atom_site_fract_y
 _atom_site_fract_z
 _atom_site_occupancy
  Hg  Hg0  1  0.02689000  0.72946000  0.52052000  1.0
  Hg  Hg1  1  0.27834000  0.77108000  0.97930000  1.0
  Hg  Hg2  1  0.97308000  0.27053000  0.47948000  1.0
  Hg  Hg3  1  0.72165000  0.22892000  0.02071000  1.0
  H  H4  1  0.66237000  0.71651000  0.34630000  1.0
  H  H5  1  0.10035000  0.78389000  0.15338000  1.0
  H  H6  1  0.33763000  0.28347000  0.65369000  1.0
  H  H7  1  0.89960000  0.21611000  0.84663000  1.0
  H  H8  1  0.72539000  0.46103000  0.14772000  1.0
  H  H9  1  0.61865000  0.03805000  0.35232000  1.0
  H  H10  1  0.27471000  0.53897000  0.85227000  1.0
  H  H11  1  0.38131000  0.96195000  0.64768000  1.0
  H  H12  1  0.13596000  0.51808000  0.39247000  1.0
  H  H13  1  0.72455000  0.98244000  0.10745000  1.0
  H  H14  1  0.86406000  0.48191000  0.60752000  1.0
  H  H15  1  0.27543000  0.01756000  0.89255000  1.0
  C  C16  1  0.74037000  0.64843000  0.32177000  1.0
  C  C17  1  0.27086000  0.85180000  0.17798000  1.0
  C  C18  1  0.25963000  0.35156000  0.67823000  1.0
  C  C19  1  0.72911000  0.14821000  0.82204000  1.0
  C  C20  1  0.67561000  0.59289000  0.24001000  1.0
  C  C21  1  0.34403000  0.90687000  0.25980000  1.0
  C  C22  1  0.32443000  0.40710000  0.75998000  1.0
  C  C23  1  0.65590000  0.09313000  0.74020000  1.0
  C  C24  1  0.77442000  0.50549000  0.21125000  1.0
  C  C25  1  0.55890000  0.99405000  0.28871000  1.0
  C  C26  1  0.22563000  0.49451000  0.78874000  1.0
  C  C27  1  0.44107000  0.00596000  0.71130000  1.0
  C  C28  1  0.93921000  0.47754000  0.26673000  1.0
  C  C29  1  0.69521000  0.02229000  0.23326000  1.0
  C  C30  1  0.06080000  0.52246000  0.73326000  1.0
  C  C31  1  0.30476000  0.97771000  0.76674000  1.0
  C  C32  1  0.00318000  0.53710000  0.34770000  1.0
  C  C33  1  0.61809000  0.96320000  0.15220000  1.0
  C  C34  1  0.99683000  0.46290000  0.65230000  1.0
  C  C35  1  0.38189000  0.03680000  0.84781000  1.0
  I  I36  1  0.78486000  0.87638000  0.50796000  1.0
  I  I37  1  0.90486000  0.62425000  0.99231000  1.0
  I  I38  1  0.21520000  0.12362000  0.49204000  1.0
  I  I39  1  0.09513000  0.37575000  0.00769000  1.0
  I  I40  1  0.42571000  0.63604000  0.57447000  1.0
  I  I41  1  0.71518000  0.86371000  0.92459000  1.0
  I  I42  1  0.57432000  0.36396000  0.42553000  1.0
  I  I43  1  0.28482000  0.13629000  0.07541000  1.0
  N  N44  1  0.90288000  0.62020000  0.37335000  1.0
  N  N45  1  0.40923000  0.88028000  0.12642000  1.0
  N  N46  1  0.09713000  0.37979000  0.62665000  1.0
  N  N47  1  0.59075000  0.11972000  0.87359000  1.0
  Cl  Cl48  1  0.47526000  0.63264000  0.17486000  1.0
  Cl  Cl49  1  0.16998000  0.86679000  0.32488000  1.0
  Cl  Cl50  1  0.52479000  0.36736000  0.82514000  1.0
  Cl  Cl51  1  0.82998000  0.13323000  0.67513000  1.0
  Cl  Cl52  1  0.06335000  0.36976000  0.23610000  1.0
  Cl  Cl53  1  0.95776000  0.12981000  0.26404000  1.0
  Cl  Cl54  1  0.93670000  0.63025000  0.76389000  1.0
  Cl  Cl55  1  0.04220000  0.87019000  0.73597000  1.0
