# generated using pymatgen
data_CdH11C11(SN2)2
_symmetry_space_group_name_H-M   'P 1'
_cell_length_a   8.85462000
_cell_length_b   8.89598000
_cell_length_c   9.03708000
_cell_angle_alpha   75.85730000
_cell_angle_beta   85.31670000
_cell_angle_gamma   77.12500000
_symmetry_Int_Tables_number   1
_chemical_formula_structural   CdH11C11(SN2)2
_chemical_formula_sum   'Cd2 H22 C22 S4 N8'
_cell_volume   672.64596565
_cell_formula_units_Z   2
loop_
 _symmetry_equiv_pos_site_id
 _symmetry_equiv_pos_as_xyz
  1  'x, y, z'
loop_
 _atom_site_type_symbol
 _atom_site_label
 _atom_site_symmetry_multiplicity
 _atom_site_fract_x
 _atom_site_fract_y
 _atom_site_fract_z
 _atom_site_occupancy
  Cd  Cd0  1  0.19064000  0.88593000  0.26198000  1.0
  Cd  Cd1  1  0.80936000  0.11407000  0.73802000  1.0
  H  H2  1  0.07997000  0.59367000  0.37327000  1.0
  H  H3  1  0.92003000  0.40633000  0.62673000  1.0
  H  H4  1  0.11563000  0.44295000  0.26865000  1.0
  H  H5  1  0.88438000  0.55704000  0.73136000  1.0
  H  H6  1  0.14859000  0.39154000  0.46581000  1.0
  H  H7  1  0.85141000  0.60846000  0.53419000  1.0
  H  H8  1  0.45709000  0.26274000  0.31243000  1.0
  H  H9  1  0.54292000  0.73726000  0.68757000  1.0
  H  H10  1  0.76309000  0.27879000  0.24134000  1.0
  H  H11  1  0.23691000  0.72121000  0.75866000  1.0
  H  H12  1  0.78930000  0.47186000  0.14869000  1.0
  H  H13  1  0.21070000  0.52814000  0.85131000  1.0
  H  H14  1  0.81575000  0.39966000  0.34874000  1.0
  H  H15  1  0.18426000  0.60035000  0.65127000  1.0
  H  H16  1  0.58710000  0.79013000  0.37039000  1.0
  H  H17  1  0.41290000  0.20987000  0.62960000  1.0
  H  H18  1  0.72214000  0.69439000  0.25045000  1.0
  H  H19  1  0.27786000  0.30562000  0.74954000  1.0
  H  H20  1  0.45398000  0.73187000  0.01126000  1.0
  H  H21  1  0.54602000  0.26814000  0.98874000  1.0
  H  H22  1  0.62330000  0.05017000  0.21540000  1.0
  H  H23  1  0.37670000  0.94984000  0.78460000  1.0
  C  C24  1  0.15750000  0.48268000  0.36075000  1.0
  C  C25  1  0.84251000  0.51732000  0.63925000  1.0
  C  C26  1  0.32056000  0.50163000  0.32895000  1.0
  C  C27  1  0.67945000  0.49837000  0.67105000  1.0
  C  C28  1  0.45280000  0.38649000  0.30779000  1.0
  C  C29  1  0.54721000  0.61351000  0.69222000  1.0
  C  C30  1  0.57731000  0.46236000  0.28244000  1.0
  C  C31  1  0.42269000  0.53765000  0.71756000  1.0
  C  C32  1  0.74501000  0.40093000  0.25371000  1.0
  C  C33  1  0.25499000  0.59907000  0.74629000  1.0
  C  C34  1  0.59839000  0.74473000  0.26621000  1.0
  C  C35  1  0.40162000  0.25528000  0.73379000  1.0
  C  C36  1  0.54331000  0.87678000  0.12925000  1.0
  C  C37  1  0.45669000  0.12323000  0.87075000  1.0
  C  C38  1  0.47401000  0.84942000  0.00706000  1.0
  C  C39  1  0.52598000  0.15059000  0.99294000  1.0
  C  C40  1  0.56895000  0.02824000  0.12081000  1.0
  C  C41  1  0.43105000  0.97176000  0.87919000  1.0
  C  C42  1  0.14661000  0.07359000  0.54460000  1.0
  C  C43  1  0.85338000  0.92640000  0.45540000  1.0
  C  C44  1  0.00047000  0.81137000  0.98892000  1.0
  C  C45  1  0.99952000  0.18863000  0.01108000  1.0
  S  S46  1  0.31253000  0.99223000  0.47703000  1.0
  S  S47  1  0.68747000  0.00776000  0.52296000  1.0
  S  S48  1  0.86435000  0.80974000  0.87791000  1.0
  S  S49  1  0.13565000  0.19026000  0.12209000  1.0
  N  N50  1  0.10142000  0.80944000  0.06757000  1.0
  N  N51  1  0.89857000  0.19056000  0.93243000  1.0
  N  N52  1  0.51773000  0.61552000  0.28971000  1.0
  N  N53  1  0.48227000  0.38448000  0.71029000  1.0
  N  N54  1  0.36139000  0.64135000  0.31768000  1.0
  N  N55  1  0.63861000  0.35865000  0.68233000  1.0
  N  N56  1  0.02887000  0.13679000  0.59532000  1.0
  N  N57  1  0.97114000  0.86319000  0.40467000  1.0
