# generated using pymatgen
data_CdH22C28(NO5)2
_symmetry_space_group_name_H-M   'P 1'
_cell_length_a   8.88095000
_cell_length_b   11.39684654
_cell_length_c   14.80343979
_cell_angle_alpha   112.55216105
_cell_angle_beta   90.00757576
_cell_angle_gamma   112.92997635
_symmetry_Int_Tables_number   1
_chemical_formula_structural   CdH22C28(NO5)2
_chemical_formula_sum   'Cd2 H44 C56 N4 O20'
_cell_volume   1254.55461064
_cell_formula_units_Z   2
loop_
 _symmetry_equiv_pos_site_id
 _symmetry_equiv_pos_as_xyz
  1  'x, y, z'
loop_
 _atom_site_type_symbol
 _atom_site_label
 _atom_site_symmetry_multiplicity
 _atom_site_fract_x
 _atom_site_fract_y
 _atom_site_fract_z
 _atom_site_occupancy
  Cd  Cd0  1  0.08079000  0.00002000  0.75001000  1.0
  Cd  Cd1  1  0.91921000  0.99998000  0.24999000  1.0
  H  H2  1  0.25355000  0.62286000  0.75254000  1.0
  H  H3  1  0.63099000  0.37742000  0.74758000  1.0
  H  H4  1  0.74645000  0.37714000  0.24746000  1.0
  H  H5  1  0.36901000  0.62258000  0.25242000  1.0
  H  H6  1  0.45024000  0.64674000  0.02762000  1.0
  H  H7  1  0.80358000  0.35327000  0.47240000  1.0
  H  H8  1  0.54974000  0.35325000  0.97238000  1.0
  H  H9  1  0.19643000  0.64673000  0.52760000  1.0
  H  H10  1  0.31601000  0.97240000  0.02692000  1.0
  H  H11  1  0.34358000  0.02791000  0.47327000  1.0
  H  H12  1  0.68400000  0.02761000  0.97309000  1.0
  H  H13  1  0.65642000  0.97209000  0.52673000  1.0
  H  H14  1  0.90059000  0.41696000  0.82887000  1.0
  H  H15  1  0.48359000  0.58311000  0.67110000  1.0
  H  H16  1  0.09940000  0.58303000  0.17112000  1.0
  H  H17  1  0.51641000  0.41689000  0.32890000  1.0
  H  H18  1  0.11433000  0.40722000  0.08816000  1.0
  H  H19  1  0.70720000  0.59268000  0.41183000  1.0
  H  H20  1  0.88566000  0.59278000  0.91184000  1.0
  H  H21  1  0.29280000  0.40732000  0.58817000  1.0
  H  H22  1  0.13422000  0.19141000  0.97491000  1.0
  H  H23  1  0.94282000  0.80852000  0.52511000  1.0
  H  H24  1  0.86577000  0.80858000  0.02509000  1.0
  H  H25  1  0.05718000  0.19148000  0.47489000  1.0
  H  H26  1  0.00517000  0.15964000  0.65675000  1.0
  H  H27  1  0.84543000  0.84046000  0.84322000  1.0
  H  H28  1  0.99483000  0.84036000  0.34325000  1.0
  H  H29  1  0.15457000  0.15954000  0.15678000  1.0
  H  H30  1  0.85892000  0.23381000  0.66981000  1.0
  H  H31  1  0.62503000  0.76631000  0.83015000  1.0
  H  H32  1  0.14108000  0.76619000  0.33019000  1.0
  H  H33  1  0.37498000  0.23370000  0.16985000  1.0
  H  H34  1  0.80197000  0.07072000  0.67740000  1.0
  H  H35  1  0.73116000  0.92940000  0.82255000  1.0
  H  H36  1  0.19803000  0.92928000  0.32260000  1.0
  H  H37  1  0.26884000  0.07060000  0.17745000  1.0
  H  H38  1  0.40833000  0.34054000  0.83295000  1.0
  H  H39  1  0.06780000  0.65972000  0.66705000  1.0
  H  H40  1  0.59167000  0.65946000  0.16705000  1.0
  H  H41  1  0.93220000  0.34028000  0.33295000  1.0
  H  H42  1  0.48963000  0.85511000  0.17199000  1.0
  H  H43  1  0.63428000  0.14480000  0.32798000  1.0
  H  H44  1  0.51037000  0.14489000  0.82801000  1.0
  H  H45  1  0.36572000  0.85520000  0.67202000  1.0
  C  C46  1  0.28038000  0.80571000  0.88416000  1.0
  C  C47  1  0.47482000  0.19450000  0.61597000  1.0
  C  C48  1  0.71962000  0.19429000  0.11584000  1.0
  C  C49  1  0.52518000  0.80550000  0.38403000  1.0
  C  C50  1  0.29285000  0.67938000  0.83263000  1.0
  C  C51  1  0.61371000  0.32083000  0.66748000  1.0
  C  C52  1  0.70715000  0.32062000  0.16737000  1.0
  C  C53  1  0.38629000  0.67917000  0.33252000  1.0
  C  C54  1  0.35309000  0.62294000  0.88501000  1.0
  C  C55  1  0.73034000  0.37719000  0.61505000  1.0
  C  C56  1  0.64692000  0.37707000  0.11500000  1.0
  C  C57  1  0.26966000  0.62281000  0.38495000  1.0
  C  C58  1  0.40394000  0.69299000  0.98851000  1.0
  C  C59  1  0.71107000  0.30702000  0.51154000  1.0
  C  C60  1  0.59605000  0.30700000  0.01149000  1.0
  C  C61  1  0.28893000  0.69298000  0.48846000  1.0
  C  C62  1  0.39070000  0.81977000  0.04024000  1.0
  C  C63  1  0.57096000  0.18031000  0.45980000  1.0
  C  C64  1  0.60930000  0.18023000  0.95976000  1.0
  C  C65  1  0.42904000  0.81969000  0.54020000  1.0
  C  C66  1  0.32778000  0.87482000  0.98735000  1.0
  C  C67  1  0.45306000  0.12540000  0.51277000  1.0
  C  C68  1  0.67222000  0.12518000  0.01265000  1.0
  C  C69  1  0.54694000  0.87460000  0.48723000  1.0
  C  C70  1  0.21417000  0.86635000  0.82989000  1.0
  C  C71  1  0.34788000  0.13375000  0.67016000  1.0
  C  C72  1  0.78583000  0.13365000  0.17011000  1.0
  C  C73  1  0.65211000  0.86624000  0.32983000  1.0
  C  C74  1  0.35601000  0.48494000  0.82645000  1.0
  C  C75  1  0.87109000  0.51531000  0.67359000  1.0
  C  C76  1  0.64399000  0.51506000  0.17355000  1.0
  C  C77  1  0.12892000  0.48469000  0.32641000  1.0
  C  C78  1  0.96377000  0.24647000  0.80619000  1.0
  C  C79  1  0.71722000  0.75361000  0.69379000  1.0
  C  C80  1  0.03623000  0.75353000  0.19381000  1.0
  C  C81  1  0.28278000  0.24639000  0.30621000  1.0
  C  C82  1  0.95148000  0.37035000  0.86528000  1.0
  C  C83  1  0.58112000  0.62968000  0.63470000  1.0
  C  C84  1  0.04852000  0.62965000  0.13472000  1.0
  C  C85  1  0.41889000  0.37032000  0.36530000  1.0
  C  C86  1  0.00593000  0.43394000  0.96838000  1.0
  C  C87  1  0.57198000  0.56605000  0.53160000  1.0
  C  C88  1  0.99407000  0.56606000  0.03162000  1.0
  C  C89  1  0.42803000  0.43395000  0.46840000  1.0
  C  C90  1  0.07200000  0.36745000  0.00889000  1.0
  C  C91  1  0.70458000  0.63242000  0.49108000  1.0
  C  C92  1  0.92800000  0.63255000  0.99111000  1.0
  C  C93  1  0.29542000  0.36758000  0.50892000  1.0
  C  C94  1  0.08207000  0.24508000  0.94618000  1.0
  C  C95  1  0.83697000  0.75487000  0.55381000  1.0
  C  C96  1  0.91793000  0.75492000  0.05382000  1.0
  C  C97  1  0.16303000  0.24513000  0.44619000  1.0
  C  C98  1  0.90458000  0.17429000  0.69634000  1.0
  C  C99  1  0.73019000  0.82583000  0.80361000  1.0
  C  C100  1  0.09542000  0.82571000  0.30366000  1.0
  C  C101  1  0.26982000  0.17418000  0.19639000  1.0
  N  N102  1  0.02986000  0.18578000  0.84725000  1.0
  N  N103  1  0.84402000  0.81426000  0.65272000  1.0
  N  N104  1  0.97014000  0.81422000  0.15275000  1.0
  N  N105  1  0.15598000  0.18574000  0.34728000  1.0
  O  O106  1  0.17110000  0.96370000  0.87853000  1.0
  O  O107  1  0.20757000  0.03624000  0.62148000  1.0
  O  O108  1  0.82890000  0.03630000  0.12147000  1.0
  O  O109  1  0.79243000  0.96376000  0.37852000  1.0
  O  O110  1  0.20046000  0.81855000  0.73410000  1.0
  O  O111  1  0.38173000  0.18165000  0.76598000  1.0
  O  O112  1  0.79954000  0.18145000  0.26590000  1.0
  O  O113  1  0.61827000  0.81836000  0.23402000  1.0
  O  O114  1  0.30245000  0.41865000  0.73623000  1.0
  O  O115  1  0.88367000  0.58164000  0.76377000  1.0
  O  O116  1  0.69755000  0.58135000  0.26377000  1.0
  O  O117  1  0.11633000  0.41836000  0.23623000  1.0
  O  O118  1  0.42001000  0.43760000  0.87937000  1.0
  O  O119  1  0.98239000  0.56268000  0.62067000  1.0
  O  O120  1  0.57999000  0.56240000  0.12063000  1.0
  O  O121  1  0.01762000  0.43733000  0.37933000  1.0
  O  O122  1  0.43272000  0.89320000  0.14020000  1.0
  O  O123  1  0.53932000  0.10682000  0.35983000  1.0
  O  O124  1  0.56728000  0.10680000  0.85980000  1.0
  O  O125  1  0.46069000  0.89318000  0.64017000  1.0
