# generated using pymatgen
data_CdH14C14(SN2)2
_symmetry_space_group_name_H-M   'P 1'
_cell_length_a   5.60869000
_cell_length_b   11.44990000
_cell_length_c   12.89520000
_cell_angle_alpha   77.30100000
_cell_angle_beta   89.99640000
_cell_angle_gamma   89.99760000
_symmetry_Int_Tables_number   1
_chemical_formula_structural   CdH14C14(SN2)2
_chemical_formula_sum   'Cd2 H28 C28 S4 N8'
_cell_volume   807.85900847
_cell_formula_units_Z   2
loop_
 _symmetry_equiv_pos_site_id
 _symmetry_equiv_pos_as_xyz
  1  'x, y, z'
loop_
 _atom_site_type_symbol
 _atom_site_label
 _atom_site_symmetry_multiplicity
 _atom_site_fract_x
 _atom_site_fract_y
 _atom_site_fract_z
 _atom_site_occupancy
  Cd  Cd0  1  0.50008000  0.00000000  0.50000000  1.0
  Cd  Cd1  1  0.99990000  0.00001000  0.00001000  1.0
  H  H2  1  0.78200000  0.79536000  0.59500000  1.0
  H  H3  1  0.71799000  0.79539000  0.09500000  1.0
  H  H4  1  0.21805000  0.20461000  0.40501000  1.0
  H  H5  1  0.28196000  0.20459000  0.90501000  1.0
  H  H6  1  0.65992000  0.84904000  0.69251000  1.0
  H  H7  1  0.84006000  0.84907000  0.19251000  1.0
  H  H8  1  0.34009000  0.15094000  0.30751000  1.0
  H  H9  1  0.15989000  0.15091000  0.80750000  1.0
  H  H10  1  0.27335000  0.78690000  0.76748000  1.0
  H  H11  1  0.22664000  0.78689000  0.26749000  1.0
  H  H12  1  0.72667000  0.21311000  0.23250000  1.0
  H  H13  1  0.77334000  0.21311000  0.73251000  1.0
  H  H14  1  0.94832000  0.63684000  0.78117000  1.0
  H  H15  1  0.55169000  0.63683000  0.28115000  1.0
  H  H16  1  0.05168000  0.36316000  0.21883000  1.0
  H  H17  1  0.44830000  0.36318000  0.71884000  1.0
  H  H18  1  0.93266000  0.49899000  0.65729000  1.0
  H  H19  1  0.56737000  0.49899000  0.15727000  1.0
  H  H20  1  0.06735000  0.50101000  0.34270000  1.0
  H  H21  1  0.43264000  0.50103000  0.84272000  1.0
  H  H22  1  0.24776000  0.51200000  0.51759000  1.0
  H  H23  1  0.25224000  0.51200000  0.01759000  1.0
  H  H24  1  0.75224000  0.48801000  0.48240000  1.0
  H  H25  1  0.74777000  0.48802000  0.98241000  1.0
  H  H26  1  0.57354000  0.66192000  0.50395000  1.0
  H  H27  1  0.92644000  0.66191000  0.00396000  1.0
  H  H28  1  0.42650000  0.33807000  0.49605000  1.0
  H  H29  1  0.07354000  0.33808000  0.99604000  1.0
  C  C30  1  0.99017000  0.91224000  0.40376000  1.0
  C  C31  1  0.50984000  0.91224000  0.90377000  1.0
  C  C32  1  0.00997000  0.08774000  0.59627000  1.0
  C  C33  1  0.49004000  0.08778000  0.09626000  1.0
  C  C34  1  0.44650000  0.73155000  0.63603000  1.0
  C  C35  1  0.05348000  0.73155000  0.13605000  1.0
  C  C36  1  0.55352000  0.26844000  0.36396000  1.0
  C  C37  1  0.94650000  0.26844000  0.86395000  1.0
  C  C38  1  0.26876000  0.72576000  0.71341000  1.0
  C  C39  1  0.23123000  0.72576000  0.21342000  1.0
  C  C40  1  0.73126000  0.27423000  0.28657000  1.0
  C  C41  1  0.76875000  0.27424000  0.78658000  1.0
  C  C42  1  0.08520000  0.64209000  0.72031000  1.0
  C  C43  1  0.41482000  0.64207000  0.22032000  1.0
  C  C44  1  0.91484000  0.35791000  0.27967000  1.0
  C  C45  1  0.58518000  0.35794000  0.77968000  1.0
  C  C46  1  0.07599000  0.56446000  0.65044000  1.0
  C  C47  1  0.42402000  0.56446000  0.15043000  1.0
  C  C48  1  0.92402000  0.43555000  0.34953000  1.0
  C  C49  1  0.57599000  0.43556000  0.84955000  1.0
  C  C50  1  0.25327000  0.57136000  0.57308000  1.0
  C  C51  1  0.24670000  0.57135000  0.07309000  1.0
  C  C52  1  0.74676000  0.42864000  0.42691000  1.0
  C  C53  1  0.75329000  0.42866000  0.92691000  1.0
  C  C54  1  0.43795000  0.65417000  0.56579000  1.0
  C  C55  1  0.06203000  0.65417000  0.06580000  1.0
  C  C56  1  0.56209000  0.34583000  0.43420000  1.0
  C  C57  1  0.93795000  0.34584000  0.93420000  1.0
  S  S58  1  0.73430000  0.92051000  0.34202000  1.0
  S  S59  1  0.76569000  0.92051000  0.84203000  1.0
  S  S60  1  0.26583000  0.07948000  0.65800000  1.0
  S  S61  1  0.23414000  0.07951000  0.15800000  1.0
  N  N62  1  0.82782000  0.09530000  0.54910000  1.0
  N  N63  1  0.67212000  0.09531000  0.04907000  1.0
  N  N64  1  0.17231000  0.90469000  0.45092000  1.0
  N  N65  1  0.32768000  0.90472000  0.95094000  1.0
  N  N66  1  0.62498000  0.82140000  0.62331000  1.0
  N  N67  1  0.87501000  0.82141000  0.12331000  1.0
  N  N68  1  0.37508000  0.17858000  0.37670000  1.0
  N  N69  1  0.12494000  0.17857000  0.87670000  1.0
