# generated using pymatgen
data_RbH13C17SO9
_symmetry_space_group_name_H-M   'P 1'
_cell_length_a   6.03134000
_cell_length_b   11.51720000
_cell_length_c   12.66320000
_cell_angle_alpha   91.03970000
_cell_angle_beta   98.36470000
_cell_angle_gamma   91.57900000
_symmetry_Int_Tables_number   1
_chemical_formula_structural   RbH13C17SO9
_chemical_formula_sum   'Rb2 H26 C34 S2 O18'
_cell_volume   869.73219708
_cell_formula_units_Z   2
loop_
 _symmetry_equiv_pos_site_id
 _symmetry_equiv_pos_as_xyz
  1  'x, y, z'
loop_
 _atom_site_type_symbol
 _atom_site_label
 _atom_site_symmetry_multiplicity
 _atom_site_fract_x
 _atom_site_fract_y
 _atom_site_fract_z
 _atom_site_occupancy
  Rb  Rb0  1  0.27789000  0.13732000  0.03932000  1.0
  Rb  Rb1  1  0.72210000  0.86269000  0.96068000  1.0
  H  H2  1  0.92253000  0.78652000  0.70031000  1.0
  H  H3  1  0.07747000  0.21347000  0.29969000  1.0
  H  H4  1  0.94786000  0.71439000  0.21693000  1.0
  H  H5  1  0.05211000  0.28562000  0.78306000  1.0
  H  H6  1  0.15390000  0.93652000  0.49404000  1.0
  H  H7  1  0.84607000  0.06349000  0.50596000  1.0
  H  H8  1  0.44573000  0.02719000  0.40349000  1.0
  H  H9  1  0.55425000  0.97281000  0.59651000  1.0
  H  H10  1  0.78611000  0.00811000  0.32119000  1.0
  H  H11  1  0.21392000  0.99189000  0.67881000  1.0
  H  H12  1  0.60589000  0.12710000  0.28842000  1.0
  H  H13  1  0.39412000  0.87290000  0.71158000  1.0
  H  H14  1  0.78368000  0.07899000  0.19598000  1.0
  H  H15  1  0.21632000  0.92102000  0.80402000  1.0
  H  H16  1  0.62923000  0.71567000  0.26510000  1.0
  H  H17  1  0.37077000  0.28433000  0.73490000  1.0
  H  H18  1  0.16413000  0.55832000  0.47166000  1.0
  H  H19  1  0.83588000  0.44166000  0.52835000  1.0
  H  H20  1  0.59555000  0.57439000  0.96636000  1.0
  H  H21  1  0.40444000  0.42561000  0.03365000  1.0
  H  H22  1  0.79165000  0.59807000  0.87527000  1.0
  H  H23  1  0.20835000  0.40193000  0.12473000  1.0
  H  H24  1  0.60671000  0.47132000  0.85918000  1.0
  H  H25  1  0.39329000  0.52868000  0.14083000  1.0
  H  H26  1  0.15382000  0.54441000  0.75533000  1.0
  H  H27  1  0.84617000  0.45559000  0.24467000  1.0
  C  C28  1  0.21336000  0.83601000  0.20646000  1.0
  C  C29  1  0.78665000  0.16400000  0.79354000  1.0
  C  C30  1  0.05010000  0.78501000  0.25900000  1.0
  C  C31  1  0.94989000  0.21499000  0.74099000  1.0
  C  C32  1  0.02134000  0.82050000  0.36302000  1.0
  C  C33  1  0.97865000  0.17951000  0.63698000  1.0
  C  C34  1  0.16936000  0.90794000  0.41333000  1.0
  C  C35  1  0.83065000  0.09207000  0.58666000  1.0
  C  C36  1  0.33553000  0.95922000  0.36198000  1.0
  C  C37  1  0.66447000  0.04078000  0.63802000  1.0
  C  C38  1  0.35868000  0.92485000  0.25775000  1.0
  C  C39  1  0.64132000  0.07516000  0.74225000  1.0
  C  C40  1  0.68175000  0.05115000  0.25630000  1.0
  C  C41  1  0.31825000  0.94885000  0.74370000  1.0
  C  C42  1  0.65643000  0.71622000  0.35217000  1.0
  C  C43  1  0.34357000  0.28377000  0.64783000  1.0
  C  C44  1  0.83987000  0.76718000  0.41430000  1.0
  C  C45  1  0.16012000  0.23282000  0.58569000  1.0
  C  C46  1  0.84345000  0.76563000  0.52938000  1.0
  C  C47  1  0.15655000  0.23436000  0.47062000  1.0
  C  C48  1  0.65707000  0.70722000  0.56748000  1.0
  C  C49  1  0.34294000  0.29276000  0.43252000  1.0
  C  C50  1  0.47989000  0.65503000  0.49637000  1.0
  C  C51  1  0.52014000  0.34496000  0.50363000  1.0
  C  C52  1  0.29843000  0.59674000  0.52950000  1.0
  C  C53  1  0.70159000  0.40323000  0.47050000  1.0
  C  C54  1  0.29764000  0.58973000  0.63936000  1.0
  C  C55  1  0.70235000  0.41027000  0.36065000  1.0
  C  C56  1  0.47315000  0.63890000  0.71440000  1.0
  C  C57  1  0.52685000  0.36109000  0.28560000  1.0
  C  C58  1  0.65041000  0.69982000  0.67928000  1.0
  C  C59  1  0.34960000  0.30017000  0.32071000  1.0
  C  C60  1  0.62417000  0.56331000  0.88357000  1.0
  C  C61  1  0.37584000  0.43669000  0.11644000  1.0
  S  S62  1  0.24800000  0.78040000  0.07701000  1.0
  S  S63  1  0.75199000  0.21961000  0.92299000  1.0
  O  O64  1  0.23165000  0.88191000  0.00594000  1.0
  O  O65  1  0.76832000  0.11810000  0.99405000  1.0
  O  O66  1  0.47268000  0.73113000  0.09082000  1.0
  O  O67  1  0.52731000  0.26889000  0.90917000  1.0
  O  O68  1  0.06442000  0.69512000  0.04771000  1.0
  O  O69  1  0.93557000  0.30489000  0.95229000  1.0
  O  O70  1  0.51466000  0.97118000  0.20126000  1.0
  O  O71  1  0.48534000  0.02882000  0.79873000  1.0
  O  O72  1  0.00169000  0.81194000  0.59588000  1.0
  O  O73  1  0.99832000  0.18806000  0.40412000  1.0
  O  O74  1  0.48355000  0.66142000  0.38849000  1.0
  O  O75  1  0.51646000  0.33857000  0.61152000  1.0
  O  O76  1  0.81338000  0.75282000  0.74957000  1.0
  O  O77  1  0.18662000  0.24718000  0.25044000  1.0
  O  O78  1  0.45079000  0.63008000  0.82084000  1.0
  O  O79  1  0.54921000  0.36991000  0.17916000  1.0
  O  O80  1  0.12427000  0.53449000  0.67705000  1.0
  O  O81  1  0.87574000  0.46550000  0.32296000  1.0
