# generated using pymatgen
data_AsH10PbC15NO12
_symmetry_space_group_name_H-M   'P 1'
_cell_length_a   5.07980000
_cell_length_b   11.94410000
_cell_length_c   14.95200000
_cell_angle_alpha   99.06480000
_cell_angle_beta   94.94270000
_cell_angle_gamma   97.90190000
_symmetry_Int_Tables_number   1
_chemical_formula_structural   AsH10PbC15NO12
_chemical_formula_sum   'As2 H20 Pb2 C30 N2 O24'
_cell_volume   881.94844137
_cell_formula_units_Z   2
loop_
 _symmetry_equiv_pos_site_id
 _symmetry_equiv_pos_as_xyz
  1  'x, y, z'
loop_
 _atom_site_type_symbol
 _atom_site_label
 _atom_site_symmetry_multiplicity
 _atom_site_fract_x
 _atom_site_fract_y
 _atom_site_fract_z
 _atom_site_occupancy
  As  As0  1  0.00156000  0.13814000  0.42816000  1.0
  As  As1  1  0.99844000  0.86186000  0.57184000  1.0
  H  H2  1  0.41666000  0.33438000  0.22865000  1.0
  H  H3  1  0.58335000  0.66561000  0.77135000  1.0
  H  H4  1  0.24479000  0.38137000  0.44435000  1.0
  H  H5  1  0.75520000  0.61862000  0.55565000  1.0
  H  H6  1  0.54260000  0.16727000  0.29399000  1.0
  H  H7  1  0.45739000  0.83273000  0.70601000  1.0
  H  H8  1  0.87132000  0.26406000  0.11404000  1.0
  H  H9  1  0.12868000  0.73594000  0.88596000  1.0
  H  H10  1  0.95842000  0.31142000  0.83750000  1.0
  H  H11  1  0.04159000  0.68858000  0.16250000  1.0
  H  H12  1  0.37412000  0.07022000  0.95588000  1.0
  H  H13  1  0.62589000  0.92978000  0.04412000  1.0
  H  H14  1  0.79802000  0.61011000  0.28313000  1.0
  H  H15  1  0.20198000  0.38988000  0.71687000  1.0
  H  H16  1  0.56721000  0.50068000  0.92829000  1.0
  H  H17  1  0.43279000  0.49932000  0.07170000  1.0
  H  H18  1  0.45633000  0.99483000  0.15708000  1.0
  H  H19  1  0.54366000  0.00518000  0.84292000  1.0
  H  H20  1  0.12001000  0.06824000  0.28430000  1.0
  H  H21  1  0.87999000  0.93176000  0.71570000  1.0
  Pb  Pb22  1  0.54079000  0.12590000  0.61259000  1.0
  Pb  Pb23  1  0.45920000  0.87410000  0.38741000  1.0
  C  C24  1  0.59709000  0.34305000  0.27564000  1.0
  C  C25  1  0.40291000  0.65695000  0.72436000  1.0
  C  C26  1  0.75578000  0.45234000  0.29852000  1.0
  C  C27  1  0.24421000  0.54766000  0.70148000  1.0
  C  C28  1  0.99340000  0.46285000  0.35914000  1.0
  C  C29  1  0.00659000  0.53715000  0.64086000  1.0
  C  C30  1  0.06446000  0.36923000  0.39670000  1.0
  C  C31  1  0.93554000  0.63077000  0.60330000  1.0
  C  C32  1  0.90256000  0.26392000  0.37268000  1.0
  C  C33  1  0.09744000  0.73608000  0.62732000  1.0
  C  C34  1  0.66889000  0.25057000  0.31179000  1.0
  C  C35  1  0.33110000  0.74942000  0.68821000  1.0
  C  C36  1  0.95778000  0.24250000  0.05057000  1.0
  C  C37  1  0.04222000  0.75750000  0.94943000  1.0
  C  C38  1  0.89822000  0.29726000  0.97683000  1.0
  C  C39  1  0.10179000  0.70274000  0.02317000  1.0
  C  C40  1  0.00705000  0.26911000  0.89478000  1.0
  C  C41  1  0.99295000  0.73089000  0.10522000  1.0
  C  C42  1  0.17825000  0.18656000  0.88583000  1.0
  C  C43  1  0.82176000  0.81345000  0.11417000  1.0
  C  C44  1  0.24047000  0.13379000  0.96025000  1.0
  C  C45  1  0.75954000  0.86622000  0.03976000  1.0
  C  C46  1  0.13106000  0.16132000  0.04228000  1.0
  C  C47  1  0.86894000  0.83868000  0.95772000  1.0
  C  C48  1  0.20274000  0.10440000  0.12086000  1.0
  C  C49  1  0.79726000  0.89560000  0.87914000  1.0
  C  C50  1  0.72127000  0.38651000  0.98755000  1.0
  C  C51  1  0.27874000  0.61349000  0.01244000  1.0
  C  C52  1  0.29236000  0.15785000  0.79684000  1.0
  C  C53  1  0.70765000  0.84216000  0.20316000  1.0
  N  N54  1  0.16840000  0.57025000  0.38471000  1.0
  N  N55  1  0.83160000  0.42975000  0.61529000  1.0
  O  O56  1  0.11788000  0.65183000  0.34454000  1.0
  O  O57  1  0.88212000  0.34816000  0.65546000  1.0
  O  O58  1  0.35995000  0.58036000  0.44373000  1.0
  O  O59  1  0.64005000  0.41964000  0.55626000  1.0
  O  O60  1  0.66843000  0.53776000  0.26310000  1.0
  O  O61  1  0.33157000  0.46223000  0.73690000  1.0
  O  O62  1  0.69528000  0.44021000  0.91754000  1.0
  O  O63  1  0.30472000  0.55979000  0.08246000  1.0
  O  O64  1  0.61061000  0.40717000  0.05849000  1.0
  O  O65  1  0.38939000  0.59284000  0.94151000  1.0
  O  O66  1  0.23804000  0.21374000  0.73432000  1.0
  O  O67  1  0.76197000  0.78626000  0.26568000  1.0
  O  O68  1  0.44093000  0.07856000  0.78576000  1.0
  O  O69  1  0.55908000  0.92144000  0.21425000  1.0
  O  O70  1  0.39805000  0.04431000  0.10788000  1.0
  O  O71  1  0.60194000  0.95569000  0.89211000  1.0
  O  O72  1  0.08588000  0.11634000  0.19087000  1.0
  O  O73  1  0.91413000  0.88366000  0.80913000  1.0
  O  O74  1  0.72457000  0.05807000  0.45576000  1.0
  O  O75  1  0.27542000  0.94192000  0.54424000  1.0
  O  O76  1  0.22668000  0.19678000  0.51828000  1.0
  O  O77  1  0.77331000  0.80322000  0.48173000  1.0
  O  O78  1  0.14039000  0.04498000  0.34674000  1.0
  O  O79  1  0.85962000  0.95502000  0.65326000  1.0
