# generated using pymatgen
data_ZnH19C17NO10F3
_symmetry_space_group_name_H-M   'P 1'
_cell_length_a   9.95757000
_cell_length_b   10.93720000
_cell_length_c   11.02510000
_cell_angle_alpha   107.24260000
_cell_angle_beta   92.51240000
_cell_angle_gamma   94.19260000
_symmetry_Int_Tables_number   1
_chemical_formula_structural   ZnH19C17NO10F3
_chemical_formula_sum   'Zn2 H38 C34 N2 O20 F6'
_cell_volume   1140.98166465
_cell_formula_units_Z   2
loop_
 _symmetry_equiv_pos_site_id
 _symmetry_equiv_pos_as_xyz
  1  'x, y, z'
loop_
 _atom_site_type_symbol
 _atom_site_label
 _atom_site_symmetry_multiplicity
 _atom_site_fract_x
 _atom_site_fract_y
 _atom_site_fract_z
 _atom_site_occupancy
  Zn  Zn0  1  0.64804000  0.52905000  0.52482000  1.0
  Zn  Zn1  1  0.36544000  0.49324000  0.49126000  1.0
  H  H2  1  0.54698000  0.85301000  0.32727000  1.0
  H  H3  1  0.37476000  0.82008000  0.34488000  1.0
  H  H4  1  0.74771000  0.89923000  0.33560000  1.0
  H  H5  1  0.70480000  0.74971000  0.37013000  1.0
  H  H6  1  0.87278000  0.82231000  0.39956000  1.0
  H  H7  1  0.07794000  0.96943000  0.48905000  1.0
  H  H8  1  0.10718000  0.96445000  0.64761000  1.0
  H  H9  1  0.06193000  0.81870000  0.52327000  1.0
  H  H10  1  0.82393000  0.91919000  0.74541000  1.0
  H  H11  1  0.75240000  0.03137000  0.87419000  1.0
  H  H12  1  0.83508000  0.08725000  0.75677000  1.0
  H  H13  1  0.20007000  0.91122000  0.80353000  1.0
  H  H14  1  0.25971000  0.07375000  0.81459000  1.0
  H  H15  1  0.34759000  0.98814000  0.90302000  1.0
  H  H16  1  0.89489000  0.09756000  0.55525000  1.0
  H  H17  1  0.86828000  0.25536000  0.54689000  1.0
  H  H18  1  0.90998000  0.13347000  0.40798000  1.0
  H  H19  1  0.29463000  0.33982000  0.69661000  1.0
  H  H20  1  0.20380000  0.24616000  0.78004000  1.0
  H  H21  1  0.12458000  0.27706000  0.64449000  1.0
  H  H22  1  0.55853000  0.09886000  0.12354000  1.0
  H  H23  1  0.55159000  0.21932000  0.27361000  1.0
  H  H24  1  0.39922000  0.13645000  0.18608000  1.0
  H  H25  1  0.29619000  0.91590000  0.15698000  1.0
  H  H26  1  0.14390000  0.98399000  0.21392000  1.0
  H  H27  1  0.20200000  0.85604000  0.26635000  1.0
  H  H28  1  0.13553000  0.66419000  0.87320000  1.0
  H  H29  1  0.25342000  0.73068000  0.00781000  1.0
  H  H30  1  0.12429000  0.60825000  0.01044000  1.0
  H  H31  1  0.93377000  0.48026000  0.83996000  1.0
  H  H32  1  0.77332000  0.39179000  0.77994000  1.0
  H  H33  1  0.84576000  0.39638000  0.93400000  1.0
  H  H34  1  0.25586000  0.24226000  0.30148000  1.0
  H  H35  1  0.22196000  0.35969000  0.22164000  1.0
  H  H36  1  0.15503000  0.19496000  0.15241000  1.0
  H  H37  1  0.84397000  0.19334000  0.17139000  1.0
  H  H38  1  0.88898000  0.35116000  0.15744000  1.0
  H  H39  1  0.71547000  0.29125000  0.14416000  1.0
  C  C40  1  0.52666000  0.54429000  0.75213000  1.0
  C  C41  1  0.44000000  0.02126000  0.37109000  1.0
  C  C42  1  0.40155000  0.54556000  0.95124000  1.0
  C  C43  1  0.64679000  0.55147000  0.96250000  1.0
  C  C44  1  0.40498000  0.53281000  0.07420000  1.0
  C  C45  1  0.64321000  0.54326000  0.08650000  1.0
  C  C46  1  0.52378000  0.52877000  0.14521000  1.0
  C  C47  1  0.52421000  0.54921000  0.89060000  1.0
  C  C48  1  0.03704000  0.39890000  0.39305000  1.0
  C  C49  1  0.89687000  0.41934000  0.40421000  1.0
  C  C50  1  0.95430000  0.58851000  0.58432000  1.0
  C  C51  1  0.08991000  0.57493000  0.56706000  1.0
  C  C52  1  0.49241000  0.74941000  0.53046000  1.0
  C  C53  1  0.52369000  0.50503000  0.27263000  1.0
  C  C54  1  0.48061000  0.26726000  0.49420000  1.0
  C  C55  1  0.63135000  0.96892000  0.57713000  1.0
  C  C56  1  0.37044000  0.95357000  0.59749000  1.0
  C  C57  1  0.62979000  0.10481000  0.54619000  1.0
  C  C58  1  0.38435000  0.10344000  0.60751000  1.0
  C  C59  1  0.46328000  0.88743000  0.38464000  1.0
  C  C60  1  0.49191000  0.88903000  0.52350000  1.0
  C  C61  1  0.48393000  0.12829000  0.50380000  1.0
  C  C62  1  0.76632000  0.84228000  0.40071000  1.0
  C  C63  1  0.11926000  0.91370000  0.54772000  1.0
  C  C64  1  0.77158000  0.00736000  0.77285000  1.0
  C  C65  1  0.29031000  0.97880000  0.81272000  1.0
  C  C66  1  0.85517000  0.15212000  0.49473000  1.0
  C  C67  1  0.22018000  0.25818000  0.68583000  1.0
  C  C68  1  0.50509000  0.12679000  0.21120000  1.0
  C  C69  1  0.23407000  0.94250000  0.23949000  1.0
  C  C70  1  0.19329000  0.64277000  0.95020000  1.0
  C  C71  1  0.83381000  0.45110000  0.86534000  1.0
  C  C72  1  0.18288000  0.27201000  0.24130000  1.0
  C  C73  1  0.81488000  0.29156000  0.19061000  1.0
  N  N74  1  0.85914000  0.51219000  0.50264000  1.0
  N  N75  1  0.13218000  0.48027000  0.47286000  1.0
  O  O76  1  0.64293000  0.54270000  0.70884000  1.0
  O  O77  1  0.41568000  0.53704000  0.68775000  1.0
  O  O78  1  0.59656000  0.71753000  0.57810000  1.0
  O  O79  1  0.38702000  0.67361000  0.48108000  1.0
  O  O80  1  0.63012000  0.54558000  0.34582000  1.0
  O  O81  1  0.42033000  0.44528000  0.29797000  1.0
  O  O82  1  0.59108000  0.33322000  0.49765000  1.0
  O  O83  1  0.36440000  0.30633000  0.48237000  1.0
  O  O84  1  0.74936000  0.91151000  0.53027000  1.0
  O  O85  1  0.25499000  0.88999000  0.51847000  1.0
  O  O86  1  0.64086000  0.98820000  0.70862000  1.0
  O  O87  1  0.37879000  0.92905000  0.71514000  1.0
  O  O88  1  0.71642000  0.11295000  0.45276000  1.0
  O  O89  1  0.25522000  0.14094000  0.59830000  1.0
  O  O90  1  0.51796000  0.02512000  0.26652000  1.0
  O  O91  1  0.30375000  0.03963000  0.34370000  1.0
  O  O92  1  0.27997000  0.54613000  0.88916000  1.0
  O  O93  1  0.77295000  0.56827000  0.92201000  1.0
  O  O94  1  0.05790000  0.29159000  0.30373000  1.0
  O  O95  1  0.79815000  0.34594000  0.32531000  1.0
  F  F96  1  0.91497000  0.68064000  0.68277000  1.0
  F  F97  1  0.18296000  0.65631000  0.64816000  1.0
  F  F98  1  0.67514000  0.20188000  0.65937000  1.0
  F  F99  1  0.44474000  0.17265000  0.72821000  1.0
  F  F100  1  0.28365000  0.52346000  0.12483000  1.0
  F  F101  1  0.76491000  0.54619000  0.14865000  1.0
