# generated using pymatgen
data_Zn2H23C28N5O11
_symmetry_space_group_name_H-M   'P 1'
_cell_length_a   8.02084000
_cell_length_b   9.73028000
_cell_length_c   19.27700000
_cell_angle_alpha   85.64500000
_cell_angle_beta   86.12340000
_cell_angle_gamma   70.30750000
_symmetry_Int_Tables_number   1
_chemical_formula_structural   Zn2H23C28N5O11
_chemical_formula_sum   'Zn4 H46 C56 N10 O22'
_cell_volume   1410.97887713
_cell_formula_units_Z   2
loop_
 _symmetry_equiv_pos_site_id
 _symmetry_equiv_pos_as_xyz
  1  'x, y, z'
loop_
 _atom_site_type_symbol
 _atom_site_label
 _atom_site_symmetry_multiplicity
 _atom_site_fract_x
 _atom_site_fract_y
 _atom_site_fract_z
 _atom_site_occupancy
  Zn  Zn0  1  0.58613000  0.76108000  0.40109000  1.0
  Zn  Zn1  1  0.41386000  0.23892000  0.59891000  1.0
  Zn  Zn2  1  0.51251000  0.10117000  0.91262000  1.0
  Zn  Zn3  1  0.48748000  0.89884000  0.08738000  1.0
  H  H4  1  0.27244000  0.18958000  0.21527000  1.0
  H  H5  1  0.72755000  0.81042000  0.78473000  1.0
  H  H6  1  0.22349000  0.45367000  0.18498000  1.0
  H  H7  1  0.77651000  0.54633000  0.81502000  1.0
  H  H8  1  0.34661000  0.59379000  0.25862000  1.0
  H  H9  1  0.65339000  0.40621000  0.74138000  1.0
  H  H10  1  0.57136000  0.20414000  0.38946000  1.0
  H  H11  1  0.42863000  0.79586000  0.61054000  1.0
  H  H12  1  0.75104000  0.94758000  0.46460000  1.0
  H  H13  1  0.24895000  0.05242000  0.53540000  1.0
  H  H14  1  0.92992000  0.93402000  0.56854000  1.0
  H  H15  1  0.07008000  0.06598000  0.43146000  1.0
  H  H16  1  0.93002000  0.49307000  0.61247000  1.0
  H  H17  1  0.06998000  0.50694000  0.38753000  1.0
  H  H18  1  0.75530000  0.52264000  0.50595000  1.0
  H  H19  1  0.24470000  0.47736000  0.49405000  1.0
  H  H20  1  0.07843000  0.05637000  0.74011000  1.0
  H  H21  1  0.92156000  0.94363000  0.25989000  1.0
  H  H22  1  0.22931000  0.18713000  0.80769000  1.0
  H  H23  1  0.77069000  0.81287000  0.19231000  1.0
  H  H24  1  0.47559000  0.80866000  0.92824000  1.0
  H  H25  1  0.52441000  0.19134000  0.07176000  1.0
  H  H26  1  0.34811000  0.66246000  0.86163000  1.0
  H  H27  1  0.65188000  0.33754000  0.13837000  1.0
  H  H28  1  0.00035000  0.62820000  0.88892000  1.0
  H  H29  1  0.99966000  0.37180000  0.11107000  1.0
  H  H30  1  0.96179000  0.89354000  0.06062000  1.0
  H  H31  1  0.03821000  0.10647000  0.93938000  1.0
  H  H32  1  0.22370000  0.70337000  0.11198000  1.0
  H  H33  1  0.77630000  0.29663000  0.88802000  1.0
  H  H34  1  0.37294000  0.47182000  0.05143000  1.0
  H  H35  1  0.62707000  0.52818000  0.94857000  1.0
  H  H36  1  0.20218000  0.54894000  0.80140000  1.0
  H  H37  1  0.79782000  0.45106000  0.19860000  1.0
  H  H38  1  0.92822000  0.72898000  0.33004000  1.0
  H  H39  1  0.07178000  0.27102000  0.66996000  1.0
  H  H40  1  0.37155000  0.70272000  0.51568000  1.0
  H  H41  1  0.62845000  0.29727000  0.48432000  1.0
  H  H42  1  0.60218000  0.13938000  0.78069000  1.0
  H  H43  1  0.39782000  0.86062000  0.21931000  1.0
  H  H44  1  0.26013000  0.77688000  0.45071000  1.0
  H  H45  1  0.73986000  0.22312000  0.54929000  1.0
  H  H46  1  0.47928000  0.28543000  0.81786000  1.0
  H  H47  1  0.52073000  0.71457000  0.18214000  1.0
  H  H48  1  0.86441000  0.60003000  0.30913000  1.0
  H  H49  1  0.13559000  0.39997000  0.69087000  1.0
  C  C50  1  0.44921000  0.02384000  0.32357000  1.0
  C  C51  1  0.55077000  0.97616000  0.67643000  1.0
  C  C52  1  0.42411000  0.18161000  0.30446000  1.0
  C  C53  1  0.57588000  0.81839000  0.69554000  1.0
  C  C54  1  0.32635000  0.25155000  0.24680000  1.0
  C  C55  1  0.67364000  0.74845000  0.75320000  1.0
  C  C56  1  0.29930000  0.39942000  0.23007000  1.0
  C  C57  1  0.70070000  0.60058000  0.76992000  1.0
  C  C58  1  0.36773000  0.47810000  0.27091000  1.0
  C  C59  1  0.63228000  0.52190000  0.72909000  1.0
  C  C60  1  0.46571000  0.40847000  0.32913000  1.0
  C  C61  1  0.53429000  0.59153000  0.67087000  1.0
  C  C62  1  0.49485000  0.26008000  0.34503000  1.0
  C  C63  1  0.50515000  0.73992000  0.65497000  1.0
  C  C64  1  0.53535000  0.49443000  0.37388000  1.0
  C  C65  1  0.46465000  0.50557000  0.62612000  1.0
  C  C66  1  0.79806000  0.84775000  0.49789000  1.0
  C  C67  1  0.20195000  0.15225000  0.50211000  1.0
  C  C68  1  0.89623000  0.84002000  0.55551000  1.0
  C  C69  1  0.10377000  0.15998000  0.44449000  1.0
  C  C70  1  0.94534000  0.71160000  0.59884000  1.0
  C  C71  1  0.05466000  0.28840000  0.40116000  1.0
  C  C72  1  0.89696000  0.59430000  0.58030000  1.0
  C  C73  1  0.10303000  0.40571000  0.41970000  1.0
  C  C74  1  0.79954000  0.60953000  0.52186000  1.0
  C  C75  1  0.20046000  0.39047000  0.47815000  1.0
  C  C76  1  0.03389000  0.70488000  0.66322000  1.0
  C  C77  1  0.96611000  0.29512000  0.33678000  1.0
  C  C78  1  0.13535000  0.76858000  0.74946000  1.0
  C  C79  1  0.86465000  0.23142000  0.25054000  1.0
  C  C80  1  0.20244000  0.84873000  0.79489000  1.0
  C  C81  1  0.79755000  0.15127000  0.20511000  1.0
  C  C82  1  0.16638000  0.99915000  0.78127000  1.0
  C  C83  1  0.83361000  0.00085000  0.21873000  1.0
  C  C84  1  0.24915000  0.07147000  0.81894000  1.0
  C  C85  1  0.75084000  0.92853000  0.18106000  1.0
  C  C86  1  0.38782000  0.85966000  0.88591000  1.0
  C  C87  1  0.61218000  0.14034000  0.11409000  1.0
  C  C88  1  0.31334000  0.77926000  0.84932000  1.0
  C  C89  1  0.68665000  0.22074000  0.15068000  1.0
  C  C90  1  0.29547000  0.40352000  0.92561000  1.0
  C  C91  1  0.70453000  0.59648000  0.07439000  1.0
  C  C92  1  0.19819000  0.53496000  0.96582000  1.0
  C  C93  1  0.80181000  0.46504000  0.03418000  1.0
  C  C94  1  0.05072000  0.64259000  0.93788000  1.0
  C  C95  1  0.94928000  0.35742000  0.06212000  1.0
  C  C96  1  0.96366000  0.77082000  0.97209000  1.0
  C  C97  1  0.03634000  0.22919000  0.02791000  1.0
  C  C98  1  0.81033000  0.88309000  0.93753000  1.0
  C  C99  1  0.18968000  0.11692000  0.06246000  1.0
  C  C100  1  0.02654000  0.79184000  0.03506000  1.0
  C  C101  1  0.97346000  0.20817000  0.96494000  1.0
  C  C102  1  0.17330000  0.68454000  0.06372000  1.0
  C  C103  1  0.82670000  0.31547000  0.93628000  1.0
  C  C104  1  0.25782000  0.55587000  0.02974000  1.0
  C  C105  1  0.74218000  0.44413000  0.97026000  1.0
  N  N106  1  0.74969000  0.73433000  0.48142000  1.0
  N  N107  1  0.25031000  0.26568000  0.51858000  1.0
  N  N108  1  0.06084000  0.82156000  0.68867000  1.0
  N  N109  1  0.93916000  0.17844000  0.31134000  1.0
  N  N110  1  0.08879000  0.58251000  0.70523000  1.0
  N  N111  1  0.91121000  0.41749000  0.29477000  1.0
  N  N112  1  0.15223000  0.62485000  0.75949000  1.0
  N  N113  1  0.84778000  0.37515000  0.24051000  1.0
  N  N114  1  0.36012000  0.00262000  0.86988000  1.0
  N  N115  1  0.63988000  0.99738000  0.13012000  1.0
  O  O116  1  0.53827000  0.97027000  0.37863000  1.0
  O  O117  1  0.46170000  0.02973000  0.62137000  1.0
  O  O118  1  0.38354000  0.95319000  0.28837000  1.0
  O  O119  1  0.61644000  0.04681000  0.71163000  1.0
  O  O120  1  0.61299000  0.43822000  0.42912000  1.0
  O  O121  1  0.38701000  0.56177000  0.57088000  1.0
  O  O122  1  0.50883000  0.62799000  0.35111000  1.0
  O  O123  1  0.49117000  0.37200000  0.64889000  1.0
  O  O124  1  0.39022000  0.28890000  0.95979000  1.0
  O  O125  1  0.60978000  0.71110000  0.04021000  1.0
  O  O126  1  0.28324000  0.41219000  0.85954000  1.0
  O  O127  1  0.71677000  0.58781000  0.14046000  1.0
  O  O128  1  0.69762000  0.98055000  0.97599000  1.0
  O  O129  1  0.30238000  0.01945000  0.02400000  1.0
  O  O130  1  0.79487000  0.88062000  0.87358000  1.0
  O  O131  1  0.20516000  0.11939000  0.12642000  1.0
  O  O132  1  0.35234000  0.78521000  0.47869000  1.0
  O  O133  1  0.64766000  0.21478000  0.52131000  1.0
  O  O134  1  0.82347000  0.70611000  0.32042000  1.0
  O  O135  1  0.17653000  0.29389000  0.67959000  1.0
  O  O136  1  0.58832000  0.19908000  0.82237000  1.0
  O  O137  1  0.41169000  0.80092000  0.17763000  1.0
