# generated using pymatgen
data_AgH12C16(NO)2
_symmetry_space_group_name_H-M   'P 1'
_cell_length_a   7.01220000
_cell_length_b   9.87435000
_cell_length_c   19.04550000
_cell_angle_alpha   90.00000000
_cell_angle_beta   90.00000000
_cell_angle_gamma   106.23000000
_symmetry_Int_Tables_number   1
_chemical_formula_structural   AgH12C16(NO)2
_chemical_formula_sum   'Ag4 H48 C64 N8 O8'
_cell_volume   1266.17324954
_cell_formula_units_Z   4
loop_
 _symmetry_equiv_pos_site_id
 _symmetry_equiv_pos_as_xyz
  1  'x, y, z'
loop_
 _atom_site_type_symbol
 _atom_site_label
 _atom_site_symmetry_multiplicity
 _atom_site_fract_x
 _atom_site_fract_y
 _atom_site_fract_z
 _atom_site_occupancy
  Ag  Ag0  1  0.51724000  0.66775000  0.27912000  1.0
  Ag  Ag1  1  0.48276000  0.83225000  0.77912000  1.0
  Ag  Ag2  1  0.48276000  0.33225000  0.72088000  1.0
  Ag  Ag3  1  0.51724000  0.16775000  0.22088000  1.0
  H  H4  1  0.31339000  0.42504000  0.19241000  1.0
  H  H5  1  0.68660000  0.07494000  0.69241000  1.0
  H  H6  1  0.68661000  0.57496000  0.80759000  1.0
  H  H7  1  0.31339000  0.92505000  0.30759000  1.0
  H  H8  1  0.10176000  0.17831000  0.19782000  1.0
  H  H9  1  0.89823000  0.32167000  0.69781000  1.0
  H  H10  1  0.89825000  0.82169000  0.80218000  1.0
  H  H11  1  0.10174000  0.67832000  0.30218000  1.0
  H  H12  1  0.97487000  0.07471000  0.31618000  1.0
  H  H13  1  0.02512000  0.42527000  0.81618000  1.0
  H  H14  1  0.02514000  0.92528000  0.68381000  1.0
  H  H15  1  0.97486000  0.57472000  0.18381000  1.0
  H  H16  1  0.05286000  0.22821000  0.42097000  1.0
  H  H17  1  0.94713000  0.27179000  0.92097000  1.0
  H  H18  1  0.94713000  0.77179000  0.57903000  1.0
  H  H19  1  0.05287000  0.72821000  0.07903000  1.0
  H  H20  1  0.35972000  0.61541000  0.40943000  1.0
  H  H21  1  0.64027000  0.88459000  0.90943000  1.0
  H  H22  1  0.64028000  0.38458000  0.59057000  1.0
  H  H23  1  0.35972000  0.11542000  0.09057000  1.0
  H  H24  1  0.14711000  0.36107000  0.50244000  1.0
  H  H25  1  0.85289000  0.13893000  0.00244000  1.0
  H  H26  1  0.85288000  0.63893000  0.49756000  1.0
  H  H27  1  0.14712000  0.86108000  0.99756000  1.0
  H  H28  1  0.42583000  0.76011000  0.49935000  1.0
  H  H29  1  0.57417000  0.73989000  0.99935000  1.0
  H  H30  1  0.57416000  0.23989000  0.50065000  1.0
  H  H31  1  0.42584000  0.26011000  0.00065000  1.0
  H  H32  1  0.49888000  0.89395000  0.61035000  1.0
  H  H33  1  0.50113000  0.60605000  0.11035000  1.0
  H  H34  1  0.50112000  0.10604000  0.38965000  1.0
  H  H35  1  0.49887000  0.39396000  0.88965000  1.0
  H  H36  1  0.22667000  0.54401000  0.73027000  1.0
  H  H37  1  0.77332000  0.95600000  0.23027000  1.0
  H  H38  1  0.77333000  0.45599000  0.26973000  1.0
  H  H39  1  0.22667000  0.04401000  0.76973000  1.0
  H  H40  1  0.14557000  0.39032000  0.62363000  1.0
  H  H41  1  0.85442000  0.10968000  0.12363000  1.0
  H  H42  1  0.85442000  0.60968000  0.37637000  1.0
  H  H43  1  0.14557000  0.89032000  0.87637000  1.0
  H  H44  1  0.09134000  0.86399000  0.40228000  1.0
  H  H45  1  0.90866000  0.63600000  0.90228000  1.0
  H  H46  1  0.90866000  0.13600000  0.59772000  1.0
  H  H47  1  0.09135000  0.36400000  0.09772000  1.0
  H  H48  1  0.34239000  0.97517000  0.49210000  1.0
  H  H49  1  0.65762000  0.52482000  0.99210000  1.0
  H  H50  1  0.65762000  0.02482000  0.50790000  1.0
  H  H51  1  0.34239000  0.47518000  0.00790000  1.0
  C  C52  1  0.25135000  0.37955000  0.24238000  1.0
  C  C53  1  0.74864000  0.12044000  0.74238000  1.0
  C  C54  1  0.74865000  0.62045000  0.75762000  1.0
  C  C55  1  0.25135000  0.87956000  0.25762000  1.0
  C  C56  1  0.13583000  0.23996000  0.24575000  1.0
  C  C57  1  0.86418000  0.26002000  0.74575000  1.0
  C  C58  1  0.86417000  0.76004000  0.75424000  1.0
  C  C59  1  0.13583000  0.73997000  0.25424000  1.0
  C  C60  1  0.06432000  0.18402000  0.31104000  1.0
  C  C61  1  0.93568000  0.31597000  0.81104000  1.0
  C  C62  1  0.93569000  0.81598000  0.68896000  1.0
  C  C63  1  0.06431000  0.68403000  0.18896000  1.0
  C  C64  1  0.10978000  0.26989000  0.36985000  1.0
  C  C65  1  0.89022000  0.23010000  0.86985000  1.0
  C  C66  1  0.89022000  0.73011000  0.63015000  1.0
  C  C67  1  0.10978000  0.76990000  0.13015000  1.0
  C  C68  1  0.22611000  0.41068000  0.36338000  1.0
  C  C69  1  0.77388000  0.08931000  0.86339000  1.0
  C  C70  1  0.77388000  0.58932000  0.63661000  1.0
  C  C71  1  0.22612000  0.91069000  0.13661000  1.0
  C  C72  1  0.27646000  0.50699000  0.42276000  1.0
  C  C73  1  0.72354000  0.99300000  0.92277000  1.0
  C  C74  1  0.72353000  0.49301000  0.57724000  1.0
  C  C75  1  0.27646000  0.00700000  0.07724000  1.0
  C  C76  1  0.22817000  0.47018000  0.49028000  1.0
  C  C77  1  0.77183000  0.02982000  0.99029000  1.0
  C  C78  1  0.77182000  0.52982000  0.50972000  1.0
  C  C79  1  0.22817000  0.97018000  0.00971000  1.0
  C  C80  1  0.27643000  0.56143000  0.55150000  1.0
  C  C81  1  0.72357000  0.93857000  0.05150000  1.0
  C  C82  1  0.72356000  0.43857000  0.44850000  1.0
  C  C83  1  0.27643000  0.06144000  0.94850000  1.0
  C  C84  1  0.37807000  0.70603000  0.54904000  1.0
  C  C85  1  0.62194000  0.79398000  0.04905000  1.0
  C  C86  1  0.62194000  0.29397000  0.45096000  1.0
  C  C87  1  0.37806000  0.20603000  0.95096000  1.0
  C  C88  1  0.42124000  0.78167000  0.61128000  1.0
  C  C89  1  0.57877000  0.71834000  0.11128000  1.0
  C  C90  1  0.57876000  0.21833000  0.38872000  1.0
  C  C91  1  0.42123000  0.28167000  0.88872000  1.0
  C  C92  1  0.26848000  0.58630000  0.67780000  1.0
  C  C93  1  0.73151000  0.91370000  0.17780000  1.0
  C  C94  1  0.73152000  0.41370000  0.32220000  1.0
  C  C95  1  0.26848000  0.08630000  0.82220000  1.0
  C  C96  1  0.22082000  0.50251000  0.61826000  1.0
  C  C97  1  0.77917000  0.99750000  0.11827000  1.0
  C  C98  1  0.77917000  0.49749000  0.38174000  1.0
  C  C99  1  0.22082000  0.00251000  0.88173000  1.0
  C  C100  1  0.70642000  0.86914000  0.39343000  1.0
  C  C101  1  0.29359000  0.63085000  0.89343000  1.0
  C  C102  1  0.29359000  0.13085000  0.60657000  1.0
  C  C103  1  0.70643000  0.36915000  0.10657000  1.0
  C  C104  1  0.85761000  0.93663000  0.44877000  1.0
  C  C105  1  0.14239000  0.56335000  0.94877000  1.0
  C  C106  1  0.14240000  0.06335000  0.55123000  1.0
  C  C107  1  0.85761000  0.43665000  0.05123000  1.0
  C  C108  1  0.05172000  0.92353000  0.44536000  1.0
  C  C109  1  0.94829000  0.57646000  0.94536000  1.0
  C  C110  1  0.94828000  0.07646000  0.55464000  1.0
  C  C111  1  0.05173000  0.42354000  0.05464000  1.0
  C  C112  1  0.19256000  0.98630000  0.49582000  1.0
  C  C113  1  0.80743000  0.51370000  0.99582000  1.0
  C  C114  1  0.80744000  0.01370000  0.50418000  1.0
  C  C115  1  0.19256000  0.48630000  0.00418000  1.0
  N  N116  1  0.29686000  0.46322000  0.29923000  1.0
  N  N117  1  0.70314000  0.03678000  0.79924000  1.0
  N  N118  1  0.70314000  0.53678000  0.70076000  1.0
  N  N119  1  0.29686000  0.96322000  0.20076000  1.0
  N  N120  1  0.36898000  0.72392000  0.67517000  1.0
  N  N121  1  0.63101000  0.77608000  0.17517000  1.0
  N  N122  1  0.63102000  0.27608000  0.32483000  1.0
  N  N123  1  0.36897000  0.22392000  0.82483000  1.0
  O  O124  1  0.77479000  0.81816000  0.34013000  1.0
  O  O125  1  0.22521000  0.68184000  0.84012000  1.0
  O  O126  1  0.22522000  0.18184000  0.65988000  1.0
  O  O127  1  0.77479000  0.31816000  0.15988000  1.0
  O  O128  1  0.52637000  0.86551000  0.40249000  1.0
  O  O129  1  0.47364000  0.63449000  0.90249000  1.0
  O  O130  1  0.47364000  0.13448000  0.59751000  1.0
  O  O131  1  0.52637000  0.36551000  0.09751000  1.0
