# generated using pymatgen
data_HgH8C9N3ClO2
_symmetry_space_group_name_H-M   'P 1'
_cell_length_a   7.09466000
_cell_length_b   10.08330000
_cell_length_c   14.98320000
_cell_angle_alpha   89.99990000
_cell_angle_beta   90.00000000
_cell_angle_gamma   90.00000000
_symmetry_Int_Tables_number   1
_chemical_formula_structural   HgH8C9N3ClO2
_chemical_formula_sum   'Hg4 H32 C36 N12 Cl4 O8'
_cell_volume   1071.86194624
_cell_formula_units_Z   4
loop_
 _symmetry_equiv_pos_site_id
 _symmetry_equiv_pos_as_xyz
  1  'x, y, z'
loop_
 _atom_site_type_symbol
 _atom_site_label
 _atom_site_symmetry_multiplicity
 _atom_site_fract_x
 _atom_site_fract_y
 _atom_site_fract_z
 _atom_site_occupancy
  Hg  Hg0  1  0.44647000  0.75361000  0.05851000  1.0
  Hg  Hg1  1  0.05353000  0.24639000  0.55851000  1.0
  Hg  Hg2  1  0.94647000  0.74640000  0.94149000  1.0
  Hg  Hg3  1  0.55353000  0.25361000  0.44149000  1.0
  H  H4  1  0.59471000  0.84349000  0.62502000  1.0
  H  H5  1  0.90529000  0.15651000  0.12502000  1.0
  H  H6  1  0.09470000  0.65651000  0.37498000  1.0
  H  H7  1  0.40529000  0.34349000  0.87498000  1.0
  H  H8  1  0.57532000  0.94073000  0.47241000  1.0
  H  H9  1  0.92468000  0.05927000  0.97241000  1.0
  H  H10  1  0.07532000  0.55926000  0.52759000  1.0
  H  H11  1  0.42468000  0.44073000  0.02759000  1.0
  H  H12  1  0.54813000  0.79896000  0.33875000  1.0
  H  H13  1  0.95187000  0.20104000  0.83875000  1.0
  H  H14  1  0.04814000  0.70103000  0.66125000  1.0
  H  H15  1  0.45187000  0.29896000  0.16125000  1.0
  H  H16  1  0.53811000  0.55255000  0.35121000  1.0
  H  H17  1  0.96189000  0.44745000  0.85121000  1.0
  H  H18  1  0.03811000  0.94745000  0.64879000  1.0
  H  H19  1  0.46189000  0.05255000  0.14879000  1.0
  H  H20  1  0.70287000  0.66622000  0.74523000  1.0
  H  H21  1  0.79714000  0.33378000  0.24523000  1.0
  H  H22  1  0.20286000  0.83378000  0.25477000  1.0
  H  H23  1  0.29713000  0.16622000  0.75477000  1.0
  H  H24  1  0.67696000  0.49438000  0.76632000  1.0
  H  H25  1  0.82304000  0.50562000  0.26632000  1.0
  H  H26  1  0.17696000  0.00562000  0.23368000  1.0
  H  H27  1  0.32304000  0.99438000  0.73368000  1.0
  H  H28  1  0.31883000  0.52598000  0.76828000  1.0
  H  H29  1  0.18117000  0.47402000  0.26828000  1.0
  H  H30  1  0.81883000  0.97402000  0.23172000  1.0
  H  H31  1  0.68117000  0.02598000  0.73172000  1.0
  H  H32  1  0.35099000  0.69754000  0.75389000  1.0
  H  H33  1  0.14901000  0.30246000  0.25389000  1.0
  H  H34  1  0.85099000  0.80246000  0.24611000  1.0
  H  H35  1  0.64901000  0.19754000  0.74611000  1.0
  C  C36  1  0.57760000  0.64219000  0.57225000  1.0
  C  C37  1  0.92240000  0.35780000  0.07225000  1.0
  C  C38  1  0.07760000  0.85780000  0.42775000  1.0
  C  C39  1  0.42240000  0.14220000  0.92775000  1.0
  C  C40  1  0.58178000  0.78077000  0.56627000  1.0
  C  C41  1  0.91822000  0.21923000  0.06627000  1.0
  C  C42  1  0.08178000  0.71923000  0.43373000  1.0
  C  C43  1  0.41822000  0.28077000  0.93373000  1.0
  C  C44  1  0.57163000  0.83358000  0.48096000  1.0
  C  C45  1  0.92837000  0.16642000  0.98096000  1.0
  C  C46  1  0.07163000  0.66642000  0.51904000  1.0
  C  C47  1  0.42837000  0.33358000  0.01904000  1.0
  C  C48  1  0.55700000  0.75209000  0.40418000  1.0
  C  C49  1  0.94300000  0.24791000  0.90418000  1.0
  C  C50  1  0.05699000  0.74791000  0.59582000  1.0
  C  C51  1  0.44300000  0.25209000  0.09582000  1.0
  C  C52  1  0.55176000  0.61508000  0.41006000  1.0
  C  C53  1  0.94824000  0.38492000  0.91006000  1.0
  C  C54  1  0.05175000  0.88491000  0.58994000  1.0
  C  C55  1  0.44824000  0.11509000  0.08994000  1.0
  C  C56  1  0.56216000  0.56094000  0.49595000  1.0
  C  C57  1  0.93784000  0.43906000  0.99596000  1.0
  C  C58  1  0.06216000  0.93905000  0.50404000  1.0
  C  C59  1  0.43784000  0.06094000  0.00404000  1.0
  C  C60  1  0.60757000  0.58128000  0.73721000  1.0
  C  C61  1  0.89243000  0.41872000  0.23721000  1.0
  C  C62  1  0.10757000  0.91872000  0.26279000  1.0
  C  C63  1  0.39243000  0.08128000  0.76279000  1.0
  C  C64  1  0.41754000  0.60778000  0.78142000  1.0
  C  C65  1  0.08247000  0.39222000  0.28142000  1.0
  C  C66  1  0.91753000  0.89222000  0.21858000  1.0
  C  C67  1  0.58247000  0.10778000  0.71858000  1.0
  C  C68  1  0.43463000  0.62988000  0.88144000  1.0
  C  C69  1  0.06538000  0.37012000  0.38144000  1.0
  C  C70  1  0.93463000  0.87012000  0.11856000  1.0
  C  C71  1  0.56537000  0.12988000  0.61856000  1.0
  N  N72  1  0.58864000  0.55427000  0.64202000  1.0
  N  N73  1  0.91136000  0.44573000  0.14202000  1.0
  N  N74  1  0.08864000  0.94573000  0.35798000  1.0
  N  N75  1  0.41136000  0.05427000  0.85798000  1.0
  N  N76  1  0.57882000  0.42875000  0.61313000  1.0
  N  N77  1  0.92118000  0.57125000  0.11313000  1.0
  N  N78  1  0.07882000  0.07124000  0.38687000  1.0
  N  N79  1  0.42118000  0.92876000  0.88687000  1.0
  N  N80  1  0.56305000  0.43232000  0.52600000  1.0
  N  N81  1  0.93695000  0.56769000  0.02600000  1.0
  N  N82  1  0.06305000  0.06768000  0.47400000  1.0
  N  N83  1  0.43695000  0.93232000  0.97400000  1.0
  Cl  Cl84  1  0.44235000  0.61411000  0.18472000  1.0
  Cl  Cl85  1  0.05765000  0.38589000  0.68472000  1.0
  Cl  Cl86  1  0.94235000  0.88589000  0.81528000  1.0
  Cl  Cl87  1  0.55765000  0.11411000  0.31528000  1.0
  O  O88  1  0.59695000  0.63926000  0.91648000  1.0
  O  O89  1  0.90305000  0.36074000  0.41648000  1.0
  O  O90  1  0.09695000  0.86075000  0.08352000  1.0
  O  O91  1  0.40305000  0.13926000  0.58351000  1.0
  O  O92  1  0.28253000  0.63889000  0.92645000  1.0
  O  O93  1  0.21747000  0.36111000  0.42645000  1.0
  O  O94  1  0.78253000  0.86111000  0.07355000  1.0
  O  O95  1  0.71747000  0.13889000  0.57355000  1.0
