# generated using pymatgen
data_Ni2H54C66N12O11
_symmetry_space_group_name_H-M   'P 1'
_cell_length_a   10.07720000
_cell_length_b   15.70330000
_cell_length_c   24.58684226
_cell_angle_alpha   99.47428285
_cell_angle_beta   101.80071110
_cell_angle_gamma   108.70850000
_symmetry_Int_Tables_number   1
_chemical_formula_structural   Ni2H54C66N12O11
_chemical_formula_sum   'Ni4 H108 C132 N24 O22'
_cell_volume   3494.32803819
_cell_formula_units_Z   2
loop_
 _symmetry_equiv_pos_site_id
 _symmetry_equiv_pos_as_xyz
  1  'x, y, z'
loop_
 _atom_site_type_symbol
 _atom_site_label
 _atom_site_symmetry_multiplicity
 _atom_site_fract_x
 _atom_site_fract_y
 _atom_site_fract_z
 _atom_site_occupancy
  Ni  Ni0  1  0.29539000  0.14764000  0.27173000  1.0
  Ni  Ni1  1  0.62411000  0.64757000  0.77158000  1.0
  Ni  Ni2  1  0.37588000  0.35243000  0.22841000  1.0
  Ni  Ni3  1  0.70461000  0.85237000  0.72827000  1.0
  H  H4  1  0.80573000  0.30680000  0.36042000  1.0
  H  H5  1  0.57763000  0.32451000  0.57168000  1.0
  H  H6  1  0.71073000  0.47979000  0.45063000  1.0
  H  H7  1  0.34922000  0.26939000  0.09511000  1.0
  H  H8  1  0.72278000  0.45877000  0.22140000  1.0
  H  H9  1  0.95359000  0.34597000  0.93791000  1.0
  H  H10  1  0.46477000  0.27452000  0.00777000  1.0
  H  H11  1  0.45405000  0.44233000  0.40000000  1.0
  H  H12  1  0.02410000  0.63632000  0.95820000  1.0
  H  H13  1  0.93645000  0.62719000  0.82814000  1.0
  H  H14  1  0.63812000  0.19333000  0.13975000  1.0
  H  H15  1  0.79474000  0.16251000  0.47646000  1.0
  H  H16  1  0.12571000  0.22427000  0.65268000  1.0
  H  H17  1  0.17220000  0.97055000  0.62856000  1.0
  H  H18  1  0.98084000  0.87267000  0.67185000  1.0
  H  H19  1  0.03251000  0.59069000  0.14233000  1.0
  H  H20  1  0.04641000  0.65403000  0.06209000  1.0
  H  H21  1  0.01938000  0.21841000  0.98147000  1.0
  H  H22  1  0.28048000  0.02019000  0.04963000  1.0
  H  H23  1  0.97382000  0.30902000  0.29867000  1.0
  H  H24  1  0.87428000  0.77573000  0.34732000  1.0
  H  H25  1  0.39129000  0.82384000  0.96559000  1.0
  H  H26  1  0.07292000  0.52912000  0.87135000  1.0
  H  H27  1  0.36188000  0.80666000  0.86025000  1.0
  H  H28  1  0.50933000  0.43848000  0.79757000  1.0
  H  H29  1  0.45864000  0.98439000  0.88951000  1.0
  H  H30  1  0.51444000  0.76917000  0.59499000  1.0
  H  H31  1  0.26632000  0.01146000  0.91105000  1.0
  H  H32  1  0.89483000  0.21922000  0.59163000  1.0
  H  H33  1  0.48556000  0.23084000  0.40501000  1.0
  H  H34  1  0.34502000  0.66296000  0.97656000  1.0
  H  H35  1  0.07048000  0.13641000  0.45828000  1.0
  H  H36  1  0.02618000  0.69098000  0.70133000  1.0
  H  H37  1  0.27721000  0.54123000  0.77860000  1.0
  H  H38  1  0.92707000  0.47088000  0.12864000  1.0
  H  H39  1  0.20052000  0.09040000  0.64230000  1.0
  H  H40  1  0.77284000  0.06142000  0.70222000  1.0
  H  H41  1  0.79948000  0.90961000  0.35770000  1.0
  H  H42  1  0.68319000  0.22535000  0.49228000  1.0
  H  H43  1  0.34091000  0.37603000  0.69131000  1.0
  H  H44  1  0.81851000  0.82459000  0.07140000  1.0
  H  H45  1  0.06355000  0.37282000  0.17186000  1.0
  H  H46  1  0.89248000  0.46699000  0.52390000  1.0
  H  H47  1  0.23366000  0.96534000  0.48173000  1.0
  H  H48  1  0.54137000  0.01560000  0.11049000  1.0
  H  H49  1  0.83012000  0.84610000  0.43789000  1.0
  H  H50  1  0.88817000  0.94241000  0.89972000  1.0
  H  H51  1  0.79784000  0.14915000  0.99210000  1.0
  H  H52  1  0.08460000  0.51568000  0.61062000  1.0
  H  H53  1  0.84350000  0.64941000  0.49185000  1.0
  H  H54  1  0.91540000  0.48432000  0.38937000  1.0
  H  H55  1  0.33016000  0.39839000  0.04336000  1.0
  H  H56  1  0.16989000  0.15390000  0.56211000  1.0
  H  H57  1  0.20216000  0.85085000  0.00790000  1.0
  H  H58  1  0.96749000  0.40930000  0.85767000  1.0
  H  H59  1  0.82780000  0.02945000  0.37144000  1.0
  H  H60  1  0.71952000  0.97981000  0.95037000  1.0
  H  H61  1  0.25140000  0.72423000  0.15268000  1.0
  H  H62  1  0.19426000  0.69319000  0.63958000  1.0
  H  H63  1  0.46803000  0.20785000  0.21828000  1.0
  H  H64  1  0.59824000  0.96703000  0.02381000  1.0
  H  H65  1  0.66984000  0.60160000  0.95664000  1.0
  H  H66  1  0.54210000  0.29214000  0.28160000  1.0
  H  H67  1  0.13451000  0.80885000  0.79841000  1.0
  H  H68  1  0.11183000  0.05759000  0.10028000  1.0
  H  H69  1  0.28927000  0.52021000  0.54937000  1.0
  H  H70  1  0.28725000  0.53522000  0.01857000  1.0
  H  H71  1  0.31966000  0.28149000  0.51884000  1.0
  H  H72  1  0.76633000  0.03466000  0.51827000  1.0
  H  H73  1  0.49067000  0.56152000  0.20242000  1.0
  H  H74  1  0.22620000  0.87592000  0.19125000  1.0
  H  H75  1  0.38898000  0.10204000  0.45690000  1.0
  H  H76  1  0.22716000  0.93858000  0.29778000  1.0
  H  H77  1  0.77379000  0.12409000  0.80875000  1.0
  H  H78  1  0.01916000  0.12733000  0.32815000  1.0
  H  H79  1  0.54259000  0.04107000  0.27858000  1.0
  H  H80  1  0.31682000  0.77465000  0.50773000  1.0
  H  H81  1  0.15650000  0.35059000  0.50815000  1.0
  H  H82  1  0.41642000  0.71921000  0.09170000  1.0
  H  H83  1  0.73369000  0.98853000  0.08896000  1.0
  H  H84  1  0.60870000  0.17616000  0.03440000  1.0
  H  H85  1  0.89824000  0.32368000  0.46575000  1.0
  H  H86  1  0.61101000  0.89795000  0.54310000  1.0
  H  H87  1  0.65909000  0.62397000  0.30870000  1.0
  H  H88  1  0.84383000  0.48858000  0.58911000  1.0
  H  H89  1  0.10752000  0.53301000  0.47610000  1.0
  H  H90  1  0.65498000  0.33704000  0.02344000  1.0
  H  H91  1  0.54595000  0.55767000  0.60000000  1.0
  H  H92  1  0.65077000  0.73061000  0.90489000  1.0
  H  H93  1  0.15618000  0.51143000  0.41089000  1.0
  H  H94  1  0.68034000  0.71852000  0.48116000  1.0
  H  H95  1  0.20526000  0.83749000  0.52354000  1.0
  H  H96  1  0.45790000  0.70786000  0.71840000  1.0
  H  H97  1  0.45741000  0.95893000  0.72142000  1.0
  H  H98  1  0.53197000  0.79215000  0.78172000  1.0
  H  H99  1  0.40175000  0.03296000  0.97619000  1.0
  H  H100  1  0.18149000  0.17540000  0.92860000  1.0
  H  H101  1  0.98061000  0.78159000  0.01852000  1.0
  H  H102  1  0.74859000  0.27577000  0.84732000  1.0
  H  H103  1  0.53523000  0.72547000  0.99223000  1.0
  H  H104  1  0.10174000  0.67632000  0.53424000  1.0
  H  H105  1  0.58358000  0.28078000  0.90831000  1.0
  H  H106  1  0.92953000  0.86359000  0.54172000  1.0
  H  H107  1  0.71276000  0.46478000  0.98144000  1.0
  H  H108  1  0.97591000  0.36368000  0.04180000  1.0
  H  H109  1  0.10517000  0.78078000  0.40837000  1.0
  H  H110  1  0.42237000  0.67549000  0.42832000  1.0
  H  H111  1  0.86548000  0.19115000  0.20159000  1.0
  C  C112  1  0.54176000  0.68056000  0.88301000  1.0
  C  C113  1  0.98699000  0.42378000  0.02365000  1.0
  C  C114  1  0.59484000  0.67394000  0.49595000  1.0
  C  C115  1  0.51375000  0.13408000  0.90433000  1.0
  C  C116  1  0.16671000  0.14995000  0.96647000  1.0
  C  C117  1  0.08244000  0.68607000  0.62081000  1.0
  C  C118  1  0.52441000  0.42220000  0.01399000  1.0
  C  C119  1  0.27591000  0.81391000  0.87898000  1.0
  C  C120  1  0.59599000  0.21569000  0.89201000  1.0
  C  C121  1  0.29814000  0.87180000  0.16421000  1.0
  C  C122  1  0.58839000  0.07769000  0.48599000  1.0
  C  C123  1  0.52404000  0.04920000  0.88201000  1.0
  C  C124  1  0.29261000  0.82440000  0.93775000  1.0
  C  C125  1  0.77798000  0.93703000  0.96582000  1.0
  C  C126  1  0.96176000  0.17260000  0.13247000  1.0
  C  C127  1  0.94318000  0.98987000  0.44101000  1.0
  C  C128  1  0.91755000  0.31393000  0.37919000  1.0
  C  C129  1  0.07508000  0.17383000  0.99627000  1.0
  C  C130  1  0.68199000  0.15930000  0.46873000  1.0
  C  C131  1  0.84220000  0.56749000  0.82606000  1.0
  C  C132  1  0.03019000  0.67574000  0.56205000  1.0
  C  C133  1  0.24223000  0.30965000  0.32618000  1.0
  C  C134  1  0.45824000  0.31944000  0.11699000  1.0
  C  C135  1  0.97546000  0.36597000  0.59577000  1.0
  C  C136  1  0.47596000  0.95079000  0.11799000  1.0
  C  C137  1  0.62723000  0.47047000  0.81161000  1.0
  C  C138  1  0.87214000  0.91484000  0.93678000  1.0
  C  C139  1  0.05171000  0.06766000  0.32614000  1.0
  C  C140  1  0.37871000  0.04512000  0.18151000  1.0
  C  C141  1  0.75777000  0.69035000  0.67382000  1.0
  C  C142  1  0.40516000  0.44281000  0.02430000  1.0
  C  C143  1  0.55316000  0.08411000  0.31971000  1.0
  C  C144  1  0.96044000  0.92373000  0.52360000  1.0
  C  C145  1  0.37277000  0.52953000  0.18838000  1.0
  C  C146  1  0.63332000  0.64085000  0.54435000  1.0
  C  C147  1  0.05584000  0.84011000  0.92732000  1.0
  C  C148  1  0.11853000  0.02051000  0.62214000  1.0
  C  C149  1  0.78805000  0.66006000  0.57237000  1.0
  C  C150  1  0.66606000  0.93616000  0.04867000  1.0
  C  C151  1  0.97568000  0.47925000  0.87781000  1.0
  C  C152  1  0.31063000  0.78784000  0.14214000  1.0
  C  C153  1  0.61912000  0.47989000  0.98948000  1.0
  C  C154  1  0.84478000  0.02942000  0.68823000  1.0
  C  C155  1  0.81880000  0.43616000  0.54883000  1.0
  C  C156  1  0.88050000  0.71211000  0.35782000  1.0
  C  C157  1  0.47963000  0.41476000  0.43704000  1.0
  C  C158  1  0.01150000  0.71565000  0.39197000  1.0
  C  C159  1  0.64963000  0.01976000  0.51034000  1.0
  C  C160  1  0.14964000  0.81671000  0.84443000  1.0
  C  C161  1  0.70185000  0.12820000  0.83579000  1.0
  C  C162  1  0.38089000  0.52010000  0.01052000  1.0
  C  C163  1  0.01302000  0.57622000  0.97635000  1.0
  C  C164  1  0.21193000  0.33994000  0.42762000  1.0
  C  C165  1  0.94818000  0.85927000  0.95534000  1.0
  C  C166  1  0.40515000  0.32606000  0.50404000  1.0
  C  C167  1  0.22202000  0.06297000  0.03419000  1.0
  C  C168  1  0.22403000  0.45362000  0.65288000  1.0
  C  C169  1  0.44666000  0.65949000  0.96875000  1.0
  C  C170  1  0.72408000  0.18609000  0.12102000  1.0
  C  C171  1  0.90722000  0.54912000  0.38189000  1.0
  C  C172  1  0.33775000  0.59353000  0.48467000  1.0
  C  C173  1  0.01229000  0.31675000  0.34469000  1.0
  C  C174  1  0.89403000  0.80960000  0.82585000  1.0
  C  C175  1  0.59484000  0.55719000  0.97570000  1.0
  C  C176  1  0.15780000  0.43251000  0.17394000  1.0
  C  C177  1  0.56164000  0.94256000  0.52415000  1.0
  C  C178  1  0.05182000  0.14073000  0.04466000  1.0
  C  C179  1  0.15735000  0.32735000  0.36783000  1.0
  C  C180  1  0.98851000  0.28435000  0.60803000  1.0
  C  C181  1  0.09278000  0.45088000  0.61811000  1.0
  C  C182  1  0.97467000  0.41377000  0.96520000  1.0
  C  C183  1  0.98771000  0.68325000  0.65531000  1.0
  C  C184  1  0.37504000  0.56304000  0.53392000  1.0
  C  C185  1  0.18121000  0.56384000  0.45117000  1.0
  C  C186  1  0.47559000  0.57779000  0.98601000  1.0
  C  C187  1  0.85036000  0.18329000  0.15557000  1.0
  C  C188  1  0.44959000  0.65004000  0.46617000  1.0
  C  C189  1  0.88147000  0.97949000  0.37786000  1.0
  C  C190  1  0.47756000  0.81932000  0.61692000  1.0
  C  C191  1  0.11552000  0.33828000  0.46180000  1.0
  C  C192  1  0.52036000  0.58525000  0.56295000  1.0
  C  C193  1  0.38225000  0.95354000  0.15281000  1.0
  C  C194  1  0.10597000  0.19040000  0.17415000  1.0
  C  C195  1  0.75940000  0.90653000  0.01507000  1.0
  C  C196  1  0.05682000  0.01014000  0.55899000  1.0
  C  C197  1  0.23786000  0.37190000  0.66428000  1.0
  C  C198  1  0.33393000  0.06383000  0.95133000  1.0
  C  C199  1  0.31802000  0.84070000  0.53128000  1.0
  C  C200  1  0.11950000  0.28789000  0.64218000  1.0
  C  C201  1  0.03824000  0.82740000  0.86753000  1.0
  C  C202  1  0.62496000  0.43696000  0.46608000  1.0
  C  C203  1  0.84265000  0.67265000  0.63217000  1.0
  C  C204  1  0.15521000  0.97058000  0.31177000  1.0
  C  C205  1  0.98754000  0.48973000  0.94098000  1.0
  C  C206  1  0.40400000  0.78431000  0.10799000  1.0
  C  C207  1  0.88448000  0.66172000  0.53820000  1.0
  C  C208  1  0.35091000  0.58419000  0.81971000  1.0
  C  C209  1  0.35037000  0.98024000  0.48966000  1.0
  C  C210  1  0.03957000  0.07628000  0.47640000  1.0
  C  C211  1  0.48626000  0.86591000  0.09568000  1.0
  C  C212  1  0.01247000  0.51027000  0.05902000  1.0
  C  C213  1  0.44684000  0.91590000  0.68029000  1.0
  C  C214  1  0.52243000  0.18068000  0.38308000  1.0
  C  C215  1  0.83328000  0.85004000  0.03353000  1.0
  C  C216  1  0.34776000  0.54519000  0.68157000  1.0
  C  C217  1  0.64909000  0.41581000  0.18029000  1.0
  C  C218  1  0.90423000  0.91385000  0.46518000  1.0
  C  C219  1  0.96981000  0.32426000  0.43795000  1.0
  C  C220  1  0.55040000  0.34996000  0.53382000  1.0
  C  C221  1  0.94829000  0.93234000  0.67386000  1.0
  C  C222  1  0.09577000  0.08616000  0.53482000  1.0
  C  C223  1  0.76215000  0.62810000  0.33573000  1.0
  C  C224  1  0.77597000  0.54638000  0.34712000  1.0
  C  C225  1  0.62130000  0.95488000  0.81849000  1.0
  C  C226  1  0.18467000  0.83846000  0.96155000  1.0
  C  C227  1  0.65224000  0.45480000  0.31843000  1.0
  C  C228  1  0.41160000  0.92231000  0.51401000  1.0
  C  C229  1  0.02454000  0.63403000  0.40422000  1.0
  C  C230  1  0.92492000  0.82617000  0.00373000  1.0
  C  C231  1  0.94416000  0.15989000  0.07268000  1.0
  C  C232  1  0.70739000  0.17560000  0.06225000  1.0
  C  C233  1  0.36668000  0.35915000  0.45565000  1.0
  C  C234  1  0.02534000  0.58623000  0.03480000  1.0
  C  C235  1  0.02432000  0.52075000  0.12219000  1.0
  C  C236  1  0.12787000  0.08516000  0.06323000  1.0
  C  C237  1  0.68936000  0.21216000  0.85786000  1.0
  C  C238  1  0.61776000  0.04647000  0.84720000  1.0
  C  C239  1  0.43835000  0.05744000  0.47585000  1.0
  C  C240  1  0.81533000  0.16154000  0.03845000  1.0
  C  C241  1  0.66225000  0.40647000  0.51533000  1.0
  C  C242  1  0.55334000  0.34050000  0.03125000  1.0
  C  C243  1  0.24060000  0.09346000  0.98493000  1.0
  N  N244  1  0.29709000  0.44601000  0.19694000  1.0
  N  N245  1  0.62534000  0.15081000  0.40781000  1.0
  N  N246  1  0.00644000  0.00532000  0.65270000  1.0
  N  N247  1  0.15462000  0.05413000  0.30321000  1.0
  N  N248  1  0.99356000  0.99468000  0.34730000  1.0
  N  N249  1  0.84537000  0.94587000  0.69679000  1.0
  N  N250  1  0.52605000  0.86101000  0.67284000  1.0
  N  N251  1  0.49250000  0.63888000  0.82709000  1.0
  N  N252  1  0.28844000  0.56819000  0.16132000  1.0
  N  N253  1  0.35408000  0.91141000  0.63203000  1.0
  N  N254  1  0.70290000  0.55399000  0.80305000  1.0
  N  N255  1  0.84837000  0.49452000  0.84725000  1.0
  N  N256  1  0.43378000  0.65088000  0.90782000  1.0
  N  N257  1  0.47395000  0.13899000  0.32716000  1.0
  N  N258  1  0.15163000  0.50549000  0.15275000  1.0
  N  N259  1  0.37466000  0.84919000  0.59219000  1.0
  N  N260  1  0.94090000  0.06806000  0.66122000  1.0
  N  N261  1  0.64592000  0.08859000  0.36797000  1.0
  N  N262  1  0.56622000  0.34911000  0.09218000  1.0
  N  N263  1  0.71156000  0.43181000  0.83868000  1.0
  N  N264  1  0.68898000  0.41122000  0.13198000  1.0
  N  N265  1  0.05909000  0.93194000  0.33878000  1.0
  N  N266  1  0.31102000  0.58878000  0.86802000  1.0
  N  N267  1  0.50750000  0.36112000  0.17291000  1.0
  O  O268  1  0.89125000  0.85032000  0.78551000  1.0
  O  O269  1  0.75482000  0.64959000  0.71415000  1.0
  O  O270  1  0.29625000  0.24827000  0.33492000  1.0
  O  O271  1  0.21248000  0.25185000  0.16535000  1.0
  O  O272  1  0.55086000  0.74999000  0.75001000  1.0
  O  O273  1  0.29014000  0.03952000  0.21250000  1.0
  O  O274  1  0.44914000  0.25001000  0.24999000  1.0
  O  O275  1  0.46503000  0.11995000  0.17543000  1.0
  O  O276  1  0.67006000  0.37996000  0.32432000  1.0
  O  O277  1  0.57494000  0.85508000  0.06177000  1.0
  O  O278  1  0.78752000  0.74815000  0.83465000  1.0
  O  O279  1  0.15798000  0.64489000  0.43806000  1.0
  O  O280  1  0.10875000  0.14968000  0.21449000  1.0
  O  O281  1  0.70376000  0.75174000  0.66508000  1.0
  O  O282  1  0.24518000  0.35042000  0.28585000  1.0
  O  O283  1  0.84202000  0.35511000  0.56193000  1.0
  O  O284  1  0.53498000  0.88006000  0.82457000  1.0
  O  O285  1  0.32994000  0.62004000  0.67568000  1.0
  O  O286  1  0.46191000  0.53959000  0.71237000  1.0
  O  O287  1  0.53810000  0.46041000  0.28763000  1.0
  O  O288  1  0.42506000  0.14492000  0.93823000  1.0
  O  O289  1  0.70986000  0.96048000  0.78750000  1.0
