# generated using pymatgen
data_CuH4C4(N2O3)2
_symmetry_space_group_name_H-M   'P 1'
_cell_length_a   5.26265000
_cell_length_b   6.67971000
_cell_length_c   11.69170000
_cell_angle_alpha   90.00070000
_cell_angle_beta   90.00080000
_cell_angle_gamma   89.99940000
_symmetry_Int_Tables_number   1
_chemical_formula_structural   CuH4C4(N2O3)2
_chemical_formula_sum   'Cu2 H8 C8 N8 O12'
_cell_volume   410.99804744
_cell_formula_units_Z   2
loop_
 _symmetry_equiv_pos_site_id
 _symmetry_equiv_pos_as_xyz
  1  'x, y, z'
loop_
 _atom_site_type_symbol
 _atom_site_label
 _atom_site_symmetry_multiplicity
 _atom_site_fract_x
 _atom_site_fract_y
 _atom_site_fract_z
 _atom_site_occupancy
  Cu  Cu0  1  0.00000000  0.50000000  0.50000000  1.0
  Cu  Cu1  1  0.00000000  0.00000000  0.00000000  1.0
  H  H2  1  0.31361000  0.81098000  0.39080000  1.0
  H  H3  1  0.68640000  0.68901000  0.89080000  1.0
  H  H4  1  0.68639000  0.81099000  0.60920000  1.0
  H  H5  1  0.31360000  0.68902000  0.10920000  1.0
  H  H6  1  0.68639000  0.18901000  0.60920000  1.0
  H  H7  1  0.31361000  0.31099000  0.10920000  1.0
  H  H8  1  0.31360000  0.18901000  0.39080000  1.0
  H  H9  1  0.68640000  0.31099000  0.89080000  1.0
  C  C10  1  0.17428000  0.89594000  0.43961000  1.0
  C  C11  1  0.82572000  0.60406000  0.93961000  1.0
  C  C12  1  0.82572000  0.89594000  0.56039000  1.0
  C  C13  1  0.17428000  0.60406000  0.06039000  1.0
  C  C14  1  0.82572000  0.10406000  0.56039000  1.0
  C  C15  1  0.17428000  0.39594000  0.06039000  1.0
  C  C16  1  0.17428000  0.10405000  0.43962000  1.0
  C  C17  1  0.82572000  0.39594000  0.93961000  1.0
  N  N18  1  0.00001000  0.79454000  0.50000000  1.0
  N  N19  1  0.00000000  0.70545000  1.00000000  1.0
  N  N20  1  0.99999000  0.20545000  0.50000000  1.0
  N  N21  1  0.00000000  0.29455000  0.00000000  1.0
  N  N22  1  0.26912000  0.50000000  0.69771000  1.0
  N  N23  1  0.73089000  0.00000000  0.19769000  1.0
  N  N24  1  0.73088000  0.50000000  0.30229000  1.0
  N  N25  1  0.26911000  0.00000000  0.80231000  1.0
  O  O26  1  0.02557000  0.50000000  0.67311000  1.0
  O  O27  1  0.97446000  0.00000000  0.17311000  1.0
  O  O28  1  0.97444000  0.49999000  0.32689000  1.0
  O  O29  1  0.02554000  0.00000000  0.82689000  1.0
  O  O30  1  0.42412000  0.50000000  0.61602000  1.0
  O  O31  1  0.57592000  0.00000000  0.11600000  1.0
  O  O32  1  0.57588000  0.50000000  0.38398000  1.0
  O  O33  1  0.42408000  0.00000000  0.88400000  1.0
  O  O34  1  0.33197000  0.50000000  0.80011000  1.0
  O  O35  1  0.66803000  0.00001000  0.30010000  1.0
  O  O36  1  0.66803000  0.50000000  0.19990000  1.0
  O  O37  1  0.33197000  0.99999000  0.69990000  1.0
