# generated using pymatgen
data_FeH8(C3N)4
_symmetry_space_group_name_H-M   'P 1'
_cell_length_a   13.33750000
_cell_length_b   13.52930000
_cell_length_c   13.52930000
_cell_angle_alpha   99.56200000
_cell_angle_beta   89.99760000
_cell_angle_gamma   89.99910000
_symmetry_Int_Tables_number   1
_chemical_formula_structural   FeH8(C3N)4
_chemical_formula_sum   'Fe4 H32 C48 N16'
_cell_volume   2407.40342767
_cell_formula_units_Z   4
loop_
 _symmetry_equiv_pos_site_id
 _symmetry_equiv_pos_as_xyz
  1  'x, y, z'
loop_
 _atom_site_type_symbol
 _atom_site_label
 _atom_site_symmetry_multiplicity
 _atom_site_fract_x
 _atom_site_fract_y
 _atom_site_fract_z
 _atom_site_occupancy
  Fe  Fe0  1  0.50000000  0.97987000  0.97989000  1.0
  Fe  Fe1  1  0.99999000  0.02011000  0.02012000  1.0
  Fe  Fe2  1  0.75002000  0.01329000  0.98671000  1.0
  Fe  Fe3  1  0.24998000  0.98670000  0.01329000  1.0
  H  H4  1  0.46958000  0.94994000  0.21301000  1.0
  H  H5  1  0.96962000  0.05007000  0.78703000  1.0
  H  H6  1  0.53041000  0.21300000  0.94994000  1.0
  H  H7  1  0.03038000  0.78704000  0.05008000  1.0
  H  H8  1  0.77959000  0.04781000  0.23074000  1.0
  H  H9  1  0.27963000  0.95224000  0.76924000  1.0
  H  H10  1  0.22040000  0.23076000  0.04779000  1.0
  H  H11  1  0.72040000  0.76926000  0.95218000  1.0
  H  H12  1  0.47329000  0.93989000  0.38298000  1.0
  H  H13  1  0.97331000  0.06007000  0.61703000  1.0
  H  H14  1  0.52671000  0.38296000  0.93991000  1.0
  H  H15  1  0.02670000  0.61702000  0.06008000  1.0
  H  H16  1  0.47402000  0.93654000  0.56314000  1.0
  H  H17  1  0.97403000  0.06342000  0.43686000  1.0
  H  H18  1  0.52599000  0.56313000  0.93656000  1.0
  H  H19  1  0.02596000  0.43686000  0.06345000  1.0
  H  H20  1  0.77750000  0.04810000  0.58241000  1.0
  H  H21  1  0.27755000  0.95194000  0.41760000  1.0
  H  H22  1  0.22248000  0.58240000  0.04808000  1.0
  H  H23  1  0.72247000  0.41760000  0.95192000  1.0
  H  H24  1  0.77659000  0.05158000  0.40230000  1.0
  H  H25  1  0.27664000  0.94845000  0.59770000  1.0
  H  H26  1  0.22340000  0.40229000  0.05157000  1.0
  H  H27  1  0.72339000  0.59771000  0.94841000  1.0
  H  H28  1  0.46877000  0.94977000  0.73649000  1.0
  H  H29  1  0.96882000  0.05025000  0.26351000  1.0
  H  H30  1  0.53122000  0.73646000  0.94977000  1.0
  H  H31  1  0.03118000  0.26349000  0.05027000  1.0
  H  H32  1  0.78345000  0.03072000  0.75041000  1.0
  H  H33  1  0.28348000  0.96929000  0.24959000  1.0
  H  H34  1  0.21653000  0.75039000  0.03070000  1.0
  H  H35  1  0.71652000  0.24958000  0.96928000  1.0
  C  C36  1  0.54540000  0.97481000  0.20126000  1.0
  C  C37  1  0.04541000  0.02520000  0.79878000  1.0
  C  C38  1  0.45461000  0.20125000  0.97481000  1.0
  C  C39  1  0.95459000  0.79877000  0.02520000  1.0
  C  C40  1  0.62456000  0.99840000  0.27004000  1.0
  C  C41  1  0.12456000  0.00162000  0.72998000  1.0
  C  C42  1  0.37545000  0.27003000  0.99839000  1.0
  C  C43  1  0.87544000  0.72997000  0.00160000  1.0
  C  C44  1  0.70332000  0.02500000  0.21030000  1.0
  C  C45  1  0.20334000  0.97502000  0.78970000  1.0
  C  C46  1  0.29667000  0.21030000  0.02499000  1.0
  C  C47  1  0.79667000  0.78971000  0.97499000  1.0
  C  C48  1  0.62489000  0.99610000  0.37749000  1.0
  C  C49  1  0.12491000  0.00391000  0.62251000  1.0
  C  C50  1  0.37511000  0.37748000  0.99609000  1.0
  C  C51  1  0.87510000  0.62250000  0.00390000  1.0
  C  C52  1  0.54051000  0.96417000  0.42621000  1.0
  C  C53  1  0.04052000  0.03582000  0.57380000  1.0
  C  C54  1  0.45949000  0.42619000  0.96418000  1.0
  C  C55  1  0.95948000  0.57380000  0.03582000  1.0
  C  C56  1  0.54089000  0.96231000  0.52856000  1.0
  C  C57  1  0.04091000  0.03768000  0.47145000  1.0
  C  C58  1  0.45910000  0.52854000  0.96231000  1.0
  C  C59  1  0.95909000  0.47144000  0.03769000  1.0
  C  C60  1  0.62573000  0.99226000  0.58794000  1.0
  C  C61  1  0.12576000  0.00775000  0.41207000  1.0
  C  C62  1  0.37427000  0.58793000  0.99225000  1.0
  C  C63  1  0.87425000  0.41207000  0.00775000  1.0
  C  C64  1  0.71018000  0.02400000  0.53924000  1.0
  C  C65  1  0.21023000  0.97602000  0.46076000  1.0
  C  C66  1  0.28981000  0.53924000  0.02399000  1.0
  C  C67  1  0.78978000  0.46076000  0.97601000  1.0
  C  C68  1  0.70972000  0.02590000  0.43692000  1.0
  C  C69  1  0.20977000  0.97412000  0.56308000  1.0
  C  C70  1  0.29027000  0.43691000  0.02589000  1.0
  C  C71  1  0.79025000  0.56308000  0.97410000  1.0
  C  C72  1  0.54605000  0.96893000  0.75630000  1.0
  C  C73  1  0.04607000  0.03108000  0.24368000  1.0
  C  C74  1  0.45395000  0.75628000  0.96892000  1.0
  C  C75  1  0.95392000  0.24368000  0.03109000  1.0
  C  C76  1  0.62604000  0.99069000  0.69554000  1.0
  C  C77  1  0.12605000  0.00932000  0.30446000  1.0
  C  C78  1  0.37396000  0.69553000  0.99069000  1.0
  C  C79  1  0.87395000  0.30446000  0.00932000  1.0
  C  C80  1  0.70625000  0.01109000  0.76354000  1.0
  C  C81  1  0.20627000  0.98891000  0.23645000  1.0
  C  C82  1  0.29374000  0.76354000  0.01108000  1.0
  C  C83  1  0.79373000  0.23645000  0.98890000  1.0
  N  N84  1  0.57517000  0.98689000  0.10882000  1.0
  N  N85  1  0.07518000  0.01311000  0.89121000  1.0
  N  N86  1  0.42483000  0.10881000  0.98690000  1.0
  N  N87  1  0.92482000  0.89121000  0.01311000  1.0
  N  N88  1  0.67295000  0.01781000  0.11434000  1.0
  N  N89  1  0.17296000  0.98220000  0.88567000  1.0
  N  N90  1  0.32704000  0.11434000  0.01781000  1.0
  N  N91  1  0.82704000  0.88567000  0.98218000  1.0
  N  N92  1  0.57655000  0.97598000  0.85226000  1.0
  N  N93  1  0.07656000  0.02401000  0.14772000  1.0
  N  N94  1  0.42345000  0.85224000  0.97598000  1.0
  N  N95  1  0.92343000  0.14772000  0.02401000  1.0
  N  N96  1  0.67592000  0.00218000  0.85676000  1.0
  N  N97  1  0.17593000  0.99780000  0.14323000  1.0
  N  N98  1  0.32407000  0.85675000  0.00218000  1.0
  N  N99  1  0.82407000  0.14323000  0.99780000  1.0
