# generated using pymatgen
data_AlH2C10SCl2O5F
_symmetry_space_group_name_H-M   'P 1'
_cell_length_a   6.62880000
_cell_length_b   11.07577924
_cell_length_c   12.72667169
_cell_angle_alpha   82.03057995
_cell_angle_beta   75.15012680
_cell_angle_gamma   73.64473331
_symmetry_Int_Tables_number   1
_chemical_formula_structural   AlH2C10SCl2O5F
_chemical_formula_sum   'Al2 H4 C20 S2 Cl4 O10 F2'
_cell_volume   864.39687179
_cell_formula_units_Z   2
loop_
 _symmetry_equiv_pos_site_id
 _symmetry_equiv_pos_as_xyz
  1  'x, y, z'
loop_
 _atom_site_type_symbol
 _atom_site_label
 _atom_site_symmetry_multiplicity
 _atom_site_fract_x
 _atom_site_fract_y
 _atom_site_fract_z
 _atom_site_occupancy
  Al  Al0  1  0.49573000  0.50007000  0.49844000  1.0
  Al  Al1  1  0.99629000  0.49798000  0.49995000  1.0
  H  H2  1  0.20873000  0.64889000  0.42732000  1.0
  H  H3  1  0.71793000  0.42002000  0.62883000  1.0
  H  H4  1  0.81900000  0.76161000  0.64483000  1.0
  H  H5  1  0.58874000  0.23012000  0.63438000  1.0
  C  C6  1  0.62651000  0.72612000  0.50348000  1.0
  C  C7  1  0.85107000  0.49687000  0.30623000  1.0
  C  C8  1  0.36589000  0.27538000  0.49191000  1.0
  C  C9  1  0.14426000  0.49476000  0.69611000  1.0
  C  C10  1  0.77412000  0.52540000  0.11517000  1.0
  C  C11  1  0.22460000  0.46157000  0.88708000  1.0
  C  C12  1  0.90869000  0.49378000  0.18752000  1.0
  C  C13  1  0.08958000  0.49337000  0.81488000  1.0
  C  C14  1  0.11184000  0.47234000  0.99700000  1.0
  C  C15  1  0.88760000  0.51351000  0.00551000  1.0
  C  C16  1  0.56155000  0.86749000  0.50104000  1.0
  C  C17  1  0.63289000  0.93066000  0.56959000  1.0
  C  C18  1  0.43370000  0.93630000  0.43105000  1.0
  C  C19  1  0.76645000  0.86407000  0.64106000  1.0
  C  C20  1  0.83673000  0.92729000  0.70495000  1.0
  C  C21  1  0.43346000  0.13396000  0.49453000  1.0
  C  C22  1  0.36893000  0.07052000  0.42765000  1.0
  C  C23  1  0.56731000  0.06573000  0.56634000  1.0
  C  C24  1  0.63702000  0.12790000  0.63520000  1.0
  C  C25  1  0.77047000  0.06132000  0.70222000  1.0
  S  S26  1  0.18012000  0.44902000  0.12131000  1.0
  S  S27  1  0.81851000  0.53712000  0.88155000  1.0
  Cl  Cl28  1  0.21885000  0.15253000  0.33650000  1.0
  Cl  Cl29  1  0.36112000  0.86207000  0.34127000  1.0
  Cl  Cl30  1  0.00590000  0.84313000  0.78741000  1.0
  Cl  Cl31  1  0.85623000  0.14218000  0.78138000  1.0
  O  O32  1  0.47453000  0.67156000  0.52493000  1.0
  O  O33  1  0.00805000  0.47347000  0.35310000  1.0
  O  O34  1  0.16504000  0.32767000  0.51624000  1.0
  O  O35  1  0.34354000  0.47043000  0.64769000  1.0
  O  O36  1  0.51637000  0.33124000  0.46952000  1.0
  O  O37  1  0.98412000  0.51990000  0.65063000  1.0
  O  O38  1  0.82815000  0.67282000  0.48355000  1.0
  O  O39  1  0.65147000  0.52383000  0.35293000  1.0
  O  O40  1  0.23850000  0.56063000  0.45384000  1.0
  O  O41  1  0.74695000  0.44219000  0.55088000  1.0
  F  F42  1  0.55788000  0.56563000  0.14397000  1.0
  F  F43  1  0.44129000  0.42287000  0.85725000  1.0
