# generated using pymatgen
data_CdH22C34(NO)4
_symmetry_space_group_name_H-M   'P 1'
_cell_length_a   9.24520000
_cell_length_b   17.21490000
_cell_length_c   17.21500000
_cell_angle_alpha   80.29290000
_cell_angle_beta   86.96120000
_cell_angle_gamma   86.96120000
_symmetry_Int_Tables_number   1
_chemical_formula_structural   CdH22C34(NO)4
_chemical_formula_sum   'Cd2 H44 C68 N8 O8'
_cell_volume   2694.12664517
_cell_formula_units_Z   2
loop_
 _symmetry_equiv_pos_site_id
 _symmetry_equiv_pos_as_xyz
  1  'x, y, z'
loop_
 _atom_site_type_symbol
 _atom_site_label
 _atom_site_symmetry_multiplicity
 _atom_site_fract_x
 _atom_site_fract_y
 _atom_site_fract_z
 _atom_site_occupancy
  Cd  Cd0  1  0.58176000  0.70157000  0.70157000  1.0
  Cd  Cd1  1  0.41824000  0.29843000  0.29842000  1.0
  H  H2  1  0.10063000  0.64696000  0.64696000  1.0
  H  H3  1  0.89938000  0.35304000  0.35304000  1.0
  H  H4  1  0.90962000  0.58650000  0.58650000  1.0
  H  H5  1  0.09038000  0.41350000  0.41350000  1.0
  H  H6  1  0.24015000  0.46138000  0.46138000  1.0
  H  H7  1  0.75985000  0.53862000  0.53862000  1.0
  H  H8  1  0.42589000  0.52341000  0.52342000  1.0
  H  H9  1  0.57410000  0.47659000  0.47659000  1.0
  H  H10  1  0.76892000  0.86455000  0.65019000  1.0
  H  H11  1  0.23109000  0.34981000  0.13545000  1.0
  H  H12  1  0.23109000  0.13545000  0.34981000  1.0
  H  H13  1  0.76891000  0.65019000  0.86454000  1.0
  H  H14  1  0.88193000  0.81211000  0.42217000  1.0
  H  H15  1  0.11806000  0.57783000  0.18789000  1.0
  H  H16  1  0.11805000  0.18789000  0.57783000  1.0
  H  H17  1  0.88194000  0.42217000  0.81211000  1.0
  H  H18  1  0.71371000  0.69290000  0.50773000  1.0
  H  H19  1  0.28628000  0.49227000  0.30710000  1.0
  H  H20  1  0.28627000  0.30710000  0.49227000  1.0
  H  H21  1  0.71374000  0.50773000  0.69290000  1.0
  H  H22  1  0.08504000  0.80395000  0.58984000  1.0
  H  H23  1  0.91496000  0.41016000  0.19605000  1.0
  H  H24  1  0.91497000  0.19605000  0.41015000  1.0
  H  H25  1  0.08503000  0.58985000  0.80395000  1.0
  H  H26  1  0.65161000  0.94497000  0.46096000  1.0
  H  H27  1  0.34839000  0.53904000  0.05503000  1.0
  H  H28  1  0.34840000  0.05502000  0.53904000  1.0
  H  H29  1  0.65160000  0.46097000  0.94498000  1.0
  H  H30  1  0.53673000  0.06805000  0.38916000  1.0
  H  H31  1  0.46328000  0.61083000  0.93195000  1.0
  H  H32  1  0.46328000  0.93194000  0.61084000  1.0
  H  H33  1  0.53671000  0.38917000  0.06806000  1.0
  H  H34  1  0.66943000  0.19265000  0.36479000  1.0
  H  H35  1  0.33057000  0.63520000  0.80735000  1.0
  H  H36  1  0.33057000  0.80735000  0.63520000  1.0
  H  H37  1  0.66942000  0.36480000  0.19265000  1.0
  H  H38  1  0.52368000  0.96607000  0.77308000  1.0
  H  H39  1  0.47634000  0.22692000  0.03393000  1.0
  H  H40  1  0.47633000  0.03392000  0.22692000  1.0
  H  H41  1  0.52366000  0.77308000  0.96607000  1.0
  H  H42  1  0.50439000  0.06071000  0.86594000  1.0
  H  H43  1  0.49563000  0.13407000  0.93930000  1.0
  H  H44  1  0.49562000  0.93929000  0.13407000  1.0
  H  H45  1  0.50438000  0.86593000  0.06070000  1.0
  C  C46  1  0.39402000  0.62498000  0.62498000  1.0
  C  C47  1  0.60598000  0.37502000  0.37502000  1.0
  C  C48  1  0.27619000  0.58893000  0.58894000  1.0
  C  C49  1  0.72381000  0.41107000  0.41107000  1.0
  C  C50  1  0.12936000  0.60607000  0.60608000  1.0
  C  C51  1  0.87064000  0.39393000  0.39392000  1.0
  C  C52  1  0.02229000  0.57148000  0.57148000  1.0
  C  C53  1  0.97771000  0.42852000  0.42852000  1.0
  C  C54  1  0.05710000  0.51841000  0.51841000  1.0
  C  C55  1  0.94290000  0.48159000  0.48159000  1.0
  C  C56  1  0.20531000  0.50177000  0.50177000  1.0
  C  C57  1  0.79468000  0.49823000  0.49823000  1.0
  C  C58  1  0.31183000  0.53641000  0.53641000  1.0
  C  C59  1  0.68816000  0.46359000  0.46359000  1.0
  C  C60  1  0.77827000  0.83259000  0.60085000  1.0
  C  C61  1  0.22173000  0.39915000  0.16741000  1.0
  C  C62  1  0.22173000  0.16741000  0.39915000  1.0
  C  C63  1  0.77826000  0.60085000  0.83259000  1.0
  C  C64  1  0.83413000  0.80405000  0.48162000  1.0
  C  C65  1  0.16587000  0.51838000  0.19595000  1.0
  C  C66  1  0.16587000  0.19595000  0.51838000  1.0
  C  C67  1  0.83414000  0.48162000  0.80405000  1.0
  C  C68  1  0.75229000  0.74589000  0.52445000  1.0
  C  C69  1  0.24770000  0.47556000  0.25411000  1.0
  C  C70  1  0.24770000  0.25411000  0.47555000  1.0
  C  C71  1  0.75231000  0.52444000  0.74588000  1.0
  C  C72  1  0.14069000  0.85924000  0.57926000  1.0
  C  C73  1  0.85930000  0.42074000  0.14076000  1.0
  C  C74  1  0.85931000  0.14075000  0.42073000  1.0
  C  C75  1  0.14068000  0.57926000  0.85925000  1.0
  C  C76  1  0.06881000  0.92891000  0.53960000  1.0
  C  C77  1  0.93118000  0.46040000  0.07108000  1.0
  C  C78  1  0.93120000  0.07108000  0.46039000  1.0
  C  C79  1  0.06880000  0.53961000  0.92892000  1.0
  C  C80  1  0.92655000  0.93011000  0.51406000  1.0
  C  C81  1  0.07345000  0.48594000  0.06989000  1.0
  C  C82  1  0.07346000  0.06988000  0.48593000  1.0
  C  C83  1  0.92654000  0.51406000  0.93011000  1.0
  C  C84  1  0.85467000  0.99851000  0.47507000  1.0
  C  C85  1  0.14533000  0.52493000  0.00149000  1.0
  C  C86  1  0.14534000  0.00148000  0.52492000  1.0
  C  C87  1  0.85465000  0.47508000  0.99851000  1.0
  C  C88  1  0.71011000  0.99936000  0.44948000  1.0
  C  C89  1  0.28990000  0.55052000  0.00063000  1.0
  C  C90  1  0.28991000  0.00063000  0.55052000  1.0
  C  C91  1  0.71009000  0.44948000  0.99937000  1.0
  C  C92  1  0.64585000  0.06758000  0.41034000  1.0
  C  C93  1  0.35415000  0.58966000  0.93242000  1.0
  C  C94  1  0.35416000  0.93241000  0.58966000  1.0
  C  C95  1  0.64584000  0.41035000  0.06758000  1.0
  C  C96  1  0.72112000  0.13883000  0.39585000  1.0
  C  C97  1  0.27888000  0.60415000  0.86117000  1.0
  C  C98  1  0.27889000  0.86116000  0.60414000  1.0
  C  C99  1  0.72110000  0.39586000  0.13883000  1.0
  C  C100  1  0.54471000  0.80672000  0.80672000  1.0
  C  C101  1  0.45530000  0.19328000  0.19329000  1.0
  C  C102  1  0.52703000  0.86353000  0.86353000  1.0
  C  C103  1  0.47297000  0.13647000  0.13647000  1.0
  C  C104  1  0.51997000  0.94502000  0.83650000  1.0
  C  C105  1  0.48003000  0.16350000  0.05499000  1.0
  C  C106  1  0.48003000  0.05498000  0.16350000  1.0
  C  C107  1  0.51997000  0.83650000  0.94501000  1.0
  C  C108  1  0.50902000  0.99787000  0.88951000  1.0
  C  C109  1  0.49100000  0.11049000  0.00214000  1.0
  C  C110  1  0.49099000  0.00213000  0.11049000  1.0
  C  C111  1  0.50900000  0.88951000  0.99787000  1.0
  C  C112  1  0.50454000  0.97175000  0.97175000  1.0
  C  C113  1  0.49547000  0.02825000  0.02825000  1.0
  N  N114  1  0.71871000  0.76458000  0.59835000  1.0
  N  N115  1  0.28129000  0.40165000  0.23542000  1.0
  N  N116  1  0.28129000  0.23543000  0.40165000  1.0
  N  N117  1  0.71872000  0.59835000  0.76457000  1.0
  N  N118  1  0.84984000  0.85866000  0.53101000  1.0
  N  N119  1  0.15016000  0.46899000  0.14134000  1.0
  N  N120  1  0.15016000  0.14134000  0.46898000  1.0
  N  N121  1  0.84983000  0.53101000  0.85866000  1.0
  O  O122  1  0.35550000  0.67315000  0.67316000  1.0
  O  O123  1  0.64451000  0.32685000  0.32685000  1.0
  O  O124  1  0.52565000  0.60787000  0.60788000  1.0
  O  O125  1  0.47435000  0.39213000  0.39213000  1.0
  O  O126  1  0.55303000  0.83364000  0.73279000  1.0
  O  O127  1  0.44698000  0.26721000  0.16636000  1.0
  O  O128  1  0.44697000  0.16636000  0.26721000  1.0
  O  O129  1  0.55302000  0.73279000  0.83364000  1.0
