# generated using pymatgen
data_CuH8C9IN2
_symmetry_space_group_name_H-M   'P 1'
_cell_length_a   4.12684000
_cell_length_b   9.85857000
_cell_length_c   11.52503870
_cell_angle_alpha   89.99960861
_cell_angle_beta   98.61922678
_cell_angle_gamma   89.99940000
_symmetry_Int_Tables_number   1
_chemical_formula_structural   CuH8C9IN2
_chemical_formula_sum   'Cu2 H16 C18 I2 N4'
_cell_volume   463.59760298
_cell_formula_units_Z   2
loop_
 _symmetry_equiv_pos_site_id
 _symmetry_equiv_pos_as_xyz
  1  'x, y, z'
loop_
 _atom_site_type_symbol
 _atom_site_label
 _atom_site_symmetry_multiplicity
 _atom_site_fract_x
 _atom_site_fract_y
 _atom_site_fract_z
 _atom_site_occupancy
  Cu  Cu0  1  0.71712000  0.39683000  0.21384000  1.0
  Cu  Cu1  1  0.28288000  0.89683000  0.78616000  1.0
  H  H2  1  0.14527000  0.62707000  0.97952000  1.0
  H  H3  1  0.85473000  0.12708000  0.02048000  1.0
  H  H4  1  0.28401000  0.48194000  0.05730000  1.0
  H  H5  1  0.71599000  0.98195000  0.94270000  1.0
  H  H6  1  0.31992000  0.84815000  0.04106000  1.0
  H  H7  1  0.68009000  0.34816000  0.95894000  1.0
  H  H8  1  0.65273000  0.99033000  0.19355000  1.0
  H  H9  1  0.34727000  0.49034000  0.80645000  1.0
  H  H10  1  0.05574000  0.00139000  0.37819000  1.0
  H  H11  1  0.94425000  0.50139000  0.62181000  1.0
  H  H12  1  0.40734000  0.88218000  0.54219000  1.0
  H  H13  1  0.59266000  0.38218000  0.45780000  1.0
  H  H14  1  0.42235000  0.63038000  0.54688000  1.0
  H  H15  1  0.57766000  0.13038000  0.45312000  1.0
  H  H16  1  0.09179000  0.49609000  0.38878000  1.0
  H  H17  1  0.90821000  0.99609000  0.61122000  1.0
  C  C18  1  0.50143000  0.65816000  0.12151000  1.0
  C  C19  1  0.49859000  0.15816000  0.87850000  1.0
  C  C20  1  0.48523000  0.80257000  0.11329000  1.0
  C  C21  1  0.51475000  0.30258000  0.88670000  1.0
  C  C22  1  0.66793000  0.87987000  0.19723000  1.0
  C  C23  1  0.33209000  0.37987000  0.80278000  1.0
  C  C24  1  0.87440000  0.81656000  0.29142000  1.0
  C  C25  1  0.12559000  0.31657000  0.70858000  1.0
  C  C26  1  0.06521000  0.89080000  0.38183000  1.0
  C  C27  1  0.93479000  0.39080000  0.61817000  1.0
  C  C28  1  0.25933000  0.82476000  0.47260000  1.0
  C  C29  1  0.74066000  0.32477000  0.52739000  1.0
  C  C30  1  0.26839000  0.68188000  0.47507000  1.0
  C  C31  1  0.73161000  0.18188000  0.52493000  1.0
  C  C32  1  0.08506000  0.60680000  0.38733000  1.0
  C  C33  1  0.91494000  0.10681000  0.61267000  1.0
  C  C34  1  0.88353000  0.67188000  0.29406000  1.0
  C  C35  1  0.11647000  0.17188000  0.70594000  1.0
  I  I36  1  0.21023000  0.24595000  0.20782000  1.0
  I  I37  1  0.78977000  0.74595000  0.79218000  1.0
  N  N38  1  0.69783000  0.59498000  0.20859000  1.0
  N  N39  1  0.30216000  0.09498000  0.79141000  1.0
  N  N40  1  0.32067000  0.58118000  0.03815000  1.0
  N  N41  1  0.67931000  0.08118000  0.96184000  1.0
