# generated using pymatgen
data_Zn4H26C48S3O22
_symmetry_space_group_name_H-M   'P 1'
_cell_length_a   15.43450000
_cell_length_b   15.59230000
_cell_length_c   19.55500000
_cell_angle_alpha   83.74720000
_cell_angle_beta   76.41830000
_cell_angle_gamma   66.35840000
_symmetry_Int_Tables_number   1
_chemical_formula_structural   Zn4H26C48S3O22
_chemical_formula_sum   'Zn4 H26 C48 S3 O22'
_cell_volume   4189.98930702
_cell_formula_units_Z   1
loop_
 _symmetry_equiv_pos_site_id
 _symmetry_equiv_pos_as_xyz
  1  'x, y, z'
loop_
 _atom_site_type_symbol
 _atom_site_label
 _atom_site_symmetry_multiplicity
 _atom_site_fract_x
 _atom_site_fract_y
 _atom_site_fract_z
 _atom_site_occupancy
  Zn  Zn0  1  0.40094000  0.59603000  0.44674000  1.0
  Zn  Zn1  1  0.43614000  0.44154000  0.57313000  1.0
  Zn  Zn2  1  0.55345000  0.57003000  0.54125000  1.0
  Zn  Zn3  1  0.60304000  0.40830000  0.43694000  1.0
  H  H4  1  0.53331000  0.62237000  0.87594000  1.0
  H  H5  1  0.14204000  0.55518000  0.67051000  1.0
  H  H6  1  0.51182000  0.35744000  0.77278000  1.0
  H  H7  1  0.89528000  0.44775000  0.67599000  1.0
  H  H8  1  0.99312000  0.51997000  0.70642000  1.0
  H  H9  1  0.14725000  0.53155000  0.45351000  1.0
  H  H10  1  0.85591000  0.45306000  0.33653000  1.0
  H  H11  1  0.08652000  0.50674000  0.38428000  1.0
  H  H12  1  0.01208000  0.47536000  0.29694000  1.0
  H  H13  1  0.51473000  0.63228000  0.75183000  1.0
  H  H14  1  0.56504000  0.54270000  0.97712000  1.0
  H  H15  1  0.72053000  0.12505000  0.52075000  1.0
  H  H16  1  0.48961000  0.33002000  0.13400000  1.0
  H  H17  1  0.49962000  0.34202000  0.25768000  1.0
  H  H18  1  0.47065000  0.39941000  0.02194000  1.0
  H  H19  1  0.52278000  0.59274000  0.08366000  1.0
  H  H20  1  0.54053000  0.73998000  0.13213000  1.0
  H  H21  1  0.70307000  0.42759000  0.69738000  1.0
  H  H22  1  0.51427000  0.21444000  0.84961000  1.0
  H  H23  1  0.72906000  0.82152000  0.49510000  1.0
  H  H24  1  0.76694000  0.95238000  0.51449000  1.0
  H  H25  1  0.42999000  0.17467000  0.51031000  1.0
  H  H26  1  0.28308000  0.88658000  0.45454000  1.0
  H  H27  1  0.34338000  0.12437000  0.48452000  1.0
  H  H28  1  0.23241000  0.06009000  0.46017000  1.0
  H  H29  1  0.61507000  0.75715000  0.47840000  1.0
  C  C30  1  0.54707000  0.26073000  0.51677000  1.0
  C  C31  1  0.50240000  0.44867000  0.02758000  1.0
  C  C32  1  0.53519000  0.49218000  0.97004000  1.0
  C  C33  1  0.44284000  0.75278000  0.47841000  1.0
  C  C34  1  0.50748000  0.49685000  0.75611000  1.0
  C  C35  1  0.69349000  0.00149000  0.51243000  1.0
  C  C36  1  0.57203000  0.15826000  0.51558000  1.0
  C  C37  1  0.33254000  0.91601000  0.46358000  1.0
  C  C38  1  0.30442000  0.01300000  0.46711000  1.0
  C  C39  1  0.36735000  0.04885000  0.48070000  1.0
  C  C40  1  0.46182000  0.98997000  0.48873000  1.0
  C  C41  1  0.50541000  0.46042000  0.09976000  1.0
  C  C42  1  0.49207000  0.89077000  0.48328000  1.0
  C  C43  1  0.52905000  0.02786000  0.50098000  1.0
  C  C44  1  0.62594000  0.96566000  0.50346000  1.0
  C  C45  1  0.24780000  0.55242000  0.54018000  1.0
  C  C46  1  0.65416000  0.86791000  0.49466000  1.0
  C  C47  1  0.59061000  0.83189000  0.48522000  1.0
  C  C48  1  0.50352000  0.12430000  0.50967000  1.0
  C  C49  1  0.66828000  0.09637000  0.51646000  1.0
  C  C50  1  0.42372000  0.85496000  0.47326000  1.0
  C  C51  1  0.02673000  0.52300000  0.65103000  1.0
  C  C52  1  0.49790000  0.39066000  0.15010000  1.0
  C  C53  1  0.15183000  0.54424000  0.55952000  1.0
  C  C54  1  0.89433000  0.45893000  0.37479000  1.0
  C  C55  1  0.98067000  0.47339000  0.35289000  1.0
  C  C56  1  0.02280000  0.48992000  0.40231000  1.0
  C  C57  1  0.75075000  0.46424000  0.46274000  1.0
  C  C58  1  0.98508000  0.48562000  0.47533000  1.0
  C  C59  1  0.90185000  0.46175000  0.49803000  1.0
  C  C60  1  0.02869000  0.50595000  0.52663000  1.0
  C  C61  1  0.98762000  0.50168000  0.59963000  1.0
  C  C62  1  0.91449000  0.46506000  0.62045000  1.0
  C  C63  1  0.50326000  0.39721000  0.21918000  1.0
  C  C64  1  0.87555000  0.44255000  0.57239000  1.0
  C  C65  1  0.11125000  0.52861000  0.50817000  1.0
  C  C66  1  0.10845000  0.54273000  0.63158000  1.0
  C  C67  1  0.85327000  0.45643000  0.44586000  1.0
  C  C68  1  0.49480000  0.50229000  0.68216000  1.0
  C  C69  1  0.50824000  0.48229000  0.31780000  1.0
  C  C70  1  0.51198000  0.47525000  0.24118000  1.0
  C  C71  1  0.51850000  0.54573000  0.19114000  1.0
  C  C72  1  0.51634000  0.53794000  0.12148000  1.0
  C  C73  1  0.52779000  0.40846000  0.86560000  1.0
  C  C74  1  0.51428000  0.41577000  0.79690000  1.0
  C  C75  1  0.51703000  0.57050000  0.78448000  1.0
  C  C76  1  0.52814000  0.56395000  0.85346000  1.0
  C  C77  1  0.53075000  0.48500000  0.89733000  1.0
  S  S78  1  0.53083000  0.64597000  0.21765000  1.0
  S  S79  1  0.81383000  0.36635000  0.60854000  1.0
  S  S80  1  0.54667000  0.29804000  0.91074000  1.0
  O  O81  1  0.49678000  0.50489000  0.49689000  1.0
  O  O82  1  0.47515000  0.43760000  0.66288000  1.0
  O  O83  1  0.56854000  0.41303000  0.34516000  1.0
  O  O84  1  0.50508000  0.57079000  0.64430000  1.0
  O  O85  1  0.44229000  0.55536000  0.34765000  1.0
  O  O86  1  0.43770000  0.72137000  0.23669000  1.0
  O  O87  1  0.59897000  0.61420000  0.26291000  1.0
  O  O88  1  0.58505000  0.67735000  0.14324000  1.0
  O  O89  1  0.85840000  0.31172000  0.66467000  1.0
  O  O90  1  0.80287000  0.32142000  0.55278000  1.0
  O  O91  1  0.70664000  0.43647000  0.64656000  1.0
  O  O92  1  0.27396000  0.58304000  0.47893000  1.0
  O  O93  1  0.63300000  0.26919000  0.93764000  1.0
  O  O94  1  0.45681000  0.29985000  0.95553000  1.0
  O  O95  1  0.57146000  0.22834000  0.84704000  1.0
  O  O96  1  0.72630000  0.42246000  0.42294000  1.0
  O  O97  1  0.46161000  0.31360000  0.54780000  1.0
  O  O98  1  0.50558000  0.70165000  0.51379000  1.0
  O  O99  1  0.61423000  0.28838000  0.48607000  1.0
  O  O100  1  0.39249000  0.72458000  0.44986000  1.0
  O  O101  1  0.29794000  0.52479000  0.58785000  1.0
  O  O102  1  0.69489000  0.51963000  0.51274000  1.0
