# generated using pymatgen
data_ZnH13C23NO6
_symmetry_space_group_name_H-M   'P 1'
_cell_length_a   16.53010000
_cell_length_b   17.38340000
_cell_length_c   17.78840000
_cell_angle_alpha   91.36970000
_cell_angle_beta   91.12230000
_cell_angle_gamma   99.57830000
_symmetry_Int_Tables_number   1
_chemical_formula_structural   ZnH13C23NO6
_chemical_formula_sum   'Zn2 H26 C46 N2 O12'
_cell_volume   5037.34651709
_cell_formula_units_Z   2
loop_
 _symmetry_equiv_pos_site_id
 _symmetry_equiv_pos_as_xyz
  1  'x, y, z'
loop_
 _atom_site_type_symbol
 _atom_site_label
 _atom_site_symmetry_multiplicity
 _atom_site_fract_x
 _atom_site_fract_y
 _atom_site_fract_z
 _atom_site_occupancy
  Zn  Zn0  1  0.41288000  0.49273000  0.49841000  1.0
  Zn  Zn1  1  0.58475000  0.50048000  0.50187000  1.0
  H  H2  1  0.11820000  0.39693000  0.57111000  1.0
  H  H3  1  0.87954000  0.59364000  0.42881000  1.0
  H  H4  1  0.27069000  0.40057000  0.56541000  1.0
  H  H5  1  0.72682000  0.58962000  0.43304000  1.0
  H  H6  1  0.30185000  0.59970000  0.43946000  1.0
  H  H7  1  0.69618000  0.39629000  0.56689000  1.0
  H  H8  1  0.15074000  0.60429000  0.43748000  1.0
  H  H9  1  0.84740000  0.39237000  0.57060000  1.0
  H  H10  1  0.63901000  0.74950000  0.42389000  1.0
  H  H11  1  0.34504000  0.23032000  0.51809000  1.0
  H  H12  1  0.57959000  0.00672000  0.41975000  1.0
  H  H13  1  0.40326000  0.98015000  0.47799000  1.0
  H  H14  1  0.34222000  0.08659000  0.50574000  1.0
  H  H15  1  0.63417000  0.88867000  0.39601000  1.0
  H  H16  1  0.41762000  0.87740000  0.52978000  1.0
  H  H17  1  0.57403000  0.12889000  0.39358000  1.0
  H  H18  1  0.37468000  0.53156000  0.12025000  1.0
  H  H19  1  0.63670000  0.54361000  0.88028000  1.0
  H  H20  1  0.37260000  0.51048000  0.25912000  1.0
  H  H21  1  0.63208000  0.52208000  0.74043000  1.0
  H  H22  1  0.63532000  0.53802000  0.26677000  1.0
  H  H23  1  0.37186000  0.51820000  0.73648000  1.0
  H  H24  1  0.63896000  0.55862000  0.12799000  1.0
  H  H25  1  0.37529000  0.54124000  0.87613000  1.0
  H  H26  1  0.60883000  0.36735000  0.32446000  1.0
  H  H27  1  0.39935000  0.67527000  0.66308000  1.0
  C  C28  1  0.49915000  0.50415000  0.64689000  1.0
  C  C29  1  0.50196000  0.50722000  0.35332000  1.0
  C  C30  1  0.43164000  0.53313000  0.15260000  1.0
  C  C31  1  0.57889000  0.53846000  0.84852000  1.0
  C  C32  1  0.43034000  0.52135000  0.22952000  1.0
  C  C33  1  0.57639000  0.52623000  0.77100000  1.0
  C  C34  1  0.50367000  0.52199000  0.27074000  1.0
  C  C35  1  0.50173000  0.51834000  0.73039000  1.0
  C  C36  1  0.57873000  0.53650000  0.23383000  1.0
  C  C37  1  0.42950000  0.52438000  0.76871000  1.0
  C  C38  1  0.58073000  0.54823000  0.15689000  1.0
  C  C39  1  0.43137000  0.53697000  0.84618000  1.0
  C  C40  1  0.50691000  0.54554000  0.11475000  1.0
  C  C41  1  0.50615000  0.54324000  0.88755000  1.0
  C  C42  1  0.50786000  0.55134000  0.03562000  1.0
  C  C43  1  0.50753000  0.55057000  0.96692000  1.0
  C  C44  1  0.15670000  0.44236000  0.54088000  1.0
  C  C45  1  0.84106000  0.54939000  0.46042000  1.0
  C  C46  1  0.24071000  0.44411000  0.53806000  1.0
  C  C47  1  0.75697000  0.54740000  0.46230000  1.0
  C  C48  1  0.25832000  0.55560000  0.46668000  1.0
  C  C49  1  0.73957000  0.43915000  0.53800000  1.0
  C  C50  1  0.46822000  0.34478000  0.48398000  1.0
  C  C51  1  0.52837000  0.64989000  0.49920000  1.0
  C  C52  1  0.17479000  0.55799000  0.46615000  1.0
  C  C53  1  0.82317000  0.43710000  0.53960000  1.0
  C  C54  1  0.12186000  0.49988000  0.50331000  1.0
  C  C55  1  0.87605000  0.49367000  0.50055000  1.0
  C  C56  1  0.03609000  0.49841000  0.50270000  1.0
  C  C57  1  0.96187000  0.49536000  0.50169000  1.0
  C  C58  1  0.46098000  0.25951000  0.46504000  1.0
  C  C59  1  0.53173000  0.73586000  0.49130000  1.0
  C  C60  1  0.52427000  0.22991000  0.42753000  1.0
  C  C61  1  0.46944000  0.77305000  0.52135000  1.0
  C  C62  1  0.52352000  0.14984000  0.42172000  1.0
  C  C63  1  0.46587000  0.85014000  0.50481000  1.0
  C  C64  1  0.45935000  0.09669000  0.45196000  1.0
  C  C65  1  0.52447000  0.89333000  0.45885000  1.0
  C  C66  1  0.39345000  0.12704000  0.48383000  1.0
  C  C67  1  0.58773000  0.85612000  0.43115000  1.0
  C  C68  1  0.39457000  0.20704000  0.49073000  1.0
  C  C69  1  0.59106000  0.77861000  0.44693000  1.0
  C  C70  1  0.45981000  0.01329000  0.45653000  1.0
  C  C71  1  0.52308000  0.97499000  0.44265000  1.0
  C  C72  1  0.59268000  0.28334000  0.39205000  1.0
  C  C73  1  0.40704000  0.73224000  0.57316000  1.0
  N  N74  1  0.29042000  0.49915000  0.50112000  1.0
  N  N75  1  0.70725000  0.49375000  0.50079000  1.0
  O  O76  1  0.42897000  0.49506000  0.61384000  1.0
  O  O77  1  0.57093000  0.50611000  0.38653000  1.0
  O  O78  1  0.56744000  0.50270000  0.61513000  1.0
  O  O79  1  0.43227000  0.49702000  0.38411000  1.0
  O  O80  1  0.40254000  0.37299000  0.49191000  1.0
  O  O81  1  0.59489000  0.62243000  0.50100000  1.0
  O  O82  1  0.54112000  0.38191000  0.49284000  1.0
  O  O83  1  0.45597000  0.61085000  0.50064000  1.0
  O  O84  1  0.66583000  0.28388000  0.40398000  1.0
  O  O85  1  0.56281000  0.32880000  0.34079000  1.0
  O  O86  1  0.33276000  0.72767000  0.56496000  1.0
  O  O87  1  0.44320000  0.70466000  0.63388000  1.0
