# generated using pymatgen
data_Zn2H23C46N4O12F5
_symmetry_space_group_name_H-M   'P 1'
_cell_length_a   9.69116000
_cell_length_b   11.01840000
_cell_length_c   23.85020000
_cell_angle_alpha   89.50650000
_cell_angle_beta   90.65160000
_cell_angle_gamma   89.70460000
_symmetry_Int_Tables_number   1
_chemical_formula_structural   Zn2H23C46N4O12F5
_chemical_formula_sum   'Zn2 H23 C46 N4 O12 F5'
_cell_volume   2546.45574915
_cell_formula_units_Z   1
loop_
 _symmetry_equiv_pos_site_id
 _symmetry_equiv_pos_as_xyz
  1  'x, y, z'
loop_
 _atom_site_type_symbol
 _atom_site_label
 _atom_site_symmetry_multiplicity
 _atom_site_fract_x
 _atom_site_fract_y
 _atom_site_fract_z
 _atom_site_occupancy
  Zn  Zn0  1  0.36316000  0.49441000  0.49782000  1.0
  Zn  Zn1  1  0.64391000  0.49385000  0.50052000  1.0
  H  H2  1  0.71675000  0.49170000  0.67879000  1.0
  H  H3  1  0.27300000  0.50272000  0.68035000  1.0
  H  H4  1  0.68398000  0.86643000  0.55461000  1.0
  H  H5  1  0.28142000  0.90602000  0.40095000  1.0
  H  H6  1  0.17709000  0.90219000  0.46230000  1.0
  H  H7  1  0.29621000  0.13286000  0.40747000  1.0
  H  H8  1  0.19262000  0.12953000  0.46887000  1.0
  H  H9  1  0.87687000  0.41912000  0.58019000  1.0
  H  H10  1  0.13807000  0.41217000  0.57786000  1.0
  H  H11  1  0.13078000  0.68399000  0.39828000  1.0
  H  H12  1  0.12783000  0.53538000  0.36783000  1.0
  H  H13  1  0.86473000  0.54304000  0.36932000  1.0
  H  H14  1  0.54379000  0.79088000  0.05073000  1.0
  H  H15  1  0.54049000  0.79061000  0.94444000  1.0
  H  H16  1  0.30606000  0.57854000  0.21268000  1.0
  H  H17  1  0.30561000  0.57459000  0.31765000  1.0
  H  H18  1  0.70617000  0.40342000  0.31894000  1.0
  H  H19  1  0.72175000  0.48785000  0.78420000  1.0
  H  H20  1  0.61022000  0.24230000  0.61743000  1.0
  H  H21  1  0.61611000  0.10087000  0.65387000  1.0
  H  H22  1  0.76280000  0.19691000  0.65366000  1.0
  H  H23  1  0.79927000  0.02680000  0.58706000  1.0
  H  H24  1  0.78849000  0.16670000  0.55000000  1.0
  C  C25  1  0.51846000  0.25877000  0.50776000  1.0
  C  C26  1  0.47660000  0.26961000  0.97013000  1.0
  C  C27  1  0.47719000  0.26989000  0.02960000  1.0
  C  C28  1  0.49048000  0.37661000  0.05963000  1.0
  C  C29  1  0.50486000  0.48710000  0.02886000  1.0
  C  C30  1  0.51996000  0.59878000  0.05725000  1.0
  C  C31  1  0.53273000  0.70693000  0.02732000  1.0
  C  C32  1  0.53109000  0.70680000  0.96866000  1.0
  C  C33  1  0.48753000  0.37655000  0.12185000  1.0
  C  C34  1  0.52294000  0.60301000  0.11933000  1.0
  C  C35  1  0.39253000  0.53979000  0.23647000  1.0
  C  C36  1  0.50365000  0.48685000  0.38801000  1.0
  C  C37  1  0.39238000  0.53747000  0.29478000  1.0
  C  C38  1  0.50478000  0.48874000  0.32496000  1.0
  C  C39  1  0.61827000  0.44237000  0.29619000  1.0
  C  C40  1  0.61616000  0.44447000  0.23806000  1.0
  C  C41  1  0.50437000  0.49209000  0.20752000  1.0
  C  C42  1  0.62437000  0.49036000  0.76088000  1.0
  C  C43  1  0.62169000  0.49265000  0.70260000  1.0
  C  C44  1  0.49560000  0.49664000  0.67335000  1.0
  C  C45  1  0.37142000  0.49853000  0.70274000  1.0
  C  C46  1  0.37621000  0.49560000  0.76081000  1.0
  C  C47  1  0.49846000  0.72927000  0.49904000  1.0
  C  C48  1  0.50116000  0.49154000  0.79044000  1.0
  C  C49  1  0.40694000  0.06421000  0.48350000  1.0
  C  C50  1  0.51359000  0.12376000  0.51132000  1.0
  C  C51  1  0.61444000  0.04931000  0.53886000  1.0
  C  C52  1  0.60503000  0.92283000  0.53416000  1.0
  C  C53  1  0.49919000  0.86360000  0.50419000  1.0
  C  C54  1  0.39861000  0.93824000  0.47991000  1.0
  C  C55  1  0.26935000  0.94231000  0.44343000  1.0
  C  C56  1  0.27887000  0.08533000  0.44745000  1.0
  C  C57  1  0.93005000  0.54347000  0.45910000  1.0
  C  C58  1  0.49465000  0.49823000  0.61037000  1.0
  C  C59  1  0.93351000  0.45406000  0.54434000  1.0
  C  C60  1  0.07769000  0.44921000  0.54285000  1.0
  C  C61  1  0.07317000  0.53800000  0.45736000  1.0
  C  C62  1  0.08227000  0.59423000  0.39961000  1.0
  C  C63  1  0.91870000  0.59907000  0.40036000  1.0
  C  C64  1  0.51653000  0.60251000  0.87759000  1.0
  C  C65  1  0.48605000  0.37554000  0.87687000  1.0
  C  C66  1  0.48891000  0.37613000  0.93917000  1.0
  C  C67  1  0.50378000  0.48689000  0.96900000  1.0
  C  C68  1  0.51719000  0.59850000  0.93969000  1.0
  C  C69  1  0.72887000  0.10136000  0.57486000  1.0
  C  C70  1  0.67615000  0.16383000  0.62790000  1.0
  N  N71  1  0.50219000  0.48990000  0.85066000  1.0
  N  N72  1  0.50515000  0.49102000  0.14734000  1.0
  N  N73  1  0.85654000  0.50124000  0.50156000  1.0
  N  N74  1  0.15050000  0.49021000  0.49838000  1.0
  O  O75  1  0.40211000  0.31386000  0.50765000  1.0
  O  O76  1  0.47146000  0.28403000  0.84867000  1.0
  O  O77  1  0.47000000  0.28555000  0.15069000  1.0
  O  O78  1  0.53926000  0.69710000  0.14570000  1.0
  O  O79  1  0.63559000  0.30947000  0.50286000  1.0
  O  O80  1  0.38578000  0.48397000  0.41099000  1.0
  O  O81  1  0.62011000  0.48875000  0.41325000  1.0
  O  O82  1  0.38231000  0.67827000  0.49017000  1.0
  O  O83  1  0.61443000  0.67479000  0.50383000  1.0
  O  O84  1  0.37841000  0.50953000  0.58535000  1.0
  O  O85  1  0.61141000  0.48747000  0.58692000  1.0
  O  O86  1  0.52790000  0.69673000  0.85030000  1.0
  F  F87  1  0.46307000  0.16086000  0.94620000  1.0
  F  F88  1  0.25644000  0.49710000  0.79013000  1.0
  F  F89  1  0.46396000  0.16138000  0.05451000  1.0
  F  F90  1  0.86392000  0.71570000  0.39766000  1.0
  F  F91  1  0.72593000  0.39944000  0.20972000  1.0
