# generated using pymatgen
data_Mn2H17C20(NO5)3
_symmetry_space_group_name_H-M   'P 1'
_cell_length_a   13.01260000
_cell_length_b   15.24140000
_cell_length_c   15.24150000
_cell_angle_alpha   63.38990000
_cell_angle_beta   78.87190000
_cell_angle_gamma   78.87220000
_symmetry_Int_Tables_number   1
_chemical_formula_structural   Mn2H17C20(NO5)3
_chemical_formula_sum   'Mn8 H68 C80 N12 O60'
_cell_volume   2632.20892146
_cell_formula_units_Z   4
loop_
 _symmetry_equiv_pos_site_id
 _symmetry_equiv_pos_as_xyz
  1  'x, y, z'
loop_
 _atom_site_type_symbol
 _atom_site_label
 _atom_site_symmetry_multiplicity
 _atom_site_fract_x
 _atom_site_fract_y
 _atom_site_fract_z
 _atom_site_occupancy
  Mn  Mn0  1  0.16078000  0.70935000  0.53543000  1.0
  Mn  Mn1  1  0.33922000  0.46457000  0.29065000  1.0
  Mn  Mn2  1  0.83922000  0.29064000  0.46458000  1.0
  Mn  Mn3  1  0.66078000  0.53543000  0.70935000  1.0
  Mn  Mn4  1  0.39130000  0.67152000  0.67604000  1.0
  Mn  Mn5  1  0.10870000  0.32396000  0.32848000  1.0
  Mn  Mn6  1  0.60870000  0.32848000  0.32396000  1.0
  Mn  Mn7  1  0.89130000  0.67604000  0.67152000  1.0
  H  H8  1  0.98574000  0.34687000  0.75994000  1.0
  H  H9  1  0.51426000  0.24006000  0.65313000  1.0
  H  H10  1  0.01426000  0.65313000  0.24006000  1.0
  H  H11  1  0.48575000  0.75994000  0.34687000  1.0
  H  H12  1  0.18439000  0.45695000  0.48266000  1.0
  H  H13  1  0.31561000  0.51735000  0.54305000  1.0
  H  H14  1  0.81562000  0.54305000  0.51735000  1.0
  H  H15  1  0.68440000  0.48265000  0.45695000  1.0
  H  H16  1  0.34920000  0.91600000  0.67626000  1.0
  H  H17  1  0.15081000  0.32373000  0.08400000  1.0
  H  H18  1  0.65081000  0.08400000  0.32374000  1.0
  H  H19  1  0.84919000  0.67626000  0.91600000  1.0
  H  H20  1  0.05652000  0.98741000  0.55421000  1.0
  H  H21  1  0.44347000  0.44580000  0.01258000  1.0
  H  H22  1  0.94348000  0.01258000  0.44580000  1.0
  H  H23  1  0.55652000  0.55420000  0.98742000  1.0
  H  H24  1  0.45095000  0.72355000  0.85163000  1.0
  H  H25  1  0.04905000  0.14836000  0.27645000  1.0
  H  H26  1  0.54905000  0.27646000  0.14837000  1.0
  H  H27  1  0.95095000  0.85164000  0.72355000  1.0
  H  H28  1  0.39217000  0.70342000  0.97456000  1.0
  H  H29  1  0.10784000  0.02544000  0.29658000  1.0
  H  H30  1  0.60783000  0.29658000  0.02544000  1.0
  H  H31  1  0.89217000  0.97456000  0.70342000  1.0
  H  H32  1  0.35405000  0.81385000  0.87186000  1.0
  H  H33  1  0.14595000  0.12814000  0.18615000  1.0
  H  H34  1  0.64594000  0.18616000  0.12814000  1.0
  H  H35  1  0.85405000  0.87186000  0.81385000  1.0
  H  H36  1  0.22290000  0.62642000  0.10154000  1.0
  H  H37  1  0.27711000  0.89846000  0.37358000  1.0
  H  H38  1  0.77710000  0.37358000  0.89846000  1.0
  H  H39  1  0.72290000  0.10154000  0.62642000  1.0
  H  H40  1  0.10462000  0.70111000  0.05350000  1.0
  H  H41  1  0.39539000  0.94650000  0.29888000  1.0
  H  H42  1  0.89538000  0.29888000  0.94650000  1.0
  H  H43  1  0.60461000  0.05350000  0.70112000  1.0
  H  H44  1  0.22411000  0.75426000  0.01883000  1.0
  H  H45  1  0.27589000  0.98117000  0.24574000  1.0
  H  H46  1  0.77588000  0.24573000  0.98118000  1.0
  H  H47  1  0.72411000  0.01883000  0.75426000  1.0
  H  H48  1  0.06545000  0.65901000  0.91187000  1.0
  H  H49  1  0.43455000  0.08812000  0.34099000  1.0
  H  H50  1  0.93454000  0.34099000  0.08812000  1.0
  H  H51  1  0.56546000  0.91188000  0.65901000  1.0
  H  H52  1  0.10598000  0.55519000  0.02033000  1.0
  H  H53  1  0.39402000  0.97967000  0.44481000  1.0
  H  H54  1  0.89401000  0.44480000  0.97967000  1.0
  H  H55  1  0.60599000  0.02033000  0.55519000  1.0
  H  H56  1  0.16951000  0.56849000  0.90034000  1.0
  H  H57  1  0.33049000  0.09966000  0.43152000  1.0
  H  H58  1  0.83049000  0.43151000  0.09966000  1.0
  H  H59  1  0.66951000  0.90034000  0.56848000  1.0
  H  H60  1  0.31416000  0.74106000  0.36850000  1.0
  H  H61  1  0.18584000  0.63150000  0.25893000  1.0
  H  H62  1  0.68584000  0.25893000  0.63150000  1.0
  H  H63  1  0.81416000  0.36850000  0.74106000  1.0
  H  H64  1  0.36916000  0.68954000  0.46958000  1.0
  H  H65  1  0.13084000  0.53041000  0.31046000  1.0
  H  H66  1  0.63084000  0.31046000  0.53041000  1.0
  H  H67  1  0.86916000  0.46959000  0.68954000  1.0
  H  H68  1  0.57445000  0.76157000  0.60604000  1.0
  H  H69  1  0.92555000  0.39397000  0.23843000  1.0
  H  H70  1  0.42555000  0.23843000  0.39397000  1.0
  H  H71  1  0.07445000  0.60604000  0.76157000  1.0
  H  H72  1  0.57037000  0.70335000  0.72284000  1.0
  H  H73  1  0.92963000  0.27716000  0.29666000  1.0
  H  H74  1  0.42963000  0.29666000  0.27716000  1.0
  H  H75  1  0.07037000  0.72284000  0.70334000  1.0
  C  C76  1  0.05143000  0.51780000  0.60918000  1.0
  C  C77  1  0.44857000  0.39082000  0.48219000  1.0
  C  C78  1  0.94857000  0.48219000  0.39082000  1.0
  C  C79  1  0.55144000  0.60918000  0.51780000  1.0
  C  C80  1  0.08063000  0.41425000  0.61921000  1.0
  C  C81  1  0.41938000  0.38080000  0.58574000  1.0
  C  C82  1  0.91938000  0.58574000  0.38080000  1.0
  C  C83  1  0.58063000  0.61920000  0.41426000  1.0
  C  C84  1  0.03818000  0.33562000  0.70022000  1.0
  C  C85  1  0.46181000  0.29978000  0.66438000  1.0
  C  C86  1  0.96182000  0.66438000  0.29978000  1.0
  C  C87  1  0.53819000  0.70022000  0.33562000  1.0
  C  C88  1  0.06649000  0.24013000  0.70737000  1.0
  C  C89  1  0.43350000  0.29264000  0.75986000  1.0
  C  C90  1  0.93351000  0.75986000  0.29264000  1.0
  C  C91  1  0.56650000  0.70736000  0.24013000  1.0
  C  C92  1  0.14216000  0.21841000  0.63838000  1.0
  C  C93  1  0.35783000  0.36162000  0.78159000  1.0
  C  C94  1  0.85784000  0.78159000  0.36162000  1.0
  C  C95  1  0.64216000  0.63838000  0.21840000  1.0
  C  C96  1  0.18370000  0.29910000  0.55620000  1.0
  C  C97  1  0.31629000  0.44381000  0.70090000  1.0
  C  C98  1  0.81630000  0.70090000  0.44381000  1.0
  C  C99  1  0.68370000  0.55620000  0.29910000  1.0
  C  C100  1  0.15212000  0.39544000  0.54676000  1.0
  C  C101  1  0.34788000  0.45324000  0.60456000  1.0
  C  C102  1  0.84788000  0.60456000  0.45324000  1.0
  C  C103  1  0.65213000  0.54676000  0.39544000  1.0
  C  C104  1  0.16465000  0.11916000  0.63769000  1.0
  C  C105  1  0.33534000  0.36232000  0.88084000  1.0
  C  C106  1  0.83534000  0.88084000  0.36232000  1.0
  C  C107  1  0.66466000  0.63769000  0.11916000  1.0
  C  C108  1  0.25478000  0.05140000  0.66821000  1.0
  C  C109  1  0.24522000  0.33179000  0.94859000  1.0
  C  C110  1  0.74523000  0.94860000  0.33179000  1.0
  C  C111  1  0.75478000  0.66821000  0.05141000  1.0
  C  C112  1  0.27624000  0.96456000  0.65557000  1.0
  C  C113  1  0.22376000  0.34443000  0.03543000  1.0
  C  C114  1  0.72376000  0.03544000  0.34443000  1.0
  C  C115  1  0.77624000  0.65557000  0.96456000  1.0
  C  C116  1  0.20348000  0.94088000  0.61553000  1.0
  C  C117  1  0.29652000  0.38447000  0.05911000  1.0
  C  C118  1  0.79652000  0.05912000  0.38447000  1.0
  C  C119  1  0.70348000  0.61553000  0.94088000  1.0
  C  C120  1  0.11232000  0.00622000  0.58600000  1.0
  C  C121  1  0.38767000  0.41400000  0.99377000  1.0
  C  C122  1  0.88768000  0.99377000  0.41400000  1.0
  C  C123  1  0.61233000  0.58600000  0.00623000  1.0
  C  C124  1  0.09476000  0.09562000  0.59400000  1.0
  C  C125  1  0.40523000  0.40602000  0.90437000  1.0
  C  C126  1  0.90524000  0.90437000  0.40601000  1.0
  C  C127  1  0.59477000  0.59398000  0.09563000  1.0
  C  C128  1  0.00170000  0.16833000  0.55233000  1.0
  C  C129  1  0.49829000  0.44768000  0.83166000  1.0
  C  C130  1  0.99830000  0.83166000  0.44768000  1.0
  C  C131  1  0.50170000  0.55232000  0.16834000  1.0
  C  C132  1  0.22470000  0.84912000  0.59950000  1.0
  C  C133  1  0.27529000  0.40050000  0.15088000  1.0
  C  C134  1  0.77529000  0.15088000  0.40050000  1.0
  C  C135  1  0.72470000  0.59950000  0.84912000  1.0
  C  C136  1  0.26200000  0.28503000  0.47580000  1.0
  C  C137  1  0.23799000  0.52421000  0.71496000  1.0
  C  C138  1  0.73800000  0.71496000  0.52420000  1.0
  C  C139  1  0.76201000  0.47579000  0.28504000  1.0
  C  C140  1  0.29483000  0.68597000  0.88349000  1.0
  C  C141  1  0.20517000  0.11650000  0.31404000  1.0
  C  C142  1  0.70516000  0.31404000  0.11651000  1.0
  C  C143  1  0.79483000  0.88350000  0.68596000  1.0
  C  C144  1  0.37781000  0.73382000  0.89716000  1.0
  C  C145  1  0.12219000  0.10284000  0.26618000  1.0
  C  C146  1  0.62219000  0.26618000  0.10284000  1.0
  C  C147  1  0.87781000  0.89716000  0.73382000  1.0
  C  C148  1  0.19029000  0.68710000  0.03649000  1.0
  C  C149  1  0.30971000  0.96350000  0.31290000  1.0
  C  C150  1  0.80971000  0.31290000  0.96350000  1.0
  C  C151  1  0.69029000  0.03650000  0.68710000  1.0
  C  C152  1  0.13343000  0.60784000  0.94561000  1.0
  C  C153  1  0.36657000  0.05439000  0.39216000  1.0
  C  C154  1  0.86657000  0.39215000  0.05439000  1.0
  C  C155  1  0.63343000  0.94561000  0.60785000  1.0
  N  N156  1  0.01175000  0.16213000  0.79065000  1.0
  N  N157  1  0.48825000  0.20935000  0.83787000  1.0
  N  N158  1  0.98825000  0.83787000  0.20935000  1.0
  N  N159  1  0.51175000  0.79065000  0.16213000  1.0
  N  N160  1  0.33149000  0.07282000  0.71305000  1.0
  N  N161  1  0.16850000  0.28694000  0.92718000  1.0
  N  N162  1  0.66851000  0.92718000  0.28694000  1.0
  N  N163  1  0.83149000  0.71306000  0.07282000  1.0
  N  N164  1  0.21121000  0.66111000  0.95275000  1.0
  N  N165  1  0.28879000  0.04724000  0.33889000  1.0
  N  N166  1  0.78878000  0.33889000  0.04724000  1.0
  N  N167  1  0.71121000  0.95276000  0.66111000  1.0
  O  O168  1  0.11564000  0.57884000  0.55291000  1.0
  O  O169  1  0.38435000  0.44709000  0.42116000  1.0
  O  O170  1  0.88436000  0.42116000  0.44709000  1.0
  O  O171  1  0.61565000  0.55291000  0.57884000  1.0
  O  O172  1  0.96501000  0.53748000  0.65712000  1.0
  O  O173  1  0.53500000  0.34289000  0.46252000  1.0
  O  O174  1  0.03501000  0.46252000  0.34288000  1.0
  O  O175  1  0.46502000  0.65712000  0.53747000  1.0
  O  O176  1  0.30504000  0.14077000  0.73942000  1.0
  O  O177  1  0.19496000  0.26058000  0.85924000  1.0
  O  O178  1  0.69497000  0.85924000  0.26058000  1.0
  O  O179  1  0.80504000  0.73943000  0.14076000  1.0
  O  O180  1  0.41870000  0.02116000  0.72245000  1.0
  O  O181  1  0.08130000  0.27755000  0.97884000  1.0
  O  O182  1  0.58130000  0.97883000  0.27755000  1.0
  O  O183  1  0.91870000  0.72245000  0.02116000  1.0
  O  O184  1  0.92535000  0.18840000  0.82922000  1.0
  O  O185  1  0.57466000  0.17079000  0.81161000  1.0
  O  O186  1  0.07466000  0.81160000  0.17079000  1.0
  O  O187  1  0.42534000  0.82920000  0.18840000  1.0
  O  O188  1  0.05343000  0.07550000  0.81691000  1.0
  O  O189  1  0.44657000  0.18310000  0.92449000  1.0
  O  O190  1  0.94658000  0.92450000  0.18309000  1.0
  O  O191  1  0.55343000  0.81690000  0.07551000  1.0
  O  O192  1  0.31975000  0.81260000  0.58839000  1.0
  O  O193  1  0.18024000  0.41160000  0.18740000  1.0
  O  O194  1  0.68025000  0.18740000  0.41161000  1.0
  O  O195  1  0.81975000  0.58839000  0.81260000  1.0
  O  O196  1  0.14405000  0.81471000  0.59510000  1.0
  O  O197  1  0.35594000  0.40490000  0.18529000  1.0
  O  O198  1  0.85594000  0.18529000  0.40490000  1.0
  O  O199  1  0.64405000  0.59510000  0.81471000  1.0
  O  O200  1  0.01778000  0.24081000  0.46715000  1.0
  O  O201  1  0.48221000  0.53286000  0.75919000  1.0
  O  O202  1  0.98221000  0.75919000  0.53286000  1.0
  O  O203  1  0.51779000  0.46714000  0.24081000  1.0
  O  O204  1  0.91036000  0.15732000  0.59911000  1.0
  O  O205  1  0.58963000  0.40090000  0.84267000  1.0
  O  O206  1  0.08963000  0.84267000  0.40090000  1.0
  O  O207  1  0.41037000  0.59911000  0.15733000  1.0
  O  O208  1  0.24260000  0.34451000  0.38594000  1.0
  O  O209  1  0.25740000  0.61407000  0.65549000  1.0
  O  O210  1  0.75741000  0.65549000  0.61406000  1.0
  O  O211  1  0.74260000  0.38593000  0.34450000  1.0
  O  O212  1  0.34143000  0.22165000  0.49696000  1.0
  O  O213  1  0.15857000  0.50304000  0.77834000  1.0
  O  O214  1  0.65857000  0.77835000  0.50303000  1.0
  O  O215  1  0.84143000  0.49696000  0.22165000  1.0
  O  O216  1  0.30162000  0.70298000  0.43974000  1.0
  O  O217  1  0.19838000  0.56026000  0.29701000  1.0
  O  O218  1  0.69838000  0.29701000  0.56026000  1.0
  O  O219  1  0.80161000  0.43974000  0.70298000  1.0
  O  O220  1  0.30319000  0.66861000  0.80826000  1.0
  O  O221  1  0.19681000  0.19173000  0.33140000  1.0
  O  O222  1  0.69681000  0.33140000  0.19173000  1.0
  O  O223  1  0.80319000  0.80827000  0.66860000  1.0
  O  O224  1  0.52508000  0.74205000  0.66982000  1.0
  O  O225  1  0.97492000  0.33018000  0.25796000  1.0
  O  O226  1  0.47492000  0.25796000  0.33018000  1.0
  O  O227  1  0.02508000  0.66982000  0.74204000  1.0
