# generated using pymatgen
data_HgH9C12N7O
_symmetry_space_group_name_H-M   'P 1'
_cell_length_a   8.23887000
_cell_length_b   14.02400000
_cell_length_c   14.48200000
_cell_angle_alpha   90.00000000
_cell_angle_beta   90.00000000
_cell_angle_gamma   97.03200000
_symmetry_Int_Tables_number   1
_chemical_formula_structural   HgH9C12N7O
_chemical_formula_sum   'Hg4 H36 C48 N28 O4'
_cell_volume   1660.69147183
_cell_formula_units_Z   4
loop_
 _symmetry_equiv_pos_site_id
 _symmetry_equiv_pos_as_xyz
  1  'x, y, z'
loop_
 _atom_site_type_symbol
 _atom_site_label
 _atom_site_symmetry_multiplicity
 _atom_site_fract_x
 _atom_site_fract_y
 _atom_site_fract_z
 _atom_site_occupancy
  Hg  Hg0  1  0.54355000  0.18157000  0.98785000  1.0
  Hg  Hg1  1  0.45644000  0.31843000  0.48785000  1.0
  Hg  Hg2  1  0.45645000  0.81843000  0.01215000  1.0
  Hg  Hg3  1  0.54355000  0.68157000  0.51215000  1.0
  H  H4  1  0.27981000  0.72958000  0.67498000  1.0
  H  H5  1  0.72019000  0.77042000  0.17498000  1.0
  H  H6  1  0.72020000  0.27042000  0.32502000  1.0
  H  H7  1  0.27980000  0.22958000  0.82502000  1.0
  H  H8  1  0.26288000  0.84088000  0.81015000  1.0
  H  H9  1  0.73712000  0.65912000  0.31015000  1.0
  H  H10  1  0.73712000  0.15911000  0.18985000  1.0
  H  H11  1  0.26288000  0.34089000  0.68985000  1.0
  H  H12  1  0.67909000  0.01917000  0.69842000  1.0
  H  H13  1  0.32091000  0.48083000  0.19843000  1.0
  H  H14  1  0.32091000  0.98083000  0.30158000  1.0
  H  H15  1  0.67909000  0.51917000  0.80158000  1.0
  H  H16  1  0.68725000  0.89721000  0.57088000  1.0
  H  H17  1  0.31275000  0.60279000  0.07088000  1.0
  H  H18  1  0.31276000  0.10279000  0.42912000  1.0
  H  H19  1  0.68725000  0.39721000  0.92912000  1.0
  H  H20  1  0.12801000  0.98451000  0.02659000  1.0
  H  H21  1  0.87198000  0.51549000  0.52659000  1.0
  H  H22  1  0.87199000  0.01549000  0.97341000  1.0
  H  H23  1  0.12801000  0.48451000  0.47341000  1.0
  H  H24  1  0.98499000  0.04994000  0.15761000  1.0
  H  H25  1  0.01501000  0.45006000  0.65761000  1.0
  H  H26  1  0.01501000  0.95006000  0.84239000  1.0
  H  H27  1  0.98499000  0.54994000  0.34239000  1.0
  H  H28  1  0.97715000  0.17689000  0.28021000  1.0
  H  H29  1  0.02285000  0.32312000  0.78021000  1.0
  H  H30  1  0.02285000  0.82312000  0.71979000  1.0
  H  H31  1  0.97715000  0.67688000  0.21979000  1.0
  H  H32  1  0.19967000  0.31615000  0.28326000  1.0
  H  H33  1  0.80033000  0.18386000  0.78326000  1.0
  H  H34  1  0.80033000  0.68386000  0.71673000  1.0
  H  H35  1  0.19966000  0.81614000  0.21673000  1.0
  H  H36  1  0.42457000  0.32115000  0.16773000  1.0
  H  H37  1  0.57543000  0.17885000  0.66773000  1.0
  H  H38  1  0.57544000  0.67885000  0.83227000  1.0
  H  H39  1  0.42456000  0.82115000  0.33227000  1.0
  C  C40  1  0.46719000  0.94039000  0.76257000  1.0
  C  C41  1  0.53281000  0.55961000  0.26257000  1.0
  C  C42  1  0.53281000  0.05960000  0.23743000  1.0
  C  C43  1  0.46719000  0.44040000  0.73743000  1.0
  C  C44  1  0.36619000  0.79456000  0.68289000  1.0
  C  C45  1  0.63381000  0.70544000  0.18289000  1.0
  C  C46  1  0.63382000  0.20544000  0.31712000  1.0
  C  C47  1  0.36618000  0.29456000  0.81711000  1.0
  C  C48  1  0.35499000  0.85705000  0.75664000  1.0
  C  C49  1  0.64501000  0.64295000  0.25664000  1.0
  C  C50  1  0.64502000  0.14295000  0.24337000  1.0
  C  C51  1  0.35498000  0.35706000  0.74337000  1.0
  C  C52  1  0.58811000  0.95610000  0.69448000  1.0
  C  C53  1  0.41189000  0.54390000  0.19448000  1.0
  C  C54  1  0.41189000  0.04390000  0.30552000  1.0
  C  C55  1  0.58811000  0.45610000  0.80552000  1.0
  C  C56  1  0.59226000  0.88926000  0.62391000  1.0
  C  C57  1  0.40774000  0.61074000  0.12391000  1.0
  C  C58  1  0.40774000  0.11074000  0.37609000  1.0
  C  C59  1  0.59226000  0.38926000  0.87609000  1.0
  C  C60  1  0.46461000  0.01234000  0.83883000  1.0
  C  C61  1  0.53539000  0.48766000  0.33883000  1.0
  C  C62  1  0.53539000  0.98766000  0.16117000  1.0
  C  C63  1  0.46461000  0.51235000  0.66117000  1.0
  C  C64  1  0.22102000  0.04729000  0.02813000  1.0
  C  C65  1  0.77898000  0.45271000  0.52813000  1.0
  C  C66  1  0.77899000  0.95271000  0.97187000  1.0
  C  C67  1  0.22101000  0.54729000  0.47187000  1.0
  C  C68  1  0.21092000  0.11954000  0.09933000  1.0
  C  C69  1  0.78907000  0.38046000  0.59933000  1.0
  C  C70  1  0.78908000  0.88046000  0.90067000  1.0
  C  C71  1  0.21092000  0.61954000  0.40068000  1.0
  C  C72  1  0.08054000  0.11090000  0.16243000  1.0
  C  C73  1  0.91946000  0.38910000  0.66243000  1.0
  C  C74  1  0.91946000  0.88910000  0.83757000  1.0
  C  C75  1  0.08054000  0.61090000  0.33757000  1.0
  C  C76  1  0.07529000  0.18176000  0.22938000  1.0
  C  C77  1  0.92471000  0.31824000  0.72938000  1.0
  C  C78  1  0.92472000  0.81824000  0.77062000  1.0
  C  C79  1  0.07528000  0.68176000  0.27062000  1.0
  C  C80  1  0.19820000  0.25951000  0.23189000  1.0
  C  C81  1  0.80180000  0.24049000  0.73189000  1.0
  C  C82  1  0.80180000  0.74049000  0.76811000  1.0
  C  C83  1  0.19820000  0.75951000  0.26811000  1.0
  C  C84  1  0.32401000  0.26274000  0.16707000  1.0
  C  C85  1  0.67600000  0.23726000  0.66707000  1.0
  C  C86  1  0.67600000  0.73726000  0.83293000  1.0
  C  C87  1  0.32400000  0.76274000  0.33293000  1.0
  N  N88  1  0.34088000  0.99096000  0.90028000  1.0
  N  N89  1  0.65912000  0.50904000  0.40028000  1.0
  N  N90  1  0.65912000  0.00904000  0.09972000  1.0
  N  N91  1  0.34088000  0.49096000  0.59972000  1.0
  N  N92  1  0.33733000  0.05705000  0.96724000  1.0
  N  N93  1  0.66267000  0.44295000  0.46724000  1.0
  N  N94  1  0.66267000  0.94295000  0.03276000  1.0
  N  N95  1  0.33732000  0.55705000  0.53276000  1.0
  N  N96  1  0.32993000  0.19490000  0.10286000  1.0
  N  N97  1  0.67007000  0.30511000  0.60286000  1.0
  N  N98  1  0.67007000  0.80510000  0.89714000  1.0
  N  N99  1  0.32993000  0.69490000  0.39714000  1.0
  N  N100  1  0.79295000  0.24760000  0.01541000  1.0
  N  N101  1  0.20705000  0.25240000  0.51541000  1.0
  N  N102  1  0.20706000  0.75239000  0.98458000  1.0
  N  N103  1  0.79295000  0.74761000  0.48458000  1.0
  N  N104  1  0.89757000  0.21595000  0.96988000  1.0
  N  N105  1  0.10242000  0.28404000  0.46988000  1.0
  N  N106  1  0.10243000  0.78403000  0.03011000  1.0
  N  N107  1  0.89757000  0.71596000  0.53012000  1.0
  N  N108  1  0.00484000  0.18880000  0.92864000  1.0
  N  N109  1  0.99516000  0.31118000  0.42864000  1.0
  N  N110  1  0.99516000  0.81117000  0.07135000  1.0
  N  N111  1  0.00484000  0.68882000  0.57135000  1.0
  N  N112  1  0.48258000  0.81039000  0.61761000  1.0
  N  N113  1  0.51742000  0.68961000  0.11761000  1.0
  N  N114  1  0.51743000  0.18961000  0.38239000  1.0
  N  N115  1  0.48258000  0.31039000  0.88239000  1.0
  O  O116  1  0.57346000  0.08418000  0.83913000  1.0
  O  O117  1  0.42654000  0.41582000  0.33913000  1.0
  O  O118  1  0.42653000  0.91582000  0.16087000  1.0
  O  O119  1  0.57346000  0.58419000  0.66087000  1.0
