# generated using pymatgen
data_KScH4(C2O5)2
_symmetry_space_group_name_H-M   'P 1'
_cell_length_a   8.87544585
_cell_length_b   8.87554000
_cell_length_c   11.61070000
_cell_angle_alpha   89.99970000
_cell_angle_beta   89.99970000
_cell_angle_gamma   60.00094726
_symmetry_Int_Tables_number   1
_chemical_formula_structural   KScH4(C2O5)2
_chemical_formula_sum   'K3 Sc3 H12 C12 O30'
_cell_volume   792.09659225
_cell_formula_units_Z   3
loop_
 _symmetry_equiv_pos_site_id
 _symmetry_equiv_pos_as_xyz
  1  'x, y, z'
loop_
 _atom_site_type_symbol
 _atom_site_label
 _atom_site_symmetry_multiplicity
 _atom_site_fract_x
 _atom_site_fract_y
 _atom_site_fract_z
 _atom_site_occupancy
  K  K0  1  0.00000000  0.00000000  0.66666667  1.0
  K  K1  1  0.00000000  0.00000000  0.33333333  1.0
  K  K2  1  0.00000000  0.00000000  0.00001000  1.0
  Sc  Sc3  1  0.50000000  0.00000000  0.66666667  1.0
  Sc  Sc4  1  0.50000000  0.50000000  0.33333333  1.0
  Sc  Sc5  1  0.00000000  0.50001000  0.99999000  1.0
  H  H6  1  0.65227000  0.24861000  0.81622000  1.0
  H  H7  1  0.34772000  0.75140000  0.81622000  1.0
  H  H8  1  0.09913000  0.24855000  0.51713000  1.0
  H  H9  1  0.90087000  0.75144000  0.51713000  1.0
  H  H10  1  0.34773000  0.90089000  0.18379000  1.0
  H  H11  1  0.65226000  0.09911000  0.18379000  1.0
  H  H12  1  0.24860000  0.65228000  0.85048000  1.0
  H  H13  1  0.75139000  0.34772000  0.85048000  1.0
  H  H14  1  0.24862000  0.09912000  0.14953000  1.0
  H  H15  1  0.75137000  0.90089000  0.14952000  1.0
  H  H16  1  0.90089000  0.34768000  0.48288000  1.0
  H  H17  1  0.09911000  0.65231000  0.48288000  1.0
  C  C18  1  0.57936000  0.21032000  0.49999000  1.0
  C  C19  1  0.42065000  0.78968000  0.49999000  1.0
  C  C20  1  0.21033000  0.21032000  0.83334000  1.0
  C  C21  1  0.78967000  0.78968000  0.83334000  1.0
  C  C22  1  0.21033000  0.57935000  0.16667000  1.0
  C  C23  1  0.78968000  0.42064000  0.16667000  1.0
  C  C24  1  0.38017000  0.30991000  0.49999000  1.0
  C  C25  1  0.61983000  0.69009000  0.49999000  1.0
  C  C26  1  0.30991000  0.30991000  0.83333000  1.0
  C  C27  1  0.69009000  0.69009000  0.83333000  1.0
  C  C28  1  0.30991000  0.38018000  0.16667000  1.0
  C  C29  1  0.69010000  0.61982000  0.16667000  1.0
  O  O30  1  0.65436000  0.08009000  0.56584000  1.0
  O  O31  1  0.34564000  0.91990000  0.56584000  1.0
  O  O32  1  0.26555000  0.08008000  0.76751000  1.0
  O  O33  1  0.73445000  0.91992000  0.76750000  1.0
  O  O34  1  0.34565000  0.73444000  0.43416000  1.0
  O  O35  1  0.65435000  0.26556000  0.43416000  1.0
  O  O36  1  0.08009000  0.65437000  0.10083000  1.0
  O  O37  1  0.91991000  0.34564000  0.10083000  1.0
  O  O38  1  0.08009000  0.26554000  0.89916000  1.0
  O  O39  1  0.91991000  0.73446000  0.89916000  1.0
  O  O40  1  0.73445000  0.34563000  0.23250000  1.0
  O  O41  1  0.26555000  0.65437000  0.23250000  1.0
  O  O42  1  0.30854000  0.24210000  0.55804000  1.0
  O  O43  1  0.69146000  0.75789000  0.55805000  1.0
  O  O44  1  0.44934000  0.24212000  0.77528000  1.0
  O  O45  1  0.55066000  0.75788000  0.77528000  1.0
  O  O46  1  0.69147000  0.55066000  0.44196000  1.0
  O  O47  1  0.30854000  0.44934000  0.44196000  1.0
  O  O48  1  0.24212000  0.30854000  0.10861000  1.0
  O  O49  1  0.75789000  0.69146000  0.10861000  1.0
  O  O50  1  0.24211000  0.44934000  0.89138000  1.0
  O  O51  1  0.75790000  0.55066000  0.89138000  1.0
  O  O52  1  0.55067000  0.69147000  0.22471000  1.0
  O  O53  1  0.44933000  0.30854000  0.22472000  1.0
  O  O54  1  0.76808000  0.23191000  0.83336000  1.0
  O  O55  1  0.23191000  0.76810000  0.83336000  1.0
  O  O56  1  0.00000000  0.23186000  0.50000000  1.0
  O  O57  1  0.99999000  0.76813000  0.50000000  1.0
  O  O58  1  0.23192000  0.00001000  0.16666000  1.0
  O  O59  1  0.76807000  0.00000000  0.16666000  1.0
