# generated using pymatgen
data_CdH11C8I2N
_symmetry_space_group_name_H-M   'P 1'
_cell_length_a   7.64130000
_cell_length_b   8.04904000
_cell_length_c   19.24320000
_cell_angle_alpha   90.00010000
_cell_angle_beta   89.99970000
_cell_angle_gamma   89.66760000
_symmetry_Int_Tables_number   1
_chemical_formula_structural   CdH11C8I2N
_chemical_formula_sum   'Cd4 H44 C32 I8 N4'
_cell_volume   1183.53558766
_cell_formula_units_Z   4
loop_
 _symmetry_equiv_pos_site_id
 _symmetry_equiv_pos_as_xyz
  1  'x, y, z'
loop_
 _atom_site_type_symbol
 _atom_site_label
 _atom_site_symmetry_multiplicity
 _atom_site_fract_x
 _atom_site_fract_y
 _atom_site_fract_z
 _atom_site_occupancy
  Cd  Cd0  1  0.75798000  0.94671000  0.53290000  1.0
  Cd  Cd1  1  0.74202000  0.05328000  0.03290000  1.0
  Cd  Cd2  1  0.24201000  0.05330000  0.46711000  1.0
  Cd  Cd3  1  0.25798000  0.94668000  0.96710000  1.0
  H  H4  1  0.02200000  0.00784000  0.66043000  1.0
  H  H5  1  0.47800000  0.99217000  0.16043000  1.0
  H  H6  1  0.97800000  0.99217000  0.33958000  1.0
  H  H7  1  0.52198000  0.00783000  0.83957000  1.0
  H  H8  1  0.94341000  0.05489000  0.74548000  1.0
  H  H9  1  0.55659000  0.94512000  0.24548000  1.0
  H  H10  1  0.05658000  0.94512000  0.25452000  1.0
  H  H11  1  0.44340000  0.05489000  0.75452000  1.0
  H  H12  1  0.82074000  0.11497000  0.67062000  1.0
  H  H13  1  0.67926000  0.88504000  0.17062000  1.0
  H  H14  1  0.17926000  0.88504000  0.32938000  1.0
  H  H15  1  0.32072000  0.11496000  0.82938000  1.0
  H  H16  1  0.83231000  0.82356000  0.80556000  1.0
  H  H17  1  0.66770000  0.17644000  0.30556000  1.0
  H  H18  1  0.16770000  0.17645000  0.19444000  1.0
  H  H19  1  0.33230000  0.82356000  0.69443000  1.0
  H  H20  1  0.53814000  0.46616000  0.82452000  1.0
  H  H21  1  0.96187000  0.53384000  0.32453000  1.0
  H  H22  1  0.46187000  0.53385000  0.17548000  1.0
  H  H23  1  0.03813000  0.46615000  0.67547000  1.0
  H  H24  1  0.68102000  0.60233000  0.86980000  1.0
  H  H25  1  0.81899000  0.39767000  0.36981000  1.0
  H  H26  1  0.31899000  0.39767000  0.13020000  1.0
  H  H27  1  0.18101000  0.60232000  0.63019000  1.0
  H  H28  1  0.76313000  0.41852000  0.83030000  1.0
  H  H29  1  0.73688000  0.58148000  0.33030000  1.0
  H  H30  1  0.23688000  0.58148000  0.16970000  1.0
  H  H31  1  0.26312000  0.41852000  0.66969000  1.0
  H  H32  1  0.57834000  0.43262000  0.69083000  1.0
  H  H33  1  0.92166000  0.56739000  0.19083000  1.0
  H  H34  1  0.42167000  0.56739000  0.30918000  1.0
  H  H35  1  0.07835000  0.43260000  0.80917000  1.0
  H  H36  1  0.48592000  0.67316000  0.54867000  1.0
  H  H37  1  0.01409000  0.32685000  0.04867000  1.0
  H  H38  1  0.51409000  0.32685000  0.45134000  1.0
  H  H39  1  0.98591000  0.67314000  0.95133000  1.0
  H  H40  1  0.53532000  0.46318000  0.57082000  1.0
  H  H41  1  0.96468000  0.53683000  0.07082000  1.0
  H  H42  1  0.46468000  0.53683000  0.42918000  1.0
  H  H43  1  0.03531000  0.46315000  0.92918000  1.0
  H  H44  1  0.69121000  0.58444000  0.52507000  1.0
  H  H45  1  0.80880000  0.41557000  0.02508000  1.0
  H  H46  1  0.30879000  0.41557000  0.47493000  1.0
  H  H47  1  0.19120000  0.58442000  0.97492000  1.0
  C  C48  1  0.80986000  0.85431000  0.69512000  1.0
  C  C49  1  0.69014000  0.14570000  0.19512000  1.0
  C  C50  1  0.19014000  0.14570000  0.30489000  1.0
  C  C51  1  0.30985000  0.85430000  0.80488000  1.0
  C  C52  1  0.90401000  0.01670000  0.69311000  1.0
  C  C53  1  0.59599000  0.98331000  0.19312000  1.0
  C  C54  1  0.09599000  0.98331000  0.30689000  1.0
  C  C55  1  0.40399000  0.01669000  0.80688000  1.0
  C  C56  1  0.78543000  0.76827000  0.75731000  1.0
  C  C57  1  0.71458000  0.23174000  0.25731000  1.0
  C  C58  1  0.21458000  0.23174000  0.24270000  1.0
  C  C59  1  0.28542000  0.76825000  0.74269000  1.0
  C  C60  1  0.70080000  0.61466000  0.75798000  1.0
  C  C61  1  0.79921000  0.38534000  0.25798000  1.0
  C  C62  1  0.29921000  0.38534000  0.24202000  1.0
  C  C63  1  0.20079000  0.61465000  0.74202000  1.0
  C  C64  1  0.66909000  0.52172000  0.82410000  1.0
  C  C65  1  0.83092000  0.47829000  0.32411000  1.0
  C  C66  1  0.33092000  0.47829000  0.17590000  1.0
  C  C67  1  0.16908000  0.52171000  0.67589000  1.0
  C  C68  1  0.64466000  0.55212000  0.69395000  1.0
  C  C69  1  0.85535000  0.44789000  0.19396000  1.0
  C  C70  1  0.35535000  0.44788000  0.30605000  1.0
  C  C71  1  0.14465000  0.55211000  0.80604000  1.0
  C  C72  1  0.66520000  0.64476000  0.63337000  1.0
  C  C73  1  0.83480000  0.35525000  0.13337000  1.0
  C  C74  1  0.33481000  0.35525000  0.36664000  1.0
  C  C75  1  0.16519000  0.64474000  0.86663000  1.0
  C  C76  1  0.59059000  0.58785000  0.56592000  1.0
  C  C77  1  0.90941000  0.41216000  0.06592000  1.0
  C  C78  1  0.40941000  0.41216000  0.43408000  1.0
  C  C79  1  0.09059000  0.58784000  0.93407000  1.0
  I  I80  1  0.57710000  0.89412000  0.40436000  1.0
  I  I81  1  0.92290000  0.10587000  0.90436000  1.0
  I  I82  1  0.42290000  0.10588000  0.59564000  1.0
  I  I83  1  0.07710000  0.89412000  0.09564000  1.0
  I  I84  1  0.92786000  0.25485000  0.51322000  1.0
  I  I85  1  0.57213000  0.74515000  0.01322000  1.0
  I  I86  1  0.07213000  0.74517000  0.48677000  1.0
  I  I87  1  0.42787000  0.25482000  0.98678000  1.0
  N  N88  1  0.74757000  0.79340000  0.63438000  1.0
  N  N89  1  0.75243000  0.20660000  0.13438000  1.0
  N  N90  1  0.25244000  0.20660000  0.36563000  1.0
  N  N91  1  0.24756000  0.79339000  0.86562000  1.0
