# generated using pymatgen
data_Zn2P2H12C8N4O7
_symmetry_space_group_name_H-M   'P 1'
_cell_length_a   9.67653000
_cell_length_b   10.47770000
_cell_length_c   14.65620000
_cell_angle_alpha   90.00000000
_cell_angle_beta   90.00000000
_cell_angle_gamma   89.99990000
_symmetry_Int_Tables_number   1
_chemical_formula_structural   Zn2P2H12C8N4O7
_chemical_formula_sum   'Zn8 P8 H48 C32 N16 O28'
_cell_volume   1485.95955751
_cell_formula_units_Z   4
loop_
 _symmetry_equiv_pos_site_id
 _symmetry_equiv_pos_as_xyz
  1  'x, y, z'
loop_
 _atom_site_type_symbol
 _atom_site_label
 _atom_site_symmetry_multiplicity
 _atom_site_fract_x
 _atom_site_fract_y
 _atom_site_fract_z
 _atom_site_occupancy
  Zn  Zn0  1  0.75066000  0.58729000  0.06435000  1.0
  Zn  Zn1  1  0.25066000  0.91271000  0.93565000  1.0
  Zn  Zn2  1  0.74934000  0.41271000  0.56435000  1.0
  Zn  Zn3  1  0.24934000  0.08729000  0.43565000  1.0
  Zn  Zn4  1  0.64232000  0.97572000  0.18349000  1.0
  Zn  Zn5  1  0.14232000  0.52428000  0.81651000  1.0
  Zn  Zn6  1  0.85768000  0.02428000  0.68349000  1.0
  Zn  Zn7  1  0.35768000  0.47572000  0.31651000  1.0
  P  P8  1  0.55214000  0.69607000  0.21826000  1.0
  P  P9  1  0.05214000  0.80393000  0.78174000  1.0
  P  P10  1  0.94786000  0.30393000  0.71827000  1.0
  P  P11  1  0.44786000  0.19607000  0.28173000  1.0
  P  P12  1  0.53237000  0.80037000  0.02145000  1.0
  P  P13  1  0.03236000  0.69963000  0.97855000  1.0
  P  P14  1  0.96763000  0.19963000  0.52145000  1.0
  P  P15  1  0.46763000  0.30037000  0.47855000  1.0
  H  H16  1  0.31674000  0.54845000  0.13551000  1.0
  H  H17  1  0.81674000  0.95155000  0.86449000  1.0
  H  H18  1  0.18326000  0.45155000  0.63551000  1.0
  H  H19  1  0.68326000  0.04845000  0.36449000  1.0
  H  H20  1  0.47195000  0.51941000  0.07391000  1.0
  H  H21  1  0.97195000  0.98059000  0.92609000  1.0
  H  H22  1  0.02805000  0.48059000  0.57391000  1.0
  H  H23  1  0.52805000  0.01941000  0.42610000  1.0
  H  H24  1  0.33037000  0.59669000  0.01990000  1.0
  H  H25  1  0.83037000  0.90331000  0.98010000  1.0
  H  H26  1  0.16963000  0.40331000  0.51990000  1.0
  H  H27  1  0.66963000  0.09669000  0.48010000  1.0
  H  H28  1  0.84301000  0.19887000  0.26451000  1.0
  H  H29  1  0.34301000  0.30113000  0.73549000  1.0
  H  H30  1  0.65699000  0.80113000  0.76451000  1.0
  H  H31  1  0.15699000  0.69887000  0.23549000  1.0
  H  H32  1  0.10890000  0.16113000  0.26862000  1.0
  H  H33  1  0.60890000  0.33887000  0.73137000  1.0
  H  H34  1  0.39110000  0.83887000  0.76862000  1.0
  H  H35  1  0.89110000  0.66113000  0.23138000  1.0
  H  H36  1  0.17747000  0.95562000  0.19447000  1.0
  H  H37  1  0.67747000  0.54438000  0.80553000  1.0
  H  H38  1  0.32253000  0.04438000  0.69447000  1.0
  H  H39  1  0.82253000  0.45562000  0.30553000  1.0
  H  H40  1  0.92947000  0.84517000  0.13688000  1.0
  H  H41  1  0.42947000  0.65483000  0.86312000  1.0
  H  H42  1  0.57054000  0.15483000  0.63688000  1.0
  H  H43  1  0.07053000  0.34517000  0.36312000  1.0
  H  H44  1  0.88481000  0.43013000  0.90663000  1.0
  H  H45  1  0.38481000  0.06987000  0.09337000  1.0
  H  H46  1  0.61519000  0.56987000  0.40663000  1.0
  H  H47  1  0.11519000  0.93013000  0.59337000  1.0
  H  H48  1  0.82186000  0.20300000  0.87118000  1.0
  H  H49  1  0.32186000  0.29700000  0.12882000  1.0
  H  H50  1  0.67814000  0.79700000  0.37118000  1.0
  H  H51  1  0.17814000  0.70300000  0.62882000  1.0
  H  H52  1  0.65103000  0.10929000  0.99230000  1.0
  H  H53  1  0.15103000  0.39071000  0.00770000  1.0
  H  H54  1  0.84897000  0.89071000  0.49230000  1.0
  H  H55  1  0.34896000  0.60929000  0.50770000  1.0
  H  H56  1  0.60658000  0.30983000  0.11265000  1.0
  H  H57  1  0.10658000  0.19017000  0.88735000  1.0
  H  H58  1  0.89342000  0.69017000  0.61265000  1.0
  H  H59  1  0.39342000  0.80983000  0.38735000  1.0
  H  H60  1  0.25268000  0.79000000  0.09815000  1.0
  H  H61  1  0.75268000  0.71000000  0.90185000  1.0
  H  H62  1  0.24732000  0.21000000  0.59815000  1.0
  H  H63  1  0.74732000  0.29000000  0.40185000  1.0
  C  C64  1  0.43971000  0.71864000  0.11652000  1.0
  C  C65  1  0.93970000  0.78136000  0.88348000  1.0
  C  C66  1  0.06030000  0.28136000  0.61652000  1.0
  C  C67  1  0.56029000  0.21864000  0.38348000  1.0
  C  C68  1  0.38755000  0.58776000  0.08419000  1.0
  C  C69  1  0.88755000  0.91224000  0.91581000  1.0
  C  C70  1  0.11245000  0.41224000  0.58419000  1.0
  C  C71  1  0.61245000  0.08776000  0.41581000  1.0
  C  C72  1  0.89925000  0.11783000  0.23701000  1.0
  C  C73  1  0.39925000  0.38217000  0.76298000  1.0
  C  C74  1  0.60075000  0.88217000  0.73702000  1.0
  C  C75  1  0.10075000  0.61783000  0.26298000  1.0
  C  C76  1  0.07127000  0.98763000  0.19933000  1.0
  C  C77  1  0.57127000  0.51237000  0.80067000  1.0
  C  C78  1  0.42873000  0.01237000  0.69933000  1.0
  C  C79  1  0.92873000  0.48763000  0.30067000  1.0
  C  C80  1  0.94817000  0.93379000  0.17321000  1.0
  C  C81  1  0.44817000  0.56621000  0.82679000  1.0
  C  C82  1  0.55183000  0.06622000  0.67321000  1.0
  C  C83  1  0.05183000  0.43378000  0.32679000  1.0
  C  C84  1  0.81416000  0.37273000  0.94667000  1.0
  C  C85  1  0.31416000  0.12727000  0.05332000  1.0
  C  C86  1  0.68584000  0.62727000  0.44667000  1.0
  C  C87  1  0.18584000  0.87273000  0.55333000  1.0
  C  C88  1  0.69073000  0.20625000  0.99228000  1.0
  C  C89  1  0.19073000  0.29374000  0.00772000  1.0
  C  C90  1  0.80927000  0.79374000  0.49228000  1.0
  C  C91  1  0.30927000  0.70626000  0.50772000  1.0
  C  C92  1  0.66917000  0.30628000  0.05133000  1.0
  C  C93  1  0.16917000  0.19372000  0.94867000  1.0
  C  C94  1  0.83083000  0.69372000  0.55133000  1.0
  C  C95  1  0.33083000  0.80628000  0.44867000  1.0
  N  N96  1  0.03773000  0.10288000  0.23867000  1.0
  N  N97  1  0.53773000  0.39712000  0.76133000  1.0
  N  N98  1  0.46227000  0.89712000  0.73867000  1.0
  N  N99  1  0.96227000  0.60288000  0.26133000  1.0
  N  N100  1  0.78234000  0.25050000  0.92733000  1.0
  N  N101  1  0.28234000  0.24950000  0.07267000  1.0
  N  N102  1  0.71765000  0.74950000  0.42733000  1.0
  N  N103  1  0.21766000  0.75050000  0.57267000  1.0
  N  N104  1  0.74683000  0.40965000  0.02182000  1.0
  N  N105  1  0.24683000  0.09035000  0.97818000  1.0
  N  N106  1  0.75317000  0.59035000  0.52182000  1.0
  N  N107  1  0.25317000  0.90965000  0.47818000  1.0
  N  N108  1  0.84181000  0.01574000  0.19741000  1.0
  N  N109  1  0.34181000  0.48426000  0.80259000  1.0
  N  N110  1  0.65819000  0.98426000  0.69741000  1.0
  N  N111  1  0.15819000  0.51574000  0.30259000  1.0
  O  O112  1  0.46908000  0.62437000  0.29051000  1.0
  O  O113  1  0.96908000  0.87564000  0.70949000  1.0
  O  O114  1  0.03092000  0.37563000  0.79051000  1.0
  O  O115  1  0.53092000  0.12436000  0.20949000  1.0
  O  O116  1  0.59250000  0.82728000  0.25952000  1.0
  O  O117  1  0.09250000  0.67272000  0.74048000  1.0
  O  O118  1  0.90750000  0.17272000  0.75952000  1.0
  O  O119  1  0.40751000  0.32728000  0.24048000  1.0
  O  O120  1  0.68216000  0.62227000  0.18732000  1.0
  O  O121  1  0.18216000  0.87773000  0.81268000  1.0
  O  O122  1  0.81784000  0.37773000  0.68732000  1.0
  O  O123  1  0.31784000  0.12227000  0.31268000  1.0
  O  O124  1  0.42976000  0.82821000  0.94403000  1.0
  O  O125  1  0.92976000  0.67179000  0.05597000  1.0
  O  O126  1  0.07024000  0.17179000  0.44403000  1.0
  O  O127  1  0.57024000  0.32820000  0.55597000  1.0
  O  O128  1  0.59731000  0.92399000  0.05823000  1.0
  O  O129  1  0.09730000  0.57601000  0.94177000  1.0
  O  O130  1  0.90270000  0.07601000  0.55824000  1.0
  O  O131  1  0.40269000  0.42399000  0.44177000  1.0
  O  O132  1  0.63985000  0.70321000  0.98535000  1.0
  O  O133  1  0.13985000  0.79679000  0.01465000  1.0
  O  O134  1  0.86015000  0.29679000  0.48535000  1.0
  O  O135  1  0.36015000  0.20321000  0.51465000  1.0
  O  O136  1  0.32710000  0.79861000  0.14538000  1.0
  O  O137  1  0.82710000  0.70140000  0.85462000  1.0
  O  O138  1  0.17290000  0.20140000  0.64538000  1.0
  O  O139  1  0.67290000  0.29860000  0.35462000  1.0
