# generated using pymatgen
data_Cu5H40Rh2C60N10(Cl2O11)2
_symmetry_space_group_name_H-M   'P 1'
_cell_length_a   15.54270000
_cell_length_b   16.12510000
_cell_length_c   16.12490000
_cell_angle_alpha   112.85200000
_cell_angle_beta   90.65770000
_cell_angle_gamma   90.65790000
_symmetry_Int_Tables_number   1
_chemical_formula_structural   Cu5H40Rh2C60N10(Cl2O11)2
_chemical_formula_sum   'Cu10 H80 Rh4 C120 N20 Cl8 O44'
_cell_volume   3723.34144461
_cell_formula_units_Z   2
loop_
 _symmetry_equiv_pos_site_id
 _symmetry_equiv_pos_as_xyz
  1  'x, y, z'
loop_
 _atom_site_type_symbol
 _atom_site_label
 _atom_site_symmetry_multiplicity
 _atom_site_fract_x
 _atom_site_fract_y
 _atom_site_fract_z
 _atom_site_occupancy
  Cu  Cu0  1  0.06698000  0.20352000  0.71579000  1.0
  Cu  Cu1  1  0.43330000  0.80461000  0.33112000  1.0
  Cu  Cu2  1  0.43303000  0.28421000  0.79647000  1.0
  Cu  Cu3  1  0.06670000  0.66882000  0.19539000  1.0
  Cu  Cu4  1  0.93302000  0.79647000  0.28420000  1.0
  Cu  Cu5  1  0.56670000  0.19540000  0.66886000  1.0
  Cu  Cu6  1  0.56696000  0.71578000  0.20352000  1.0
  Cu  Cu7  1  0.93330000  0.33116000  0.80462000  1.0
  Cu  Cu8  1  0.24995000  0.77193000  0.22804000  1.0
  Cu  Cu9  1  0.75000000  0.22806000  0.77195000  1.0
  H  H10  1  0.16945000  0.14622000  0.09069000  1.0
  H  H11  1  0.11162000  0.14602000  0.94475000  1.0
  H  H12  1  0.05348000  0.42749000  0.08665000  1.0
  H  H13  1  0.12173000  0.41880000  0.22328000  1.0
  H  H14  1  0.76656000  0.89972000  0.71312000  1.0
  H  H15  1  0.85920000  0.02994000  0.71869000  1.0
  H  H16  1  0.07802000  0.88764000  0.76031000  1.0
  H  H17  1  0.97789000  0.76116000  0.74888000  1.0
  H  H18  1  0.77473000  0.41539000  0.45376000  1.0
  H  H19  1  0.85334000  0.41947000  0.59150000  1.0
  H  H20  1  0.88635000  0.13277000  0.45702000  1.0
  H  H21  1  0.80419000  0.13870000  0.32595000  1.0
  H  H22  1  0.34284000  0.54499000  0.72107000  1.0
  H  H23  1  0.27024000  0.41182000  0.73441000  1.0
  H  H24  1  0.02717000  0.53947000  0.73402000  1.0
  H  H25  1  0.10906000  0.66499000  0.71599000  1.0
  H  H26  1  0.02959000  0.08460000  0.52998000  1.0
  H  H27  1  0.10062000  0.95491000  0.40782000  1.0
  H  H28  1  0.33522000  0.03014000  0.56635000  1.0
  H  H29  1  0.25365000  0.15211000  0.68482000  1.0
  H  H30  1  0.33052000  0.90929000  0.85377000  1.0
  H  H31  1  0.38832000  0.05524000  0.85397000  1.0
  H  H32  1  0.44649000  0.91336000  0.57250000  1.0
  H  H33  1  0.37827000  0.77672000  0.58119000  1.0
  H  H34  1  0.73344000  0.28686000  0.10029000  1.0
  H  H35  1  0.64080000  0.28132000  0.97007000  1.0
  H  H36  1  0.42199000  0.23972000  0.11240000  1.0
  H  H37  1  0.52212000  0.25111000  0.23887000  1.0
  H  H38  1  0.72531000  0.54626000  0.58462000  1.0
  H  H39  1  0.64671000  0.40851000  0.58056000  1.0
  H  H40  1  0.61370000  0.54303000  0.86726000  1.0
  H  H41  1  0.69585000  0.67408000  0.86130000  1.0
  H  H42  1  0.15714000  0.27893000  0.45501000  1.0
  H  H43  1  0.22975000  0.26561000  0.58819000  1.0
  H  H44  1  0.47282000  0.26601000  0.46053000  1.0
  H  H45  1  0.39091000  0.28402000  0.33501000  1.0
  H  H46  1  0.47040000  0.47001000  0.91541000  1.0
  H  H47  1  0.39932000  0.59216000  0.04510000  1.0
  H  H48  1  0.16474000  0.43362000  0.96982000  1.0
  H  H49  1  0.24634000  0.31514000  0.84786000  1.0
  H  H50  1  0.83056000  0.85379000  0.90931000  1.0
  H  H51  1  0.88838000  0.85398000  0.05524000  1.0
  H  H52  1  0.94652000  0.57250000  0.91335000  1.0
  H  H53  1  0.87828000  0.58120000  0.77671000  1.0
  H  H54  1  0.23344000  0.10029000  0.28688000  1.0
  H  H55  1  0.14081000  0.97006000  0.28131000  1.0
  H  H56  1  0.92199000  0.11237000  0.23969000  1.0
  H  H57  1  0.02211000  0.23884000  0.25112000  1.0
  H  H58  1  0.22529000  0.58461000  0.54625000  1.0
  H  H59  1  0.14668000  0.58054000  0.40850000  1.0
  H  H60  1  0.11366000  0.86724000  0.54300000  1.0
  H  H61  1  0.19582000  0.86130000  0.67406000  1.0
  H  H62  1  0.65715000  0.45499000  0.27893000  1.0
  H  H63  1  0.72976000  0.58817000  0.26559000  1.0
  H  H64  1  0.97283000  0.46053000  0.26598000  1.0
  H  H65  1  0.89093000  0.33500000  0.28401000  1.0
  H  H66  1  0.97042000  0.91540000  0.47002000  1.0
  H  H67  1  0.89937000  0.04510000  0.59218000  1.0
  H  H68  1  0.66478000  0.96986000  0.43363000  1.0
  H  H69  1  0.74635000  0.84788000  0.31517000  1.0
  H  H70  1  0.66949000  0.09070000  0.14623000  1.0
  H  H71  1  0.61167000  0.94476000  0.14603000  1.0
  H  H72  1  0.55349000  0.08664000  0.42749000  1.0
  H  H73  1  0.62173000  0.22327000  0.41881000  1.0
  H  H74  1  0.26657000  0.71314000  0.89972000  1.0
  H  H75  1  0.35921000  0.71869000  0.02994000  1.0
  H  H76  1  0.57802000  0.76028000  0.88761000  1.0
  H  H77  1  0.47788000  0.74888000  0.76114000  1.0
  H  H78  1  0.27470000  0.45375000  0.41538000  1.0
  H  H79  1  0.35331000  0.59149000  0.41945000  1.0
  H  H80  1  0.38631000  0.45698000  0.13274000  1.0
  H  H81  1  0.30416000  0.32593000  0.13870000  1.0
  H  H82  1  0.84285000  0.72107000  0.54498000  1.0
  H  H83  1  0.77023000  0.73440000  0.41180000  1.0
  H  H84  1  0.52717000  0.73399000  0.53947000  1.0
  H  H85  1  0.60908000  0.71598000  0.66499000  1.0
  H  H86  1  0.52960000  0.52998000  0.08458000  1.0
  H  H87  1  0.60068000  0.40783000  0.95489000  1.0
  H  H88  1  0.83526000  0.56638000  0.03018000  1.0
  H  H89  1  0.75366000  0.68486000  0.15214000  1.0
  Rh  Rh90  1  0.20846000  0.28094000  0.27636000  1.0
  Rh  Rh91  1  0.29153000  0.72363000  0.71905000  1.0
  Rh  Rh92  1  0.79155000  0.71906000  0.72363000  1.0
  Rh  Rh93  1  0.70848000  0.27636000  0.28095000  1.0
  C  C94  1  0.14283000  0.20645000  0.08631000  1.0
  C  C95  1  0.11005000  0.20680000  0.00613000  1.0
  C  C96  1  0.07693000  0.28650000  0.00467000  1.0
  C  C97  1  0.07822000  0.36366000  0.08417000  1.0
  C  C98  1  0.11578000  0.35949000  0.16095000  1.0
  C  C99  1  0.04469000  0.28803000  0.91714000  1.0
  C  C100  1  0.83609000  0.89910000  0.72118000  1.0
  C  C101  1  0.88798000  0.97115000  0.72474000  1.0
  C  C102  1  0.97691000  0.96680000  0.73619000  1.0
  C  C103  1  0.00965000  0.89158000  0.74745000  1.0
  C  C104  1  0.95457000  0.82179000  0.74264000  1.0
  C  C105  1  0.03929000  0.03910000  0.73494000  1.0
  C  C106  1  0.80048000  0.35466000  0.45783000  1.0
  C  C107  1  0.84396000  0.35614000  0.53383000  1.0
  C  C108  1  0.87416000  0.27550000  0.53554000  1.0
  C  C109  1  0.86210000  0.19655000  0.45905000  1.0
  C  C110  1  0.81644000  0.19935000  0.38584000  1.0
  C  C111  1  0.91680000  0.27346000  0.61881000  1.0
  C  C112  1  0.27318000  0.54088000  0.72477000  1.0
  C  C113  1  0.23208000  0.46739000  0.73263000  1.0
  C  C114  1  0.14242000  0.46705000  0.73923000  1.0
  C  C115  1  0.09709000  0.53832000  0.73199000  1.0
  C  C116  1  0.14196000  0.60831000  0.72162000  1.0
  C  C117  1  0.09391000  0.39249000  0.75316000  1.0
  C  C118  1  0.09688000  0.06896000  0.53487000  1.0
  C  C119  1  0.13674000  0.99858000  0.46748000  1.0
  C  C120  1  0.22376000  0.98380000  0.47865000  1.0
  C  C121  1  0.26738000  0.04031000  0.55676000  1.0
  C  C122  1  0.22243000  0.10831000  0.62190000  1.0
  C  C123  1  0.26900000  0.90569000  0.40949000  1.0
  C  C124  1  0.35713000  0.91368000  0.79354000  1.0
  C  C125  1  0.38989000  0.99387000  0.79319000  1.0
  C  C126  1  0.42302000  0.99533000  0.71350000  1.0
  C  C127  1  0.42175000  0.91583000  0.63633000  1.0
  C  C128  1  0.38420000  0.83905000  0.64050000  1.0
  C  C129  1  0.45525000  0.08286000  0.71195000  1.0
  C  C130  1  0.66391000  0.27882000  0.10092000  1.0
  C  C131  1  0.61201000  0.27526000  0.02886000  1.0
  C  C132  1  0.52309000  0.26382000  0.03323000  1.0
  C  C133  1  0.49036000  0.25256000  0.10845000  1.0
  C  C134  1  0.54544000  0.25735000  0.17823000  1.0
  C  C135  1  0.46070000  0.26509000  0.96093000  1.0
  C  C136  1  0.69956000  0.54218000  0.64535000  1.0
  C  C137  1  0.65608000  0.46619000  0.64389000  1.0
  C  C138  1  0.62588000  0.46448000  0.72453000  1.0
  C  C139  1  0.63795000  0.54098000  0.80346000  1.0
  C  C140  1  0.68360000  0.61418000  0.80066000  1.0
  C  C141  1  0.58322000  0.38122000  0.72659000  1.0
  C  C142  1  0.22681000  0.27524000  0.45913000  1.0
  C  C143  1  0.26791000  0.26739000  0.53262000  1.0
  C  C144  1  0.35757000  0.26078000  0.53295000  1.0
  C  C145  1  0.40289000  0.26803000  0.46168000  1.0
  C  C146  1  0.35802000  0.27840000  0.39169000  1.0
  C  C147  1  0.40608000  0.24686000  0.60751000  1.0
  C  C148  1  0.40310000  0.46510000  0.93104000  1.0
  C  C149  1  0.36323000  0.53249000  0.00139000  1.0
  C  C150  1  0.27621000  0.52131000  0.01615000  1.0
  C  C151  1  0.23258000  0.44321000  0.95965000  1.0
  C  C152  1  0.27755000  0.37806000  0.89167000  1.0
  C  C153  1  0.23102000  0.59047000  0.09429000  1.0
  C  C154  1  0.85718000  0.79355000  0.91369000  1.0
  C  C155  1  0.88995000  0.79320000  0.99387000  1.0
  C  C156  1  0.92307000  0.71350000  0.99533000  1.0
  C  C157  1  0.92178000  0.63633000  0.91583000  1.0
  C  C158  1  0.88423000  0.64051000  0.83904000  1.0
  C  C159  1  0.95530000  0.71195000  0.08285000  1.0
  C  C160  1  0.16391000  0.10090000  0.27882000  1.0
  C  C161  1  0.11202000  0.02885000  0.27526000  1.0
  C  C162  1  0.02310000  0.03321000  0.26382000  1.0
  C  C163  1  0.99035000  0.10843000  0.25255000  1.0
  C  C164  1  0.04544000  0.17821000  0.25735000  1.0
  C  C165  1  0.96071000  0.96091000  0.26507000  1.0
  C  C166  1  0.19953000  0.64534000  0.54218000  1.0
  C  C167  1  0.15605000  0.64387000  0.46618000  1.0
  C  C168  1  0.12584000  0.72451000  0.46448000  1.0
  C  C169  1  0.13791000  0.80345000  0.54097000  1.0
  C  C170  1  0.18358000  0.80065000  0.61417000  1.0
  C  C171  1  0.08320000  0.72654000  0.38121000  1.0
  C  C172  1  0.72682000  0.45911000  0.27523000  1.0
  C  C173  1  0.76792000  0.53260000  0.26738000  1.0
  C  C174  1  0.85758000  0.53295000  0.26077000  1.0
  C  C175  1  0.90290000  0.46167000  0.26801000  1.0
  C  C176  1  0.85803000  0.39168000  0.27838000  1.0
  C  C177  1  0.90608000  0.60751000  0.24684000  1.0
  C  C178  1  0.90312000  0.93104000  0.46512000  1.0
  C  C179  1  0.86326000  0.00142000  0.53251000  1.0
  C  C180  1  0.77624000  0.01620000  0.52134000  1.0
  C  C181  1  0.73262000  0.95969000  0.44323000  1.0
  C  C182  1  0.77757000  0.89169000  0.37809000  1.0
  C  C183  1  0.73101000  0.09431000  0.59049000  1.0
  C  C184  1  0.64288000  0.08631000  0.20646000  1.0
  C  C185  1  0.61010000  0.00613000  0.20681000  1.0
  C  C186  1  0.57697000  0.00466000  0.28650000  1.0
  C  C187  1  0.57824000  0.08416000  0.36366000  1.0
  C  C188  1  0.61580000  0.16095000  0.35950000  1.0
  C  C189  1  0.54472000  0.91714000  0.28804000  1.0
  C  C190  1  0.33609000  0.72118000  0.89909000  1.0
  C  C191  1  0.38799000  0.72475000  0.97115000  1.0
  C  C192  1  0.47691000  0.73619000  0.96678000  1.0
  C  C193  1  0.50965000  0.74744000  0.89156000  1.0
  C  C194  1  0.45456000  0.74264000  0.82177000  1.0
  C  C195  1  0.53930000  0.73492000  0.03908000  1.0
  C  C196  1  0.30046000  0.45782000  0.35465000  1.0
  C  C197  1  0.34394000  0.53382000  0.35612000  1.0
  C  C198  1  0.37413000  0.53553000  0.27547000  1.0
  C  C199  1  0.36206000  0.45903000  0.19654000  1.0
  C  C200  1  0.31641000  0.38583000  0.19934000  1.0
  C  C201  1  0.41678000  0.61879000  0.27341000  1.0
  C  C202  1  0.77318000  0.72477000  0.54086000  1.0
  C  C203  1  0.73208000  0.73262000  0.46737000  1.0
  C  C204  1  0.64242000  0.73923000  0.46704000  1.0
  C  C205  1  0.59710000  0.73198000  0.53832000  1.0
  C  C206  1  0.64198000  0.72161000  0.60831000  1.0
  C  C207  1  0.59390000  0.75315000  0.39249000  1.0
  C  C208  1  0.59690000  0.53489000  0.06896000  1.0
  C  C209  1  0.63677000  0.46750000  0.99860000  1.0
  C  C210  1  0.72379000  0.47869000  0.98384000  1.0
  C  C211  1  0.76742000  0.55679000  0.04035000  1.0
  C  C212  1  0.72245000  0.62194000  0.10833000  1.0
  C  C213  1  0.76900000  0.40953000  0.90570000  1.0
  N  N214  1  0.14731000  0.28213000  0.16245000  1.0
  N  N215  1  0.86894000  0.82481000  0.72865000  1.0
  N  N216  1  0.78499000  0.27720000  0.38570000  1.0
  N  N217  1  0.22899000  0.61108000  0.72057000  1.0
  N  N218  1  0.13868000  0.12234000  0.61076000  1.0
  N  N219  1  0.35267000  0.83754000  0.71786000  1.0
  N  N220  1  0.63107000  0.27135000  0.17521000  1.0
  N  N221  1  0.71506000  0.61431000  0.72280000  1.0
  N  N222  1  0.27099000  0.27944000  0.38892000  1.0
  N  N223  1  0.36130000  0.38921000  0.87766000  1.0
  N  N224  1  0.85271000  0.71787000  0.83754000  1.0
  N  N225  1  0.13107000  0.17519000  0.27134000  1.0
  N  N226  1  0.21503000  0.72279000  0.61431000  1.0
  N  N227  1  0.77101000  0.38891000  0.27944000  1.0
  N  N228  1  0.86132000  0.87766000  0.38924000  1.0
  N  N229  1  0.64734000  0.16245000  0.28214000  1.0
  N  N230  1  0.36893000  0.72865000  0.82480000  1.0
  N  N231  1  0.28495000  0.38569000  0.27720000  1.0
  N  N232  1  0.72901000  0.72056000  0.61108000  1.0
  N  N233  1  0.63870000  0.61078000  0.12234000  1.0
  Cl  Cl234  1  0.30850000  0.17769000  0.18708000  1.0
  Cl  Cl235  1  0.10879000  0.38464000  0.36912000  1.0
  Cl  Cl236  1  0.19149000  0.81292000  0.82230000  1.0
  Cl  Cl237  1  0.39119000  0.63088000  0.61535000  1.0
  Cl  Cl238  1  0.69151000  0.82231000  0.81292000  1.0
  Cl  Cl239  1  0.89121000  0.61537000  0.63087000  1.0
  Cl  Cl240  1  0.80852000  0.18708000  0.17770000  1.0
  Cl  Cl241  1  0.60881000  0.36912000  0.38465000  1.0
  O  O242  1  0.97839000  0.33440000  0.92027000  1.0
  O  O243  1  0.08856000  0.24291000  0.84915000  1.0
  O  O244  1  0.00210000  0.09984000  0.71332000  1.0
  O  O245  1  0.11689000  0.03415000  0.75159000  1.0
  O  O246  1  0.89052000  0.33475000  0.69170000  1.0
  O  O247  1  0.97165000  0.21446000  0.61043000  1.0
  O  O248  1  0.12470000  0.31396000  0.71548000  1.0
  O  O249  1  0.02682000  0.41596000  0.80025000  1.0
  O  O250  1  0.33456000  0.87621000  0.43355000  1.0
  O  O251  1  0.23014000  0.87787000  0.33182000  1.0
  O  O252  1  0.36387000  0.79230000  0.23512000  1.0
  O  O253  1  0.52152000  0.07973000  0.66554000  1.0
  O  O254  1  0.41141000  0.15085000  0.75710000  1.0
  O  O255  1  0.49788000  0.28670000  0.90018000  1.0
  O  O256  1  0.38311000  0.24845000  0.96590000  1.0
  O  O257  1  0.60955000  0.30832000  0.66534000  1.0
  O  O258  1  0.52832000  0.38960000  0.78554000  1.0
  O  O259  1  0.37529000  0.28451000  0.68604000  1.0
  O  O260  1  0.47320000  0.19980000  0.58404000  1.0
  O  O261  1  0.16546000  0.56646000  0.12379000  1.0
  O  O262  1  0.26995000  0.66810000  0.12214000  1.0
  O  O263  1  0.13601000  0.76497000  0.20767000  1.0
  O  O264  1  0.02158000  0.66557000  0.07972000  1.0
  O  O265  1  0.91143000  0.75709000  0.15084000  1.0
  O  O266  1  0.99790000  0.90016000  0.28668000  1.0
  O  O267  1  0.88312000  0.96587000  0.24841000  1.0
  O  O268  1  0.10949000  0.66524000  0.30833000  1.0
  O  O269  1  0.02835000  0.78554000  0.38958000  1.0
  O  O270  1  0.87529000  0.68603000  0.28452000  1.0
  O  O271  1  0.97317000  0.58403000  0.19976000  1.0
  O  O272  1  0.66545000  0.12380000  0.56645000  1.0
  O  O273  1  0.76987000  0.12215000  0.66816000  1.0
  O  O274  1  0.63609000  0.20768000  0.76490000  1.0
  O  O275  1  0.47845000  0.92026000  0.33444000  1.0
  O  O276  1  0.58857000  0.84913000  0.24289000  1.0
  O  O277  1  0.50210000  0.71330000  0.09982000  1.0
  O  O278  1  0.61690000  0.75155000  0.03412000  1.0
  O  O279  1  0.39046000  0.69171000  0.33466000  1.0
  O  O280  1  0.47167000  0.61040000  0.21444000  1.0
  O  O281  1  0.62468000  0.71547000  0.31396000  1.0
  O  O282  1  0.52680000  0.80023000  0.41596000  1.0
  O  O283  1  0.83456000  0.43355000  0.87622000  1.0
  O  O284  1  0.73007000  0.33189000  0.87786000  1.0
  O  O285  1  0.86394000  0.23505000  0.79230000  1.0
