# generated using pymatgen
data_Zn4H3C35Cl8O13F10
_symmetry_space_group_name_H-M   'P 1'
_cell_length_a   18.32740000
_cell_length_b   18.40210000
_cell_length_c   18.45278157
_cell_angle_alpha   60.36693292
_cell_angle_beta   60.45506926
_cell_angle_gamma   60.51700000
_symmetry_Int_Tables_number   1
_chemical_formula_structural   Zn4H3C35Cl8O13F10
_chemical_formula_sum   'Zn8 H6 C70 Cl16 O26 F20'
_cell_volume   4445.02232389
_cell_formula_units_Z   2
loop_
 _symmetry_equiv_pos_site_id
 _symmetry_equiv_pos_as_xyz
  1  'x, y, z'
loop_
 _atom_site_type_symbol
 _atom_site_label
 _atom_site_symmetry_multiplicity
 _atom_site_fract_x
 _atom_site_fract_y
 _atom_site_fract_z
 _atom_site_occupancy
  Zn  Zn0  1  0.94956000  0.46193000  0.12980000  1.0
  Zn  Zn1  1  0.12667000  0.45598000  0.96316000  1.0
  Zn  Zn2  1  0.95478000  0.63170000  0.95704000  1.0
  Zn  Zn3  1  0.95777000  0.45685000  0.95130000  1.0
  Zn  Zn4  1  0.53721000  0.04741000  0.36796000  1.0
  Zn  Zn5  1  0.53998000  0.87165000  0.53959000  1.0
  Zn  Zn6  1  0.36903000  0.04586000  0.54895000  1.0
  Zn  Zn7  1  0.54849000  0.04559000  0.53623000  1.0
  H  H8  1  0.14478000  0.11309000  0.15781000  1.0
  H  H9  1  0.82147000  0.52622000  0.77466000  1.0
  H  H10  1  0.15405000  0.13538000  0.76477000  1.0
  H  H11  1  0.43029000  0.66061000  0.59686000  1.0
  H  H12  1  0.07704000  0.33185000  0.32325000  1.0
  H  H13  1  0.36878000  0.29542000  0.03859000  1.0
  C  C14  1  0.14214000  0.36811000  0.85769000  1.0
  C  C15  1  0.92639000  0.18669000  0.33847000  1.0
  C  C16  1  0.00687000  0.15375000  0.35286000  1.0
  C  C17  1  0.08581000  0.12564000  0.28733000  1.0
  C  C18  1  0.78012000  0.17148000  0.30336000  1.0
  C  C19  1  0.69818000  0.19487000  0.29653000  1.0
  C  C20  1  0.66706000  0.27696000  0.23474000  1.0
  C  C21  1  0.72085000  0.33062000  0.18404000  1.0
  C  C22  1  0.80307000  0.30633000  0.19019000  1.0
  C  C23  1  0.83402000  0.22498000  0.25161000  1.0
  C  C24  1  0.57412000  0.33965000  0.13980000  1.0
  C  C25  1  0.86948000  0.64357000  0.13408000  1.0
  C  C26  1  0.49322000  0.37649000  0.12514000  1.0
  C  C27  1  0.41405000  0.38196000  0.19759000  1.0
  C  C28  1  0.41756000  0.34988000  0.28305000  1.0
  C  C29  1  0.50004000  0.31614000  0.29336000  1.0
  C  C30  1  0.58034000  0.30997000  0.22320000  1.0
  C  C31  1  0.76385000  0.67201000  0.27706000  1.0
  C  C32  1  0.82084000  0.69948000  0.19158000  1.0
  C  C33  1  0.82469000  0.78360000  0.16494000  1.0
  C  C34  1  0.77178000  0.83891000  0.21793000  1.0
  C  C35  1  0.71072000  0.81107000  0.30212000  1.0
  C  C36  1  0.12666000  0.36092000  0.14703000  1.0
  C  C37  1  0.71142000  0.72511000  0.32978000  1.0
  C  C38  1  0.66270000  0.66091000  0.40358000  1.0
  C  C39  1  0.72514000  0.59832000  0.34127000  1.0
  C  C40  1  0.78968000  0.66756000  0.75731000  1.0
  C  C41  1  0.79704000  0.69584000  0.81047000  1.0
  C  C42  1  0.73864000  0.78077000  0.81307000  1.0
  C  C43  1  0.67946000  0.83359000  0.76408000  1.0
  C  C44  1  0.67410000  0.80512000  0.70952000  1.0
  C  C45  1  0.73080000  0.71912000  0.71006000  1.0
  C  C46  1  0.75940000  0.64832000  0.67296000  1.0
  C  C47  1  0.86099000  0.63902000  0.86075000  1.0
  C  C48  1  0.82853000  0.59022000  0.72562000  1.0
  C  C49  1  0.17115000  0.27859000  0.77133000  1.0
  C  C50  1  0.20204000  0.31670000  0.79550000  1.0
  C  C51  1  0.29423000  0.30074000  0.75690000  1.0
  C  C52  1  0.35032000  0.24822000  0.70147000  1.0
  C  C53  1  0.31834000  0.20737000  0.68130000  1.0
  C  C54  1  0.22619000  0.22600000  0.71812000  1.0
  C  C55  1  0.15254000  0.20409000  0.72635000  1.0
  C  C56  1  0.08774000  0.26801000  0.78544000  1.0
  C  C57  1  0.26174000  0.68046000  0.74343000  1.0
  C  C58  1  0.13710000  0.63568000  0.87882000  1.0
  C  C59  1  0.19583000  0.69164000  0.82235000  1.0
  C  C60  1  0.18565000  0.76294000  0.83907000  1.0
  C  C61  1  0.23794000  0.81866000  0.78015000  1.0
  C  C62  1  0.30272000  0.80766000  0.69984000  1.0
  C  C63  1  0.31183000  0.73628000  0.68432000  1.0
  C  C64  1  0.35814000  0.69317000  0.61431000  1.0
  C  C65  1  0.30306000  0.62622000  0.68414000  1.0
  C  C66  1  0.27266000  0.25965000  0.17391000  1.0
  C  C67  1  0.18246000  0.30556000  0.20522000  1.0
  C  C68  1  0.14715000  0.29803000  0.29441000  1.0
  C  C69  1  0.85661000  0.36805000  0.13308000  1.0
  C  C70  1  0.20078000  0.24751000  0.34798000  1.0
  C  C71  1  0.29189000  0.20045000  0.31771000  1.0
  C  C72  1  0.32428000  0.20907000  0.22855000  1.0
  C  C73  1  0.40632000  0.17954000  0.15509000  1.0
  C  C74  1  0.34705000  0.23969000  0.09241000  1.0
  C  C75  1  0.61920000  0.86322000  0.64985000  1.0
  C  C76  1  0.35092000  0.14392000  0.37276000  1.0
  C  C77  1  0.64529000  0.86811000  0.35872000  1.0
  C  C78  1  0.37513000  0.14648000  0.62839000  1.0
  C  C79  1  0.35829000  0.86636000  0.63673000  1.0
  C  C80  1  0.08369000  0.13406000  0.20883000  1.0
  C  C81  1  0.64503000  0.13290000  0.35413000  1.0
  C  C82  1  0.00197000  0.16803000  0.19798000  1.0
  C  C83  1  0.92096000  0.19410000  0.26195000  1.0
  Cl  Cl84  1  0.18621000  0.07854000  0.30367000  1.0
  Cl  Cl85  1  0.31398000  0.42776000  0.18189000  1.0
  Cl  Cl86  1  0.32381000  0.35096000  0.37438000  1.0
  Cl  Cl87  1  0.78717000  0.93852000  0.17575000  1.0
  Cl  Cl88  1  0.68113000  0.61280000  0.50532000  1.0
  Cl  Cl89  1  0.54762000  0.70243000  0.42017000  1.0
  Cl  Cl90  1  0.67061000  0.57411000  0.30359000  1.0
  Cl  Cl91  1  0.67818000  0.60078000  0.70858000  1.0
  Cl  Cl92  1  0.13454000  0.23352000  0.62824000  1.0
  Cl  Cl93  1  0.01065000  0.36586000  0.74036000  1.0
  Cl  Cl94  1  0.03401000  0.21050000  0.89654000  1.0
  Cl  Cl95  1  0.33333333  0.76268000  0.51467000  1.0
  Cl  Cl96  1  0.23020000  0.61937000  0.65326000  1.0
  Cl  Cl97  1  0.33390000  0.18446000  0.04554000  1.0
  Cl  Cl98  1  0.00663000  0.14834000  0.44821000  1.0
  Cl  Cl99  1  0.49298000  0.41361000  0.02004000  1.0
  O  O100  1  0.99620000  0.50157000  0.99991000  1.0
  O  O101  1  0.04289000  0.38090000  0.18437000  1.0
  O  O102  1  0.88265000  0.55604000  0.88003000  1.0
  O  O103  1  0.17869000  0.38457000  0.88861000  1.0
  O  O104  1  0.87945000  0.68304000  0.05241000  1.0
  O  O105  1  0.49925000  0.00191000  0.49766000  1.0
  O  O106  1  0.60254000  0.94603000  0.62486000  1.0
  O  O107  1  0.43366000  0.12297000  0.32880000  1.0
  O  O108  1  0.62864000  0.82741000  0.44143000  1.0
  O  O109  1  0.33393000  0.10718000  0.62855000  1.0
  O  O110  1  0.43896000  0.82758000  0.59829000  1.0
  O  O111  1  0.05920000  0.38942000  0.87498000  1.0
  O  O112  1  0.63723000  0.09907000  0.43544000  1.0
  O  O113  1  0.32024000  0.94810000  0.62731000  1.0
  O  O114  1  0.61221000  0.12091000  0.31568000  1.0
  O  O115  1  0.61082000  0.94951000  0.31983000  1.0
  O  O116  1  0.45721000  0.13781000  0.58944000  1.0
  O  O117  1  0.59744000  0.82296000  0.62792000  1.0
  O  O118  1  0.31477000  0.12102000  0.45620000  1.0
  O  O119  1  0.89361000  0.56049000  0.17457000  1.0
  O  O120  1  0.16926000  0.38350000  0.06447000  1.0
  O  O121  1  0.88774000  0.67828000  0.87867000  1.0
  O  O122  1  0.17682000  0.55284000  0.89611000  1.0
  O  O123  1  0.88294000  0.38504000  0.05040000  1.0
  O  O124  1  0.05417000  0.67694000  0.90033000  1.0
  O  O125  1  0.87034000  0.39599000  0.17445000  1.0
  F  F126  1  0.50205000  0.28796000  0.37568000  1.0
  F  F127  1  0.88178000  0.81417000  0.08568000  1.0
  F  F128  1  0.78222000  0.52019000  0.37850000  1.0
  F  F129  1  0.73512000  0.81598000  0.86393000  1.0
  F  F130  1  0.62706000  0.91339000  0.77332000  1.0
  F  F131  1  0.79819000  0.66957000  0.58279000  1.0
  F  F132  1  0.91657000  0.57605000  0.67002000  1.0
  F  F133  1  0.33445000  0.33527000  0.77017000  1.0
  F  F134  1  0.43699000  0.23813000  0.67006000  1.0
  F  F135  1  0.00045000  0.17459000  0.12198000  1.0
  F  F136  1  0.12539000  0.77999000  0.91414000  1.0
  F  F137  1  0.22407000  0.88296000  0.80538000  1.0
  F  F138  1  0.35857000  0.54138000  0.71439000  1.0
  F  F139  1  0.16092000  0.24586000  0.43256000  1.0
  F  F140  1  0.47671000  0.20563000  0.12865000  1.0
  F  F141  1  0.85016000  0.21259000  0.40139000  1.0
  F  F142  1  0.43955000  0.09101000  0.16772000  1.0
  F  F143  1  0.81166000  0.09133000  0.36007000  1.0
  F  F144  1  0.68997000  0.41273000  0.12887000  1.0
  F  F145  1  0.64956000  0.33169000  0.07018000  1.0
