# generated using pymatgen
data_ZnH19C32SNO7
_symmetry_space_group_name_H-M   'P 1'
_cell_length_a   12.69790000
_cell_length_b   13.65640000
_cell_length_c   17.16300000
_cell_angle_alpha   89.32940000
_cell_angle_beta   87.26000000
_cell_angle_gamma   85.67550000
_symmetry_Int_Tables_number   1
_chemical_formula_structural   ZnH19C32SNO7
_chemical_formula_sum   'Zn2 H38 C64 S2 N2 O14'
_cell_volume   2964.23051211
_cell_formula_units_Z   2
loop_
 _symmetry_equiv_pos_site_id
 _symmetry_equiv_pos_as_xyz
  1  'x, y, z'
loop_
 _atom_site_type_symbol
 _atom_site_label
 _atom_site_symmetry_multiplicity
 _atom_site_fract_x
 _atom_site_fract_y
 _atom_site_fract_z
 _atom_site_occupancy
  Zn  Zn0  1  0.39223000  0.48391000  0.50003000  1.0
  Zn  Zn1  1  0.61014000  0.50480000  0.50505000  1.0
  H  H2  1  0.68013000  0.47572000  0.25549000  1.0
  H  H3  1  0.31839000  0.57962000  0.73794000  1.0
  H  H4  1  0.62483000  0.55873000  0.99739000  1.0
  H  H5  1  0.38226000  0.58945000  0.00539000  1.0
  H  H6  1  0.31600000  0.61832000  0.88032000  1.0
  H  H7  1  0.69347000  0.50323000  0.11102000  1.0
  H  H8  1  0.74952000  0.48295000  0.73118000  1.0
  H  H9  1  0.88219000  0.36315000  0.66760000  1.0
  H  H10  1  0.83632000  0.19214000  0.64380000  1.0
  H  H11  1  0.65784000  0.14133000  0.68671000  1.0
  H  H12  1  0.52673000  0.26096000  0.75228000  1.0
  H  H13  1  0.43249000  0.79526000  0.29897000  1.0
  H  H14  1  0.27768000  0.87913000  0.37126000  1.0
  H  H15  1  0.11137000  0.79520000  0.39224000  1.0
  H  H16  1  0.10103000  0.62621000  0.34073000  1.0
  H  H17  1  0.25788000  0.54082000  0.27229000  1.0
  H  H18  1  0.24231000  0.63452000  0.13679000  1.0
  H  H19  1  0.12628000  0.76275000  0.07362000  1.0
  H  H20  1  0.20115000  0.91372000  0.01833000  1.0
  H  H21  1  0.39384000  0.93433000  0.02638000  1.0
  H  H22  1  0.51015000  0.80433000  0.08811000  1.0
  H  H23  1  0.49763000  0.33449000  0.97396000  1.0
  H  H24  1  0.61756000  0.23949000  0.06209000  1.0
  H  H25  1  0.81016000  0.26492000  0.05625000  1.0
  H  H26  1  0.88162000  0.38443000  0.96021000  1.0
  H  H27  1  0.76162000  0.47822000  0.87196000  1.0
  H  H28  1  0.27488000  0.95456000  0.55697000  1.0
  H  H29  1  0.10529000  0.05687000  0.54938000  1.0
  H  H30  1  0.08939000  0.19590000  0.45474000  1.0
  H  H31  1  0.24827000  0.23312000  0.36841000  1.0
  H  H32  1  0.41576000  0.13334000  0.37795000  1.0
  H  H33  1  0.72713000  0.03936000  0.55661000  1.0
  H  H34  1  0.89630000  0.93473000  0.55815000  1.0
  H  H35  1  0.92471000  0.78837000  0.47240000  1.0
  H  H36  1  0.78166000  0.74592000  0.38615000  1.0
  H  H37  1  0.61270000  0.84834000  0.38672000  1.0
  H  H38  1  0.86751000  0.66559000  0.64994000  1.0
  H  H39  1  0.12837000  0.34237000  0.34184000  1.0
  C  C40  1  0.45868000  0.68210000  0.50593000  1.0
  C  C41  1  0.54932000  0.30835000  0.49444000  1.0
  C  C42  1  0.56541000  0.20322000  0.48787000  1.0
  C  C43  1  0.44433000  0.78755000  0.50100000  1.0
  C  C44  1  0.55738000  0.01285000  0.47388000  1.0
  C  C45  1  0.45787000  0.97607000  0.47539000  1.0
  C  C46  1  0.44985000  0.87514000  0.48841000  1.0
  C  C47  1  0.56399000  0.11474000  0.47970000  1.0
  C  C48  1  0.03686000  0.48048000  0.47229000  1.0
  C  C49  1  0.96473000  0.52313000  0.52692000  1.0
  C  C50  1  0.85578000  0.52621000  0.51918000  1.0
  C  C51  1  0.14576000  0.47338000  0.48105000  1.0
  C  C52  1  0.47547000  0.48746000  0.65245000  1.0
  C  C53  1  0.51946000  0.52148000  0.35353000  1.0
  C  C54  1  0.46812000  0.49475000  0.73955000  1.0
  C  C55  1  0.52666000  0.55240000  0.26947000  1.0
  C  C56  1  0.54877000  0.45083000  0.78525000  1.0
  C  C57  1  0.44731000  0.61423000  0.23434000  1.0
  C  C58  1  0.54600000  0.46936000  0.86580000  1.0
  C  C59  1  0.45758000  0.63502000  0.15377000  1.0
  C  C60  1  0.46443000  0.53589000  0.89941000  1.0
  C  C61  1  0.54299000  0.58799000  0.10814000  1.0
  C  C62  1  0.38069000  0.57147000  0.85317000  1.0
  C  C63  1  0.62592000  0.53541000  0.14611000  1.0
  C  C64  1  0.38203000  0.55100000  0.77425000  1.0
  C  C65  1  0.61783000  0.51818000  0.22563000  1.0
  C  C66  1  0.46117000  0.56902000  0.97972000  1.0
  C  C67  1  0.54610000  0.57661000  0.02401000  1.0
  C  C68  1  0.63019000  0.37944000  0.74770000  1.0
  C  C69  1  0.73046000  0.40737000  0.72302000  1.0
  C  C70  1  0.80432000  0.34030000  0.68628000  1.0
  C  C71  1  0.77880000  0.24425000  0.67325000  1.0
  C  C72  1  0.67898000  0.21586000  0.69721000  1.0
  C  C73  1  0.60503000  0.28310000  0.73414000  1.0
  C  C74  1  0.35533000  0.66257000  0.28057000  1.0
  C  C75  1  0.35993000  0.75789000  0.30865000  1.0
  C  C76  1  0.27265000  0.80529000  0.34894000  1.0
  C  C77  1  0.17952000  0.75809000  0.36096000  1.0
  C  C78  1  0.17418000  0.66304000  0.33272000  1.0
  C  C79  1  0.26155000  0.61551000  0.29326000  1.0
  C  C80  1  0.38442000  0.71020000  0.11659000  1.0
  C  C81  1  0.27572000  0.69998000  0.11234000  1.0
  C  C82  1  0.21046000  0.77238000  0.07679000  1.0
  C  C83  1  0.25242000  0.85694000  0.04568000  1.0
  C  C84  1  0.36039000  0.86832000  0.05004000  1.0
  C  C85  1  0.42584000  0.79528000  0.08472000  1.0
  C  C86  1  0.62130000  0.41282000  0.91669000  1.0
  C  C87  1  0.58207000  0.34499000  0.97085000  1.0
  C  C88  1  0.64946000  0.29185000  0.02046000  1.0
  C  C89  1  0.75748000  0.30593000  0.01713000  1.0
  C  C90  1  0.79746000  0.37287000  0.96329000  1.0
  C  C91  1  0.73002000  0.42546000  0.91325000  1.0
  C  C92  1  0.35763000  0.03805000  0.46929000  1.0
  C  C93  1  0.26836000  0.01647000  0.51632000  1.0
  C  C94  1  0.17324000  0.07366000  0.51162000  1.0
  C  C95  1  0.16453000  0.15219000  0.45871000  1.0
  C  C96  1  0.25241000  0.17272000  0.41083000  1.0
  C  C97  1  0.34820000  0.11667000  0.41590000  1.0
  C  C98  1  0.65763000  0.94982000  0.47295000  1.0
  C  C99  1  0.73928000  0.97416000  0.52014000  1.0
  C  C100  1  0.83400000  0.91557000  0.52069000  1.0
  C  C101  1  0.84969000  0.83305000  0.47273000  1.0
  C  C102  1  0.76980000  0.80938000  0.42445000  1.0
  C  C103  1  0.67436000  0.86701000  0.42474000  1.0
  S  S104  1  0.00971000  0.58153000  0.61210000  1.0
  S  S105  1  0.98973000  0.42653000  0.38586000  1.0
  N  N106  1  0.23697000  0.46470000  0.48712000  1.0
  N  N107  1  0.76433000  0.52954000  0.51480000  1.0
  O  O108  1  0.37856000  0.63336000  0.52092000  1.0
  O  O109  1  0.62725000  0.35555000  0.51232000  1.0
  O  O110  1  0.55435000  0.64864000  0.49294000  1.0
  O  O111  1  0.45584000  0.34326000  0.48106000  1.0
  O  O112  1  0.39584000  0.46109000  0.61823000  1.0
  O  O113  1  0.60657000  0.50014000  0.38597000  1.0
  O  O114  1  0.56133000  0.51365000  0.62019000  1.0
  O  O115  1  0.42751000  0.51684000  0.38556000  1.0
  O  O116  1  0.07273000  0.50920000  0.65349000  1.0
  O  O117  1  0.04706000  0.67397000  0.58707000  1.0
  O  O118  1  0.90087000  0.60050000  0.66265000  1.0
  O  O119  1  0.95207000  0.33315000  0.40792000  1.0
  O  O120  1  0.92603000  0.50157000  0.34776000  1.0
  O  O121  1  0.09722000  0.40951000  0.33352000  1.0
