# generated using pymatgen
data_H8PbC10N4O9
_symmetry_space_group_name_H-M   'P 1'
_cell_length_a   6.74026000
_cell_length_b   12.51890000
_cell_length_c   15.64800000
_cell_angle_alpha   90.00000000
_cell_angle_beta   90.00000000
_cell_angle_gamma   103.55500000
_symmetry_Int_Tables_number   1
_chemical_formula_structural   H8PbC10N4O9
_chemical_formula_sum   'H32 Pb4 C40 N16 O36'
_cell_volume   1283.60935681
_cell_formula_units_Z   4
loop_
 _symmetry_equiv_pos_site_id
 _symmetry_equiv_pos_as_xyz
  1  'x, y, z'
loop_
 _atom_site_type_symbol
 _atom_site_label
 _atom_site_symmetry_multiplicity
 _atom_site_fract_x
 _atom_site_fract_y
 _atom_site_fract_z
 _atom_site_occupancy
  H  H0  1  0.94814000  0.28977000  0.80250000  1.0
  H  H1  1  0.55186000  0.21024000  0.30250000  1.0
  H  H2  1  0.05187000  0.71024000  0.19750000  1.0
  H  H3  1  0.44815000  0.78977000  0.69750000  1.0
  H  H4  1  0.61386000  0.73956000  0.18898000  1.0
  H  H5  1  0.88613000  0.76043000  0.68899000  1.0
  H  H6  1  0.38612000  0.26044000  0.81102000  1.0
  H  H7  1  0.11388000  0.23957000  0.31101000  1.0
  H  H8  1  0.08534000  0.35957000  0.93783000  1.0
  H  H9  1  0.41467000  0.14043000  0.43782000  1.0
  H  H10  1  0.91467000  0.64043000  0.06217000  1.0
  H  H11  1  0.58534000  0.85957000  0.56218000  1.0
  H  H12  1  0.32999000  0.66415000  0.83602000  1.0
  H  H13  1  0.17001000  0.83585000  0.33601000  1.0
  H  H14  1  0.67003000  0.33585000  0.16399000  1.0
  H  H15  1  0.82998000  0.16416000  0.66399000  1.0
  H  H16  1  0.51455000  0.67273000  0.32475000  1.0
  H  H17  1  0.98544000  0.82726000  0.82476000  1.0
  H  H18  1  0.48544000  0.32727000  0.67525000  1.0
  H  H19  1  0.01456000  0.17273000  0.17525000  1.0
  H  H20  1  0.76308000  0.97228000  0.43567000  1.0
  H  H21  1  0.73691000  0.52772000  0.93567000  1.0
  H  H22  1  0.23691000  0.02772000  0.56433000  1.0
  H  H23  1  0.26309000  0.47228000  0.06433000  1.0
  H  H24  1  0.95342000  0.70624000  0.55974000  1.0
  H  H25  1  0.54657000  0.79376000  0.05973000  1.0
  H  H26  1  0.04657000  0.29376000  0.44027000  1.0
  H  H27  1  0.45342000  0.20624000  0.94026000  1.0
  H  H28  1  0.11632000  0.80462000  0.51420000  1.0
  H  H29  1  0.38367000  0.69537000  0.01419000  1.0
  H  H30  1  0.88368000  0.19537000  0.48581000  1.0
  H  H31  1  0.61632000  0.30462000  0.98580000  1.0
  Pb  Pb32  1  0.29261000  0.59679000  0.51802000  1.0
  Pb  Pb33  1  0.20739000  0.90321000  0.01802000  1.0
  Pb  Pb34  1  0.70740000  0.40321000  0.48198000  1.0
  Pb  Pb35  1  0.79261000  0.09679000  0.98198000  1.0
  C  C36  1  0.22408000  0.51583000  0.89823000  1.0
  C  C37  1  0.27592000  0.98418000  0.39822000  1.0
  C  C38  1  0.77593000  0.48418000  0.10177000  1.0
  C  C39  1  0.72409000  0.01583000  0.60178000  1.0
  C  C40  1  0.20765000  0.54892000  0.74366000  1.0
  C  C41  1  0.29236000  0.95108000  0.24366000  1.0
  C  C42  1  0.79236000  0.45109000  0.25633000  1.0
  C  C43  1  0.70765000  0.04892000  0.75633000  1.0
  C  C44  1  0.08444000  0.43782000  0.73378000  1.0
  C  C45  1  0.41556000  0.06219000  0.23378000  1.0
  C  C46  1  0.91556000  0.56219000  0.26622000  1.0
  C  C47  1  0.58444000  0.93782000  0.76622000  1.0
  C  C48  1  0.04301000  0.37347000  0.80574000  1.0
  C  C49  1  0.45699000  0.12653000  0.30574000  1.0
  C  C50  1  0.95700000  0.62654000  0.19426000  1.0
  C  C51  1  0.54302000  0.87347000  0.69426000  1.0
  C  C52  1  0.98731000  0.39382000  0.65136000  1.0
  C  C53  1  0.51268000  0.10619000  0.15136000  1.0
  C  C54  1  0.01269000  0.60619000  0.34864000  1.0
  C  C55  1  0.48732000  0.89382000  0.84864000  1.0
  C  C56  1  0.62219000  0.81921000  0.39186000  1.0
  C  C57  1  0.87778000  0.68078000  0.89186000  1.0
  C  C58  1  0.37778000  0.18078000  0.60815000  1.0
  C  C59  1  0.12222000  0.31921000  0.10814000  1.0
  C  C60  1  0.81912000  0.97337000  0.30410000  1.0
  C  C61  1  0.68087000  0.52662000  0.80410000  1.0
  C  C62  1  0.18086000  0.02663000  0.69590000  1.0
  C  C63  1  0.31914000  0.47337000  0.19589000  1.0
  C  C64  1  0.76777000  0.90273000  0.22955000  1.0
  C  C65  1  0.73222000  0.59726000  0.72955000  1.0
  C  C66  1  0.23221000  0.09726000  0.77045000  1.0
  C  C67  1  0.26778000  0.40273000  0.27045000  1.0
  C  C68  1  0.65680000  0.79693000  0.24171000  1.0
  C  C69  1  0.84319000  0.70306000  0.74172000  1.0
  C  C70  1  0.34318000  0.20307000  0.75829000  1.0
  C  C71  1  0.15682000  0.29694000  0.25828000  1.0
  C  C72  1  0.83753000  0.94007000  0.14186000  1.0
  C  C73  1  0.66246000  0.55992000  0.64187000  1.0
  C  C74  1  0.16247000  0.05992000  0.85813000  1.0
  C  C75  1  0.33754000  0.44007000  0.35813000  1.0
  N  N76  1  0.11379000  0.40978000  0.88414000  1.0
  N  N77  1  0.38622000  0.09022000  0.38414000  1.0
  N  N78  1  0.88622000  0.59022000  0.11586000  1.0
  N  N79  1  0.61380000  0.90979000  0.61586000  1.0
  N  N80  1  0.25875000  0.58098000  0.82765000  1.0
  N  N81  1  0.24125000  0.91902000  0.32764000  1.0
  N  N82  1  0.74127000  0.41902000  0.17236000  1.0
  N  N83  1  0.75875000  0.08099000  0.67236000  1.0
  N  N84  1  0.58937000  0.75552000  0.31928000  1.0
  N  N85  1  0.91061000  0.74447000  0.81928000  1.0
  N  N86  1  0.41061000  0.24448000  0.68072000  1.0
  N  N87  1  0.08939000  0.25552000  0.18072000  1.0
  N  N88  1  0.73563000  0.92381000  0.38086000  1.0
  N  N89  1  0.76436000  0.57619000  0.88086000  1.0
  N  N90  1  0.26436000  0.07619000  0.61914000  1.0
  N  N91  1  0.23564000  0.42380000  0.11914000  1.0
  O  O92  1  0.28606000  0.54991000  0.97076000  1.0
  O  O93  1  0.21395000  0.95009000  0.47076000  1.0
  O  O94  1  0.71395000  0.45009000  0.02924000  1.0
  O  O95  1  0.78607000  0.04992000  0.52924000  1.0
  O  O96  1  0.27067000  0.61864000  0.68707000  1.0
  O  O97  1  0.22933000  0.88137000  0.18706000  1.0
  O  O98  1  0.72935000  0.38136000  0.31293000  1.0
  O  O99  1  0.77067000  0.11864000  0.81294000  1.0
  O  O100  1  0.00279000  0.46006000  0.58721000  1.0
  O  O101  1  0.49721000  0.03994000  0.08720000  1.0
  O  O102  1  0.99722000  0.53994000  0.41280000  1.0
  O  O103  1  0.50278000  0.96007000  0.91279000  1.0
  O  O104  1  0.88386000  0.29635000  0.64772000  1.0
  O  O105  1  0.61613000  0.20365000  0.14771000  1.0
  O  O106  1  0.11614000  0.70366000  0.35229000  1.0
  O  O107  1  0.38388000  0.79635000  0.85228000  1.0
  O  O108  1  0.55266000  0.78505000  0.46356000  1.0
  O  O109  1  0.94732000  0.71495000  0.96356000  1.0
  O  O110  1  0.44733000  0.21496000  0.53644000  1.0
  O  O111  1  0.05268000  0.28504000  0.03644000  1.0
  O  O112  1  0.92514000  0.06833000  0.30719000  1.0
  O  O113  1  0.57485000  0.43166000  0.80720000  1.0
  O  O114  1  0.07483000  0.93167000  0.69281000  1.0
  O  O115  1  0.42514000  0.56833000  0.19280000  1.0
  O  O116  1  0.94845000  0.03699000  0.13096000  1.0
  O  O117  1  0.55152000  0.46299000  0.63096000  1.0
  O  O118  1  0.05152000  0.96300000  0.86904000  1.0
  O  O119  1  0.44846000  0.53699000  0.36904000  1.0
  O  O120  1  0.78783000  0.87256000  0.07978000  1.0
  O  O121  1  0.71216000  0.62744000  0.57978000  1.0
  O  O122  1  0.21216000  0.12744000  0.92023000  1.0
  O  O123  1  0.28785000  0.37256000  0.42021000  1.0
  O  O124  1  0.10147000  0.74227000  0.55379000  1.0
  O  O125  1  0.39852000  0.75773000  0.05379000  1.0
  O  O126  1  0.89853000  0.25773000  0.44622000  1.0
  O  O127  1  0.60146000  0.24226000  0.94621000  1.0
