# generated using pymatgen
data_CdH10C14(N2O)2
_symmetry_space_group_name_H-M   'P 1'
_cell_length_a   9.89013000
_cell_length_b   9.89291000
_cell_length_c   16.62180000
_cell_angle_alpha   102.88400000
_cell_angle_beta   95.41580000
_cell_angle_gamma   117.80100000
_symmetry_Int_Tables_number   1
_chemical_formula_structural   CdH10C14(N2O)2
_chemical_formula_sum   'Cd4 H40 C56 N16 O8'
_cell_volume   1364.75728280
_cell_formula_units_Z   4
loop_
 _symmetry_equiv_pos_site_id
 _symmetry_equiv_pos_as_xyz
  1  'x, y, z'
loop_
 _atom_site_type_symbol
 _atom_site_label
 _atom_site_symmetry_multiplicity
 _atom_site_fract_x
 _atom_site_fract_y
 _atom_site_fract_z
 _atom_site_occupancy
  Cd  Cd0  1  0.67762000  0.95028000  0.99022000  1.0
  Cd  Cd1  1  0.95960000  0.18689000  0.50988000  1.0
  Cd  Cd2  1  0.32238000  0.04972000  0.00978000  1.0
  Cd  Cd3  1  0.04040000  0.81311000  0.49012000  1.0
  H  H4  1  0.10738000  0.22157000  0.99632000  1.0
  H  H5  1  0.22570000  0.61205000  0.50386000  1.0
  H  H6  1  0.89262000  0.77843000  0.00367000  1.0
  H  H7  1  0.77430000  0.38795000  0.49614000  1.0
  H  H8  1  0.10331000  0.43784000  0.94124000  1.0
  H  H9  1  0.49711000  0.66314000  0.55907000  1.0
  H  H10  1  0.89669000  0.56216000  0.05876000  1.0
  H  H11  1  0.50288000  0.33686000  0.44093000  1.0
  H  H12  1  0.31155000  0.57326000  0.86377000  1.0
  H  H13  1  0.71006000  0.94882000  0.63633000  1.0
  H  H14  1  0.68845000  0.42673000  0.13623000  1.0
  H  H15  1  0.28994000  0.05118000  0.36366000  1.0
  H  H16  1  0.51183000  0.49366000  0.84731000  1.0
  H  H17  1  0.64688000  0.16547000  0.65257000  1.0
  H  H18  1  0.48818000  0.50635000  0.15270000  1.0
  H  H19  1  0.35312000  0.83452000  0.34743000  1.0
  H  H20  1  0.66056000  0.34806000  0.80889000  1.0
  H  H21  1  0.53908000  0.35221000  0.69134000  1.0
  H  H22  1  0.33944000  0.65194000  0.19111000  1.0
  H  H23  1  0.46092000  0.64779000  0.30866000  1.0
  H  H24  1  0.79464000  0.17254000  0.84651000  1.0
  H  H25  1  0.32541000  0.44817000  0.65393000  1.0
  H  H26  1  0.20536000  0.82746000  0.15349000  1.0
  H  H27  1  0.67459000  0.55184000  0.34607000  1.0
  H  H28  1  0.08579000  0.56102000  0.19309000  1.0
  H  H29  1  0.36800000  0.39253000  0.30717000  1.0
  H  H30  1  0.91421000  0.43898000  0.80691000  1.0
  H  H31  1  0.63199000  0.60747000  0.69282000  1.0
  H  H32  1  0.97329000  0.31713000  0.06549000  1.0
  H  H33  1  0.25151000  0.40747000  0.43477000  1.0
  H  H34  1  0.02670000  0.68287000  0.93452000  1.0
  H  H35  1  0.74849000  0.59253000  0.56523000  1.0
  H  H36  1  0.65030000  0.03807000  0.18475000  1.0
  H  H37  1  0.85340000  0.96526000  0.31550000  1.0
  H  H38  1  0.34970000  0.96193000  0.81525000  1.0
  H  H39  1  0.14660000  0.03474000  0.68450000  1.0
  H  H40  1  0.75410000  0.26945000  0.31746000  1.0
  H  H41  1  0.95230000  0.93645000  0.18282000  1.0
  H  H42  1  0.24590000  0.73056000  0.68254000  1.0
  H  H43  1  0.04770000  0.06355000  0.81718000  1.0
  C  C44  1  0.19509000  0.28675000  0.96359000  1.0
  C  C45  1  0.32362000  0.73245000  0.53656000  1.0
  C  C46  1  0.80491000  0.71324000  0.03641000  1.0
  C  C47  1  0.67638000  0.26755000  0.46344000  1.0
  C  C48  1  0.19261000  0.40469000  0.93190000  1.0
  C  C49  1  0.47328000  0.76173000  0.56833000  1.0
  C  C50  1  0.80739000  0.59531000  0.06810000  1.0
  C  C51  1  0.52672000  0.23827000  0.43167000  1.0
  C  C52  1  0.30721000  0.47875000  0.88866000  1.0
  C  C53  1  0.59060000  0.91954000  0.61147000  1.0
  C  C54  1  0.69279000  0.52125000  0.11134000  1.0
  C  C55  1  0.40940000  0.08046000  0.38853000  1.0
  C  C56  1  0.41954000  0.43310000  0.87872000  1.0
  C  C57  1  0.55488000  0.04179000  0.62128000  1.0
  C  C58  1  0.58047000  0.56690000  0.12129000  1.0
  C  C59  1  0.44512000  0.95822000  0.37871000  1.0
  C  C60  1  0.41485000  0.31328000  0.91224000  1.0
  C  C61  1  0.40149000  0.00350000  0.58778000  1.0
  C  C62  1  0.58515000  0.68672000  0.08777000  1.0
  C  C63  1  0.59850000  0.99650000  0.41222000  1.0
  C  C64  1  0.52835000  0.25845000  0.90525000  1.0
  C  C65  1  0.35346000  0.12382000  0.59480000  1.0
  C  C66  1  0.47165000  0.74155000  0.09475000  1.0
  C  C67  1  0.64654000  0.87619000  0.40519000  1.0
  C  C68  1  0.63743000  0.28037000  0.85388000  1.0
  C  C69  1  0.42644000  0.28408000  0.64632000  1.0
  C  C70  1  0.36257000  0.71964000  0.14612000  1.0
  C  C71  1  0.57356000  0.71593000  0.35368000  1.0
  C  C72  1  0.70603000  0.19198000  0.87234000  1.0
  C  C73  1  0.31931000  0.33394000  0.62797000  1.0
  C  C74  1  0.29397000  0.80802000  0.12766000  1.0
  C  C75  1  0.68070000  0.66606000  0.37203000  1.0
  C  C76  1  0.99155000  0.44574000  0.19355000  1.0
  C  C77  1  0.25228000  0.29780000  0.30671000  1.0
  C  C78  1  0.00844000  0.55426000  0.80645000  1.0
  C  C79  1  0.74772000  0.70220000  0.69328000  1.0
  C  C80  1  0.92865000  0.31105000  0.12292000  1.0
  C  C81  1  0.18812000  0.30541000  0.37734000  1.0
  C  C82  1  0.07135000  0.68894000  0.87708000  1.0
  C  C83  1  0.81187000  0.69459000  0.62266000  1.0
  C  C84  1  0.74821000  0.15529000  0.18915000  1.0
  C  C85  1  0.96625000  0.05877000  0.31111000  1.0
  C  C86  1  0.25179000  0.84472000  0.81085000  1.0
  C  C87  1  0.03375000  0.94123000  0.68890000  1.0
  C  C88  1  0.80537000  0.28365000  0.26272000  1.0
  C  C89  1  0.02115000  0.04244000  0.23755000  1.0
  C  C90  1  0.19462000  0.71635000  0.73728000  1.0
  C  C91  1  0.97885000  0.95755000  0.76245000  1.0
  C  C92  1  0.92931000  0.43255000  0.26539000  1.0
  C  C93  1  0.16734000  0.16377000  0.23487000  1.0
  C  C94  1  0.07069000  0.56746000  0.73461000  1.0
  C  C95  1  0.83266000  0.83623000  0.76513000  1.0
  C  C96  1  0.98995000  0.57623000  0.34276000  1.0
  C  C97  1  0.23362000  0.14712000  0.15745000  1.0
  C  C98  1  0.01005000  0.42378000  0.65724000  1.0
  C  C99  1  0.76637000  0.85288000  0.84255000  1.0
  N  N100  1  0.64251000  0.12281000  0.93135000  1.0
  N  N101  1  0.19128000  0.21145000  0.56888000  1.0
  N  N102  1  0.35750000  0.87719000  0.06865000  1.0
  N  N103  1  0.80872000  0.78856000  0.43112000  1.0
  N  N104  1  0.53514000  0.16419000  0.95187000  1.0
  N  N105  1  0.21251000  0.08386000  0.54820000  1.0
  N  N106  1  0.46486000  0.83581000  0.04813000  1.0
  N  N107  1  0.78749000  0.91615000  0.45180000  1.0
  N  N108  1  0.30246000  0.24172000  0.95362000  1.0
  N  N109  1  0.28857000  0.84978000  0.54645000  1.0
  N  N110  1  0.69754000  0.75828000  0.04639000  1.0
  N  N111  1  0.71143000  0.15022000  0.45354000  1.0
  N  N112  1  0.80863000  0.16789000  0.12024000  1.0
  N  N113  1  0.04763000  0.18805000  0.38001000  1.0
  N  N114  1  0.19136000  0.83211000  0.87977000  1.0
  N  N115  1  0.95237000  0.81195000  0.61999000  1.0
  O  O116  1  0.07770000  0.71434000  0.33703000  1.0
  O  O117  1  0.37734000  0.24074000  0.16301000  1.0
  O  O118  1  0.92230000  0.28567000  0.66297000  1.0
  O  O119  1  0.62265000  0.75926000  0.83699000  1.0
  O  O120  1  0.94413000  0.54747000  0.40978000  1.0
  O  O121  1  0.13778000  0.03405000  0.09052000  1.0
  O  O122  1  0.05587000  0.45253000  0.59023000  1.0
  O  O123  1  0.86222000  0.96595000  0.90948000  1.0
