# generated using pymatgen
data_CuH8C2(N6Cl)2
_symmetry_space_group_name_H-M   'P 1'
_cell_length_a   6.49741000
_cell_length_b   6.55850000
_cell_length_c   12.26570000
_cell_angle_alpha   89.97190000
_cell_angle_beta   87.19280000
_cell_angle_gamma   89.88570000
_symmetry_Int_Tables_number   1
_chemical_formula_structural   CuH8C2(N6Cl)2
_chemical_formula_sum   'Cu2 H16 C4 N24 Cl4'
_cell_volume   522.05320416
_cell_formula_units_Z   2
loop_
 _symmetry_equiv_pos_site_id
 _symmetry_equiv_pos_as_xyz
  1  'x, y, z'
loop_
 _atom_site_type_symbol
 _atom_site_label
 _atom_site_symmetry_multiplicity
 _atom_site_fract_x
 _atom_site_fract_y
 _atom_site_fract_z
 _atom_site_occupancy
  Cu  Cu0  1  0.00000000  0.00000000  0.00000000  1.0
  Cu  Cu1  1  0.00000000  0.50000000  0.50000000  1.0
  H  H2  1  0.42067000  0.65508000  0.59391000  1.0
  H  H3  1  0.57932000  0.15545000  0.90600000  1.0
  H  H4  1  0.57933000  0.34492000  0.40608000  1.0
  H  H5  1  0.42068000  0.84455000  0.09400000  1.0
  H  H6  1  0.31215000  0.87044000  0.54836000  1.0
  H  H7  1  0.68749000  0.37028000  0.95156000  1.0
  H  H8  1  0.68786000  0.12956000  0.45164000  1.0
  H  H9  1  0.31251000  0.62972000  0.04844000  1.0
  H  H10  1  0.79008000  0.85942000  0.77898000  1.0
  H  H11  1  0.20998000  0.35944000  0.72113000  1.0
  H  H12  1  0.20992000  0.14057000  0.22102000  1.0
  H  H13  1  0.79002000  0.64056000  0.27887000  1.0
  H  H14  1  0.89816000  0.83684000  0.64622000  1.0
  H  H15  1  0.10181000  0.33683000  0.85386000  1.0
  H  H16  1  0.10185000  0.16316000  0.35378000  1.0
  H  H17  1  0.89819000  0.66316000  0.14614000  1.0
  C  C18  1  0.10402000  0.87108000  0.76580000  1.0
  C  C19  1  0.89596000  0.37114000  0.73418000  1.0
  C  C20  1  0.89599000  0.12892000  0.23420000  1.0
  C  C21  1  0.10404000  0.62886000  0.26582000  1.0
  N  N22  1  0.28154000  0.82733000  0.70709000  1.0
  N  N23  1  0.71842000  0.32751000  0.79280000  1.0
  N  N24  1  0.71847000  0.17267000  0.29291000  1.0
  N  N25  1  0.28158000  0.67249000  0.20720000  1.0
  N  N26  1  0.44570000  0.85913000  0.77056000  1.0
  N  N27  1  0.55434000  0.35930000  0.72917000  1.0
  N  N28  1  0.55431000  0.14087000  0.22944000  1.0
  N  N29  1  0.44565000  0.64070000  0.27083000  1.0
  N  N30  1  0.37087000  0.91558000  0.86506000  1.0
  N  N31  1  0.62922000  0.41571000  0.63469000  1.0
  N  N32  1  0.62913000  0.08442000  0.13494000  1.0
  N  N33  1  0.37078000  0.58429000  0.36531000  1.0
  N  N34  1  0.16185000  0.92675000  0.86567000  1.0
  N  N35  1  0.83817000  0.42686000  0.63424000  1.0
  N  N36  1  0.83816000  0.07325000  0.13433000  1.0
  N  N37  1  0.16183000  0.57314000  0.36576000  1.0
  N  N38  1  0.29451000  0.75036000  0.60199000  1.0
  N  N39  1  0.70540000  0.25033000  0.89792000  1.0
  N  N40  1  0.70549000  0.24964000  0.39801000  1.0
  N  N41  1  0.29460000  0.74967000  0.10208000  1.0
  N  N42  1  0.91675000  0.86916000  0.72706000  1.0
  N  N43  1  0.08316000  0.36900000  0.77298000  1.0
  N  N44  1  0.08326000  0.13083000  0.27294000  1.0
  N  N45  1  0.91684000  0.63100000  0.22702000  1.0
  Cl  Cl46  1  0.79365000  0.71500000  0.97876000  1.0
  Cl  Cl47  1  0.20690000  0.21459000  0.52129000  1.0
  Cl  Cl48  1  0.20635000  0.28499000  0.02124000  1.0
  Cl  Cl49  1  0.79309000  0.78541000  0.47871000  1.0
