# generated using pymatgen
data_Zr3H14C28S5O21
_symmetry_space_group_name_H-M   'P 1'
_cell_length_a   16.44780000
_cell_length_b   16.44920000
_cell_length_c   16.44994856
_cell_angle_alpha   60.26009241
_cell_angle_beta   88.50383907
_cell_angle_gamma   60.26010000
_symmetry_Int_Tables_number   1
_chemical_formula_structural   Zr3H14C28S5O21
_chemical_formula_sum   'Zr6 H28 C56 S10 O42'
_cell_volume   3209.39516226
_cell_formula_units_Z   2
loop_
 _symmetry_equiv_pos_site_id
 _symmetry_equiv_pos_as_xyz
  1  'x, y, z'
loop_
 _atom_site_type_symbol
 _atom_site_label
 _atom_site_symmetry_multiplicity
 _atom_site_fract_x
 _atom_site_fract_y
 _atom_site_fract_z
 _atom_site_occupancy
  Zr  Zr0  1  0.90352000  0.48751000  0.39997000  1.0
  Zr  Zr1  1  0.10614000  0.50656000  0.60205000  1.0
  Zr  Zr2  1  0.89779000  0.70786000  0.39395000  1.0
  Zr  Zr3  1  0.11219000  0.28627000  0.60769000  1.0
  Zr  Zr4  1  0.89572000  0.49680000  0.61062000  1.0
  Zr  Zr5  1  0.11406000  0.49740000  0.39119000  1.0
  H  H6  1  0.75564000  0.65360000  0.42481000  1.0
  H  H7  1  0.08192000  0.34008000  0.75010000  1.0
  H  H8  1  0.08656000  0.67056000  0.41001000  1.0
  H  H9  1  0.09544000  0.32409000  0.41869000  1.0
  H  H10  1  0.67806000  0.70011000  0.13326000  1.0
  H  H11  1  0.37471000  0.29310000  0.82613000  1.0
  H  H12  1  0.46163000  0.47551000  0.32840000  1.0
  H  H13  1  0.56831000  0.47685000  0.69500000  1.0
  H  H14  1  0.81096000  0.51760000  0.93666000  1.0
  H  H15  1  0.17711000  0.51905000  0.04442000  1.0
  H  H16  1  0.81118000  0.10635000  0.05780000  1.0
  H  H17  1  0.17877000  0.88652000  0.92367000  1.0
  H  H18  1  0.58319000  0.10678000  0.32756000  1.0
  H  H19  1  0.44764000  0.88904000  0.69462000  1.0
  H  H20  1  0.16691000  0.75693000  0.68685000  1.0
  H  H21  1  0.82151000  0.23677000  0.33711000  1.0
  H  H22  1  0.49649000  0.21723000  0.02833000  1.0
  H  H23  1  0.60163000  0.13909000  0.00233000  1.0
  H  H24  1  0.50005000  0.27176000  0.90552000  1.0
  H  H25  1  0.53151000  0.06743000  0.15305000  1.0
  H  H26  1  0.62065000  0.92796000  0.25116000  1.0
  H  H27  1  0.65921000  0.00689000  0.16485000  1.0
  H  H28  1  0.47499000  0.77715000  0.01134000  1.0
  H  H29  1  0.50302000  0.85241000  0.90652000  1.0
  H  H30  1  0.59838000  0.71995000  0.00951000  1.0
  H  H31  1  0.35128000  0.92800000  0.97393000  1.0
  H  H32  1  0.25414000  0.06747000  0.88366000  1.0
  H  H33  1  0.34096000  0.98686000  0.84666000  1.0
  C  C34  1  0.74258000  0.47581000  0.51800000  1.0
  C  C35  1  0.98884000  0.51775000  0.76343000  1.0
  C  C36  1  0.27792000  0.49607000  0.49553000  1.0
  C  C37  1  0.00926000  0.49904000  0.22741000  1.0
  C  C38  1  0.73986000  0.74878000  0.23720000  1.0
  C  C39  1  0.00377000  0.22111000  0.50962000  1.0
  C  C40  1  0.26943000  0.24525000  0.76506000  1.0
  C  C41  1  0.99640000  0.77275000  0.50243000  1.0
  C  C42  1  0.73566000  0.76869000  0.50535000  1.0
  C  C43  1  0.99867000  0.76860000  0.22172000  1.0
  C  C44  1  0.28401000  0.22639000  0.50619000  1.0
  C  C45  1  0.00145000  0.22487000  0.77053000  1.0
  C  C46  1  0.43121000  0.47851000  0.43990000  1.0
  C  C47  1  0.59896000  0.47268000  0.58397000  1.0
  C  C48  1  0.37164000  0.48507000  0.50133000  1.0
  C  C49  1  0.65648000  0.47045000  0.52038000  1.0
  C  C50  1  0.51734000  0.47421000  0.55510000  1.0
  C  C51  1  0.51484000  0.47259000  0.47096000  1.0
  C  C52  1  0.92211000  0.52168000  0.90645000  1.0
  C  C53  1  0.06526000  0.51662000  0.07430000  1.0
  C  C54  1  0.98608000  0.52355000  0.84930000  1.0
  C  C55  1  0.00359000  0.51015000  0.13363000  1.0
  C  C56  1  0.03464000  0.52214000  0.99078000  1.0
  C  C57  1  0.95052000  0.52048000  0.98801000  1.0
  C  C58  1  0.92596000  0.97458000  0.07780000  1.0
  C  C59  1  0.06420000  0.01817000  0.90412000  1.0
  C  C60  1  0.99380000  0.85813000  0.12964000  1.0
  C  C61  1  0.99861000  0.13479000  0.85468000  1.0
  C  C62  1  0.03703000  0.95990000  0.98501000  1.0
  C  C63  1  0.95140000  0.03276000  0.99508000  1.0
  C  C64  1  0.60238000  0.97547000  0.44223000  1.0
  C  C65  1  0.42803000  0.02038000  0.57964000  1.0
  C  C66  1  0.65159000  0.85891000  0.50810000  1.0
  C  C67  1  0.37633000  0.13676000  0.51144000  1.0
  C  C68  1  0.51095000  0.96173000  0.55463000  1.0
  C  C69  1  0.52132000  0.03418000  0.46901000  1.0
  C  C70  1  0.59270000  0.94631000  0.11432000  1.0
  C  C71  1  0.62740000  0.78898000  0.10546000  1.0
  C  C72  1  0.54340000  0.85452000  0.02998000  1.0
  C  C73  1  0.48248000  0.97363000  0.98905000  1.0
  C  C74  1  0.39151000  0.04779000  0.91270000  1.0
  C  C75  1  0.40175000  0.20455000  0.87725000  1.0
  C  C76  1  0.47706000  0.13896000  0.96139000  1.0
  C  C77  1  0.51689000  0.02019000  0.02301000  1.0
  C  C78  1  0.65051000  0.83148000  0.15127000  1.0
  C  C79  1  0.35533000  0.16240000  0.85445000  1.0
  C  C80  1  0.05759000  0.84576000  0.57580000  1.0
  C  C81  1  0.93101000  0.14801000  0.44796000  1.0
  C  C82  1  0.99368000  0.85938000  0.50895000  1.0
  C  C83  1  0.99734000  0.13445000  0.51236000  1.0
  C  C84  1  0.95249000  0.04246000  0.47201000  1.0
  C  C85  1  0.03384000  0.95134000  0.55402000  1.0
  C  C86  1  0.52136000  0.19403000  0.97593000  1.0
  C  C87  1  0.60147000  0.99039000  0.17292000  1.0
  C  C88  1  0.52839000  0.79873000  0.98683000  1.0
  C  C89  1  0.33235000  0.00434000  0.90379000  1.0
  S  S90  1  0.41827000  0.48259000  0.59740000  1.0
  S  S91  1  0.61192000  0.46853000  0.42651000  1.0
  S  S92  1  0.07967000  0.52572000  0.89407000  1.0
  S  S93  1  0.90774000  0.51249000  0.08676000  1.0
  S  S94  1  0.08722000  0.82005000  0.07600000  1.0
  S  S95  1  0.90318000  0.17274000  0.90619000  1.0
  S  S96  1  0.59971000  0.82158000  0.60332000  1.0
  S  S97  1  0.43042000  0.17418000  0.41829000  1.0
  S  S98  1  0.90385000  0.00074000  0.42085000  1.0
  S  S99  1  0.08468000  0.99312000  0.60295000  1.0
  O  O100  1  0.77849000  0.47529000  0.44808000  1.0
  O  O101  1  0.05886000  0.51806000  0.72763000  1.0
  O  O102  1  0.23923000  0.50231000  0.56264000  1.0
  O  O103  1  0.94224000  0.49265000  0.26618000  1.0
  O  O104  1  0.77556000  0.78545000  0.26779000  1.0
  O  O105  1  0.07296000  0.18863000  0.57537000  1.0
  O  O106  1  0.23870000  0.20869000  0.72937000  1.0
  O  O107  1  0.93057000  0.80536000  0.43322000  1.0
  O  O108  1  0.76649000  0.66713000  0.57389000  1.0
  O  O109  1  0.07051000  0.66730000  0.25577000  1.0
  O  O110  1  0.24979000  0.32767000  0.43424000  1.0
  O  O111  1  0.93288000  0.32643000  0.73977000  1.0
  O  O112  1  0.93157000  0.79973000  0.26131000  1.0
  O  O113  1  0.24441000  0.19518000  0.57323000  1.0
  O  O114  1  0.07339000  0.19408000  0.73588000  1.0
  O  O115  1  0.77014000  0.79956000  0.43328000  1.0
  O  O116  1  0.77656000  0.64410000  0.27447000  1.0
  O  O117  1  0.06635000  0.67105000  0.56626000  1.0
  O  O118  1  0.23223000  0.34989000  0.72844000  1.0
  O  O119  1  0.93979000  0.32280000  0.43975000  1.0
  O  O120  1  0.08005000  0.49518000  0.26335000  1.0
  O  O121  1  0.77331000  0.48315000  0.58316000  1.0
  O  O122  1  0.92375000  0.51021000  0.73287000  1.0
  O  O123  1  0.24195000  0.49992000  0.42478000  1.0
  O  O124  1  0.07000000  0.37299000  0.44227000  1.0
  O  O125  1  0.06314000  0.62150000  0.43554000  1.0
  O  O126  1  0.05967000  0.38469000  0.67923000  1.0
  O  O127  1  0.82652000  0.60909000  0.44684000  1.0
  O  O128  1  0.95699000  0.58867000  0.54368000  1.0
  O  O129  1  0.96240000  0.40527000  0.54900000  1.0
  O  O130  1  0.13650000  0.41400000  0.54129000  1.0
  O  O131  1  0.96399000  0.58040000  0.36932000  1.0
  O  O132  1  0.41022000  0.47917000  0.36019000  1.0
  O  O133  1  0.61900000  0.47448000  0.66241000  1.0
  O  O134  1  0.84377000  0.51986000  0.88614000  1.0
  O  O135  1  0.14479000  0.51625000  0.09535000  1.0
  O  O136  1  0.84632000  0.02502000  0.10442000  1.0
  O  O137  1  0.14419000  0.96790000  0.87788000  1.0
  O  O138  1  0.62883000  0.02536000  0.36227000  1.0
  O  O139  1  0.40115000  0.97041000  0.65924000  1.0
  O  O140  1  0.13333000  0.74406000  0.65120000  1.0
  O  O141  1  0.85641000  0.24968000  0.37141000  1.0
