# generated using pymatgen
data_Zn4H9C24S4N2ClO13
_symmetry_space_group_name_H-M   'P 1'
_cell_length_a   19.67530000
_cell_length_b   19.68290000
_cell_length_c   33.37940000
_cell_angle_alpha   79.14980000
_cell_angle_beta   79.18040000
_cell_angle_gamma   63.86720000
_symmetry_Int_Tables_number   1
_chemical_formula_structural   Zn4H9C24S4N2ClO13
_chemical_formula_sum   'Zn16 H36 C96 S16 N8 Cl4 O52'
_cell_volume   11317.03411058
_cell_formula_units_Z   4
loop_
 _symmetry_equiv_pos_site_id
 _symmetry_equiv_pos_as_xyz
  1  'x, y, z'
loop_
 _atom_site_type_symbol
 _atom_site_label
 _atom_site_symmetry_multiplicity
 _atom_site_fract_x
 _atom_site_fract_y
 _atom_site_fract_z
 _atom_site_occupancy
  Zn  Zn0  1  0.59998000  0.94471000  0.52193000  1.0
  Zn  Zn1  1  0.51631000  0.01519000  0.43937000  1.0
  Zn  Zn2  1  0.43981000  0.94130000  0.51772000  1.0
  Zn  Zn3  1  0.44402000  0.09858000  0.52006000  1.0
  Zn  Zn4  1  0.65072000  0.30574000  0.72849000  1.0
  Zn  Zn5  1  0.81033000  0.31165000  0.73374000  1.0
  Zn  Zn6  1  0.73349000  0.23106000  0.80907000  1.0
  Zn  Zn7  1  0.80610000  0.15161000  0.72773000  1.0
  Zn  Zn8  1  0.23324000  0.73250000  0.31024000  1.0
  Zn  Zn9  1  0.30406000  0.65143000  0.22743000  1.0
  Zn  Zn10  1  0.15185000  0.80762000  0.22860000  1.0
  Zn  Zn11  1  0.31148000  0.80873000  0.23285000  1.0
  Zn  Zn12  1  0.94057000  0.43929000  0.01684000  1.0
  Zn  Zn13  1  0.94433000  0.59877000  0.02140000  1.0
  Zn  Zn14  1  0.09919000  0.44473000  0.02170000  1.0
  Zn  Zn15  1  0.01753000  0.51610000  0.93946000  1.0
  H  H16  1  0.75145000  0.04433000  0.64796000  1.0
  H  H17  1  0.54706000  0.25269000  0.65023000  1.0
  H  H18  1  0.69906000  0.00096000  0.59991000  1.0
  H  H19  1  0.40330000  0.90338000  0.30003000  1.0
  H  H20  1  0.29844000  0.79821000  0.40125000  1.0
  H  H21  1  0.44937000  0.94901000  0.35017000  1.0
  H  H22  1  0.75912000  0.53712000  0.65918000  1.0
  H  H23  1  0.29917000  0.51988000  0.39792000  1.0
  H  H24  1  0.02034000  0.79592000  0.39835000  1.0
  H  H25  1  0.03070000  0.05204000  0.65249000  1.0
  H  H26  1  0.94952000  0.44974000  0.84646000  1.0
  H  H27  1  0.84814000  0.34891000  0.95161000  1.0
  H  H28  1  0.89971000  0.39938000  0.80060000  1.0
  H  H29  1  0.23018000  0.45160000  0.85179000  1.0
  H  H30  1  0.85753000  0.83703000  0.95897000  1.0
  H  H31  1  0.20487000  0.49911000  0.10175000  1.0
  H  H32  1  0.99627000  0.70334000  0.09983000  1.0
  H  H33  1  0.24825000  0.55116000  0.14998000  1.0
  H  H34  1  0.72044000  0.69784000  0.09822000  1.0
  H  H35  1  0.99052000  0.21355000  0.09181000  1.0
  H  H36  1  0.44294000  0.68661000  0.60380000  1.0
  H  H37  1  0.44717000  0.76691000  0.57270000  1.0
  H  H38  1  0.47844000  0.23214000  0.31438000  1.0
  H  H39  1  0.48209000  0.16361000  0.35636000  1.0
  H  H40  1  0.73194000  0.95396000  0.31426000  1.0
  H  H41  1  0.66405000  0.97920000  0.35687000  1.0
  H  H42  1  0.19782000  0.25737000  0.61471000  1.0
  H  H43  1  0.27508000  0.20543000  0.58106000  1.0
  H  H44  1  0.51836000  0.27380000  0.93544000  1.0
  H  H45  1  0.58728000  0.26724000  0.89314000  1.0
  H  H46  1  0.91534000  0.85467000  0.77262000  1.0
  H  H47  1  0.88436000  0.95292000  0.75992000  1.0
  H  H48  1  0.56374000  0.48316000  0.14534000  1.0
  H  H49  1  0.47678000  0.54360000  0.16954000  1.0
  H  H50  1  0.29928000  0.07371000  0.15583000  1.0
  H  H51  1  0.30301000  0.98457000  0.17774000  1.0
  C  C52  1  0.68406000  0.94114000  0.43727000  1.0
  C  C53  1  0.43026000  0.93075000  0.43074000  1.0
  C  C54  1  0.56094000  0.81468000  0.56071000  1.0
  C  C55  1  0.31456000  0.06414000  0.56117000  1.0
  C  C56  1  0.56833000  0.06966000  0.56914000  1.0
  C  C57  1  0.43694000  0.18352000  0.43661000  1.0
  C  C58  1  0.68754000  0.43520000  0.68919000  1.0
  C  C59  1  0.81990000  0.31797000  0.81941000  1.0
  C  C60  1  0.56626000  0.31170000  0.81243000  1.0
  C  C61  1  0.81347000  0.06343000  0.81032000  1.0
  C  C62  1  0.68170000  0.17933000  0.68080000  1.0
  C  C63  1  0.93482000  0.18918000  0.68888000  1.0
  C  C64  1  0.31306000  0.56565000  0.31106000  1.0
  C  C65  1  0.17958000  0.68155000  0.18089000  1.0
  C  C66  1  0.06611000  0.81070000  0.31153000  1.0
  C  C67  1  0.19175000  0.93469000  0.18782000  1.0
  C  C68  1  0.31946000  0.81960000  0.31873000  1.0
  C  C69  1  0.43460000  0.68654000  0.18743000  1.0
  C  C70  1  0.81656000  0.56064000  0.06176000  1.0
  C  C71  1  0.06975000  0.56914000  0.06905000  1.0
  C  C72  1  0.06135000  0.31625000  0.06197000  1.0
  C  C73  1  0.18478000  0.43719000  0.93858000  1.0
  C  C74  1  0.93114000  0.43088000  0.93032000  1.0
  C  C75  1  0.93772000  0.68385000  0.93844000  1.0
  C  C76  1  0.59417000  0.10130000  0.59790000  1.0
  C  C77  1  0.65216000  0.15129000  0.65217000  1.0
  C  C78  1  0.55132000  0.17315000  0.61247000  1.0
  C  C79  1  0.69547000  0.07998000  0.63798000  1.0
  C  C80  1  0.58052000  0.19727000  0.63929000  1.0
  C  C81  1  0.66634000  0.05609000  0.61135000  1.0
  C  C82  1  0.40026000  0.90012000  0.40362000  1.0
  C  C83  1  0.34780000  0.84806000  0.34771000  1.0
  C  C84  1  0.35717000  0.85690000  0.41790000  1.0
  C  C85  1  0.39056000  0.89069000  0.33302000  1.0
  C  C86  1  0.33150000  0.83146000  0.38996000  1.0
  C  C87  1  0.41600000  0.91586000  0.36083000  1.0
  C  C88  1  0.54437000  0.69607000  0.59772000  1.0
  C  C89  1  0.70221000  0.55445000  0.65122000  1.0
  C  C90  1  0.58590000  0.74074000  0.58487000  1.0
  C  C91  1  0.66209000  0.50992000  0.66413000  1.0
  C  C92  1  0.65973000  0.62233000  0.62721000  1.0
  C  C93  1  0.58787000  0.62817000  0.62220000  1.0
  C  C94  1  0.42332000  0.27223000  0.36924000  1.0
  C  C95  1  0.32815000  0.47506000  0.37797000  1.0
  C  C96  1  0.41215000  0.25734000  0.41226000  1.0
  C  C97  1  0.33851000  0.49051000  0.33563000  1.0
  C  C98  1  0.35926000  0.39581000  0.39046000  1.0
  C  C99  1  0.39263000  0.35233000  0.35726000  1.0
  C  C100  1  0.77279000  0.92703000  0.36989000  1.0
  C  C101  1  0.97553000  0.82546000  0.37840000  1.0
  C  C102  1  0.75799000  0.91692000  0.41296000  1.0
  C  C103  1  0.99094000  0.83558000  0.33605000  1.0
  C  C104  1  0.89632000  0.85837000  0.39094000  1.0
  C  C105  1  0.85282000  0.89296000  0.35777000  1.0
  C  C106  1  0.19961000  0.15873000  0.60167000  1.0
  C  C107  1  0.05110000  0.09639000  0.64789000  1.0
  C  C108  1  0.24079000  0.08883000  0.58537000  1.0
  C  C109  1  0.00973000  0.16492000  0.66409000  1.0
  C  C110  1  0.12042000  0.09346000  0.62543000  1.0
  C  C111  1  0.13046000  0.16016000  0.62481000  1.0
  C  C112  1  0.84640000  0.34580000  0.84969000  1.0
  C  C113  1  0.90195000  0.40207000  0.90195000  1.0
  C  C114  1  0.83181000  0.33191000  0.89289000  1.0
  C  C115  1  0.91663000  0.41671000  0.85921000  1.0
  C  C116  1  0.85961000  0.35999000  0.91843000  1.0
  C  C117  1  0.88899000  0.38875000  0.83389000  1.0
  C  C118  1  0.47823000  0.32630000  0.88006000  1.0
  C  C119  1  0.27515000  0.42256000  0.87168000  1.0
  C  C120  1  0.49269000  0.33733000  0.83695000  1.0
  C  C121  1  0.25989000  0.41208000  0.91403000  1.0
  C  C122  1  0.35436000  0.39129000  0.85910000  1.0
  C  C123  1  0.39807000  0.35764000  0.89223000  1.0
  C  C124  1  0.87831000  0.91812000  0.82097000  1.0
  C  C125  1  0.87441000  0.82948000  0.92660000  1.0
  C  C126  1  0.83886000  0.99013000  0.83509000  1.0
  C  C127  1  0.91316000  0.75824000  0.91314000  1.0
  C  C128  1  0.86119000  0.88792000  0.89328000  1.0
  C  C129  1  0.89040000  0.85992000  0.85496000  1.0
  C  C130  1  0.14781000  0.65588000  0.15216000  1.0
  C  C131  1  0.09767000  0.59833000  0.09785000  1.0
  C  C132  1  0.07587000  0.69892000  0.13766000  1.0
  C  C133  1  0.16913000  0.55490000  0.11191000  1.0
  C  C134  1  0.05168000  0.66983000  0.11081000  1.0
  C  C135  1  0.19302000  0.58384000  0.13861000  1.0
  C  C136  1  0.54963000  0.59252000  0.14656000  1.0
  C  C137  1  0.70009000  0.65345000  0.10275000  1.0
  C  C138  1  0.50793000  0.66250000  0.16270000  1.0
  C  C139  1  0.74177000  0.58485000  0.08667000  1.0
  C  C140  1  0.63035000  0.65654000  0.12475000  1.0
  C  C141  1  0.62016000  0.59007000  0.12489000  1.0
  C  C142  1  0.20819000  0.05297000  0.15028000  1.0
  C  C143  1  0.04755000  0.19642000  0.09954000  1.0
  C  C144  1  0.16729000  0.00776000  0.16285000  1.0
  C  C145  1  0.08705000  0.24157000  0.08693000  1.0
  C  C146  1  0.09106000  0.12792000  0.12275000  1.0
  C  C147  1  0.16316000  0.12214000  0.12728000  1.0
  S  S148  1  0.67588000  0.69969000  0.60208000  1.0
  S  S149  1  0.57264000  0.55015000  0.64701000  1.0
  S  S150  1  0.36482000  0.33958000  0.43708000  1.0
  S  S151  1  0.38577000  0.40894000  0.31073000  1.0
  S  S152  1  0.84024000  0.86721000  0.43767000  1.0
  S  S153  1  0.90936000  0.88530000  0.31122000  1.0
  S  S154  1  0.19539000  0.02732000  0.59787000  1.0
  S  S155  1  0.05466000  0.22632000  0.65193000  1.0
  S  S156  1  0.41015000  0.38554000  0.81236000  1.0
  S  S157  1  0.34168000  0.36446000  0.93880000  1.0
  S  S158  1  0.81820000  0.98608000  0.88859000  1.0
  S  S159  1  0.93417000  0.76183000  0.85996000  1.0
  S  S160  1  0.55396000  0.72349000  0.15115000  1.0
  S  S161  1  0.69636000  0.52385000  0.09802000  1.0
  S  S162  1  0.07669000  0.04889000  0.14646000  1.0
  S  S163  1  0.17736000  0.20094000  0.10300000  1.0
  N  N164  1  0.47437000  0.71371000  0.58733000  1.0
  N  N165  1  0.45612000  0.21807000  0.34285000  1.0
  N  N166  1  0.71867000  0.96607000  0.34365000  1.0
  N  N167  1  0.22134000  0.21708000  0.59526000  1.0
  N  N168  1  0.53253000  0.29297000  0.90624000  1.0
  N  N169  1  0.90330000  0.90597000  0.78093000  1.0
  N  N170  1  0.52510000  0.53664000  0.14998000  1.0
  N  N171  1  0.28073000  0.03262000  0.15786000  1.0
  Cl  Cl172  1  0.46214000  0.23701000  0.59915000  1.0
  Cl  Cl173  1  0.33295000  0.83113000  0.46915000  1.0
  Cl  Cl174  1  0.77997000  0.28134000  0.91797000  1.0
  Cl  Cl175  1  0.01252000  0.78815000  0.15083000  1.0
  O  O176  1  0.50149000  0.99946000  0.49930000  1.0
  O  O177  1  0.68275000  0.92507000  0.47636000  1.0
  O  O178  1  0.47273000  0.96422000  0.41276000  1.0
  O  O179  1  0.49372000  0.84257000  0.54900000  1.0
  O  O180  1  0.62497000  0.97700000  0.41746000  1.0
  O  O181  1  0.60673000  0.84724000  0.55287000  1.0
  O  O182  1  0.41116000  0.92176000  0.46915000  1.0
  O  O183  1  0.34422000  0.99641000  0.55084000  1.0
  O  O184  1  0.50269000  0.11000000  0.55766000  1.0
  O  O185  1  0.34526000  0.11205000  0.55185000  1.0
  O  O186  1  0.61467000  0.00415000  0.55850000  1.0
  O  O187  1  0.47146000  0.12409000  0.41709000  1.0
  O  O188  1  0.42292000  0.18279000  0.47575000  1.0
  O  O189  1  0.75087000  0.25040000  0.74901000  1.0
  O  O190  1  0.64058000  0.40417000  0.69726000  1.0
  O  O191  1  0.83517000  0.33863000  0.78138000  1.0
  O  O192  1  0.62574000  0.27558000  0.83186000  1.0
  O  O193  1  0.75404000  0.40799000  0.70051000  1.0
  O  O194  1  0.56707000  0.32633000  0.77325000  1.0
  O  O195  1  0.78481000  0.27612000  0.83359000  1.0
  O  O196  1  0.77528000  0.12254000  0.82927000  1.0
  O  O197  1  0.74737000  0.13492000  0.69178000  1.0
  O  O198  1  0.83077000  0.06392000  0.77093000  1.0
  O  O199  1  0.63874000  0.24521000  0.69173000  1.0
  O  O200  1  0.90715000  0.25534000  0.70081000  1.0
  O  O201  1  0.90417000  0.14210000  0.69616000  1.0
  O  O202  1  0.25086000  0.74917000  0.25007000  1.0
  O  O203  1  0.27683000  0.62352000  0.33083000  1.0
  O  O204  1  0.24492000  0.63468000  0.19177000  1.0
  O  O205  1  0.06637000  0.82820000  0.27258000  1.0
  O  O206  1  0.32935000  0.56606000  0.27204000  1.0
  O  O207  1  0.12426000  0.77426000  0.33116000  1.0
  O  O208  1  0.13987000  0.74731000  0.19217000  1.0
  O  O209  1  0.14448000  0.90386000  0.19687000  1.0
  O  O210  1  0.33586000  0.83638000  0.28043000  1.0
  O  O211  1  0.25911000  0.90611000  0.19933000  1.0
  O  O212  1  0.28137000  0.78095000  0.33489000  1.0
  O  O213  1  0.40236000  0.63989000  0.19506000  1.0
  O  O214  1  0.40718000  0.75228000  0.20005000  1.0
  O  O215  1  0.00042000  0.49991000  0.99978000  1.0
  O  O216  1  0.84441000  0.49404000  0.05035000  1.0
  O  O217  1  0.00410000  0.61244000  0.05780000  1.0
  O  O218  1  0.10816000  0.34744000  0.05389000  1.0
  O  O219  1  0.84686000  0.60803000  0.05369000  1.0
  O  O220  1  0.99499000  0.34321000  0.05053000  1.0
  O  O221  1  0.11400000  0.50342000  0.05823000  1.0
  O  O222  1  0.18460000  0.42092000  0.97760000  1.0
  O  O223  1  0.96954000  0.46899000  0.91366000  1.0
  O  O224  1  0.12662000  0.47304000  0.91894000  1.0
  O  O225  1  0.91520000  0.41476000  0.96876000  1.0
  O  O226  1  0.92085000  0.68438000  0.97731000  1.0
  O  O227  1  0.97404000  0.62522000  0.91909000  1.0
