# generated using pymatgen
data_Zn3H16C8(N10F)2
_symmetry_space_group_name_H-M   'P 1'
_cell_length_a   7.30985000
_cell_length_b   11.64120000
_cell_length_c   11.64120000
_cell_angle_alpha   90.00000000
_cell_angle_beta   90.00000000
_cell_angle_gamma   89.99990000
_symmetry_Int_Tables_number   1
_chemical_formula_structural   Zn3H16C8(N10F)2
_chemical_formula_sum   'Zn6 H32 C16 N40 F4'
_cell_volume   990.61287105
_cell_formula_units_Z   2
loop_
 _symmetry_equiv_pos_site_id
 _symmetry_equiv_pos_as_xyz
  1  'x, y, z'
loop_
 _atom_site_type_symbol
 _atom_site_label
 _atom_site_symmetry_multiplicity
 _atom_site_fract_x
 _atom_site_fract_y
 _atom_site_fract_z
 _atom_site_occupancy
  Zn  Zn0  1  0.00000000  0.75000000  0.25000000  1.0
  Zn  Zn1  1  0.00000000  0.25000000  0.75000000  1.0
  Zn  Zn2  1  0.50000000  0.75000000  0.25000000  1.0
  Zn  Zn3  1  0.50000000  0.25000000  0.75000000  1.0
  Zn  Zn4  1  0.75000000  0.75000000  0.75000000  1.0
  Zn  Zn5  1  0.25000000  0.25000000  0.25000000  1.0
  H  H6  1  0.13971000  0.64697000  0.47337000  1.0
  H  H7  1  0.13971000  0.02663000  0.64697000  1.0
  H  H8  1  0.13971000  0.47337000  0.85303000  1.0
  H  H9  1  0.36029000  0.64697000  0.02663000  1.0
  H  H10  1  0.36029000  0.85303000  0.47337000  1.0
  H  H11  1  0.13971000  0.85303000  0.02663000  1.0
  H  H12  1  0.36029000  0.47337000  0.64697000  1.0
  H  H13  1  0.36029000  0.02663000  0.85303000  1.0
  H  H14  1  0.86029000  0.35303000  0.52663000  1.0
  H  H15  1  0.86029000  0.97337000  0.35303000  1.0
  H  H16  1  0.86029000  0.52663000  0.14697000  1.0
  H  H17  1  0.63971000  0.35303000  0.97337000  1.0
  H  H18  1  0.63971000  0.14697000  0.52663000  1.0
  H  H19  1  0.86029000  0.14697000  0.97337000  1.0
  H  H20  1  0.63971000  0.52663000  0.35303000  1.0
  H  H21  1  0.63971000  0.97337000  0.14697000  1.0
  H  H22  1  0.07709000  0.68446000  0.61410000  1.0
  H  H23  1  0.07709000  0.88590000  0.68446000  1.0
  H  H24  1  0.07709000  0.61410000  0.81554000  1.0
  H  H25  1  0.42291000  0.68446000  0.88590000  1.0
  H  H26  1  0.42291000  0.81554000  0.61410000  1.0
  H  H27  1  0.07709000  0.81554000  0.88590000  1.0
  H  H28  1  0.42291000  0.61410000  0.68446000  1.0
  H  H29  1  0.42291000  0.88590000  0.81554000  1.0
  H  H30  1  0.92291000  0.31554000  0.38590000  1.0
  H  H31  1  0.92291000  0.11410000  0.31554000  1.0
  H  H32  1  0.92291000  0.38590000  0.18446000  1.0
  H  H33  1  0.57709000  0.31554000  0.11410000  1.0
  H  H34  1  0.57709000  0.18446000  0.38590000  1.0
  H  H35  1  0.92291000  0.18446000  0.11410000  1.0
  H  H36  1  0.57709000  0.38590000  0.31554000  1.0
  H  H37  1  0.57709000  0.11410000  0.18446000  1.0
  C  C38  1  0.88251000  0.71009000  0.49453000  1.0
  C  C39  1  0.88251000  0.00547000  0.71009000  1.0
  C  C40  1  0.88251000  0.49453000  0.78991000  1.0
  C  C41  1  0.61749000  0.71009000  0.00547000  1.0
  C  C42  1  0.61749000  0.78991000  0.49453000  1.0
  C  C43  1  0.88251000  0.78991000  0.00547000  1.0
  C  C44  1  0.61749000  0.49453000  0.71009000  1.0
  C  C45  1  0.61749000  0.00547000  0.78991000  1.0
  C  C46  1  0.11749000  0.28991000  0.50547000  1.0
  C  C47  1  0.11749000  0.99453000  0.28991000  1.0
  C  C48  1  0.11749000  0.50547000  0.21009000  1.0
  C  C49  1  0.38251000  0.28991000  0.99453000  1.0
  C  C50  1  0.38251000  0.21009000  0.50547000  1.0
  C  C51  1  0.11749000  0.21009000  0.99453000  1.0
  C  C52  1  0.38251000  0.50547000  0.28991000  1.0
  C  C53  1  0.38251000  0.99453000  0.21009000  1.0
  N  N54  1  0.75000000  0.75000000  0.56631000  1.0
  N  N55  1  0.75000000  0.93369000  0.75000000  1.0
  N  N56  1  0.75000000  0.56631000  0.75000000  1.0
  N  N57  1  0.75000000  0.75000000  0.93369000  1.0
  N  N58  1  0.25000000  0.25000000  0.43369000  1.0
  N  N59  1  0.25000000  0.06631000  0.25000000  1.0
  N  N60  1  0.25000000  0.43369000  0.25000000  1.0
  N  N61  1  0.25000000  0.25000000  0.06631000  1.0
  N  N62  1  0.83662000  0.72313000  0.38355000  1.0
  N  N63  1  0.83662000  0.11645000  0.72313000  1.0
  N  N64  1  0.83662000  0.38355000  0.77687000  1.0
  N  N65  1  0.66338000  0.72313000  0.11645000  1.0
  N  N66  1  0.66338000  0.77687000  0.38355000  1.0
  N  N67  1  0.83662000  0.77687000  0.11645000  1.0
  N  N68  1  0.66338000  0.38355000  0.72313000  1.0
  N  N69  1  0.66338000  0.11645000  0.77687000  1.0
  N  N70  1  0.16338000  0.27687000  0.61645000  1.0
  N  N71  1  0.16338000  0.88355000  0.27687000  1.0
  N  N72  1  0.16338000  0.61645000  0.22313000  1.0
  N  N73  1  0.33662000  0.27687000  0.88355000  1.0
  N  N74  1  0.33662000  0.22313000  0.61645000  1.0
  N  N75  1  0.16338000  0.22313000  0.88355000  1.0
  N  N76  1  0.33662000  0.61645000  0.27687000  1.0
  N  N77  1  0.33662000  0.88355000  0.22313000  1.0
  N  N78  1  0.03974000  0.66109000  0.53218000  1.0
  N  N79  1  0.03974000  0.96782000  0.66109000  1.0
  N  N80  1  0.03974000  0.53218000  0.83891000  1.0
  N  N81  1  0.46026000  0.66109000  0.96782000  1.0
  N  N82  1  0.46026000  0.83891000  0.53218000  1.0
  N  N83  1  0.03974000  0.83891000  0.96782000  1.0
  N  N84  1  0.46026000  0.53218000  0.66109000  1.0
  N  N85  1  0.46026000  0.96782000  0.83891000  1.0
  N  N86  1  0.96026000  0.33891000  0.46782000  1.0
  N  N87  1  0.96026000  0.03218000  0.33891000  1.0
  N  N88  1  0.96026000  0.46782000  0.16109000  1.0
  N  N89  1  0.53974000  0.33891000  0.03218000  1.0
  N  N90  1  0.53974000  0.16109000  0.46782000  1.0
  N  N91  1  0.96026000  0.16109000  0.03218000  1.0
  N  N92  1  0.53974000  0.46782000  0.33891000  1.0
  N  N93  1  0.53974000  0.03218000  0.16109000  1.0
  F  F94  1  0.04937000  0.75000000  0.75000000  1.0
  F  F95  1  0.45063000  0.75000000  0.75000000  1.0
  F  F96  1  0.95063000  0.25000000  0.25000000  1.0
  F  F97  1  0.54937000  0.25000000  0.25000000  1.0
