# generated using pymatgen
data_CdH9C13NO5
_symmetry_space_group_name_H-M   'P 1'
_cell_length_a   8.12284000
_cell_length_b   8.53896000
_cell_length_c   9.95382000
_cell_angle_alpha   101.58200000
_cell_angle_beta   95.45970000
_cell_angle_gamma   100.97000000
_symmetry_Int_Tables_number   1
_chemical_formula_structural   CdH9C13NO5
_chemical_formula_sum   'Cd2 H18 C26 N2 O10'
_cell_volume   657.57261561
_cell_formula_units_Z   2
loop_
 _symmetry_equiv_pos_site_id
 _symmetry_equiv_pos_as_xyz
  1  'x, y, z'
loop_
 _atom_site_type_symbol
 _atom_site_label
 _atom_site_symmetry_multiplicity
 _atom_site_fract_x
 _atom_site_fract_y
 _atom_site_fract_z
 _atom_site_occupancy
  Cd  Cd0  1  0.39298000  0.29712000  0.02381000  1.0
  Cd  Cd1  1  0.60702000  0.70287000  0.97619000  1.0
  H  H2  1  0.17321000  0.04389000  0.16658000  1.0
  H  H3  1  0.82676000  0.95610000  0.83342000  1.0
  H  H4  1  0.00980000  0.75350000  0.11197000  1.0
  H  H5  1  0.99019000  0.24650000  0.88802000  1.0
  H  H6  1  0.02587000  0.56980000  0.88497000  1.0
  H  H7  1  0.97413000  0.43021000  0.11502000  1.0
  H  H8  1  0.36260000  0.97599000  0.79226000  1.0
  H  H9  1  0.63740000  0.02401000  0.20773000  1.0
  H  H10  1  0.15849000  0.85320000  0.58183000  1.0
  H  H11  1  0.84152000  0.14681000  0.41819000  1.0
  H  H12  1  0.20132000  0.71279000  0.34873000  1.0
  H  H13  1  0.79870000  0.28722000  0.65128000  1.0
  H  H14  1  0.29974000  0.30551000  0.51171000  1.0
  H  H15  1  0.70026000  0.69449000  0.48830000  1.0
  H  H16  1  0.44794000  0.21562000  0.76764000  1.0
  H  H17  1  0.55205000  0.78437000  0.23236000  1.0
  H  H18  1  0.62655000  0.32609000  0.83116000  1.0
  H  H19  1  0.37345000  0.67390000  0.16884000  1.0
  C  C20  1  0.17542000  0.95990000  0.06897000  1.0
  C  C21  1  0.82458000  0.04011000  0.93102000  1.0
  C  C22  1  0.08714000  0.79745000  0.03792000  1.0
  C  C23  1  0.91284000  0.20256000  0.96208000  1.0
  C  C24  1  0.09744000  0.69579000  0.91245000  1.0
  C  C25  1  0.90257000  0.30421000  0.08755000  1.0
  C  C26  1  0.19622000  0.75892000  0.81944000  1.0
  C  C27  1  0.80379000  0.24108000  0.18057000  1.0
  C  C28  1  0.28050000  0.92329000  0.85921000  1.0
  C  C29  1  0.71950000  0.07671000  0.14078000  1.0
  C  C30  1  0.21361000  0.66358000  0.68209000  1.0
  C  C31  1  0.78640000  0.33641000  0.31792000  1.0
  C  C32  1  0.19409000  0.73461000  0.56744000  1.0
  C  C33  1  0.80592000  0.26538000  0.43255000  1.0
  C  C34  1  0.21640000  0.65552000  0.43624000  1.0
  C  C35  1  0.78360000  0.34448000  0.56376000  1.0
  C  C36  1  0.25853000  0.50158000  0.41626000  1.0
  C  C37  1  0.74147000  0.49842000  0.58373000  1.0
  C  C38  1  0.26996000  0.42640000  0.52807000  1.0
  C  C39  1  0.73005000  0.57359000  0.47194000  1.0
  C  C40  1  0.24898000  0.50539000  0.66058000  1.0
  C  C41  1  0.75104000  0.49461000  0.33942000  1.0
  C  C42  1  0.27629000  0.41737000  0.77407000  1.0
  C  C43  1  0.72373000  0.58264000  0.22594000  1.0
  C  C44  1  0.29487000  0.41910000  0.27881000  1.0
  C  C45  1  0.70512000  0.58090000  0.72118000  1.0
  N  N46  1  0.27006000  0.02191000  0.98041000  1.0
  N  N47  1  0.72993000  0.97809000  0.01958000  1.0
  O  O48  1  0.35735000  0.49969000  0.89311000  1.0
  O  O49  1  0.64265000  0.50031000  0.10691000  1.0
  O  O50  1  0.22466000  0.26389000  0.74886000  1.0
  O  O51  1  0.77534000  0.73611000  0.25115000  1.0
  O  O52  1  0.34682000  0.28691000  0.26579000  1.0
  O  O53  1  0.65319000  0.71308000  0.73420000  1.0
  O  O54  1  0.27428000  0.48721000  0.17537000  1.0
  O  O55  1  0.72573000  0.51279000  0.82463000  1.0
  O  O56  1  0.54754000  0.22164000  0.83458000  1.0
  O  O57  1  0.45246000  0.77835000  0.16541000  1.0
