# generated using pymatgen
data_CaH22(CO)12
_symmetry_space_group_name_H-M   'P 1'
_cell_length_a   5.74065000
_cell_length_b   6.81932000
_cell_length_c   19.31040000
_cell_angle_alpha   90.00030000
_cell_angle_beta   90.00060000
_cell_angle_gamma   89.99970000
_symmetry_Int_Tables_number   1
_chemical_formula_structural   CaH22(CO)12
_chemical_formula_sum   'Ca2 H44 C24 O24'
_cell_volume   755.95058877
_cell_formula_units_Z   2
loop_
 _symmetry_equiv_pos_site_id
 _symmetry_equiv_pos_as_xyz
  1  'x, y, z'
loop_
 _atom_site_type_symbol
 _atom_site_label
 _atom_site_symmetry_multiplicity
 _atom_site_fract_x
 _atom_site_fract_y
 _atom_site_fract_z
 _atom_site_occupancy
  Ca  Ca0  1  0.27706000  0.00001000  0.00000000  1.0
  Ca  Ca1  1  0.72294000  0.50000000  0.50000000  1.0
  H  H2  1  0.55434000  0.80189000  0.12412000  1.0
  H  H3  1  0.55433000  0.19811000  0.87587000  1.0
  H  H4  1  0.44567000  0.30189000  0.37588000  1.0
  H  H5  1  0.44567000  0.69811000  0.62412000  1.0
  H  H6  1  0.18961000  0.16579000  0.13886000  1.0
  H  H7  1  0.18961000  0.83422000  0.86114000  1.0
  H  H8  1  0.81038000  0.66579000  0.36114000  1.0
  H  H9  1  0.81039000  0.33421000  0.63886000  1.0
  H  H10  1  0.73737000  0.22171000  0.00315000  1.0
  H  H11  1  0.73737000  0.77831000  0.99685000  1.0
  H  H12  1  0.26263000  0.72170000  0.49685000  1.0
  H  H13  1  0.26263000  0.27830000  0.50315000  1.0
  H  H14  1  0.19342000  0.11436000  0.26429000  1.0
  H  H15  1  0.19344000  0.88563000  0.73572000  1.0
  H  H16  1  0.80658000  0.61436000  0.23571000  1.0
  H  H17  1  0.80657000  0.38563000  0.76428000  1.0
  H  H18  1  0.43792000  0.51491000  0.19583000  1.0
  H  H19  1  0.43793000  0.48510000  0.80417000  1.0
  H  H20  1  0.56208000  0.01491000  0.30417000  1.0
  H  H21  1  0.56209000  0.98509000  0.69583000  1.0
  H  H22  1  0.13937000  0.45923000  0.19277000  1.0
  H  H23  1  0.13937000  0.54078000  0.80723000  1.0
  H  H24  1  0.86064000  0.95923000  0.30723000  1.0
  H  H25  1  0.86064000  0.04077000  0.69277000  1.0
  H  H26  1  0.26169000  0.49628000  0.05121000  1.0
  H  H27  1  0.26169000  0.50373000  0.94879000  1.0
  H  H28  1  0.73830000  0.99628000  0.44879000  1.0
  H  H29  1  0.73830000  0.00372000  0.55121000  1.0
  H  H30  1  0.67706000  0.48230000  0.07671000  1.0
  H  H31  1  0.67706000  0.51770000  0.92329000  1.0
  H  H32  1  0.32294000  0.98230000  0.42329000  1.0
  H  H33  1  0.32294000  0.01770000  0.57671000  1.0
  H  H34  1  0.63867000  0.27443000  0.13186000  1.0
  H  H35  1  0.63866000  0.72557000  0.86814000  1.0
  H  H36  1  0.36134000  0.77443000  0.36814000  1.0
  H  H37  1  0.36133000  0.22557000  0.63186000  1.0
  H  H38  1  0.11927000  0.77654000  0.26018000  1.0
  H  H39  1  0.11928000  0.22346000  0.73981000  1.0
  H  H40  1  0.88073000  0.27653000  0.23982000  1.0
  H  H41  1  0.88072000  0.72345000  0.76019000  1.0
  H  H42  1  0.42099000  0.81616000  0.24424000  1.0
  H  H43  1  0.42101000  0.18384000  0.75576000  1.0
  H  H44  1  0.57901000  0.31616000  0.25577000  1.0
  H  H45  1  0.57900000  0.68384000  0.74423000  1.0
  C  C46  1  0.98430000  0.76954000  0.12073000  1.0
  C  C47  1  0.98434000  0.23046000  0.87926000  1.0
  C  C48  1  0.01568000  0.26954000  0.37928000  1.0
  C  C49  1  0.01566000  0.73046000  0.62074000  1.0
  C  C50  1  0.22920000  0.74554000  0.15333000  1.0
  C  C51  1  0.22919000  0.25445000  0.84667000  1.0
  C  C52  1  0.77081000  0.24554000  0.34667000  1.0
  C  C53  1  0.77082000  0.75446000  0.65333000  1.0
  C  C54  1  0.28205000  0.52539000  0.16309000  1.0
  C  C55  1  0.28205000  0.47462000  0.83691000  1.0
  C  C56  1  0.71795000  0.02539000  0.33691000  1.0
  C  C57  1  0.71795000  0.97461000  0.66309000  1.0
  C  C58  1  0.31738000  0.40803000  0.09582000  1.0
  C  C59  1  0.31737000  0.59197000  0.90418000  1.0
  C  C60  1  0.68262000  0.90803000  0.40418000  1.0
  C  C61  1  0.68262000  0.09197000  0.59582000  1.0
  C  C62  1  0.57231000  0.34979000  0.08529000  1.0
  C  C63  1  0.57231000  0.65021000  0.91471000  1.0
  C  C64  1  0.42768000  0.84979000  0.41471000  1.0
  C  C65  1  0.42769000  0.15021000  0.58529000  1.0
  C  C66  1  0.24421000  0.84459000  0.22431000  1.0
  C  C67  1  0.24423000  0.15541000  0.77569000  1.0
  C  C68  1  0.75579000  0.34459000  0.27569000  1.0
  C  C69  1  0.75577000  0.65541000  0.72431000  1.0
  O  O70  1  0.97167000  0.81734000  0.05735000  1.0
  O  O71  1  0.97165000  0.18267000  0.94266000  1.0
  O  O72  1  0.02833000  0.31734000  0.44266000  1.0
  O  O73  1  0.02835000  0.68264000  0.55734000  1.0
  O  O74  1  0.80900000  0.73430000  0.15924000  1.0
  O  O75  1  0.80897000  0.26569000  0.84075000  1.0
  O  O76  1  0.19101000  0.23431000  0.34076000  1.0
  O  O77  1  0.19103000  0.76569000  0.65925000  1.0
  O  O78  1  0.39276000  0.83394000  0.10742000  1.0
  O  O79  1  0.39277000  0.16607000  0.89258000  1.0
  O  O80  1  0.60724000  0.33394000  0.39258000  1.0
  O  O81  1  0.60724000  0.66607000  0.60741000  1.0
  O  O82  1  0.17105000  0.23619000  0.09395000  1.0
  O  O83  1  0.17104000  0.76382000  0.90605000  1.0
  O  O84  1  0.82895000  0.73618000  0.40606000  1.0
  O  O85  1  0.82896000  0.26382000  0.59395000  1.0
  O  O86  1  0.58443000  0.22163000  0.02692000  1.0
  O  O87  1  0.58442000  0.77837000  0.97308000  1.0
  O  O88  1  0.41557000  0.72163000  0.47308000  1.0
  O  O89  1  0.41557000  0.27836000  0.52693000  1.0
  O  O90  1  0.20315000  0.05006000  0.21771000  1.0
  O  O91  1  0.20318000  0.94994000  0.78228000  1.0
  O  O92  1  0.79684000  0.55005000  0.28229000  1.0
  O  O93  1  0.79683000  0.44994000  0.71771000  1.0
