# generated using pymatgen
data_Zn3H34C52(N3O2)4
_symmetry_space_group_name_H-M   'P 1'
_cell_length_a   20.72480000
_cell_length_b   20.96585146
_cell_length_c   20.96590000
_cell_angle_alpha   120.01222980
_cell_angle_beta   90.00380000
_cell_angle_gamma   89.99619999
_symmetry_Int_Tables_number   1
_chemical_formula_structural   Zn3H34C52(N3O2)4
_chemical_formula_sum   'Zn9 H102 C156 N36 O24'
_cell_volume   7888.48237511
_cell_formula_units_Z   3
loop_
 _symmetry_equiv_pos_site_id
 _symmetry_equiv_pos_as_xyz
  1  'x, y, z'
loop_
 _atom_site_type_symbol
 _atom_site_label
 _atom_site_symmetry_multiplicity
 _atom_site_fract_x
 _atom_site_fract_y
 _atom_site_fract_z
 _atom_site_occupancy
  Zn  Zn0  1  0.16671000  0.99998000  0.75884000  1.0
  Zn  Zn1  1  0.83329000  0.75884000  0.99998000  1.0
  Zn  Zn2  1  0.50000000  0.24114000  0.24114000  1.0
  Zn  Zn3  1  0.39848000  0.16305000  0.93689000  1.0
  Zn  Zn4  1  0.06509000  0.77392000  0.83702000  1.0
  Zn  Zn5  1  0.73178000  0.06313000  0.22616000  1.0
  Zn  Zn6  1  0.93491000  0.83703000  0.77393000  1.0
  Zn  Zn7  1  0.26822000  0.22616000  0.06313000  1.0
  Zn  Zn8  1  0.60152000  0.93689000  0.16306000  1.0
  H  H9  1  0.31364000  0.05729000  0.79273000  1.0
  H  H10  1  0.98023000  0.73550000  0.94276000  1.0
  H  H11  1  0.64690000  0.20726000  0.26453000  1.0
  H  H12  1  0.01977000  0.94277000  0.73551000  1.0
  H  H13  1  0.35310000  0.26453000  0.20726000  1.0
  H  H14  1  0.68637000  0.79273000  0.05729000  1.0
  H  H15  1  0.48240000  0.92431000  0.46108000  1.0
  H  H16  1  0.14912000  0.53667000  0.07558000  1.0
  H  H17  1  0.81581000  0.53884000  0.46343000  1.0
  H  H18  1  0.85089000  0.07558000  0.53667000  1.0
  H  H19  1  0.18419000  0.46344000  0.53884000  1.0
  H  H20  1  0.51760000  0.46108000  0.92431000  1.0
  H  H21  1  0.13880000  0.15498000  0.00007000  1.0
  H  H22  1  0.80543000  0.84513000  0.84505000  1.0
  H  H23  1  0.47210000  0.99990000  0.15489000  1.0
  H  H24  1  0.19457000  0.84505000  0.84513000  1.0
  H  H25  1  0.52790000  0.15490000  0.99991000  1.0
  H  H26  1  0.86120000  0.00007000  0.15498000  1.0
  H  H27  1  0.10759000  0.10845000  0.90940000  1.0
  H  H28  1  0.77422000  0.80102000  0.89158000  1.0
  H  H29  1  0.44091000  0.09056000  0.19900000  1.0
  H  H30  1  0.22578000  0.89157000  0.80102000  1.0
  H  H31  1  0.55909000  0.19901000  0.09057000  1.0
  H  H32  1  0.89241000  0.90940000  0.10844000  1.0
  H  H33  1  0.52152000  0.00991000  0.30293000  1.0
  H  H34  1  0.18825000  0.29292000  0.99001000  1.0
  H  H35  1  0.85500000  0.69725000  0.70713000  1.0
  H  H36  1  0.81175000  0.99001000  0.29292000  1.0
  H  H37  1  0.14500000  0.70713000  0.69725000  1.0
  H  H38  1  0.47848000  0.30292000  0.00990000  1.0
  H  H39  1  0.68922000  0.91644000  0.47172000  1.0
  H  H40  1  0.35593000  0.55516000  0.08342000  1.0
  H  H41  1  0.02262000  0.52830000  0.44474000  1.0
  H  H42  1  0.64407000  0.08342000  0.55516000  1.0
  H  H43  1  0.97738000  0.44474000  0.52830000  1.0
  H  H44  1  0.31078000  0.47173000  0.91645000  1.0
  H  H45  1  0.67967000  0.87065000  0.23467000  1.0
  H  H46  1  0.34625000  0.36407000  0.12948000  1.0
  H  H47  1  0.01310000  0.76537000  0.63597000  1.0
  H  H48  1  0.65375000  0.12948000  0.36407000  1.0
  H  H49  1  0.98690000  0.63597000  0.76537000  1.0
  H  H50  1  0.32033000  0.23467000  0.87065000  1.0
  H  H51  1  0.51015000  0.00291000  0.41786000  1.0
  H  H52  1  0.17678000  0.41491000  0.99714000  1.0
  H  H53  1  0.84352000  0.58229000  0.58522000  1.0
  H  H54  1  0.82322000  0.99714000  0.41491000  1.0
  H  H55  1  0.15648000  0.58522000  0.58229000  1.0
  H  H56  1  0.48985000  0.41786000  0.00292000  1.0
  H  H57  1  0.85706000  0.90428000  0.59697000  1.0
  H  H58  1  0.52374000  0.69278000  0.09583000  1.0
  H  H59  1  0.19041000  0.40299000  0.30727000  1.0
  H  H60  1  0.47626000  0.09583000  0.69278000  1.0
  H  H61  1  0.80959000  0.30727000  0.40299000  1.0
  H  H62  1  0.14294000  0.59697000  0.90428000  1.0
  H  H63  1  0.63324000  0.89769000  0.67808000  1.0
  H  H64  1  0.29985000  0.78027000  0.10241000  1.0
  H  H65  1  0.96656000  0.32216000  0.21951000  1.0
  H  H66  1  0.70015000  0.10241000  0.78028000  1.0
  H  H67  1  0.03344000  0.21951000  0.32216000  1.0
  H  H68  1  0.36676000  0.67807000  0.89769000  1.0
  H  H69  1  0.30218000  0.96476000  0.59350000  1.0
  H  H70  1  0.96887000  0.62848000  0.03514000  1.0
  H  H71  1  0.63552000  0.40651000  0.37137000  1.0
  H  H72  1  0.03112000  0.03513000  0.62847000  1.0
  H  H73  1  0.36448000  0.37137000  0.40651000  1.0
  H  H74  1  0.69782000  0.59349000  0.96476000  1.0
  H  H75  1  0.76471000  0.91238000  0.52677000  1.0
  H  H76  1  0.43147000  0.61444000  0.08782000  1.0
  H  H77  1  0.09810000  0.47327000  0.38560000  1.0
  H  H78  1  0.56854000  0.08782000  0.61443000  1.0
  H  H79  1  0.90190000  0.38560000  0.47327000  1.0
  H  H80  1  0.23529000  0.52677000  0.91238000  1.0
  H  H81  1  0.67522000  0.85725000  0.34648000  1.0
  H  H82  1  0.34188000  0.48923000  0.14274000  1.0
  H  H83  1  0.00855000  0.65348000  0.51077000  1.0
  H  H84  1  0.65812000  0.14273000  0.48923000  1.0
  H  H85  1  0.99145000  0.51076000  0.65347000  1.0
  H  H86  1  0.32478000  0.34648000  0.85725000  1.0
  H  H87  1  0.40491000  0.96305000  0.53241000  1.0
  H  H88  1  0.07165000  0.56918000  0.03682000  1.0
  H  H89  1  0.73824000  0.46760000  0.43080000  1.0
  H  H90  1  0.92835000  0.03682000  0.56918000  1.0
  H  H91  1  0.26176000  0.43081000  0.46761000  1.0
  H  H92  1  0.59509000  0.53241000  0.96306000  1.0
  H  H93  1  0.39650000  0.87048000  0.70889000  1.0
  H  H94  1  0.06308000  0.83823000  0.12929000  1.0
  H  H95  1  0.72980000  0.29117000  0.16165000  1.0
  H  H96  1  0.93692000  0.12929000  0.83823000  1.0
  H  H97  1  0.27020000  0.16165000  0.29117000  1.0
  H  H98  1  0.60350000  0.70888000  0.87048000  1.0
  H  H99  1  0.50139000  0.86896000  0.64808000  1.0
  H  H100  1  0.16798000  0.77904000  0.13091000  1.0
  H  H101  1  0.83467000  0.35198000  0.22095000  1.0
  H  H102  1  0.83202000  0.13091000  0.77905000  1.0
  H  H103  1  0.16533000  0.22095000  0.35198000  1.0
  H  H104  1  0.49861000  0.64808000  0.86896000  1.0
  H  H105  1  0.72732000  0.88771000  0.74748000  1.0
  H  H106  1  0.39386000  0.85972000  0.11233000  1.0
  H  H107  1  0.06062000  0.25261000  0.14010000  1.0
  H  H108  1  0.60614000  0.11233000  0.85973000  1.0
  H  H109  1  0.93938000  0.14010000  0.25261000  1.0
  H  H110  1  0.27268000  0.74748000  0.88771000  1.0
  C  C111  1  0.28443000  0.08157000  0.84224000  1.0
  C  C112  1  0.95105000  0.76076000  0.91851000  1.0
  C  C113  1  0.61771000  0.15774000  0.23928000  1.0
  C  C114  1  0.04895000  0.91851000  0.76076000  1.0
  C  C115  1  0.38229000  0.23929000  0.15775000  1.0
  C  C116  1  0.71557000  0.84224000  0.08158000  1.0
  C  C117  1  0.20496000  0.11329000  0.91829000  1.0
  C  C118  1  0.87159000  0.80512000  0.88680000  1.0
  C  C119  1  0.53825000  0.08167000  0.19492000  1.0
  C  C120  1  0.12841000  0.88681000  0.80513000  1.0
  C  C121  1  0.46175000  0.19492000  0.08167000  1.0
  C  C122  1  0.79504000  0.91829000  0.11329000  1.0
  C  C123  1  0.34304000  0.91709000  0.65432000  1.0
  C  C124  1  0.00965000  0.73701000  0.08269000  1.0
  C  C125  1  0.67635000  0.34569000  0.26286000  1.0
  C  C126  1  0.99035000  0.08270000  0.73702000  1.0
  C  C127  1  0.32365000  0.26286000  0.34569000  1.0
  C  C128  1  0.65696000  0.65432000  0.91709000  1.0
  C  C129  1  0.28175000  0.92290000  0.69532000  1.0
  C  C130  1  0.94832000  0.77223000  0.07694000  1.0
  C  C131  1  0.61502000  0.30470000  0.22769000  1.0
  C  C132  1  0.05168000  0.07695000  0.77223000  1.0
  C  C133  1  0.38498000  0.22769000  0.30470000  1.0
  C  C134  1  0.71825000  0.69533000  0.92291000  1.0
  C  C135  1  0.52627000  0.92173000  0.48825000  1.0
  C  C136  1  0.19296000  0.56643000  0.07815000  1.0
  C  C137  1  0.85966000  0.51170000  0.43363000  1.0
  C  C138  1  0.80704000  0.07816000  0.56644000  1.0
  C  C139  1  0.14034000  0.43363000  0.51169000  1.0
  C  C140  1  0.47373000  0.48826000  0.92174000  1.0
  C  C141  1  0.46051000  0.91471000  0.58551000  1.0
  C  C142  1  0.12720000  0.67069000  0.08513000  1.0
  C  C143  1  0.79385000  0.41449000  0.32932000  1.0
  C  C144  1  0.87281000  0.08513000  0.67068000  1.0
  C  C145  1  0.20615000  0.32932000  0.41449000  1.0
  C  C146  1  0.53949000  0.58552000  0.91472000  1.0
  C  C147  1  0.55465000  0.97688000  0.31510000  1.0
  C  C148  1  0.22132000  0.33817000  0.02311000  1.0
  C  C149  1  0.88810000  0.68503000  0.66190000  1.0
  C  C150  1  0.77868000  0.02311000  0.33817000  1.0
  C  C151  1  0.11190000  0.66190000  0.68503000  1.0
  C  C152  1  0.44535000  0.31509000  0.97687000  1.0
  C  C153  1  0.64173000  0.91488000  0.49296000  1.0
  C  C154  1  0.30843000  0.57797000  0.08504000  1.0
  C  C155  1  0.97512000  0.50708000  0.42194000  1.0
  C  C156  1  0.69157000  0.08505000  0.57797000  1.0
  C  C157  1  0.02488000  0.42194000  0.50708000  1.0
  C  C158  1  0.35827000  0.49296000  0.91488000  1.0
  C  C159  1  0.63505000  0.90856000  0.55623000  1.0
  C  C160  1  0.30173000  0.64763000  0.09151000  1.0
  C  C161  1  0.96840000  0.44386000  0.35230000  1.0
  C  C162  1  0.69827000  0.09151000  0.64763000  1.0
  C  C163  1  0.03160000  0.35230000  0.44386000  1.0
  C  C164  1  0.36495000  0.55624000  0.90857000  1.0
  C  C165  1  0.64344000  0.89960000  0.27740000  1.0
  C  C166  1  0.31007000  0.37782000  0.10049000  1.0
  C  C167  1  0.97687000  0.72266000  0.62222000  1.0
  C  C168  1  0.68993000  0.10049000  0.37782000  1.0
  C  C169  1  0.02313000  0.62223000  0.72266000  1.0
  C  C170  1  0.35656000  0.27740000  0.89960000  1.0
  C  C171  1  0.54839000  0.97232000  0.37867000  1.0
  C  C172  1  0.21502000  0.40632000  0.02774000  1.0
  C  C173  1  0.88178000  0.62145000  0.59378000  1.0
  C  C174  1  0.78498000  0.02774000  0.40632000  1.0
  C  C175  1  0.11822000  0.59378000  0.62144000  1.0
  C  C176  1  0.45161000  0.37867000  0.97232000  1.0
  C  C177  1  0.80770000  0.90204000  0.61364000  1.0
  C  C178  1  0.47437000  0.71166000  0.09809000  1.0
  C  C179  1  0.14104000  0.38637000  0.28835000  1.0
  C  C180  1  0.52563000  0.09809000  0.71166000  1.0
  C  C181  1  0.85896000  0.28835000  0.38637000  1.0
  C  C182  1  0.19230000  0.61364000  0.90204000  1.0
  C  C183  1  0.68248000  0.89818000  0.66024000  1.0
  C  C184  1  0.34912000  0.76202000  0.10196000  1.0
  C  C185  1  0.01582000  0.33993000  0.23782000  1.0
  C  C186  1  0.65088000  0.10196000  0.76202000  1.0
  C  C187  1  0.98418000  0.23782000  0.33993000  1.0
  C  C188  1  0.31752000  0.66024000  0.89818000  1.0
  C  C189  1  0.52301000  0.91462000  0.55135000  1.0
  C  C190  1  0.18970000  0.63667000  0.08532000  1.0
  C  C191  1  0.85637000  0.44867000  0.36334000  1.0
  C  C192  1  0.81030000  0.08532000  0.63667000  1.0
  C  C193  1  0.14363000  0.36334000  0.44867000  1.0
  C  C194  1  0.47700000  0.55136000  0.91463000  1.0
  C  C195  1  0.58659000  0.92178000  0.45844000  1.0
  C  C196  1  0.25328000  0.53657000  0.07811000  1.0
  C  C197  1  0.91999000  0.54154000  0.46344000  1.0
  C  C198  1  0.74672000  0.07810000  0.53656000  1.0
  C  C199  1  0.08001000  0.46344000  0.54154000  1.0
  C  C200  1  0.41341000  0.45845000  0.92179000  1.0
  C  C201  1  0.34588000  0.94277000  0.60418000  1.0
  C  C202  1  0.01257000  0.66120000  0.05704000  1.0
  C  C203  1  0.67923000  0.39582000  0.33870000  1.0
  C  C204  1  0.98743000  0.05705000  0.66120000  1.0
  C  C205  1  0.32077000  0.33870000  0.39582000  1.0
  C  C206  1  0.65412000  0.60419000  0.94278000  1.0
  C  C207  1  0.85545000  0.88453000  0.71283000  1.0
  C  C208  1  0.52203000  0.82834000  0.11540000  1.0
  C  C209  1  0.18874000  0.28708000  0.17164000  1.0
  C  C210  1  0.47797000  0.11540000  0.82834000  1.0
  C  C211  1  0.81126000  0.17164000  0.28707000  1.0
  C  C212  1  0.14455000  0.71282000  0.88452000  1.0
  C  C213  1  0.59195000  0.92905000  0.39216000  1.0
  C  C214  1  0.25861000  0.46305000  0.07093000  1.0
  C  C215  1  0.92533000  0.60786000  0.53700000  1.0
  C  C216  1  0.74139000  0.07093000  0.46305000  1.0
  C  C217  1  0.07467000  0.53701000  0.60787000  1.0
  C  C218  1  0.40805000  0.39216000  0.92906000  1.0
  C  C219  1  0.79804000  0.89450000  0.67573000  1.0
  C  C220  1  0.46466000  0.78126000  0.10557000  1.0
  C  C221  1  0.13136000  0.32428000  0.21869000  1.0
  C  C222  1  0.53534000  0.10557000  0.78126000  1.0
  C  C223  1  0.86864000  0.21869000  0.32428000  1.0
  C  C224  1  0.20196000  0.67573000  0.89450000  1.0
  C  C225  1  0.69178000  0.90396000  0.59686000  1.0
  C  C226  1  0.35847000  0.69288000  0.09619000  1.0
  C  C227  1  0.02514000  0.40326000  0.30702000  1.0
  C  C228  1  0.64153000  0.09619000  0.69288000  1.0
  C  C229  1  0.97486000  0.30702000  0.40326000  1.0
  C  C230  1  0.30822000  0.59686000  0.90396000  1.0
  C  C231  1  0.75536000  0.90634000  0.57462000  1.0
  C  C232  1  0.42205000  0.66831000  0.09381000  1.0
  C  C233  1  0.08871000  0.42543000  0.33168000  1.0
  C  C234  1  0.57795000  0.09381000  0.66831000  1.0
  C  C235  1  0.91129000  0.33168000  0.42543000  1.0
  C  C236  1  0.24464000  0.57463000  0.90635000  1.0
  C  C237  1  0.64068000  0.89264000  0.33978000  1.0
  C  C238  1  0.30735000  0.44712000  0.10737000  1.0
  C  C239  1  0.97405000  0.66025000  0.55291000  1.0
  C  C240  1  0.69265000  0.10737000  0.44712000  1.0
  C  C241  1  0.02595000  0.55291000  0.66024000  1.0
  C  C242  1  0.35932000  0.33977000  0.89263000  1.0
  C  C243  1  0.40382000  0.94133000  0.57003000  1.0
  C  C244  1  0.07054000  0.62853000  0.05849000  1.0
  C  C245  1  0.73717000  0.42998000  0.37145000  1.0
  C  C246  1  0.92946000  0.05849000  0.62853000  1.0
  C  C247  1  0.26283000  0.37145000  0.42998000  1.0
  C  C248  1  0.59618000  0.57003000  0.94133000  1.0
  C  C249  1  0.39926000  0.88986000  0.66946000  1.0
  C  C250  1  0.06587000  0.77942000  0.10989000  1.0
  C  C251  1  0.73256000  0.33056000  0.22048000  1.0
  C  C252  1  0.93413000  0.10989000  0.77942000  1.0
  C  C253  1  0.26743000  0.22048000  0.33056000  1.0
  C  C254  1  0.60073000  0.66947000  0.88987000  1.0
  C  C255  1  0.45729000  0.88902000  0.63583000  1.0
  C  C256  1  0.12390000  0.74669000  0.11081000  1.0
  C  C257  1  0.79059000  0.36420000  0.25328000  1.0
  C  C258  1  0.87610000  0.11081000  0.74669000  1.0
  C  C259  1  0.20941000  0.25328000  0.36421000  1.0
  C  C260  1  0.54271000  0.63583000  0.88902000  1.0
  C  C261  1  0.73485000  0.89312000  0.69895000  1.0
  C  C262  1  0.40145000  0.80583000  0.10699000  1.0
  C  C263  1  0.06817000  0.30113000  0.19405000  1.0
  C  C264  1  0.59855000  0.10699000  0.80583000  1.0
  C  C265  1  0.93183000  0.19405000  0.30113000  1.0
  C  C266  1  0.26515000  0.69896000  0.89312000  1.0
  N  N267  1  0.57656000  0.90781000  0.58361000  1.0
  N  N268  1  0.24326000  0.67577000  0.09225000  1.0
  N  N269  1  0.90991000  0.41649000  0.32419000  1.0
  N  N270  1  0.75674000  0.09225000  0.67577000  1.0
  N  N271  1  0.09009000  0.32419000  0.41649000  1.0
  N  N272  1  0.42344000  0.58361000  0.90781000  1.0
  N  N273  1  0.22033000  0.07112000  0.84527000  1.0
  N  N274  1  0.88695000  0.77426000  0.92897000  1.0
  N  N275  1  0.55362000  0.15470000  0.22576000  1.0
  N  N276  1  0.11306000  0.92897000  0.77426000  1.0
  N  N277  1  0.44639000  0.22576000  0.15470000  1.0
  N  N278  1  0.77967000  0.84526000  0.07111000  1.0
  N  N279  1  0.30875000  0.12646000  0.90814000  1.0
  N  N280  1  0.97538000  0.78177000  0.87364000  1.0
  N  N281  1  0.64204000  0.09186000  0.21830000  1.0
  N  N282  1  0.02463000  0.87364000  0.78177000  1.0
  N  N283  1  0.35796000  0.21830000  0.09186000  1.0
  N  N284  1  0.69125000  0.90814000  0.12647000  1.0
  N  N285  1  0.25796000  0.14767000  0.95793000  1.0
  N  N286  1  0.92459000  0.81037000  0.85244000  1.0
  N  N287  1  0.59126000  0.04206000  0.18971000  1.0
  N  N288  1  0.07541000  0.85244000  0.81037000  1.0
  N  N289  1  0.40874000  0.18971000  0.04206000  1.0
  N  N290  1  0.74204000  0.95793000  0.14767000  1.0
  N  N291  1  0.14524000  0.11816000  0.94559000  1.0
  N  N292  1  0.81186000  0.82754000  0.88191000  1.0
  N  N293  1  0.47853000  0.05435000  0.17247000  1.0
  N  N294  1  0.18815000  0.88191000  0.82754000  1.0
  N  N295  1  0.52147000  0.17247000  0.05435000  1.0
  N  N296  1  0.85476000  0.94560000  0.11817000  1.0
  N  N297  1  0.60131000  0.94104000  0.26510000  1.0
  N  N298  1  0.26796000  0.32404000  0.05898000  1.0
  N  N299  1  0.93477000  0.73499000  0.67602000  1.0
  N  N300  1  0.73204000  0.05897000  0.32403000  1.0
  N  N301  1  0.06523000  0.67602000  0.73499000  1.0
  N  N302  1  0.39869000  0.26510000  0.94104000  1.0
  O  O303  1  0.23428000  0.95561000  0.68286000  1.0
  O  O304  1  0.90087000  0.72706000  0.04419000  1.0
  O  O305  1  0.56763000  0.31709000  0.27293000  1.0
  O  O306  1  0.09913000  0.04419000  0.72706000  1.0
  O  O307  1  0.43237000  0.27292000  0.31708000  1.0
  O  O308  1  0.76572000  0.68285000  0.95560000  1.0
  O  O309  1  0.84556000  0.87041000  0.76606000  1.0
  O  O310  1  0.51210000  0.89576000  0.12974000  1.0
  O  O311  1  0.17885000  0.23384000  0.10427000  1.0
  O  O312  1  0.48790000  0.12974000  0.89576000  1.0
  O  O313  1  0.82115000  0.10427000  0.23384000  1.0
  O  O314  1  0.15444000  0.76606000  0.87040000  1.0
  O  O315  1  0.91146000  0.88617000  0.69060000  1.0
  O  O316  1  0.57807000  0.80442000  0.11347000  1.0
  O  O317  1  0.24476000  0.30923000  0.19553000  1.0
  O  O318  1  0.42193000  0.11346000  0.80441000  1.0
  O  O319  1  0.75524000  0.19553000  0.30922000  1.0
  O  O320  1  0.08854000  0.69060000  0.88616000  1.0
  O  O321  1  0.28099000  0.89962000  0.74005000  1.0
  O  O322  1  0.94759000  0.84026000  0.10031000  1.0
  O  O323  1  0.61417000  0.26007000  0.15966000  1.0
  O  O324  1  0.05241000  0.10032000  0.84026000  1.0
  O  O325  1  0.38582000  0.15965000  0.26006000  1.0
  O  O326  1  0.71901000  0.74006000  0.89963000  1.0
