# generated using pymatgen
data_La2H18(C3O8)3
_symmetry_space_group_name_H-M   'P 1'
_cell_length_a   9.00290000
_cell_length_b   9.00291000
_cell_length_c   9.00287000
_cell_angle_alpha   65.59250000
_cell_angle_beta   65.59220000
_cell_angle_gamma   65.59240000
_symmetry_Int_Tables_number   1
_chemical_formula_structural   La2H18(C3O8)3
_chemical_formula_sum   'La2 H18 C9 O24'
_cell_volume   578.65729329
_cell_formula_units_Z   1
loop_
 _symmetry_equiv_pos_site_id
 _symmetry_equiv_pos_as_xyz
  1  'x, y, z'
loop_
 _atom_site_type_symbol
 _atom_site_label
 _atom_site_symmetry_multiplicity
 _atom_site_fract_x
 _atom_site_fract_y
 _atom_site_fract_z
 _atom_site_occupancy
  La  La0  1  0.22759000  0.22758000  0.22759000  1.0
  La  La1  1  0.77241000  0.77241000  0.77241000  1.0
  H  H2  1  0.54515000  0.32765000  0.18555000  1.0
  H  H3  1  0.32765000  0.18555000  0.54515000  1.0
  H  H4  1  0.18555000  0.54515000  0.32765000  1.0
  H  H5  1  0.45485000  0.81445000  0.67235000  1.0
  H  H6  1  0.67235000  0.45485000  0.81445000  1.0
  H  H7  1  0.81445000  0.67235000  0.45485000  1.0
  H  H8  1  0.28569000  0.21091000  0.85320000  1.0
  H  H9  1  0.21091000  0.85320000  0.28569000  1.0
  H  H10  1  0.85320000  0.28569000  0.21092000  1.0
  H  H11  1  0.71431000  0.14680000  0.78908000  1.0
  H  H12  1  0.78908000  0.71430000  0.14680000  1.0
  H  H13  1  0.14680000  0.78909000  0.71430000  1.0
  H  H14  1  0.37275000  0.03035000  0.96981000  1.0
  H  H15  1  0.03035000  0.96981000  0.37275000  1.0
  H  H16  1  0.96982000  0.37275000  0.03035000  1.0
  H  H17  1  0.62725000  0.03018000  0.96965000  1.0
  H  H18  1  0.96965000  0.62725000  0.03018000  1.0
  H  H19  1  0.03019000  0.96965000  0.62725000  1.0
  C  C20  1  0.46158000  0.53842000  1.00000000  1.0
  C  C21  1  0.53842000  0.00000000  0.46158000  1.0
  C  C22  1  0.00000000  0.46158000  0.53842000  1.0
  C  C23  1  0.31917000  0.59097000  0.91485000  1.0
  C  C24  1  0.59098000  0.91485000  0.31917000  1.0
  C  C25  1  0.91485000  0.31917000  0.59097000  1.0
  C  C26  1  0.68084000  0.08514000  0.40903000  1.0
  C  C27  1  0.40902000  0.68083000  0.08515000  1.0
  C  C28  1  0.08514000  0.40903000  0.68083000  1.0
  O  O29  1  0.45997000  0.37697000  0.11754000  1.0
  O  O30  1  0.37697000  0.11754000  0.45997000  1.0
  O  O31  1  0.11754000  0.45997000  0.37697000  1.0
  O  O32  1  0.54002000  0.88246000  0.62303000  1.0
  O  O33  1  0.62303000  0.54003000  0.88246000  1.0
  O  O34  1  0.88246000  0.62303000  0.54002000  1.0
  O  O35  1  0.20282000  0.51777000  0.99840000  1.0
  O  O36  1  0.51777000  0.99839000  0.20282000  1.0
  O  O37  1  0.99839000  0.20282000  0.51776000  1.0
  O  O38  1  0.79718000  0.00160000  0.48224000  1.0
  O  O39  1  0.48223000  0.79717000  0.00162000  1.0
  O  O40  1  0.00161000  0.48224000  0.79718000  1.0
  O  O41  1  0.32472000  0.70712000  0.77391000  1.0
  O  O42  1  0.70712000  0.77391000  0.32473000  1.0
  O  O43  1  0.77391000  0.32473000  0.70711000  1.0
  O  O44  1  0.67528000  0.22608000  0.29289000  1.0
  O  O45  1  0.29288000  0.67528000  0.22609000  1.0
  O  O46  1  0.22608000  0.29289000  0.67528000  1.0
  O  O47  1  0.31787000  0.15238000  0.96168000  1.0
  O  O48  1  0.15238000  0.96168000  0.31786000  1.0
  O  O49  1  0.96168000  0.31787000  0.15238000  1.0
  O  O50  1  0.68214000  0.03831000  0.84762000  1.0
  O  O51  1  0.84762000  0.68214000  0.03831000  1.0
  O  O52  1  0.03832000  0.84762000  0.68213000  1.0
