# generated using pymatgen
data_ZnH10C9O7
_symmetry_space_group_name_H-M   'P 1'
_cell_length_a   7.28959000
_cell_length_b   8.58206000
_cell_length_c   9.53092000
_cell_angle_alpha   69.51300000
_cell_angle_beta   85.38630000
_cell_angle_gamma   79.36300000
_symmetry_Int_Tables_number   1
_chemical_formula_structural   ZnH10C9O7
_chemical_formula_sum   'Zn2 H20 C18 O14'
_cell_volume   548.86061715
_cell_formula_units_Z   2
loop_
 _symmetry_equiv_pos_site_id
 _symmetry_equiv_pos_as_xyz
  1  'x, y, z'
loop_
 _atom_site_type_symbol
 _atom_site_label
 _atom_site_symmetry_multiplicity
 _atom_site_fract_x
 _atom_site_fract_y
 _atom_site_fract_z
 _atom_site_occupancy
  Zn  Zn0  1  0.94758000  0.36992000  0.90775000  1.0
  Zn  Zn1  1  0.05242000  0.63008000  0.09225000  1.0
  H  H2  1  0.88145000  0.36220000  0.47686000  1.0
  H  H3  1  0.11855000  0.63780000  0.52313000  1.0
  H  H4  1  0.75435000  0.01743000  0.27645000  1.0
  H  H5  1  0.24564000  0.98257000  0.72354000  1.0
  H  H6  1  0.68957000  0.90537000  0.75418000  1.0
  H  H7  1  0.31043000  0.09462000  0.24581000  1.0
  H  H8  1  0.60038000  0.79609000  0.33524000  1.0
  H  H9  1  0.39962000  0.20390000  0.66476000  1.0
  H  H10  1  0.65109000  0.59282000  0.47835000  1.0
  H  H11  1  0.34892000  0.40718000  0.52165000  1.0
  H  H12  1  0.83772000  0.70447000  0.38948000  1.0
  H  H13  1  0.16229000  0.29553000  0.61053000  1.0
  H  H14  1  0.28175000  0.28888000  0.02259000  1.0
  H  H15  1  0.71826000  0.71112000  0.97742000  1.0
  H  H16  1  0.21365000  0.11944000  0.02252000  1.0
  H  H17  1  0.78636000  0.88056000  0.97748000  1.0
  H  H18  1  0.45946000  0.65586000  0.89121000  1.0
  H  H19  1  0.54054000  0.34414000  0.10879000  1.0
  H  H20  1  0.61651000  0.67420000  0.76531000  1.0
  H  H21  1  0.38349000  0.32580000  0.23469000  1.0
  C  C22  1  0.80901000  0.18071000  0.76788000  1.0
  C  C23  1  0.19099000  0.81928000  0.23212000  1.0
  C  C24  1  0.78299000  0.14017000  0.63062000  1.0
  C  C25  1  0.21701000  0.85983000  0.36938000  1.0
  C  C26  1  0.83024000  0.24692000  0.48912000  1.0
  C  C27  1  0.16975000  0.75308000  0.51088000  1.0
  C  C28  1  0.81672000  0.20196000  0.36360000  1.0
  C  C29  1  0.18327000  0.79804000  0.63640000  1.0
  C  C30  1  0.87621000  0.31404000  0.21545000  1.0
  C  C31  1  0.12378000  0.68596000  0.78455000  1.0
  C  C32  1  0.75999000  0.04973000  0.37656000  1.0
  C  C33  1  0.24001000  0.95027000  0.62344000  1.0
  C  C34  1  0.71794000  0.94162000  0.51917000  1.0
  C  C35  1  0.28207000  0.05838000  0.48084000  1.0
  C  C36  1  0.72526000  0.98951000  0.64452000  1.0
  C  C37  1  0.27475000  0.01049000  0.35547000  1.0
  C  C38  1  0.69174000  0.71749000  0.42901000  1.0
  C  C39  1  0.30827000  0.28250000  0.57100000  1.0
  O  O40  1  0.85866000  0.32602000  0.74090000  1.0
  O  O41  1  0.14134000  0.67397000  0.25911000  1.0
  O  O42  1  0.78916000  0.07847000  0.89757000  1.0
  O  O43  1  0.21085000  0.92151000  0.10242000  1.0
  O  O44  1  0.20831000  0.24420000  0.96486000  1.0
  O  O45  1  0.79169000  0.75580000  0.03515000  1.0
  O  O46  1  0.99886000  0.40184000  0.21433000  1.0
  O  O47  1  0.00113000  0.59817000  0.78566000  1.0
  O  O48  1  0.59583000  0.63881000  0.87427000  1.0
  O  O49  1  0.40417000  0.36119000  0.12573000  1.0
  O  O50  1  0.80264000  0.31254000  0.09787000  1.0
  O  O51  1  0.19736000  0.68746000  0.90212000  1.0
  O  O52  1  0.67036000  0.78639000  0.54821000  1.0
  O  O53  1  0.32964000  0.21362000  0.45179000  1.0
