# generated using pymatgen
data_CdH14C17NO6
_symmetry_space_group_name_H-M   'P 1'
_cell_length_a   7.70593000
_cell_length_b   8.72331000
_cell_length_c   12.16000000
_cell_angle_alpha   104.91390000
_cell_angle_beta   97.24980000
_cell_angle_gamma   92.51980000
_symmetry_Int_Tables_number   1
_chemical_formula_structural   CdH14C17NO6
_chemical_formula_sum   'Cd2 H28 C34 N2 O12'
_cell_volume   781.06426488
_cell_formula_units_Z   2
loop_
 _symmetry_equiv_pos_site_id
 _symmetry_equiv_pos_as_xyz
  1  'x, y, z'
loop_
 _atom_site_type_symbol
 _atom_site_label
 _atom_site_symmetry_multiplicity
 _atom_site_fract_x
 _atom_site_fract_y
 _atom_site_fract_z
 _atom_site_occupancy
  Cd  Cd0  1  0.76974000  0.67473000  0.95304000  1.0
  Cd  Cd1  1  0.23025000  0.32527000  0.04696000  1.0
  H  H2  1  0.65505000  0.77109000  0.34971000  1.0
  H  H3  1  0.34495000  0.22891000  0.65029000  1.0
  H  H4  1  0.65385000  0.81018000  0.55978000  1.0
  H  H5  1  0.34615000  0.18982000  0.44022000  1.0
  H  H6  1  0.49466000  0.86094000  0.72771000  1.0
  H  H7  1  0.50534000  0.13904000  0.27229000  1.0
  H  H8  1  0.17332000  0.89683000  0.70331000  1.0
  H  H9  1  0.82668000  0.10316000  0.29668000  1.0
  H  H10  1  0.01164000  0.87361000  0.50920000  1.0
  H  H11  1  0.98836000  0.12638000  0.49080000  1.0
  H  H12  1  0.00882000  0.81812000  0.29673000  1.0
  H  H13  1  0.99119000  0.18189000  0.70327000  1.0
  H  H14  1  0.61045000  0.59632000  0.69298000  1.0
  H  H15  1  0.38956000  0.40369000  0.30702000  1.0
  H  H16  1  0.69484000  0.52828000  0.49729000  1.0
  H  H17  1  0.30517000  0.47174000  0.50271000  1.0
  H  H18  1  0.22881000  0.51801000  0.65689000  1.0
  H  H19  1  0.77119000  0.48197000  0.34311000  1.0
  H  H20  1  0.11724000  0.57683000  0.84388000  1.0
  H  H21  1  0.88276000  0.42315000  0.15612000  1.0
  H  H22  1  0.43325000  0.70596000  0.91946000  1.0
  H  H23  1  0.56675000  0.29403000  0.08054000  1.0
  H  H24  1  0.41994000  0.51898000  0.86688000  1.0
  H  H25  1  0.58006000  0.48101000  0.13313000  1.0
  H  H26  1  0.65791000  0.99447000  0.91495000  1.0
  H  H27  1  0.34208000  0.00553000  0.08504000  1.0
  H  H28  1  0.85618000  0.98546000  0.90347000  1.0
  H  H29  1  0.14381000  0.01453000  0.09652000  1.0
  C  C30  1  0.52115000  0.75837000  0.13018000  1.0
  C  C31  1  0.47884000  0.24161000  0.86982000  1.0
  C  C32  1  0.42397000  0.76559000  0.23044000  1.0
  C  C33  1  0.57603000  0.23441000  0.76956000  1.0
  C  C34  1  0.51310000  0.77791000  0.33852000  1.0
  C  C35  1  0.48691000  0.22210000  0.66148000  1.0
  C  C36  1  0.42456000  0.80759000  0.43639000  1.0
  C  C37  1  0.57545000  0.19243000  0.56361000  1.0
  C  C38  1  0.51265000  0.82051000  0.54834000  1.0
  C  C39  1  0.48735000  0.17950000  0.45166000  1.0
  C  C40  1  0.42380000  0.85044000  0.64238000  1.0
  C  C41  1  0.57620000  0.14957000  0.35762000  1.0
  C  C42  1  0.24218000  0.87172000  0.62839000  1.0
  C  C43  1  0.75783000  0.12828000  0.37161000  1.0
  C  C44  1  0.15248000  0.86059000  0.52061000  1.0
  C  C45  1  0.84753000  0.13943000  0.47939000  1.0
  C  C46  1  0.24009000  0.82827000  0.42220000  1.0
  C  C47  1  0.75992000  0.17174000  0.57779000  1.0
  C  C48  1  0.15068000  0.81068000  0.30982000  1.0
  C  C49  1  0.84932000  0.18934000  0.69019000  1.0
  C  C50  1  0.23872000  0.77564000  0.21550000  1.0
  C  C51  1  0.76129000  0.22437000  0.78450000  1.0
  C  C52  1  0.13518000  0.72407000  0.09722000  1.0
  C  C53  1  0.86481000  0.27594000  0.90278000  1.0
  C  C54  1  0.74586000  0.57705000  0.67987000  1.0
  C  C55  1  0.25414000  0.42297000  0.32013000  1.0
  C  C56  1  0.79551000  0.54055000  0.57086000  1.0
  C  C57  1  0.20450000  0.45946000  0.42914000  1.0
  C  C58  1  0.97141000  0.51825000  0.55742000  1.0
  C  C59  1  0.02859000  0.48176000  0.44258000  1.0
  C  C60  1  0.08940000  0.53182000  0.65802000  1.0
  C  C61  1  0.91060000  0.46818000  0.34199000  1.0
  C  C62  1  0.02977000  0.56695000  0.76406000  1.0
  C  C63  1  0.97023000  0.43304000  0.23594000  1.0
  N  N64  1  0.86080000  0.59059000  0.77511000  1.0
  N  N65  1  0.13920000  0.40942000  0.22489000  1.0
  O  O66  1  0.64392000  0.66291000  0.11545000  1.0
  O  O67  1  0.35607000  0.33708000  0.88455000  1.0
  O  O68  1  0.48025000  0.84761000  0.06507000  1.0
  O  O69  1  0.51975000  0.15236000  0.93491000  1.0
  O  O70  1  0.17262000  0.59793000  0.02911000  1.0
  O  O71  1  0.82737000  0.40207000  0.97089000  1.0
  O  O72  1  0.01040000  0.80904000  0.07443000  1.0
  O  O73  1  0.98959000  0.19096000  0.92557000  1.0
  O  O74  1  0.74757000  0.91714000  0.89487000  1.0
  O  O75  1  0.25242000  0.08285000  0.10512000  1.0
  O  O76  1  0.46965000  0.62181000  0.85718000  1.0
  O  O77  1  0.53034000  0.37818000  0.14281000  1.0
