# generated using pymatgen
data_CoH5(C3N2)2
_symmetry_space_group_name_H-M   'P 1'
_cell_length_a   8.96599000
_cell_length_b   10.31120651
_cell_length_c   12.41512959
_cell_angle_alpha   80.99558633
_cell_angle_beta   68.83462280
_cell_angle_gamma   64.23998966
_symmetry_Int_Tables_number   1
_chemical_formula_structural   CoH5(C3N2)2
_chemical_formula_sum   'Co4 H20 C24 N16'
_cell_volume   963.98465489
_cell_formula_units_Z   4
loop_
 _symmetry_equiv_pos_site_id
 _symmetry_equiv_pos_as_xyz
  1  'x, y, z'
loop_
 _atom_site_type_symbol
 _atom_site_label
 _atom_site_symmetry_multiplicity
 _atom_site_fract_x
 _atom_site_fract_y
 _atom_site_fract_z
 _atom_site_occupancy
  Co  Co0  1  0.35094000  0.90142000  0.63074000  1.0
  Co  Co1  1  0.88330000  0.09859000  0.36915000  1.0
  Co  Co2  1  0.73133000  0.40147000  0.86929000  1.0
  Co  Co3  1  0.00228000  0.59853000  0.13079000  1.0
  H  H4  1  0.50244000  0.88824000  0.33905000  1.0
  H  H5  1  0.72986000  0.11158000  0.66084000  1.0
  H  H6  1  0.59117000  0.38882000  0.16113000  1.0
  H  H7  1  0.14062000  0.61136000  0.83905000  1.0
  H  H8  1  0.00507000  0.00972000  0.59827000  1.0
  H  H9  1  0.61300000  0.99042000  0.40151000  1.0
  H  H10  1  0.35319000  0.50926000  0.90188000  1.0
  H  H11  1  0.76431000  0.49058000  0.09847000  1.0
  H  H12  1  0.14734000  0.23026000  0.73205000  1.0
  H  H13  1  0.10974000  0.76993000  0.26766000  1.0
  H  H14  1  0.62980000  0.72985000  0.76763000  1.0
  H  H15  1  0.12787000  0.26999000  0.23209000  1.0
  H  H16  1  0.73519000  0.10121000  0.91677000  1.0
  H  H17  1  0.75311000  0.89890000  0.08310000  1.0
  H  H18  1  0.40138000  0.60120000  0.58331000  1.0
  H  H19  1  0.58669000  0.39882000  0.41701000  1.0
  H  H20  1  0.03359000  0.86178000  0.81280000  1.0
  H  H21  1  0.70808000  0.13835000  0.18720000  1.0
  H  H22  1  0.59530000  0.36175000  0.68744000  1.0
  H  H23  1  0.64542000  0.63828000  0.31292000  1.0
  C  C24  1  0.36108000  0.92780000  0.37937000  1.0
  C  C25  1  0.66836000  0.07207000  0.62047000  1.0
  C  C26  1  0.49022000  0.42811000  0.12076000  1.0
  C  C27  1  0.03865000  0.57196000  0.87945000  1.0
  C  C28  1  0.10252000  0.99183000  0.51314000  1.0
  C  C29  1  0.60755000  0.00808000  0.48669000  1.0
  C  C30  1  0.36546000  0.49164000  0.98700000  1.0
  C  C31  1  0.84394000  0.50825000  0.01328000  1.0
  C  C32  1  0.08781000  0.01203000  0.40343000  1.0
  C  C33  1  0.50337000  0.98782000  0.59642000  1.0
  C  C34  1  0.24103000  0.51191000  0.09674000  1.0
  C  C35  1  0.84934000  0.48801000  0.90358000  1.0
  C  C36  1  0.07664000  0.16225000  0.76769000  1.0
  C  C37  1  0.00668000  0.83791000  0.23207000  1.0
  C  C38  1  0.59433000  0.66195000  0.73216000  1.0
  C  C39  1  0.98914000  0.33793000  0.26779000  1.0
  C  C40  1  0.86490000  0.09193000  0.86210000  1.0
  C  C41  1  0.81894000  0.90820000  0.13771000  1.0
  C  C42  1  0.47659000  0.59181000  0.63789000  1.0
  C  C43  1  0.70705000  0.40815000  0.36225000  1.0
  C  C44  1  0.01307000  0.97371000  0.81066000  1.0
  C  C45  1  0.79740000  0.02642000  0.18923000  1.0
  C  C46  1  0.57303000  0.47359000  0.68942000  1.0
  C  C47  1  0.73688000  0.52636000  0.31078000  1.0
  N  N48  1  0.28009000  0.93748000  0.49697000  1.0
  N  N49  1  0.71459000  0.06249000  0.50285000  1.0
  N  N50  1  0.52687000  0.43755000  0.00316000  1.0
  N  N51  1  0.96735000  0.56245000  0.99704000  1.0
  N  N52  1  0.24802000  0.97253000  0.32087000  1.0
  N  N53  1  0.54161000  0.02727000  0.67896000  1.0
  N  N54  1  0.31865000  0.47272000  0.17928000  1.0
  N  N55  1  0.97016000  0.52730000  0.82100000  1.0
  N  N56  1  0.14608000  0.01920000  0.75103000  1.0
  N  N57  1  0.91632000  0.98097000  0.24879000  1.0
  N  N58  1  0.64667000  0.51898000  0.74896000  1.0
  N  N59  1  0.91536000  0.48095000  0.25113000  1.0
  N  N60  1  0.90631000  0.21076000  0.83443000  1.0
  N  N61  1  0.95157000  0.78940000  0.16532000  1.0
  N  N62  1  0.49077000  0.71055000  0.66543000  1.0
  N  N63  1  0.86740000  0.28937000  0.33454000  1.0
