# generated using pymatgen
data_CdH18C26(NO)6
_symmetry_space_group_name_H-M   'P 1'
_cell_length_a   13.85140000
_cell_length_b   14.30510000
_cell_length_c   15.18580000
_cell_angle_alpha   84.99870000
_cell_angle_beta   79.62640000
_cell_angle_gamma   61.04200000
_symmetry_Int_Tables_number   1
_chemical_formula_structural   CdH18C26(NO)6
_chemical_formula_sum   'Cd4 H72 C104 N24 O24'
_cell_volume   2589.76537630
_cell_formula_units_Z   4
loop_
 _symmetry_equiv_pos_site_id
 _symmetry_equiv_pos_as_xyz
  1  'x, y, z'
loop_
 _atom_site_type_symbol
 _atom_site_label
 _atom_site_symmetry_multiplicity
 _atom_site_fract_x
 _atom_site_fract_y
 _atom_site_fract_z
 _atom_site_occupancy
  Cd  Cd0  1  0.34470000  0.22536000  0.88091000  1.0
  Cd  Cd1  1  0.42993000  0.22537000  0.61911000  1.0
  Cd  Cd2  1  0.65530000  0.77464000  0.11909000  1.0
  Cd  Cd3  1  0.57008000  0.77464000  0.38088000  1.0
  H  H4  1  0.98227000  0.28575000  0.06828000  1.0
  H  H5  1  0.73198000  0.28579000  0.43173000  1.0
  H  H6  1  0.01773000  0.71425000  0.93172000  1.0
  H  H7  1  0.26802000  0.71420000  0.56827000  1.0
  H  H8  1  0.85683000  0.21563000  0.15009000  1.0
  H  H9  1  0.92755000  0.21565000  0.34993000  1.0
  H  H10  1  0.14317000  0.78437000  0.84991000  1.0
  H  H11  1  0.07246000  0.78435000  0.65007000  1.0
  H  H12  1  0.24470000  0.96570000  0.01314000  1.0
  H  H13  1  0.78958000  0.96575000  0.48687000  1.0
  H  H14  1  0.75530000  0.03430000  0.98685000  1.0
  H  H15  1  0.21042000  0.03425000  0.51313000  1.0
  H  H16  1  0.77332000  0.15068000  0.23531000  1.0
  H  H17  1  0.07601000  0.15070000  0.26471000  1.0
  H  H18  1  0.22668000  0.84932000  0.76469000  1.0
  H  H19  1  0.92400000  0.84930000  0.73529000  1.0
  H  H20  1  0.65682000  0.06686000  0.30243000  1.0
  H  H21  1  0.27633000  0.06685000  0.19759000  1.0
  H  H22  1  0.34318000  0.93315000  0.69757000  1.0
  H  H23  1  0.72367000  0.93314000  0.80241000  1.0
  H  H24  1  0.90985000  0.76530000  0.18741000  1.0
  H  H25  1  0.32485000  0.76529000  0.31256000  1.0
  H  H26  1  0.09015000  0.23471000  0.81259000  1.0
  H  H27  1  0.67515000  0.23471000  0.68743000  1.0
  H  H28  1  0.42082000  0.39961000  0.77100000  1.0
  H  H29  1  0.17956000  0.39961000  0.72902000  1.0
  H  H30  1  0.57918000  0.60039000  0.22901000  1.0
  H  H31  1  0.82044000  0.60039000  0.27099000  1.0
  H  H32  1  0.20912000  0.64608000  0.96014000  1.0
  H  H33  1  0.14480000  0.64607000  0.53987000  1.0
  H  H34  1  0.79088000  0.35392000  0.03986000  1.0
  H  H35  1  0.85520000  0.35393000  0.46013000  1.0
  H  H36  1  0.16433000  0.47289000  0.99233000  1.0
  H  H37  1  0.36277000  0.47287000  0.50767000  1.0
  H  H38  1  0.83567000  0.52711000  0.00767000  1.0
  H  H39  1  0.63723000  0.52712000  0.49233000  1.0
  H  H40  1  0.39153000  0.65256000  0.93948000  1.0
  H  H41  1  0.95591000  0.65259000  0.56053000  1.0
  H  H42  1  0.60847000  0.34744000  0.06052000  1.0
  H  H43  1  0.04409000  0.34740000  0.43947000  1.0
  H  H44  1  0.52612000  0.76729000  0.70265000  1.0
  H  H45  1  0.70657000  0.76730000  0.79736000  1.0
  H  H46  1  0.47387000  0.23271000  0.29735000  1.0
  H  H47  1  0.29343000  0.23270000  0.20264000  1.0
  H  H48  1  0.46520000  0.67836000  0.60736000  1.0
  H  H49  1  0.85642000  0.67838000  0.89265000  1.0
  H  H50  1  0.53480000  0.32164000  0.39264000  1.0
  H  H51  1  0.14358000  0.32162000  0.10735000  1.0
  H  H52  1  0.37311000  0.57209000  0.67807000  1.0
  H  H53  1  0.05480000  0.57210000  0.82194000  1.0
  H  H54  1  0.62689000  0.42791000  0.32193000  1.0
  H  H55  1  0.94520000  0.42790000  0.17806000  1.0
  H  H56  1  0.56801000  0.63955000  0.97857000  1.0
  H  H57  1  0.79249000  0.63957000  0.52141000  1.0
  H  H58  1  0.43199000  0.36045000  0.02143000  1.0
  H  H59  1  0.20751000  0.36043000  0.47859000  1.0
  H  H60  1  0.45371000  0.91761000  0.81577000  1.0
  H  H61  1  0.62863000  0.91760000  0.68425000  1.0
  H  H62  1  0.54629000  0.08240000  0.18423000  1.0
  H  H63  1  0.37138000  0.08240000  0.31575000  1.0
  H  H64  1  0.55725000  0.94011000  0.94595000  1.0
  H  H65  1  0.50261000  0.94009000  0.55404000  1.0
  H  H66  1  0.44275000  0.05989000  0.05405000  1.0
  H  H67  1  0.49739000  0.05991000  0.44596000  1.0
  H  H68  1  0.28498000  0.76589000  0.08366000  1.0
  H  H69  1  0.94910000  0.76594000  0.41626000  1.0
  H  H70  1  0.71502000  0.23411000  0.91634000  1.0
  H  H71  1  0.05090000  0.23406000  0.58373000  1.0
  H  H72  1  0.12046000  0.68020000  0.10074000  1.0
  H  H73  1  0.19930000  0.68021000  0.39928000  1.0
  H  H74  1  0.87953000  0.31981000  0.89926000  1.0
  H  H75  1  0.80070000  0.31978000  0.60072000  1.0
  C  C76  1  0.19281000  0.17163000  0.98239000  1.0
  C  C77  1  0.63554000  0.17169000  0.51762000  1.0
  C  C78  1  0.80719000  0.82837000  0.01761000  1.0
  C  C79  1  0.36446000  0.82831000  0.48238000  1.0
  C  C80  1  0.11985000  0.12970000  0.03541000  1.0
  C  C81  1  0.75043000  0.12975000  0.46460000  1.0
  C  C82  1  0.88015000  0.87030000  0.96459000  1.0
  C  C83  1  0.24957000  0.87025000  0.53540000  1.0
  C  C84  1  0.01138000  0.20030000  0.07540000  1.0
  C  C85  1  0.78832000  0.20033000  0.42461000  1.0
  C  C86  1  0.98862000  0.79971000  0.92460000  1.0
  C  C87  1  0.21168000  0.79966000  0.57539000  1.0
  C  C88  1  0.94242000  0.16080000  0.12109000  1.0
  C  C89  1  0.89679000  0.16083000  0.37892000  1.0
  C  C90  1  0.05758000  0.83920000  0.87891000  1.0
  C  C91  1  0.10322000  0.83917000  0.62108000  1.0
  C  C92  1  0.97987000  0.05077000  0.12911000  1.0
  C  C93  1  0.96936000  0.05079000  0.37090000  1.0
  C  C94  1  0.02013000  0.94923000  0.87089000  1.0
  C  C95  1  0.03064000  0.94921000  0.62910000  1.0
  C  C96  1  0.09089000  0.98018000  0.09107000  1.0
  C  C97  1  0.92892000  0.98021000  0.40893000  1.0
  C  C98  1  0.90911000  0.01983000  0.90893000  1.0
  C  C99  1  0.07108000  0.01979000  0.59107000  1.0
  C  C100  1  0.15982000  0.01933000  0.04378000  1.0
  C  C101  1  0.82083000  0.01938000  0.45623000  1.0
  C  C102  1  0.84018000  0.98067000  0.95622000  1.0
  C  C103  1  0.17917000  0.98062000  0.54377000  1.0
  C  C104  1  0.90958000  0.00540000  0.17371000  1.0
  C  C105  1  0.08503000  0.00541000  0.32630000  1.0
  C  C106  1  0.09042000  0.99461000  0.82629000  1.0
  C  C107  1  0.91498000  0.99459000  0.67370000  1.0
  C  C108  1  0.80344000  0.06631000  0.22368000  1.0
  C  C109  1  0.13025000  0.06632000  0.27633000  1.0
  C  C110  1  0.19656000  0.93369000  0.77631000  1.0
  C  C111  1  0.86975000  0.93368000  0.72367000  1.0
  C  C112  1  0.73755000  0.02026000  0.26135000  1.0
  C  C113  1  0.24220000  0.02025000  0.23866000  1.0
  C  C114  1  0.26245000  0.97975000  0.73865000  1.0
  C  C115  1  0.75780000  0.97974000  0.76134000  1.0
  C  C116  1  0.77514000  0.91187000  0.24682000  1.0
  C  C117  1  0.31300000  0.91186000  0.25317000  1.0
  C  C118  1  0.22486000  0.08813000  0.75318000  1.0
  C  C119  1  0.68700000  0.08813000  0.74682000  1.0
  C  C120  1  0.88139000  0.84927000  0.19855000  1.0
  C  C121  1  0.26934000  0.84927000  0.30143000  1.0
  C  C122  1  0.11861000  0.15074000  0.80145000  1.0
  C  C123  1  0.73066000  0.15073000  0.69856000  1.0
  C  C124  1  0.94919000  0.89500000  0.16414000  1.0
  C  C125  1  0.15581000  0.89501000  0.33586000  1.0
  C  C126  1  0.05081000  0.10501000  0.83586000  1.0
  C  C127  1  0.84420000  0.10499000  0.66414000  1.0
  C  C128  1  0.70103000  0.86393000  0.28103000  1.0
  C  C129  1  0.43505000  0.86392000  0.21895000  1.0
  C  C130  1  0.29897000  0.13608000  0.71897000  1.0
  C  C131  1  0.56495000  0.13608000  0.78105000  1.0
  C  C132  1  0.35503000  0.44339000  0.82562000  1.0
  C  C133  1  0.20157000  0.44339000  0.67439000  1.0
  C  C134  1  0.64497000  0.55661000  0.17438000  1.0
  C  C135  1  0.79843000  0.55661000  0.32561000  1.0
  C  C136  1  0.24552000  0.56902000  0.92789000  1.0
  C  C137  1  0.18546000  0.56901000  0.57212000  1.0
  C  C138  1  0.75448000  0.43098000  0.07211000  1.0
  C  C139  1  0.81454000  0.43099000  0.42788000  1.0
  C  C140  1  0.22415000  0.48397000  0.94182000  1.0
  C  C141  1  0.29188000  0.48396000  0.55819000  1.0
  C  C142  1  0.77585000  0.51603000  0.05818000  1.0
  C  C143  1  0.70812000  0.51604000  0.44181000  1.0
  C  C144  1  0.38008000  0.60405000  0.81267000  1.0
  C  C145  1  0.01586000  0.60406000  0.68735000  1.0
  C  C146  1  0.61992000  0.39595000  0.18734000  1.0
  C  C147  1  0.98414000  0.39594000  0.31265000  1.0
  C  C148  1  0.41035000  0.65626000  0.86695000  1.0
  C  C149  1  0.93339000  0.65628000  0.63306000  1.0
  C  C150  1  0.58965000  0.34374000  0.13305000  1.0
  C  C151  1  0.06661000  0.34372000  0.36694000  1.0
  C  C152  1  0.46340000  0.71446000  0.82666000  1.0
  C  C153  1  0.82214000  0.71447000  0.67334000  1.0
  C  C154  1  0.53660000  0.28554000  0.17334000  1.0
  C  C155  1  0.17786000  0.28553000  0.32666000  1.0
  C  C156  1  0.48485000  0.72141000  0.73336000  1.0
  C  C157  1  0.79373000  0.72142000  0.76665000  1.0
  C  C158  1  0.51515000  0.27859000  0.26664000  1.0
  C  C159  1  0.20627000  0.27858000  0.23335000  1.0
  C  C160  1  0.45235000  0.67023000  0.68020000  1.0
  C  C161  1  0.87741000  0.67024000  0.81981000  1.0
  C  C162  1  0.54765000  0.32977000  0.31980000  1.0
  C  C163  1  0.12259000  0.32976000  0.18019000  1.0
  C  C164  1  0.40003000  0.61098000  0.71945000  1.0
  C  C165  1  0.98898000  0.61099000  0.78057000  1.0
  C  C166  1  0.59997000  0.38902000  0.28055000  1.0
  C  C167  1  0.01102000  0.38901000  0.21943000  1.0
  C  C168  1  0.54968000  0.71929000  0.95486000  1.0
  C  C169  1  0.73106000  0.71930000  0.54513000  1.0
  C  C170  1  0.45031000  0.28071000  0.04515000  1.0
  C  C171  1  0.26895000  0.28070000  0.45487000  1.0
  C  C172  1  0.49464000  0.86324000  0.86757000  1.0
  C  C173  1  0.64209000  0.86323000  0.63243000  1.0
  C  C174  1  0.50536000  0.13676000  0.13243000  1.0
  C  C175  1  0.35791000  0.13677000  0.36757000  1.0
  C  C176  1  0.54399000  0.87399000  0.93396000  1.0
  C  C177  1  0.58202000  0.87397000  0.56604000  1.0
  C  C178  1  0.45601000  0.12601000  0.06604000  1.0
  C  C179  1  0.41798000  0.12603000  0.43396000  1.0
  N  N180  1  0.57829000  0.78373000  0.98732000  1.0
  N  N181  1  0.63801000  0.78372000  0.51267000  1.0
  N  N182  1  0.42171000  0.21627000  0.01269000  1.0
  N  N183  1  0.36199000  0.21628000  0.48733000  1.0
  N  N184  1  0.49831000  0.76430000  0.88139000  1.0
  N  N185  1  0.73739000  0.76431000  0.61861000  1.0
  N  N186  1  0.50169000  0.23570000  0.11861000  1.0
  N  N187  1  0.26262000  0.23569000  0.38139000  1.0
  N  N188  1  0.32849000  0.54234000  0.85330000  1.0
  N  N189  1  0.12916000  0.54234000  0.64671000  1.0
  N  N190  1  0.67151000  0.45766000  0.14670000  1.0
  N  N191  1  0.87084000  0.45766000  0.35329000  1.0
  N  N192  1  0.29337000  0.40642000  0.87795000  1.0
  N  N193  1  0.30020000  0.40642000  0.62206000  1.0
  N  N194  1  0.70663000  0.59357000  0.12205000  1.0
  N  N195  1  0.69980000  0.59358000  0.37794000  1.0
  N  N196  1  0.05516000  0.83042000  0.11135000  1.0
  N  N197  1  0.11440000  0.83045000  0.38865000  1.0
  N  N198  1  0.94483000  0.16958000  0.88864000  1.0
  N  N199  1  0.88560000  0.16955000  0.61135000  1.0
  N  N200  1  0.13440000  0.86942000  0.11171000  1.0
  N  N201  1  0.99615000  0.86946000  0.38828000  1.0
  N  N202  1  0.86559000  0.13058000  0.88829000  1.0
  N  N203  1  0.00385000  0.13054000  0.61172000  1.0
  O  O204  1  0.29146000  0.10346000  0.94745000  1.0
  O  O205  1  0.60507000  0.10351000  0.55257000  1.0
  O  O206  1  0.70854000  0.89654000  0.05255000  1.0
  O  O207  1  0.39493000  0.89649000  0.44743000  1.0
  O  O208  1  0.15501000  0.27244000  0.97376000  1.0
  O  O209  1  0.57252000  0.27249000  0.52625000  1.0
  O  O210  1  0.84499000  0.72756000  0.02625000  1.0
  O  O211  1  0.42748000  0.72751000  0.47374000  1.0
  O  O212  1  0.72895000  0.77001000  0.25318000  1.0
  O  O213  1  0.50105000  0.76999000  0.24680000  1.0
  O  O214  1  0.27105000  0.22999000  0.74682000  1.0
  O  O215  1  0.49895000  0.23001000  0.75320000  1.0
  O  O216  1  0.61298000  0.91599000  0.33634000  1.0
  O  O217  1  0.47104000  0.91598000  0.16366000  1.0
  O  O218  1  0.38702000  0.08402000  0.66366000  1.0
  O  O219  1  0.52896000  0.08402000  0.83634000  1.0
  O  O220  1  0.22849000  0.80636000  0.04532000  1.0
  O  O221  1  0.96512000  0.80638000  0.45463000  1.0
  O  O222  1  0.77151000  0.19364000  0.95468000  1.0
  O  O223  1  0.03488000  0.19361000  0.54537000  1.0
  O  O224  1  0.10529000  0.72551000  0.15131000  1.0
  O  O225  1  0.16919000  0.72552000  0.34869000  1.0
  O  O226  1  0.89471000  0.27450000  0.84868000  1.0
  O  O227  1  0.83081000  0.27448000  0.65130000  1.0
