# generated using pymatgen
data_GdH8C8NO9
_symmetry_space_group_name_H-M   'P 1'
_cell_length_a   7.15600000
_cell_length_b   11.94850000
_cell_length_c   13.50500000
_cell_angle_alpha   96.23140000
_cell_angle_beta   90.00000000
_cell_angle_gamma   90.00000000
_symmetry_Int_Tables_number   1
_chemical_formula_structural   GdH8C8NO9
_chemical_formula_sum   'Gd4 H32 C32 N4 O36'
_cell_volume   1147.90176690
_cell_formula_units_Z   4
loop_
 _symmetry_equiv_pos_site_id
 _symmetry_equiv_pos_as_xyz
  1  'x, y, z'
loop_
 _atom_site_type_symbol
 _atom_site_label
 _atom_site_symmetry_multiplicity
 _atom_site_fract_x
 _atom_site_fract_y
 _atom_site_fract_z
 _atom_site_occupancy
  Gd  Gd0  1  0.73375000  0.71794000  0.29220000  1.0
  Gd  Gd1  1  0.23375000  0.28206000  0.20780000  1.0
  Gd  Gd2  1  0.26624000  0.28206000  0.70780000  1.0
  Gd  Gd3  1  0.76625000  0.71794000  0.79220000  1.0
  H  H4  1  0.97393000  0.56293000  0.16500000  1.0
  H  H5  1  0.47393000  0.43707000  0.33500000  1.0
  H  H6  1  0.02607000  0.43707000  0.83500000  1.0
  H  H7  1  0.52607000  0.56293000  0.66500000  1.0
  H  H8  1  0.90077000  0.63610000  0.07798000  1.0
  H  H9  1  0.40076000  0.36390000  0.42202000  1.0
  H  H10  1  0.09923000  0.36390000  0.92202000  1.0
  H  H11  1  0.59924000  0.63609000  0.57798000  1.0
  H  H12  1  0.05343000  0.87941000  0.30458000  1.0
  H  H13  1  0.55344000  0.12059000  0.19542000  1.0
  H  H14  1  0.94656000  0.12059000  0.69542000  1.0
  H  H15  1  0.44656000  0.87940000  0.80458000  1.0
  H  H16  1  0.16111000  0.76540000  0.30187000  1.0
  H  H17  1  0.66111000  0.23460000  0.19813000  1.0
  H  H18  1  0.83889000  0.23460000  0.69813000  1.0
  H  H19  1  0.33889000  0.76540000  0.80187000  1.0
  H  H20  1  0.84078000  0.93566000  0.41773000  1.0
  H  H21  1  0.34079000  0.06435000  0.08227000  1.0
  H  H22  1  0.15922000  0.06434000  0.58227000  1.0
  H  H23  1  0.65922000  0.93565000  0.91772000  1.0
  H  H24  1  0.71727000  0.87365000  0.49366000  1.0
  H  H25  1  0.21727000  0.12635000  0.00635000  1.0
  H  H26  1  0.28273000  0.12635000  0.50635000  1.0
  H  H27  1  0.78273000  0.87365000  0.99365000  1.0
  H  H28  1  0.21999000  0.52201000  0.02343000  1.0
  H  H29  1  0.71999000  0.47799000  0.47656000  1.0
  H  H30  1  0.78000000  0.47799000  0.97657000  1.0
  H  H31  1  0.28001000  0.52202000  0.52343000  1.0
  H  H32  1  0.30275000  0.87759000  0.99990000  1.0
  H  H33  1  0.80274000  0.12241000  0.50009000  1.0
  H  H34  1  0.69726000  0.12240000  0.00009000  1.0
  H  H35  1  0.19726000  0.87760000  0.49990000  1.0
  C  C36  1  0.42666000  0.60959000  0.11827000  1.0
  C  C37  1  0.92665000  0.39041000  0.38173000  1.0
  C  C38  1  0.57335000  0.39040000  0.88173000  1.0
  C  C39  1  0.07335000  0.60960000  0.61827000  1.0
  C  C40  1  0.28840000  0.60234000  0.04513000  1.0
  C  C41  1  0.78839000  0.39766000  0.45487000  1.0
  C  C42  1  0.71160000  0.39766000  0.95487000  1.0
  C  C43  1  0.21161000  0.60234000  0.54513000  1.0
  C  C44  1  0.24092000  0.70019000  0.00264000  1.0
  C  C45  1  0.74092000  0.29981000  0.49736000  1.0
  C  C46  1  0.75907000  0.29981000  0.99736000  1.0
  C  C47  1  0.25908000  0.70019000  0.50264000  1.0
  C  C48  1  0.33449000  0.80063000  0.03297000  1.0
  C  C49  1  0.83449000  0.19937000  0.46703000  1.0
  C  C50  1  0.66551000  0.19937000  0.96703000  1.0
  C  C51  1  0.16551000  0.80063000  0.53297000  1.0
  C  C52  1  0.46807000  0.80056000  0.10799000  1.0
  C  C53  1  0.96807000  0.19944000  0.39201000  1.0
  C  C54  1  0.53193000  0.19944000  0.89201000  1.0
  C  C55  1  0.03193000  0.80056000  0.60799000  1.0
  C  C56  1  0.47854000  0.51249000  0.17532000  1.0
  C  C57  1  0.97854000  0.48751000  0.32468000  1.0
  C  C58  1  0.52146000  0.48750000  0.82468000  1.0
  C  C59  1  0.02146000  0.51249000  0.67532000  1.0
  C  C60  1  0.08276000  0.70294000  0.93048000  1.0
  C  C61  1  0.58276000  0.29706000  0.56953000  1.0
  C  C62  1  0.91724000  0.29706000  0.06952000  1.0
  C  C63  1  0.41724000  0.70294000  0.43048000  1.0
  C  C64  1  0.57202000  0.90419000  0.15216000  1.0
  C  C65  1  0.07202000  0.09581000  0.34784000  1.0
  C  C66  1  0.42797000  0.09582000  0.84784000  1.0
  C  C67  1  0.92798000  0.90419000  0.65216000  1.0
  N  N68  1  0.51202000  0.70694000  0.14892000  1.0
  N  N69  1  0.01202000  0.29306000  0.35108000  1.0
  N  N70  1  0.48797000  0.29306000  0.85108000  1.0
  N  N71  1  0.98798000  0.70694000  0.64892000  1.0
  O  O72  1  0.57109000  0.53602000  0.25558000  1.0
  O  O73  1  0.07109000  0.46398000  0.24442000  1.0
  O  O74  1  0.42891000  0.46398000  0.74442000  1.0
  O  O75  1  0.92892000  0.53602000  0.75558000  1.0
  O  O76  1  0.42238000  0.41513000  0.14244000  1.0
  O  O77  1  0.92238000  0.58487000  0.35756000  1.0
  O  O78  1  0.57762000  0.58487000  0.85756000  1.0
  O  O79  1  0.07762000  0.41513000  0.64244000  1.0
  O  O80  1  0.92346000  0.66666667  0.95567000  1.0
  O  O81  1  0.42346000  0.33328000  0.54433000  1.0
  O  O82  1  0.07654000  0.33328000  0.04433000  1.0
  O  O83  1  0.57654000  0.66666667  0.45567000  1.0
  O  O84  1  0.10699000  0.74521000  0.84924000  1.0
  O  O85  1  0.60699000  0.25479000  0.65076000  1.0
  O  O86  1  0.89301000  0.25479000  0.15076000  1.0
  O  O87  1  0.39301000  0.74521000  0.34924000  1.0
  O  O88  1  0.69576000  0.88843000  0.21660000  1.0
  O  O89  1  0.19577000  0.11158000  0.28340000  1.0
  O  O90  1  0.30424000  0.11157000  0.78341000  1.0
  O  O91  1  0.80423000  0.88842000  0.71660000  1.0
  O  O92  1  0.53248000  0.99777000  0.12129000  1.0
  O  O93  1  0.03248000  0.00224000  0.37870000  1.0
  O  O94  1  0.46752000  0.00223000  0.87871000  1.0
  O  O95  1  0.96751000  0.99776000  0.62130000  1.0
  O  O96  1  0.87486000  0.61403000  0.14558000  1.0
  O  O97  1  0.37486000  0.38597000  0.35442000  1.0
  O  O98  1  0.12514000  0.38597000  0.85442000  1.0
  O  O99  1  0.62514000  0.61403000  0.64558000  1.0
  O  O100  1  0.04307000  0.79792000  0.27956000  1.0
  O  O101  1  0.54307000  0.20207000  0.22044000  1.0
  O  O102  1  0.95693000  0.20208000  0.72044000  1.0
  O  O103  1  0.45693000  0.79792000  0.77956000  1.0
  O  O104  1  0.74389000  0.87650000  0.42355000  1.0
  O  O105  1  0.24390000  0.12350000  0.07645000  1.0
  O  O106  1  0.25611000  0.12350000  0.57645000  1.0
  O  O107  1  0.75610000  0.87650000  0.92355000  1.0
