# generated using pymatgen
data_ZnH9C12Br2N5
_symmetry_space_group_name_H-M   'P 1'
_cell_length_a   5.49316000
_cell_length_b   11.82870000
_cell_length_c   22.12440000
_cell_angle_alpha   88.81220000
_cell_angle_beta   89.99980000
_cell_angle_gamma   89.99950000
_symmetry_Int_Tables_number   1
_chemical_formula_structural   ZnH9C12Br2N5
_chemical_formula_sum   'Zn4 H36 C48 Br8 N20'
_cell_volume   1437.26694253
_cell_formula_units_Z   4
loop_
 _symmetry_equiv_pos_site_id
 _symmetry_equiv_pos_as_xyz
  1  'x, y, z'
loop_
 _atom_site_type_symbol
 _atom_site_label
 _atom_site_symmetry_multiplicity
 _atom_site_fract_x
 _atom_site_fract_y
 _atom_site_fract_z
 _atom_site_occupancy
  Zn  Zn0  1  0.09850000  0.70574000  0.62591000  1.0
  Zn  Zn1  1  0.59849000  0.29426000  0.87409000  1.0
  Zn  Zn2  1  0.90147000  0.29429000  0.37408000  1.0
  Zn  Zn3  1  0.40147000  0.70572000  0.12592000  1.0
  H  H4  1  0.95626000  0.97943000  0.36848000  1.0
  H  H5  1  0.45624000  0.02058000  0.13152000  1.0
  H  H6  1  0.04369000  0.02060000  0.63152000  1.0
  H  H7  1  0.54371000  0.97940000  0.86848000  1.0
  H  H8  1  0.98179000  0.89711000  0.54308000  1.0
  H  H9  1  0.48179000  0.10288000  0.95691000  1.0
  H  H10  1  0.01821000  0.10295000  0.45691000  1.0
  H  H11  1  0.51821000  0.89706000  0.04308000  1.0
  H  H12  1  0.66477000  0.94823000  0.46663000  1.0
  H  H13  1  0.16478000  0.05176000  0.03337000  1.0
  H  H14  1  0.33523000  0.05182000  0.53336000  1.0
  H  H15  1  0.83525000  0.94818000  0.96664000  1.0
  H  H16  1  0.41870000  0.60185000  0.47716000  1.0
  H  H17  1  0.91868000  0.39813000  0.02283000  1.0
  H  H18  1  0.58133000  0.39819000  0.52281000  1.0
  H  H19  1  0.08136000  0.60182000  0.97719000  1.0
  H  H20  1  0.74120000  0.56580000  0.55570000  1.0
  H  H21  1  0.24118000  0.43419000  0.94430000  1.0
  H  H22  1  0.25879000  0.43424000  0.44429000  1.0
  H  H23  1  0.75883000  0.56576000  0.05571000  1.0
  H  H24  1  0.09948000  0.62740000  0.27719000  1.0
  H  H25  1  0.59945000  0.37261000  0.22280000  1.0
  H  H26  1  0.90052000  0.37263000  0.72281000  1.0
  H  H27  1  0.40054000  0.62737000  0.77719000  1.0
  H  H28  1  0.83148000  0.59156000  0.18868000  1.0
  H  H29  1  0.33146000  0.40844000  0.31132000  1.0
  H  H30  1  0.16851000  0.40844000  0.81133000  1.0
  H  H31  1  0.66852000  0.59155000  0.68867000  1.0
  H  H32  1  0.39457000  0.86721000  0.22664000  1.0
  H  H33  1  0.89459000  0.13279000  0.27337000  1.0
  H  H34  1  0.60542000  0.13281000  0.77335000  1.0
  H  H35  1  0.10542000  0.86719000  0.72664000  1.0
  H  H36  1  0.64224000  0.91555000  0.31634000  1.0
  H  H37  1  0.14225000  0.08446000  0.18367000  1.0
  H  H38  1  0.35776000  0.08450000  0.68364000  1.0
  H  H39  1  0.85777000  0.91550000  0.81636000  1.0
  C  C40  1  0.85273000  0.83452000  0.52743000  1.0
  C  C41  1  0.35272000  0.16548000  0.97256000  1.0
  C  C42  1  0.14729000  0.16554000  0.47256000  1.0
  C  C43  1  0.64729000  0.83447000  0.02744000  1.0
  C  C44  1  0.67799000  0.86202000  0.48459000  1.0
  C  C45  1  0.17797000  0.13797000  0.01541000  1.0
  C  C46  1  0.32206000  0.13803000  0.51540000  1.0
  C  C47  1  0.82209000  0.86198000  0.98461000  1.0
  C  C48  1  0.51653000  0.77833000  0.46551000  1.0
  C  C49  1  0.01652000  0.22166000  0.03449000  1.0
  C  C50  1  0.48348000  0.22172000  0.53449000  1.0
  C  C51  1  0.98352000  0.77828000  0.96552000  1.0
  C  C52  1  0.54149000  0.66905000  0.49035000  1.0
  C  C53  1  0.04148000  0.33093000  0.00965000  1.0
  C  C54  1  0.45850000  0.33100000  0.50965000  1.0
  C  C55  1  0.95850000  0.66900000  0.99036000  1.0
  C  C56  1  0.71937000  0.64866000  0.53390000  1.0
  C  C57  1  0.21936000  0.35133000  0.96610000  1.0
  C  C58  1  0.28064000  0.35138000  0.46609000  1.0
  C  C59  1  0.78065000  0.64862000  0.03391000  1.0
  C  C60  1  0.32349000  0.80868000  0.42259000  1.0
  C  C61  1  0.82348000  0.19131000  0.07741000  1.0
  C  C62  1  0.67654000  0.19137000  0.57739000  1.0
  C  C63  1  0.17658000  0.80863000  0.92261000  1.0
  C  C64  1  0.05535000  0.80418000  0.35379000  1.0
  C  C65  1  0.55535000  0.19582000  0.14621000  1.0
  C  C66  1  0.94462000  0.19586000  0.64620000  1.0
  C  C67  1  0.44466000  0.80414000  0.85380000  1.0
  C  C68  1  0.89627000  0.77553000  0.30376000  1.0
  C  C69  1  0.39626000  0.22447000  0.19624000  1.0
  C  C70  1  0.10371000  0.22451000  0.69622000  1.0
  C  C71  1  0.60374000  0.77548000  0.80378000  1.0
  C  C72  1  0.94465000  0.68227000  0.26761000  1.0
  C  C73  1  0.44463000  0.31773000  0.23239000  1.0
  C  C74  1  0.05534000  0.31775000  0.73240000  1.0
  C  C75  1  0.55537000  0.68224000  0.76761000  1.0
  C  C76  1  0.79474000  0.66200000  0.21839000  1.0
  C  C77  1  0.29473000  0.33800000  0.28161000  1.0
  C  C78  1  0.20525000  0.33801000  0.78161000  1.0
  C  C79  1  0.70526000  0.66198000  0.71839000  1.0
  C  C80  1  0.55339000  0.81694000  0.23962000  1.0
  C  C81  1  0.05339000  0.18306000  0.26038000  1.0
  C  C82  1  0.44660000  0.18307000  0.76036000  1.0
  C  C83  1  0.94661000  0.81692000  0.73963000  1.0
  C  C84  1  0.69356000  0.84313000  0.28934000  1.0
  C  C85  1  0.19356000  0.15688000  0.21067000  1.0
  C  C86  1  0.30643000  0.15691000  0.71064000  1.0
  C  C87  1  0.80645000  0.84308000  0.78936000  1.0
  Br  Br88  1  0.35736000  0.87233000  0.62707000  1.0
  Br  Br89  1  0.85738000  0.12767000  0.87292000  1.0
  Br  Br90  1  0.64265000  0.12769000  0.37294000  1.0
  Br  Br91  1  0.14266000  0.87230000  0.12706000  1.0
  Br  Br92  1  0.24550000  0.51897000  0.62639000  1.0
  Br  Br93  1  0.74541000  0.48103000  0.87363000  1.0
  Br  Br94  1  0.75453000  0.48105000  0.37359000  1.0
  Br  Br95  1  0.25454000  0.51896000  0.12640000  1.0
  N  N96  1  0.87210000  0.73018000  0.55255000  1.0
  N  N97  1  0.37211000  0.26981000  0.94744000  1.0
  N  N98  1  0.12787000  0.26986000  0.44744000  1.0
  N  N99  1  0.62788000  0.73015000  0.05256000  1.0
  N  N100  1  0.60346000  0.72875000  0.20410000  1.0
  N  N101  1  0.10346000  0.27126000  0.29591000  1.0
  N  N102  1  0.39652000  0.27126000  0.79590000  1.0
  N  N103  1  0.89652000  0.72874000  0.70410000  1.0
  N  N104  1  0.21894000  0.73815000  0.38200000  1.0
  N  N105  1  0.71894000  0.26185000  0.11799000  1.0
  N  N106  1  0.78108000  0.26190000  0.61798000  1.0
  N  N107  1  0.28111000  0.73810000  0.88203000  1.0
  N  N108  1  0.06521000  0.90997000  0.37721000  1.0
  N  N109  1  0.56520000  0.09004000  0.12279000  1.0
  N  N110  1  0.93474000  0.09008000  0.62278000  1.0
  N  N111  1  0.43477000  0.90992000  0.87722000  1.0
  N  N112  1  0.23356000  0.91466000  0.42091000  1.0
  N  N113  1  0.73353000  0.08533000  0.07909000  1.0
  N  N114  1  0.76646000  0.08538000  0.57908000  1.0
  N  N115  1  0.26648000  0.91462000  0.92093000  1.0
