# generated using pymatgen
data_Zn4H55C64NO18
_symmetry_space_group_name_H-M   'P 1'
_cell_length_a   15.82730000
_cell_length_b   17.85180000
_cell_length_c   18.10390000
_cell_angle_alpha   62.70410000
_cell_angle_beta   79.42140000
_cell_angle_gamma   74.73770000
_symmetry_Int_Tables_number   1
_chemical_formula_structural   Zn4H55C64NO18
_chemical_formula_sum   'Zn4 H55 C64 N1 O18'
_cell_volume   4373.47944305
_cell_formula_units_Z   1
loop_
 _symmetry_equiv_pos_site_id
 _symmetry_equiv_pos_as_xyz
  1  'x, y, z'
loop_
 _atom_site_type_symbol
 _atom_site_label
 _atom_site_symmetry_multiplicity
 _atom_site_fract_x
 _atom_site_fract_y
 _atom_site_fract_z
 _atom_site_occupancy
  Zn  Zn0  1  0.41461000  0.42511000  0.58561000  1.0
  Zn  Zn1  1  0.57806000  0.43167000  0.44926000  1.0
  Zn  Zn2  1  0.53127000  0.55525000  0.55035000  1.0
  Zn  Zn3  1  0.43044000  0.59644000  0.40226000  1.0
  H  H4  1  0.97857000  0.60752000  0.39937000  1.0
  H  H5  1  0.41852000  0.17180000  0.42222000  1.0
  H  H6  1  0.54683000  0.82306000  0.61139000  1.0
  H  H7  1  0.59537000  0.97784000  0.74892000  1.0
  H  H8  1  0.52371000  0.43997000  0.20736000  1.0
  H  H9  1  0.57506000  0.68477000  0.15490000  1.0
  H  H10  1  0.59162000  0.68863000  0.88745000  1.0
  H  H11  1  0.46763000  0.24171000  0.99314000  1.0
  H  H12  1  0.71768000  0.76991000  0.92756000  1.0
  H  H13  1  0.72768000  0.68608000  0.03073000  1.0
  H  H14  1  0.64021000  0.87490000  0.98772000  1.0
  H  H15  1  0.51823000  0.35900000  0.16290000  1.0
  H  H16  1  0.66000000  0.79237000  0.08888000  1.0
  H  H17  1  0.82423000  0.77462000  0.05064000  1.0
  H  H18  1  0.77631000  0.88160000  0.03639000  1.0
  H  H19  1  0.80435000  0.85774000  0.94897000  1.0
  H  H20  1  0.37514000  0.81941000  0.22696000  1.0
  H  H21  1  0.47061000  0.81895000  0.26506000  1.0
  H  H22  1  0.35397000  0.97701000  0.13994000  1.0
  H  H23  1  0.43839000  0.98361000  0.18741000  1.0
  H  H24  1  0.55027000  0.89163000  0.13006000  1.0
  H  H25  1  0.49502000  0.98299000  0.04784000  1.0
  H  H26  1  0.54857000  0.60041000  0.83453000  1.0
  H  H27  1  0.46820000  0.88105000  0.08276000  1.0
  H  H28  1  0.68601000  0.75942000  0.53195000  1.0
  H  H29  1  0.64524000  0.86709000  0.45934000  1.0
  H  H30  1  0.67347000  0.70399000  0.43243000  1.0
  H  H31  1  0.62634000  0.80868000  0.36041000  1.0
  H  H32  1  0.76629000  0.85892000  0.34455000  1.0
  H  H33  1  0.78694000  0.76966000  0.32036000  1.0
  H  H34  1  0.81419000  0.75473000  0.41764000  1.0
  H  H35  1  0.49886000  0.21478000  0.23880000  1.0
  H  H36  1  0.59967000  0.21933000  0.17483000  1.0
  H  H37  1  0.35221000  0.12863000  0.33955000  1.0
  H  H38  1  0.48272000  0.08804000  0.22514000  1.0
  H  H39  1  0.57429000  0.09678000  0.15153000  1.0
  H  H40  1  0.67487000  0.05998000  0.26066000  1.0
  H  H41  1  0.61196000  0.97938000  0.29483000  1.0
  H  H42  1  0.58402000  0.05683000  0.33545000  1.0
  H  H43  1  0.35567000  0.25572000  0.80949000  1.0
  H  H44  1  0.35479000  0.24584000  0.91229000  1.0
  H  H45  1  0.47808000  0.12537000  0.84231000  1.0
  H  H46  1  0.47444000  0.11450000  0.94488000  1.0
  H  H47  1  0.31703000  0.09378000  0.97012000  1.0
  H  H48  1  0.48957000  0.20514000  0.47637000  1.0
  H  H49  1  0.38867000  0.01571000  0.94054000  1.0
  H  H50  1  0.32126000  0.10526000  0.86678000  1.0
  H  H51  1  0.46015000  0.58135000  0.72384000  1.0
  H  H52  1  0.38411000  0.69516000  0.75495000  1.0
  H  H53  1  0.39428000  0.63067000  0.86327000  1.0
  H  H54  1  0.32009000  0.61405000  0.81148000  1.0
  H  H55  1  0.57335000  0.13324000  0.71652000  1.0
  H  H56  1  0.58512000  0.86544000  0.70979000  1.0
  H  H57  1  0.33243000  0.02064000  0.30275000  1.0
  H  H58  1  0.00112000  0.42982000  0.55227000  1.0
  C  C59  1  0.53519000  0.53875000  0.27879000  1.0
  C  C60  1  0.48606000  0.45243000  0.92421000  1.0
  C  C61  1  0.47982000  0.36536000  0.97929000  1.0
  C  C62  1  0.46059000  0.45088000  0.71874000  1.0
  C  C63  1  0.51485000  0.50277000  0.95553000  1.0
  C  C64  1  0.52132000  0.47065000  0.04265000  1.0
  C  C65  1  0.50984000  0.38515000  0.09674000  1.0
  C  C66  1  0.49296000  0.33348000  0.06604000  1.0
  C  C67  1  0.54485000  0.58054000  0.90131000  1.0
  C  C68  1  0.56947000  0.62946000  0.93050000  1.0
  C  C69  1  0.56363000  0.60568000  0.01725000  1.0
  C  C70  1  0.10059000  0.54311000  0.45684000  1.0
  C  C71  1  0.54163000  0.52457000  0.07473000  1.0
  C  C72  1  0.57930000  0.66117000  0.04776000  1.0
  C  C73  1  0.56886000  0.63989000  0.13193000  1.0
  C  C74  1  0.52130000  0.27085000  0.56902000  1.0
  C  C75  1  0.53891000  0.50136000  0.16094000  1.0
  C  C76  1  0.44602000  0.82090000  0.42359000  1.0
  C  C77  1  0.53025000  0.17719000  0.59357000  1.0
  C  C78  1  0.37470000  0.97095000  0.35097000  1.0
  C  C79  1  0.39034000  0.88713000  0.36089000  1.0
  C  C80  1  0.48982000  0.84457000  0.46837000  1.0
  C  C81  1  0.87910000  0.49073000  0.49626000  1.0
  C  C82  1  0.46884000  0.92918000  0.46391000  1.0
  C  C83  1  0.41172000  0.99311000  0.40140000  1.0
  C  C84  1  0.49946000  0.95324000  0.51951000  1.0
  C  C85  1  0.48374000  0.04174000  0.50196000  1.0
  C  C86  1  0.45484000  0.72803000  0.44559000  1.0
  C  C87  1  0.43236000  0.10426000  0.43440000  1.0
  C  C88  1  0.39513000  0.08060000  0.38810000  1.0
  C  C89  1  0.53778000  0.89098000  0.59574000  1.0
  C  C90  1  0.55928000  0.91477000  0.65075000  1.0
  C  C91  1  0.54848000  0.00287000  0.63318000  1.0
  C  C92  1  0.17787000  0.53647000  0.46342000  1.0
  C  C93  1  0.51368000  0.06721000  0.55630000  1.0
  C  C94  1  0.56994000  0.02796000  0.69006000  1.0
  C  C95  1  0.55853000  0.11379000  0.67212000  1.0
  C  C96  1  0.50930000  0.15420000  0.53683000  1.0
  C  C97  1  0.71080000  0.49562000  0.49049000  1.0
  C  C98  1  0.26869000  0.52676000  0.47349000  1.0
  C  C99  1  0.80257000  0.49187000  0.49234000  1.0
  C  C100  1  0.96713000  0.48720000  0.50225000  1.0
  C  C101  1  0.01193000  0.54999000  0.44960000  1.0
  C  C102  1  0.68795000  0.74894000  0.99212000  1.0
  C  C103  1  0.46460000  0.42298000  0.80917000  1.0
  C  C104  1  0.68618000  0.81531000  0.02331000  1.0
  C  C105  1  0.77771000  0.83327000  0.01439000  1.0
  C  C106  1  0.40629000  0.85801000  0.24258000  1.0
  C  C107  1  0.41734000  0.94206000  0.16738000  1.0
  C  C108  1  0.48622000  0.92359000  0.10337000  1.0
  C  C109  1  0.64369000  0.79892000  0.47989000  1.0
  C  C110  1  0.67386000  0.77272000  0.40871000  1.0
  C  C111  1  0.76530000  0.79003000  0.37077000  1.0
  C  C112  1  0.53564000  0.20042000  0.18714000  1.0
  C  C113  1  0.54752000  0.10562000  0.20825000  1.0
  C  C114  1  0.54966000  0.55879000  0.18868000  1.0
  C  C115  1  0.60797000  0.04742000  0.27874000  1.0
  C  C116  1  0.39627000  0.23199000  0.86228000  1.0
  C  C117  1  0.43386000  0.13614000  0.89262000  1.0
  C  C118  1  0.36127000  0.08491000  0.91897000  1.0
  C  C119  1  0.38466000  0.63009000  0.80508000  1.0
  C  C120  1  0.46788000  0.30850000  0.94974000  1.0
  C  C121  1  0.46461000  0.33592000  0.86527000  1.0
  C  C122  1  0.46968000  0.48272000  0.83845000  1.0
  N  N123  1  0.45627000  0.57015000  0.78455000  1.0
  O  O124  1  0.48882000  0.49889000  0.49795000  1.0
  O  O125  1  0.69291000  0.44702000  0.46407000  1.0
  O  O126  1  0.30843000  0.58352000  0.41587000  1.0
  O  O127  1  0.65793000  0.54811000  0.51580000  1.0
  O  O128  1  0.29941000  0.46229000  0.53903000  1.0
  O  O129  1  0.60109000  0.73822000  0.98970000  1.0
  O  O130  1  0.34983000  0.87057000  0.31077000  1.0
  O  O131  1  0.55615000  0.78386000  0.51557000  1.0
  O  O132  1  0.48857000  0.24879000  0.11297000  1.0
  O  O133  1  0.46547000  0.28022000  0.83230000  1.0
  O  O134  1  0.46716000  0.30260000  0.61386000  1.0
  O  O135  1  0.44626000  0.70739000  0.38899000  1.0
  O  O136  1  0.56517000  0.46226000  0.33196000  1.0
  O  O137  1  0.51622000  0.49736000  0.67129000  1.0
  O  O138  1  0.49314000  0.60106000  0.29628000  1.0
  O  O139  1  0.40481000  0.42922000  0.69369000  1.0
  O  O140  1  0.56773000  0.31072000  0.50388000  1.0
  O  O141  1  0.46771000  0.67400000  0.52137000  1.0
