# generated using pymatgen
data_Ag3H4C5N7
_symmetry_space_group_name_H-M   'P 1'
_cell_length_a   8.20029000
_cell_length_b   8.44194000
_cell_length_c   8.76796000
_cell_angle_alpha   64.64740000
_cell_angle_beta   63.86560000
_cell_angle_gamma   62.94360000
_symmetry_Int_Tables_number   1
_chemical_formula_structural   Ag3H4C5N7
_chemical_formula_sum   'Ag6 H8 C10 N14'
_cell_volume   465.16248413
_cell_formula_units_Z   2
loop_
 _symmetry_equiv_pos_site_id
 _symmetry_equiv_pos_as_xyz
  1  'x, y, z'
loop_
 _atom_site_type_symbol
 _atom_site_label
 _atom_site_symmetry_multiplicity
 _atom_site_fract_x
 _atom_site_fract_y
 _atom_site_fract_z
 _atom_site_occupancy
  Ag  Ag0  1  0.65808000  0.39146000  0.74864000  1.0
  Ag  Ag1  1  0.34193000  0.60854000  0.25136000  1.0
  Ag  Ag2  1  0.17230000  0.74379000  0.96048000  1.0
  Ag  Ag3  1  0.82770000  0.25621000  0.03952000  1.0
  Ag  Ag4  1  0.71855000  0.20680000  0.48275000  1.0
  Ag  Ag5  1  0.28145000  0.79320000  0.51725000  1.0
  H  H6  1  0.74686000  0.78316000  0.93992000  1.0
  H  H7  1  0.25314000  0.21684000  0.06008000  1.0
  H  H8  1  0.82887000  0.76774000  0.48000000  1.0
  H  H9  1  0.17113000  0.23226000  0.52000000  1.0
  H  H10  1  0.00002000  0.46078000  0.34769000  1.0
  H  H11  1  0.99997000  0.53922000  0.65231000  1.0
  H  H12  1  0.36818000  0.05933000  0.83043000  1.0
  H  H13  1  0.63182000  0.94068000  0.16957000  1.0
  C  C14  1  0.86853000  0.13878000  0.74062000  1.0
  C  C15  1  0.13147000  0.86122000  0.25936000  1.0
  C  C16  1  0.77492000  0.68374000  0.06226000  1.0
  C  C17  1  0.22508000  0.31626000  0.93774000  1.0
  C  C18  1  0.70091000  0.80221000  0.58920000  1.0
  C  C19  1  0.29909000  0.19779000  0.41080000  1.0
  C  C20  1  0.90393000  0.52075000  0.26892000  1.0
  C  C21  1  0.09606000  0.47925000  0.73108000  1.0
  C  C22  1  0.46748000  0.95199000  0.76547000  1.0
  C  C23  1  0.53251000  0.04802000  0.23454000  1.0
  N  N24  1  0.66834000  0.57608000  0.18066000  1.0
  N  N25  1  0.33166000  0.42392000  0.81934000  1.0
  N  N26  1  0.98746000  0.99110000  0.74547000  1.0
  N  N27  1  0.01255000  0.00890000  0.25452000  1.0
  N  N28  1  0.59625000  0.69084000  0.70108000  1.0
  N  N29  1  0.40375000  0.30915000  0.29892000  1.0
  N  N30  1  0.44505000  0.78841000  0.81482000  1.0
  N  N31  1  0.55495000  0.21159000  0.18518000  1.0
  N  N32  1  0.62612000  0.96686000  0.62498000  1.0
  N  N33  1  0.37388000  0.03314000  0.37502000  1.0
  N  N34  1  0.75288000  0.47010000  0.31405000  1.0
  N  N35  1  0.24712000  0.52990000  0.68595000  1.0
  N  N36  1  0.92389000  0.65403000  0.11239000  1.0
  N  N37  1  0.07611000  0.34597000  0.88762000  1.0
