# generated using pymatgen
data_NiH8C12(SN2)2
_symmetry_space_group_name_H-M   'P 1'
_cell_length_a   8.44443000
_cell_length_b   8.44640000
_cell_length_c   10.41450000
_cell_angle_alpha   72.15820000
_cell_angle_beta   72.12180000
_cell_angle_gamma   69.88150000
_symmetry_Int_Tables_number   1
_chemical_formula_structural   NiH8C12(SN2)2
_chemical_formula_sum   'Ni2 H16 C24 S4 N8'
_cell_volume   646.83558879
_cell_formula_units_Z   2
loop_
 _symmetry_equiv_pos_site_id
 _symmetry_equiv_pos_as_xyz
  1  'x, y, z'
loop_
 _atom_site_type_symbol
 _atom_site_label
 _atom_site_symmetry_multiplicity
 _atom_site_fract_x
 _atom_site_fract_y
 _atom_site_fract_z
 _atom_site_occupancy
  Ni  Ni0  1  0.62966000  0.37014000  0.25007000  1.0
  Ni  Ni1  1  0.37018000  0.62994000  0.74994000  1.0
  H  H2  1  0.80912000  0.49090000  0.39779000  1.0
  H  H3  1  0.50901000  0.19073000  0.10232000  1.0
  H  H4  1  0.19037000  0.50875000  0.60279000  1.0
  H  H5  1  0.49128000  0.80953000  0.89734000  1.0
  H  H6  1  0.09382000  0.36511000  0.46670000  1.0
  H  H7  1  0.63496000  0.90611000  0.03322000  1.0
  H  H8  1  0.90502000  0.63390000  0.53491000  1.0
  H  H9  1  0.36608000  0.09487000  0.96529000  1.0
  H  H10  1  0.28456000  0.08024000  0.41341000  1.0
  H  H11  1  0.91992000  0.71548000  0.08634000  1.0
  H  H12  1  0.71412000  0.91846000  0.58873000  1.0
  H  H13  1  0.08163000  0.28588000  0.91139000  1.0
  H  H14  1  0.18322000  0.93186000  0.29490000  1.0
  H  H15  1  0.06817000  0.81681000  0.20496000  1.0
  H  H16  1  0.81601000  0.06727000  0.70656000  1.0
  H  H17  1  0.93281000  0.18410000  0.79355000  1.0
  C  C18  1  0.45165000  0.32561000  0.62841000  1.0
  C  C19  1  0.67445000  0.54836000  0.87153000  1.0
  C  C20  1  0.54864000  0.67461000  0.37131000  1.0
  C  C21  1  0.32528000  0.45120000  0.12874000  1.0
  C  C22  1  0.89456000  0.36759000  0.37687000  1.0
  C  C23  1  0.63239000  0.10535000  0.12312000  1.0
  C  C24  1  0.10497000  0.63198000  0.62374000  1.0
  C  C25  1  0.36806000  0.89501000  0.87635000  1.0
  C  C26  1  0.05245000  0.29640000  0.41558000  1.0
  C  C27  1  0.70363000  0.94751000  0.08434000  1.0
  C  C28  1  0.94674000  0.70285000  0.58562000  1.0
  C  C29  1  0.29720000  0.05323000  0.91449000  1.0
  C  C30  1  0.15928000  0.13882000  0.38565000  1.0
  C  C31  1  0.86127000  0.84070000  0.11420000  1.0
  C  C32  1  0.83975000  0.86023000  0.61590000  1.0
  C  C33  1  0.13987000  0.16027000  0.88416000  1.0
  C  C34  1  0.10310000  0.05590000  0.31890000  1.0
  C  C35  1  0.94411000  0.89687000  0.18101000  1.0
  C  C36  1  0.89619000  0.94345000  0.68218000  1.0
  C  C37  1  0.05663000  0.10391000  0.81783000  1.0
  C  C38  1  0.94244000  0.13204000  0.28387000  1.0
  C  C39  1  0.86795000  0.05757000  0.21606000  1.0
  C  C40  1  0.05737000  0.86782000  0.71641000  1.0
  C  C41  1  0.13228000  0.94275000  0.78358000  1.0
  S  S42  1  0.46233000  0.18916000  0.54450000  1.0
  S  S43  1  0.81079000  0.53761000  0.95554000  1.0
  S  S44  1  0.53832000  0.81117000  0.45496000  1.0
  S  S45  1  0.18886000  0.46168000  0.04490000  1.0
  N  N46  1  0.43585000  0.42747000  0.69178000  1.0
  N  N47  1  0.57256000  0.56428000  0.80815000  1.0
  N  N48  1  0.56396000  0.57269000  0.30814000  1.0
  N  N49  1  0.42714000  0.43578000  0.19196000  1.0
  N  N50  1  0.83935000  0.28789000  0.31173000  1.0
  N  N51  1  0.71208000  0.16056000  0.18827000  1.0
  N  N52  1  0.16045000  0.71198000  0.68847000  1.0
  N  N53  1  0.28811000  0.83962000  0.81153000  1.0
