# generated using pymatgen
data_CuH4C3S(NCl)2
_symmetry_space_group_name_H-M   'P 1'
_cell_length_a   7.10515000
_cell_length_b   7.97870000
_cell_length_c   11.77910000
_cell_angle_alpha   89.99930000
_cell_angle_beta   89.99960000
_cell_angle_gamma   79.72600000
_symmetry_Int_Tables_number   1
_chemical_formula_structural   CuH4C3S(NCl)2
_chemical_formula_sum   'Cu4 H16 C12 S4 N8 Cl8'
_cell_volume   657.04879099
_cell_formula_units_Z   4
loop_
 _symmetry_equiv_pos_site_id
 _symmetry_equiv_pos_as_xyz
  1  'x, y, z'
loop_
 _atom_site_type_symbol
 _atom_site_label
 _atom_site_symmetry_multiplicity
 _atom_site_fract_x
 _atom_site_fract_y
 _atom_site_fract_z
 _atom_site_occupancy
  Cu  Cu0  1  0.68780000  0.77004000  0.26430000  1.0
  Cu  Cu1  1  0.18780000  0.77005000  0.23570000  1.0
  Cu  Cu2  1  0.31220000  0.22995000  0.73570000  1.0
  Cu  Cu3  1  0.81220000  0.22995000  0.76430000  1.0
  H  H4  1  0.60442000  0.68148000  0.01952000  1.0
  H  H5  1  0.10441000  0.68150000  0.48049000  1.0
  H  H6  1  0.39559000  0.31850000  0.98048000  1.0
  H  H7  1  0.89559000  0.31852000  0.51952000  1.0
  H  H8  1  0.32452000  0.85192000  0.00843000  1.0
  H  H9  1  0.82452000  0.85190000  0.49157000  1.0
  H  H10  1  0.67547000  0.14810000  0.99157000  1.0
  H  H11  1  0.17549000  0.14808000  0.50842000  1.0
  H  H12  1  0.22434000  0.87244000  0.86837000  1.0
  H  H13  1  0.72436000  0.87242000  0.63162000  1.0
  H  H14  1  0.77563000  0.12758000  0.13163000  1.0
  H  H15  1  0.27568000  0.12756000  0.36837000  1.0
  H  H16  1  0.33840000  0.67029000  0.91682000  1.0
  H  H17  1  0.83840000  0.67027000  0.58317000  1.0
  H  H18  1  0.66160000  0.32973000  0.08317000  1.0
  H  H19  1  0.16160000  0.32971000  0.41681000  1.0
  C  C20  1  0.06482000  0.75965000  0.98939000  1.0
  C  C21  1  0.56481000  0.75964000  0.51062000  1.0
  C  C22  1  0.93518000  0.24034000  0.01061000  1.0
  C  C23  1  0.43519000  0.24035000  0.48938000  1.0
  C  C24  1  0.74866000  0.70857000  0.02036000  1.0
  C  C25  1  0.24866000  0.70859000  0.47964000  1.0
  C  C26  1  0.25133000  0.29141000  0.97964000  1.0
  C  C27  1  0.75135000  0.29143000  0.52036000  1.0
  C  C28  1  0.24877000  0.79073000  0.94386000  1.0
  C  C29  1  0.74877000  0.79071000  0.55613000  1.0
  C  C30  1  0.75121000  0.20929000  0.05614000  1.0
  C  C31  1  0.25124000  0.20928000  0.44386000  1.0
  S  S32  1  0.88782000  0.70870000  0.90306000  1.0
  S  S33  1  0.38781000  0.70871000  0.59693000  1.0
  S  S34  1  0.11219000  0.29129000  0.09693000  1.0
  S  S35  1  0.61219000  0.29131000  0.40307000  1.0
  N  N36  1  0.83158000  0.74348000  0.11458000  1.0
  N  N37  1  0.33156000  0.74347000  0.38543000  1.0
  N  N38  1  0.16843000  0.25653000  0.88543000  1.0
  N  N39  1  0.66842000  0.25653000  0.61458000  1.0
  N  N40  1  0.01497000  0.76864000  0.09793000  1.0
  N  N41  1  0.51496000  0.76863000  0.40207000  1.0
  N  N42  1  0.98504000  0.23136000  0.90207000  1.0
  N  N43  1  0.48503000  0.23137000  0.59793000  1.0
  Cl  Cl44  1  0.45640000  0.97797000  0.19003000  1.0
  Cl  Cl45  1  0.95639000  0.97797000  0.30997000  1.0
  Cl  Cl46  1  0.54361000  0.02203000  0.80997000  1.0
  Cl  Cl47  1  0.04360000  0.02202000  0.69003000  1.0
  Cl  Cl48  1  0.90280000  0.54036000  0.32705000  1.0
  Cl  Cl49  1  0.40280000  0.54035000  0.17295000  1.0
  Cl  Cl50  1  0.09720000  0.45964000  0.67295000  1.0
  Cl  Cl51  1  0.59720000  0.45965000  0.82705000  1.0
