# generated using pymatgen
data_SrH18C16N2O11
_symmetry_space_group_name_H-M   'P 1'
_cell_length_a   7.85302000
_cell_length_b   11.00060000
_cell_length_c   14.77598069
_cell_angle_alpha   69.06163097
_cell_angle_beta   82.70944824
_cell_angle_gamma   86.59270000
_symmetry_Int_Tables_number   1
_chemical_formula_structural   SrH18C16N2O11
_chemical_formula_sum   'Sr2 H36 C32 N4 O22'
_cell_volume   1182.40048357
_cell_formula_units_Z   2
loop_
 _symmetry_equiv_pos_site_id
 _symmetry_equiv_pos_as_xyz
  1  'x, y, z'
loop_
 _atom_site_type_symbol
 _atom_site_label
 _atom_site_symmetry_multiplicity
 _atom_site_fract_x
 _atom_site_fract_y
 _atom_site_fract_z
 _atom_site_occupancy
  Sr  Sr0  1  0.76306000  0.43784000  0.98446000  1.0
  Sr  Sr1  1  0.23707000  0.56207000  0.01550000  1.0
  H  H2  1  0.00491000  0.89428000  0.81421000  1.0
  H  H3  1  0.49046000  0.69150000  0.18973000  1.0
  H  H4  1  0.99433000  0.10592000  0.18591000  1.0
  H  H5  1  0.50996000  0.30848000  0.81021000  1.0
  H  H6  1  0.13048000  0.77659000  0.77843000  1.0
  H  H7  1  0.37540000  0.54476000  0.23414000  1.0
  H  H8  1  0.86925000  0.22387000  0.22160000  1.0
  H  H9  1  0.62488000  0.45529000  0.76589000  1.0
  H  H10  1  0.79285000  0.02931000  0.71183000  1.0
  H  H11  1  0.70187000  0.72794000  0.28615000  1.0
  H  H12  1  0.20642000  0.97070000  0.28821000  1.0
  H  H13  1  0.29861000  0.27204000  0.71377000  1.0
  H  H14  1  0.66210000  0.09741000  0.55641000  1.0
  H  H15  1  0.83143000  0.65470000  0.44137000  1.0
  H  H16  1  0.33722000  0.90249000  0.44363000  1.0
  H  H17  1  0.16894000  0.34529000  0.55860000  1.0
  H  H18  1  0.91821000  0.77908000  0.48888000  1.0
  H  H19  1  0.61393000  0.27619000  0.52112000  1.0
  H  H20  1  0.08170000  0.22102000  0.51118000  1.0
  H  H21  1  0.38644000  0.72379000  0.47887000  1.0
  H  H22  1  0.04350000  0.70588000  0.64653000  1.0
  H  H23  1  0.48453000  0.34807000  0.36440000  1.0
  H  H24  1  0.95647000  0.29436000  0.35350000  1.0
  H  H25  1  0.51591000  0.65192000  0.63556000  1.0
  H  H26  1  0.79416000  0.12720000  0.02880000  1.0
  H  H27  1  0.64207000  0.17097000  0.09269000  1.0
  H  H28  1  0.20581000  0.87270000  0.97122000  1.0
  H  H29  1  0.35787000  0.82899000  0.90727000  1.0
  H  H30  1  0.06745000  0.44814000  0.82582000  1.0
  H  H31  1  0.42795000  0.23867000  0.18755000  1.0
  H  H32  1  0.93265000  0.55181000  0.17414000  1.0
  H  H33  1  0.57194000  0.76128000  0.81241000  1.0
  H  H34  1  0.92900000  0.42969000  0.76330000  1.0
  H  H35  1  0.55848000  0.15157000  0.26053000  1.0
  H  H36  1  0.07110000  0.57028000  0.23665000  1.0
  H  H37  1  0.44135000  0.84828000  0.73944000  1.0
  C  C38  1  0.89472000  0.70414000  0.86362000  1.0
  C  C39  1  0.60556000  0.53965000  0.14320000  1.0
  C  C40  1  0.10515000  0.29586000  0.13639000  1.0
  C  C41  1  0.39461000  0.46020000  0.85682000  1.0
  C  C42  1  0.99899000  0.81514000  0.78566000  1.0
  C  C43  1  0.50477000  0.58503000  0.22154000  1.0
  C  C44  1  0.00062000  0.18507000  0.21438000  1.0
  C  C45  1  0.49558000  0.41494000  0.77844000  1.0
  C  C46  1  0.92617000  0.86209000  0.69023000  1.0
  C  C47  1  0.58458000  0.54287000  0.31454000  1.0
  C  C48  1  0.07340000  0.13807000  0.30982000  1.0
  C  C49  1  0.41582000  0.45709000  0.68543000  1.0
  C  C50  1  0.81895000  0.97296000  0.66397000  1.0
  C  C51  1  0.68376000  0.62819000  0.33678000  1.0
  C  C52  1  0.18043000  0.02707000  0.33610000  1.0
  C  C53  1  0.31666000  0.37178000  0.66318000  1.0
  C  C54  1  0.74585000  0.01236000  0.57713000  1.0
  C  C55  1  0.75737000  0.58792000  0.42355000  1.0
  C  C56  1  0.25361000  0.98757000  0.42293000  1.0
  C  C57  1  0.24302000  0.41208000  0.57641000  1.0
  C  C58  1  0.78134000  0.94089000  0.51537000  1.0
  C  C59  1  0.73231000  0.46041000  0.48844000  1.0
  C  C60  1  0.21833000  0.05910000  0.48465000  1.0
  C  C61  1  0.26804000  0.53960000  0.51154000  1.0
  C  C62  1  0.88869000  0.83068000  0.53941000  1.0
  C  C63  1  0.63544000  0.37316000  0.46765000  1.0
  C  C64  1  0.11113000  0.16940000  0.46062000  1.0
  C  C65  1  0.36495000  0.62683000  0.53232000  1.0
  C  C66  1  0.95957000  0.79171000  0.62691000  1.0
  C  C67  1  0.56257000  0.41475000  0.38073000  1.0
  C  C68  1  0.04022000  0.20848000  0.37311000  1.0
  C  C69  1  0.43784000  0.58523000  0.61923000  1.0
  N  N70  1  0.70773000  0.98320000  0.42353000  1.0
  N  N71  1  0.80329000  0.41748000  0.58126000  1.0
  N  N72  1  0.29197000  0.01676000  0.57648000  1.0
  N  N73  1  0.19701000  0.58257000  0.41872000  1.0
  O  O74  1  0.95925000  0.64583000  0.94292000  1.0
  O  O75  1  0.53139000  0.55609000  0.06805000  1.0
  O  O76  1  0.04080000  0.35407000  0.05703000  1.0
  O  O77  1  0.46870000  0.44376000  0.93199000  1.0
  O  O78  1  0.75354000  0.67179000  0.84592000  1.0
  O  O79  1  0.75343000  0.48758000  0.15500000  1.0
  O  O80  1  0.24633000  0.32815000  0.15414000  1.0
  O  O81  1  0.24673000  0.51223000  0.84501000  1.0
  O  O82  1  0.62870000  0.09034000  0.39806000  1.0
  O  O83  1  0.86333000  0.50127000  0.60709000  1.0
  O  O84  1  0.37101000  0.90961000  0.60192000  1.0
  O  O85  1  0.13696000  0.49879000  0.39289000  1.0
  O  O86  1  0.72593000  0.91223000  0.37355000  1.0
  O  O87  1  0.80054000  0.29942000  0.63159000  1.0
  O  O88  1  0.27386000  0.08770000  0.62649000  1.0
  O  O89  1  0.19973000  0.70064000  0.36841000  1.0
  O  O90  1  0.70271000  0.19143000  0.02519000  1.0
  O  O91  1  0.29729000  0.80850000  0.97480000  1.0
  O  O92  1  0.95111000  0.41325000  0.83020000  1.0
  O  O93  1  0.54540000  0.19922000  0.19180000  1.0
  O  O94  1  0.04894000  0.58678000  0.16974000  1.0
  O  O95  1  0.45448000  0.80070000  0.80817000  1.0
