# generated using pymatgen
data_Al3H23C48NO17
_symmetry_space_group_name_H-M   'P 1'
_cell_length_a   12.15930000
_cell_length_b   12.41017925
_cell_length_c   27.85530000
_cell_angle_alpha   88.89533543
_cell_angle_beta   89.37800000
_cell_angle_gamma   62.10918398
_symmetry_Int_Tables_number   1
_chemical_formula_structural   Al3H23C48NO17
_chemical_formula_sum   'Al6 H46 C96 N2 O34'
_cell_volume   3714.38370726
_cell_formula_units_Z   2
loop_
 _symmetry_equiv_pos_site_id
 _symmetry_equiv_pos_as_xyz
  1  'x, y, z'
loop_
 _atom_site_type_symbol
 _atom_site_label
 _atom_site_symmetry_multiplicity
 _atom_site_fract_x
 _atom_site_fract_y
 _atom_site_fract_z
 _atom_site_occupancy
  Al  Al0  1  0.39786000  0.40324000  0.50106000  1.0
  Al  Al1  1  0.41378000  0.65357000  0.50148000  1.0
  Al  Al2  1  0.65246000  0.41961000  0.50147000  1.0
  Al  Al3  1  0.93280000  0.90862000  0.01566000  1.0
  Al  Al4  1  0.66780000  0.91204000  0.01639000  1.0
  Al  Al5  1  0.89649000  0.66869000  0.01875000  1.0
  H  H6  1  0.48199000  0.86484000  0.78121000  1.0
  H  H7  1  0.45150000  0.27940000  0.79045000  1.0
  H  H8  1  0.09968000  0.49529000  0.78042000  1.0
  H  H9  1  0.98020000  0.70292000  0.71801000  1.0
  H  H10  1  0.33042000  0.44298000  0.73638000  1.0
  H  H11  1  0.36731000  0.58780000  0.80603000  1.0
  H  H12  1  0.24703000  0.79506000  0.74376000  1.0
  H  H13  1  0.01530000  0.84660000  0.78748000  1.0
  H  H14  1  0.66252000  0.84454000  0.71274000  1.0
  H  H15  1  0.46925000  0.80736000  0.38349000  1.0
  H  H16  1  0.40666000  0.97041000  0.22229000  1.0
  H  H17  1  0.83054000  0.53585000  0.13607000  1.0
  H  H18  1  0.91105000  0.40727000  0.21017000  1.0
  H  H19  1  0.90271000  0.38446000  0.29810000  1.0
  H  H20  1  0.79410000  0.45912000  0.37514000  1.0
  H  H21  1  0.88552000  0.07036000  0.13912000  1.0
  H  H22  1  0.97113000  0.11318000  0.21337000  1.0
  H  H23  1  0.46690000  0.66607000  0.73831000  1.0
  H  H24  1  0.95210000  0.16405000  0.29788000  1.0
  H  H25  1  0.51877000  0.10220000  0.14054000  1.0
  H  H26  1  0.38453000  0.17639000  0.21407000  1.0
  H  H27  1  0.36255000  0.23153000  0.29964000  1.0
  H  H28  1  0.45265000  0.26346000  0.37431000  1.0
  H  H29  1  0.07839000  0.51142000  0.14618000  1.0
  H  H30  1  0.21314000  0.47593000  0.38708000  1.0
  H  H31  1  0.10803000  0.84049000  0.13531000  1.0
  H  H32  1  0.16516000  0.92144000  0.20626000  1.0
  H  H33  1  0.21177000  0.90985000  0.29348000  1.0
  H  H34  1  0.24284000  0.80436000  0.37203000  1.0
  H  H35  1  0.84008000  0.48151000  0.73170000  1.0
  H  H36  1  0.85275000  0.68082000  0.77490000  1.0
  H  H37  1  0.79610000  0.24612000  0.79574000  1.0
  H  H38  1  0.87921000  0.05576000  0.72872000  1.0
  H  H39  1  0.57727000  0.38343000  0.73590000  1.0
  H  H40  1  0.50101000  0.10837000  0.68598000  1.0
  H  H41  1  0.73175000  0.91481000  0.81361000  1.0
  H  H42  1  0.40884000  0.94081000  0.15888000  1.0
  H  H43  1  0.40510000  0.97283000  0.34919000  1.0
  H  H44  1  0.34357000  0.05181000  0.29847000  1.0
  H  H45  1  0.83499000  0.23512000  0.41618000  1.0
  H  H46  1  0.93358000  0.17495000  0.36678000  1.0
  H  H47  1  0.13453000  0.37597000  0.18783000  1.0
  H  H48  1  0.16581000  0.38041000  0.35178000  1.0
  H  H49  1  0.66722000  0.41999000  0.79011000  1.0
  H  H50  1  0.28806000  0.30225000  0.52976000  1.0
  H  H51  1  0.06147000  0.98810000  0.98561000  1.0
  C  C52  1  0.27742000  0.60543000  0.57178000  1.0
  C  C53  1  0.63100000  0.63483000  0.61567000  1.0
  C  C54  1  0.76765000  0.67662000  0.76619000  1.0
  C  C55  1  0.66640000  0.68907000  0.80533000  1.0
  C  C56  1  0.76065000  0.56644000  0.74305000  1.0
  C  C57  1  0.65433000  0.65737000  0.70828000  1.0
  C  C58  1  0.65893000  0.57854000  0.78098000  1.0
  C  C59  1  0.55236000  0.67005000  0.74692000  1.0
  C  C60  1  0.67700000  0.70020000  0.85524000  1.0
  C  C61  1  0.64350000  0.64457000  0.65852000  1.0
  C  C62  1  0.78449000  0.10554000  0.74268000  1.0
  C  C63  1  0.60302000  0.61159000  0.56836000  1.0
  C  C64  1  0.73711000  0.21285000  0.77891000  1.0
  C  C65  1  0.68278000  0.10323000  0.90066000  1.0
  C  C66  1  0.64812000  0.22128000  0.61696000  1.0
  C  C67  1  0.71414000  0.04722000  0.77126000  1.0
  C  C68  1  0.66420000  0.15667000  0.80846000  1.0
  C  C69  1  0.59328000  0.12229000  0.73945000  1.0
  C  C70  1  0.66625000  0.18010000  0.71025000  1.0
  C  C71  1  0.54588000  0.23030000  0.77607000  1.0
  C  C72  1  0.61724000  0.28774000  0.74747000  1.0
  C  C73  1  0.66939000  0.13404000  0.85844000  1.0
  C  C74  1  0.62014000  0.27260000  0.56902000  1.0
  C  C75  1  0.66053000  0.19878000  0.65997000  1.0
  C  C76  1  0.06565000  0.67666000  0.73829000  1.0
  C  C77  1  0.13245000  0.56183000  0.77188000  1.0
  C  C78  1  0.10413000  0.65704000  0.90312000  1.0
  C  C79  1  0.23343000  0.63402000  0.62030000  1.0
  C  C80  1  0.08641000  0.75757000  0.77557000  1.0
  C  C81  1  0.15257000  0.64280000  0.81053000  1.0
  C  C82  1  0.21451000  0.72823000  0.75222000  1.0
  C  C83  1  0.19458000  0.64702000  0.71358000  1.0
  C  C84  1  0.28163000  0.61339000  0.78589000  1.0
  C  C85  1  0.27226000  0.62048000  0.43374000  1.0
  C  C86  1  0.26062000  0.53251000  0.74851000  1.0
  C  C87  1  0.12919000  0.64608000  0.86042000  1.0
  C  C88  1  0.21473000  0.64400000  0.66348000  1.0
  C  C89  1  0.54475000  0.74176000  0.36157000  1.0
  C  C90  1  0.55212000  0.76147000  0.31221000  1.0
  C  C91  1  0.56126000  0.78774000  0.21032000  1.0
  C  C92  1  0.47109000  0.88300000  0.23880000  1.0
  C  C93  1  0.46658000  0.87372000  0.28809000  1.0
  C  C94  1  0.56580000  0.79818000  0.15949000  1.0
  C  C95  1  0.66630000  0.70857000  0.13308000  1.0
  C  C96  1  0.61176000  0.60712000  0.43443000  1.0
  C  C97  1  0.72848000  0.54361000  0.35739000  1.0
  C  C98  1  0.73751000  0.55856000  0.30776000  1.0
  C  C99  1  0.64710000  0.66754000  0.28437000  1.0
  C  C100  1  0.83335000  0.46581000  0.27966000  1.0
  C  C101  1  0.83803000  0.47879000  0.23110000  1.0
  C  C102  1  0.74866000  0.58606000  0.20657000  1.0
  C  C103  1  0.65242000  0.68043000  0.23368000  1.0
  C  C104  1  0.75458000  0.60360000  0.15716000  1.0
  C  C105  1  0.63147000  0.63322000  0.38388000  1.0
  C  C106  1  0.75081000  0.21549000  0.35674000  1.0
  C  C107  1  0.60700000  0.28855000  0.43022000  1.0
  C  C108  1  0.76407000  0.18437000  0.30696000  1.0
  C  C109  1  0.78870000  0.12366000  0.20749000  1.0
  C  C110  1  0.88634000  0.13086000  0.23290000  1.0
  C  C111  1  0.87474000  0.15911000  0.28050000  1.0
  C  C112  1  0.80034000  0.09134000  0.15900000  1.0
  C  C113  1  0.70366000  0.08302000  0.13558000  1.0
  C  C114  1  0.53888000  0.24035000  0.35485000  1.0
  C  C115  1  0.55005000  0.20814000  0.30675000  1.0
  C  C116  1  0.66418000  0.18029000  0.28228000  1.0
  C  C117  1  0.45032000  0.20544000  0.28082000  1.0
  C  C118  1  0.66213000  0.76813000  0.73259000  1.0
  C  C119  1  0.46257000  0.17498000  0.23356000  1.0
  C  C120  1  0.57622000  0.14444000  0.20797000  1.0
  C  C121  1  0.67638000  0.14943000  0.23276000  1.0
  C  C122  1  0.59228000  0.11009000  0.15973000  1.0
  C  C123  1  0.63523000  0.24569000  0.38024000  1.0
  C  C124  1  0.20434000  0.54999000  0.36294000  1.0
  C  C125  1  0.17723000  0.55435000  0.31399000  1.0
  C  C126  1  0.13242000  0.56351000  0.21322000  1.0
  C  C127  1  0.14287000  0.46249000  0.24252000  1.0
  C  C128  1  0.15795000  0.46133000  0.29151000  1.0
  C  C129  1  0.56096000  0.77957000  0.77006000  1.0
  C  C130  1  0.10116000  0.57566000  0.16435000  1.0
  C  C131  1  0.09115000  0.67593000  0.13713000  1.0
  C  C132  1  0.22282000  0.73657000  0.35555000  1.0
  C  C133  1  0.19613000  0.74445000  0.30637000  1.0
  C  C134  1  0.17453000  0.65218000  0.28499000  1.0
  C  C135  1  0.19269000  0.84160000  0.27671000  1.0
  C  C136  1  0.16814000  0.84728000  0.22883000  1.0
  C  C137  1  0.14534000  0.75665000  0.20648000  1.0
  C  C138  1  0.15098000  0.65730000  0.23508000  1.0
  C  C139  1  0.11576000  0.76422000  0.15769000  1.0
  C  C140  1  0.68832000  0.70782000  0.89833000  1.0
  C  C141  1  0.22813000  0.63938000  0.38331000  1.0
  C  C142  1  0.71348000  0.04905000  0.94807000  1.0
  C  C143  1  0.71079000  0.72755000  0.94713000  1.0
  C  C144  1  0.05174000  0.69283000  0.95029000  1.0
  C  C145  1  0.72493000  0.03668000  0.08565000  1.0
  C  C146  1  0.69215000  0.72693000  0.08233000  1.0
  C  C147  1  0.04288000  0.69769000  0.08706000  1.0
  N  N148  1  0.37880000  0.96871000  0.31507000  1.0
  N  N149  1  0.84662000  0.21899000  0.38037000  1.0
  O  O150  1  0.51873000  0.29000000  0.55070000  1.0
  O  O151  1  0.51392000  0.68437000  0.45614000  1.0
  O  O152  1  0.69021000  0.50438000  0.45308000  1.0
  O  O153  1  0.69163000  0.29975000  0.45503000  1.0
  O  O154  1  0.48910000  0.49273000  0.50220000  1.0
  O  O155  1  0.02980000  0.79811000  0.96317000  1.0
  O  O156  1  0.82300000  0.01474000  0.96232000  1.0
  O  O157  1  0.62733000  0.03575000  0.97068000  1.0
  O  O158  1  0.63508000  0.82974000  0.96528000  1.0
  O  O159  1  0.80784000  0.64433000  0.96767000  1.0
  O  O160  1  0.02673000  0.61732000  0.97455000  1.0
  O  O161  1  0.30535000  0.49937000  0.55769000  1.0
  O  O162  1  0.03333000  0.79179000  0.06537000  1.0
  O  O163  1  0.82879000  0.01082000  0.06638000  1.0
  O  O164  1  0.63778000  0.02147000  0.06591000  1.0
  O  O165  1  0.62023000  0.82677000  0.06055000  1.0
  O  O166  1  0.79223000  0.64397000  0.06334000  1.0
  O  O167  1  0.00853000  0.62196000  0.06998000  1.0
  O  O168  1  0.83159000  0.82883000  0.01634000  1.0
  O  O169  1  0.28930000  0.68866000  0.54723000  1.0
  O  O170  1  0.49760000  0.68827000  0.55075000  1.0
  O  O171  1  0.68182000  0.51349000  0.54829000  1.0
  O  O172  1  0.70018000  0.30187000  0.55014000  1.0
  O  O173  1  0.50008000  0.31590000  0.44682000  1.0
  O  O174  1  0.28586000  0.52480000  0.45550000  1.0
  O  O175  1  0.30021000  0.70012000  0.45154000  1.0
  O  O176  1  0.52471000  0.07346000  0.71831000  1.0
  O  O177  1  0.77101000  0.92555000  0.78436000  1.0
  O  O178  1  0.47471000  0.89510000  0.13591000  1.0
  O  O179  1  0.13661000  0.36519000  0.22263000  1.0
  O  O180  1  0.15902000  0.36606000  0.31789000  1.0
  O  O181  1  0.65720000  0.48796000  0.80998000  1.0
  O  O182  1  0.31527000  0.31913000  0.49911000  1.0
  O  O183  1  0.02337000  0.98465000  0.01583000  1.0
