# generated using pymatgen
data_CdH29C29N6ClO6
_symmetry_space_group_name_H-M   'P 1'
_cell_length_a   9.36238000
_cell_length_b   12.19770000
_cell_length_c   14.05890000
_cell_angle_alpha   75.69570000
_cell_angle_beta   84.89350000
_cell_angle_gamma   87.79930000
_symmetry_Int_Tables_number   1
_chemical_formula_structural   CdH29C29N6ClO6
_chemical_formula_sum   'Cd2 H58 C58 N12 Cl2 O12'
_cell_volume   1549.34502578
_cell_formula_units_Z   2
loop_
 _symmetry_equiv_pos_site_id
 _symmetry_equiv_pos_as_xyz
  1  'x, y, z'
loop_
 _atom_site_type_symbol
 _atom_site_label
 _atom_site_symmetry_multiplicity
 _atom_site_fract_x
 _atom_site_fract_y
 _atom_site_fract_z
 _atom_site_occupancy
  Cd  Cd0  1  0.98128000  0.00246000  0.69511000  1.0
  Cd  Cd1  1  0.01872000  0.99754000  0.30489000  1.0
  H  H2  1  0.79212000  0.11324000  0.85171000  1.0
  H  H3  1  0.20788000  0.88676000  0.14829000  1.0
  H  H4  1  0.10981000  0.76835000  0.88159000  1.0
  H  H5  1  0.89019000  0.23165000  0.11841000  1.0
  H  H6  1  0.79448000  0.82036000  0.17726000  1.0
  H  H7  1  0.20552000  0.17964000  0.82274000  1.0
  H  H8  1  0.19480000  0.59325000  0.97365000  1.0
  H  H9  1  0.80520000  0.40675000  0.02636000  1.0
  H  H10  1  0.07283000  0.51537000  0.06782000  1.0
  H  H11  1  0.92717000  0.48463000  0.93218000  1.0
  H  H12  1  0.21238000  0.58828000  0.09956000  1.0
  H  H13  1  0.78762000  0.41172000  0.90044000  1.0
  H  H14  1  0.87767000  0.65039000  0.27175000  1.0
  H  H15  1  0.12233000  0.34962000  0.72825000  1.0
  H  H16  1  0.05886000  0.61455000  0.24177000  1.0
  H  H17  1  0.94114000  0.38546000  0.75823000  1.0
  H  H18  1  0.91942000  0.54187000  0.20859000  1.0
  H  H19  1  0.08058000  0.45813000  0.79141000  1.0
  H  H20  1  0.67413000  0.12929000  0.01899000  1.0
  H  H21  1  0.32588000  0.87071000  0.98101000  1.0
  H  H22  1  0.70923000  0.02287000  0.12523000  1.0
  H  H23  1  0.29077000  0.97712000  0.87477000  1.0
  H  H24  1  0.53676000  0.89415000  0.08045000  1.0
  H  H25  1  0.46324000  0.10584000  0.91955000  1.0
  H  H26  1  0.45740000  0.01900000  0.10380000  1.0
  H  H27  1  0.54260000  0.98100000  0.89620000  1.0
  H  H28  1  0.06436000  0.83450000  0.53999000  1.0
  H  H29  1  0.93564000  0.16550000  0.46001000  1.0
  H  H30  1  0.74320000  0.81943000  0.84876000  1.0
  H  H31  1  0.25679000  0.18057000  0.15124000  1.0
  H  H32  1  0.67484000  0.54171000  0.64625000  1.0
  H  H33  1  0.32516000  0.45829000  0.35375000  1.0
  H  H34  1  0.55930000  0.73811000  0.96330000  1.0
  H  H35  1  0.44071000  0.26188000  0.03670000  1.0
  H  H36  1  0.52406000  0.59319000  0.97558000  1.0
  H  H37  1  0.47594000  0.40680000  0.02442000  1.0
  H  H38  1  0.41254000  0.69814000  0.90740000  1.0
  H  H39  1  0.58746000  0.30185000  0.09261000  1.0
  H  H40  1  0.47479000  0.46829000  0.74934000  1.0
  H  H41  1  0.52521000  0.53171000  0.25066000  1.0
  H  H42  1  0.37473000  0.56572000  0.80576000  1.0
  H  H43  1  0.62527000  0.43428000  0.19424000  1.0
  H  H44  1  0.48616000  0.46277000  0.87580000  1.0
  H  H45  1  0.51384000  0.53722000  0.12420000  1.0
  H  H46  1  0.00956000  0.69686000  0.45179000  1.0
  H  H47  1  0.99044000  0.30314000  0.54821000  1.0
  H  H48  1  0.82865000  0.65249000  0.46862000  1.0
  H  H49  1  0.17135000  0.34751000  0.53138000  1.0
  H  H50  1  0.06693000  0.52367000  0.58847000  1.0
  H  H51  1  0.93307000  0.47633000  0.41153000  1.0
  H  H52  1  0.88997000  0.47662000  0.58961000  1.0
  H  H53  1  0.11003000  0.52338000  0.41039000  1.0
  H  H54  1  0.38810000  0.24742000  0.62574000  1.0
  H  H55  1  0.61190000  0.75259000  0.37426000  1.0
  H  H56  1  0.68617000  0.29560000  0.36693000  1.0
  H  H57  1  0.31383000  0.70440000  0.63307000  1.0
  H  H58  1  0.36163000  0.03952000  0.42078000  1.0
  H  H59  1  0.63837000  0.96048000  0.57922000  1.0
  C  C60  1  0.83332000  0.03406000  0.89558000  1.0
  C  C61  1  0.16668000  0.96594000  0.10442000  1.0
  C  C62  1  0.95166000  0.87482000  0.93921000  1.0
  C  C63  1  0.04834000  0.12518000  0.06079000  1.0
  C  C64  1  0.04063000  0.77888000  0.94547000  1.0
  C  C65  1  0.95937000  0.22112000  0.05453000  1.0
  C  C66  1  0.03944000  0.69768000  0.03512000  1.0
  C  C67  1  0.96055000  0.30232000  0.96488000  1.0
  C  C68  1  0.94922000  0.71262000  0.11870000  1.0
  C  C69  1  0.05078000  0.28738000  0.88130000  1.0
  C  C70  1  0.85982000  0.80803000  0.11238000  1.0
  C  C71  1  0.14018000  0.19197000  0.88762000  1.0
  C  C72  1  0.86194000  0.88779000  0.02212000  1.0
  C  C73  1  0.13806000  0.11221000  0.97788000  1.0
  C  C74  1  0.13462000  0.59377000  0.04416000  1.0
  C  C75  1  0.86538000  0.40622000  0.95584000  1.0
  C  C76  1  0.95098000  0.62559000  0.21514000  1.0
  C  C77  1  0.04902000  0.37441000  0.78486000  1.0
  C  C78  1  0.67690000  0.03732000  0.04992000  1.0
  C  C79  1  0.32311000  0.96268000  0.95008000  1.0
  C  C80  1  0.52975000  0.98654000  0.05057000  1.0
  C  C81  1  0.47026000  0.01346000  0.94943000  1.0
  C  C82  1  0.97843000  0.79609000  0.59387000  1.0
  C  C83  1  0.02157000  0.20391000  0.40613000  1.0
  C  C84  1  0.81943000  0.76024000  0.71996000  1.0
  C  C85  1  0.18056000  0.23976000  0.28004000  1.0
  C  C86  1  0.72967000  0.75886000  0.80508000  1.0
  C  C87  1  0.27033000  0.24114000  0.19492000  1.0
  C  C88  1  0.62127000  0.67925000  0.83290000  1.0
  C  C89  1  0.37872000  0.32075000  0.16710000  1.0
  C  C90  1  0.60092000  0.60118000  0.77478000  1.0
  C  C91  1  0.39908000  0.39882000  0.22522000  1.0
  C  C92  1  0.69194000  0.60123000  0.69035000  1.0
  C  C93  1  0.30806000  0.39876000  0.30965000  1.0
  C  C94  1  0.80060000  0.68089000  0.66416000  1.0
  C  C95  1  0.19940000  0.31911000  0.33584000  1.0
  C  C96  1  0.52432000  0.67742000  0.92443000  1.0
  C  C97  1  0.47568000  0.32257000  0.07558000  1.0
  C  C98  1  0.47827000  0.52011000  0.80254000  1.0
  C  C99  1  0.52173000  0.47989000  0.19746000  1.0
  C  C100  1  0.92826000  0.64847000  0.50544000  1.0
  C  C101  1  0.07174000  0.35153000  0.49456000  1.0
  C  C102  1  0.97703000  0.52616000  0.54288000  1.0
  C  C103  1  0.02297000  0.47384000  0.45712000  1.0
  C  C104  1  0.36194000  0.13776000  0.52989000  1.0
  C  C105  1  0.63806000  0.86224000  0.47012000  1.0
  C  C106  1  0.42717000  0.22435000  0.55805000  1.0
  C  C107  1  0.57283000  0.77565000  0.44195000  1.0
  C  C108  1  0.54162000  0.28047000  0.49827000  1.0
  C  C109  1  0.45838000  0.71954000  0.50173000  1.0
  C  C110  1  0.59626000  0.25147000  0.41252000  1.0
  C  C111  1  0.40374000  0.74853000  0.58747000  1.0
  C  C112  1  0.53052000  0.16365000  0.38721000  1.0
  C  C113  1  0.46948000  0.83635000  0.61279000  1.0
  C  C114  1  0.41314000  0.10663000  0.44335000  1.0
  C  C115  1  0.58687000  0.89337000  0.55665000  1.0
  C  C116  1  0.23359000  0.08123000  0.59169000  1.0
  C  C117  1  0.76641000  0.91877000  0.40831000  1.0
  N  N118  1  0.93096000  0.96820000  0.86121000  1.0
  N  N119  1  0.06904000  0.03179000  0.13879000  1.0
  N  N120  1  0.78866000  0.99023000  0.99167000  1.0
  N  N121  1  0.21134000  0.00977000  0.00833000  1.0
  N  N122  1  0.93164000  0.83091000  0.67391000  1.0
  N  N123  1  0.06836000  0.16908000  0.32609000  1.0
  N  N124  1  0.90346000  0.70649000  0.58461000  1.0
  N  N125  1  0.09654000  0.29351000  0.41539000  1.0
  N  N126  1  0.60480000  0.37508000  0.52561000  1.0
  N  N127  1  0.39521000  0.62493000  0.47438000  1.0
  N  N128  1  0.58764000  0.13107000  0.29716000  1.0
  N  N129  1  0.41236000  0.86894000  0.70284000  1.0
  Cl  Cl130  1  0.79290000  0.14731000  0.64350000  1.0
  Cl  Cl131  1  0.20710000  0.85270000  0.35650000  1.0
  O  O132  1  0.17626000  0.00197000  0.56542000  1.0
  O  O133  1  0.82374000  0.99803000  0.43458000  1.0
  O  O134  1  0.18645000  0.11738000  0.66666667  1.0
  O  O135  1  0.81355000  0.88262000  0.33333333  1.0
  O  O136  1  0.69673000  0.43142000  0.46651000  1.0
  O  O137  1  0.30326000  0.56858000  0.53349000  1.0
  O  O138  1  0.56088000  0.39506000  0.60563000  1.0
  O  O139  1  0.43911000  0.60495000  0.39437000  1.0
  O  O140  1  0.53337000  0.04910000  0.27749000  1.0
  O  O141  1  0.46663000  0.95090000  0.72251000  1.0
  O  O142  1  0.68803000  0.18692000  0.24620000  1.0
  O  O143  1  0.31197000  0.81308000  0.75380000  1.0
