# generated using pymatgen
data_ZnH13C11N5O4
_symmetry_space_group_name_H-M   'P 1'
_cell_length_a   8.22666000
_cell_length_b   8.69746000
_cell_length_c   9.95965000
_cell_angle_alpha   89.99990000
_cell_angle_beta   90.00000000
_cell_angle_gamma   106.08400000
_symmetry_Int_Tables_number   1
_chemical_formula_structural   ZnH13C11N5O4
_chemical_formula_sum   'Zn2 H26 C22 N10 O8'
_cell_volume   684.72884593
_cell_formula_units_Z   2
loop_
 _symmetry_equiv_pos_site_id
 _symmetry_equiv_pos_as_xyz
  1  'x, y, z'
loop_
 _atom_site_type_symbol
 _atom_site_label
 _atom_site_symmetry_multiplicity
 _atom_site_fract_x
 _atom_site_fract_y
 _atom_site_fract_z
 _atom_site_occupancy
  Zn  Zn0  1  0.40804000  0.55740000  0.42125000  1.0
  Zn  Zn1  1  0.59197000  0.44260000  0.92125000  1.0
  H  H2  1  0.64036000  0.46637000  0.29193000  1.0
  H  H3  1  0.35964000  0.53363000  0.79193000  1.0
  H  H4  1  0.54652000  0.17425000  0.42879000  1.0
  H  H5  1  0.45348000  0.82575000  0.92879000  1.0
  H  H6  1  0.52014000  0.21476000  0.25848000  1.0
  H  H7  1  0.47986000  0.78524000  0.75848000  1.0
  H  H8  1  0.80862000  0.56525000  0.47256000  1.0
  H  H9  1  0.19138000  0.43474000  0.97256000  1.0
  H  H10  1  0.78480000  0.35784000  0.49394000  1.0
  H  H11  1  0.21521000  0.64216000  0.99395000  1.0
  H  H12  1  0.64334000  0.76206000  0.18159000  1.0
  H  H13  1  0.35666000  0.23794000  0.68159000  1.0
  H  H14  1  0.65969000  0.88992000  0.59159000  1.0
  H  H15  1  0.34031000  0.11008000  0.09159000  1.0
  H  H16  1  0.91004000  0.11678000  0.45281000  1.0
  H  H17  1  0.08996000  0.88323000  0.95281000  1.0
  H  H18  1  0.70903000  0.11052000  0.97037000  1.0
  H  H19  1  0.29097000  0.88948000  0.47037000  1.0
  H  H20  1  0.89172000  0.57158000  0.13937000  1.0
  H  H21  1  0.10827000  0.42842000  0.63937000  1.0
  H  H22  1  0.03717000  0.36113000  0.27590000  1.0
  H  H23  1  0.96283000  0.63887000  0.77590000  1.0
  H  H24  1  0.04402000  0.06992000  0.21332000  1.0
  H  H25  1  0.95598000  0.93009000  0.71333000  1.0
  H  H26  1  0.89154000  0.96492000  0.09025000  1.0
  H  H27  1  0.10846000  0.03508000  0.59025000  1.0
  C  C28  1  0.30562000  0.20895000  0.38146000  1.0
  C  C29  1  0.69438000  0.79105000  0.88146000  1.0
  C  C30  1  0.49810000  0.25132000  0.36086000  1.0
  C  C31  1  0.50190000  0.74868000  0.86086000  1.0
  C  C32  1  0.63080000  0.45911000  0.62513000  1.0
  C  C33  1  0.36920000  0.54089000  0.12513000  1.0
  C  C34  1  0.71521000  0.44905000  0.48952000  1.0
  C  C35  1  0.28479000  0.55095000  0.98952000  1.0
  C  C36  1  0.67574000  0.82716000  0.27521000  1.0
  C  C37  1  0.32426000  0.17284000  0.77520000  1.0
  C  C38  1  0.69040000  0.89708000  0.48541000  1.0
  C  C39  1  0.30960000  0.10292000  0.98540000  1.0
  C  C40  1  0.81418000  0.01111000  0.41948000  1.0
  C  C41  1  0.18582000  0.98889000  0.91948000  1.0
  C  C42  1  0.77009000  0.20820000  0.03751000  1.0
  C  C43  1  0.22992000  0.79180000  0.53752000  1.0
  C  C44  1  0.87186000  0.44379000  0.12795000  1.0
  C  C45  1  0.12814000  0.55621000  0.62795000  1.0
  C  C46  1  0.94392000  0.34206000  0.19597000  1.0
  C  C47  1  0.05608000  0.65794000  0.69597000  1.0
  C  C48  1  0.91292000  0.04503000  0.17742000  1.0
  C  C49  1  0.08707000  0.95497000  0.67742000  1.0
  N  N50  1  0.58970000  0.42026000  0.38166000  1.0
  N  N51  1  0.41030000  0.57974000  0.88166000  1.0
  N  N52  1  0.80311000  0.96485000  0.28618000  1.0
  N  N53  1  0.19689000  0.03515000  0.78618000  1.0
  N  N54  1  0.60490000  0.78273000  0.39419000  1.0
  N  N55  1  0.39510000  0.21727000  0.89419000  1.0
  N  N56  1  0.87820000  0.19317000  0.13723000  1.0
  N  N57  1  0.12180000  0.80683000  0.63723000  1.0
  N  N58  1  0.76391000  0.35881000  0.03022000  1.0
  N  N59  1  0.23609000  0.64120000  0.53022000  1.0
  O  O60  1  0.23920000  0.31602000  0.42481000  1.0
  O  O61  1  0.76080000  0.68398000  0.92480000  1.0
  O  O62  1  0.22573000  0.06628000  0.35460000  1.0
  O  O63  1  0.77427000  0.93372000  0.85460000  1.0
  O  O64  1  0.50364000  0.51509000  0.62392000  1.0
  O  O65  1  0.49637000  0.48491000  0.12392000  1.0
  O  O66  1  0.69254000  0.41163000  0.72880000  1.0
  O  O67  1  0.30746000  0.58837000  0.22880000  1.0
