# generated using pymatgen
data_CdH18C20S2(N4O)2
_symmetry_space_group_name_H-M   'P 1'
_cell_length_a   5.48740000
_cell_length_b   9.05787000
_cell_length_c   23.64470000
_cell_angle_alpha   90.00020000
_cell_angle_beta   90.00030000
_cell_angle_gamma   102.85300000
_symmetry_Int_Tables_number   1
_chemical_formula_structural   CdH18C20S2(N4O)2
_chemical_formula_sum   'Cd2 H36 C40 S4 N16 O4'
_cell_volume   1145.79304297
_cell_formula_units_Z   2
loop_
 _symmetry_equiv_pos_site_id
 _symmetry_equiv_pos_as_xyz
  1  'x, y, z'
loop_
 _atom_site_type_symbol
 _atom_site_label
 _atom_site_symmetry_multiplicity
 _atom_site_fract_x
 _atom_site_fract_y
 _atom_site_fract_z
 _atom_site_occupancy
  Cd  Cd0  1  0.50002000  0.50001000  0.50000000  1.0
  Cd  Cd1  1  0.50001000  0.00000000  0.00000000  1.0
  H  H2  1  0.79089000  0.71975000  0.59333000  1.0
  H  H3  1  0.20912000  0.78025000  0.09332000  1.0
  H  H4  1  0.20913000  0.28026000  0.40668000  1.0
  H  H5  1  0.79088000  0.21975000  0.90667000  1.0
  H  H6  1  0.17182000  0.76531000  0.50038000  1.0
  H  H7  1  0.82819000  0.73470000  0.00038000  1.0
  H  H8  1  0.82821000  0.23471000  0.49962000  1.0
  H  H9  1  0.17180000  0.26528000  0.99961000  1.0
  H  H10  1  0.16511000  0.01274000  0.54663000  1.0
  H  H11  1  0.83489000  0.48726000  0.04663000  1.0
  H  H12  1  0.83490000  0.98727000  0.45337000  1.0
  H  H13  1  0.16509000  0.51271000  0.95337000  1.0
  H  H14  1  0.98438000  0.90063000  0.66200000  1.0
  H  H15  1  0.01562000  0.59937000  0.16200000  1.0
  H  H16  1  0.01562000  0.09937000  0.33800000  1.0
  H  H17  1  0.98438000  0.40063000  0.83800000  1.0
  H  H18  1  0.94224000  0.09035000  0.65633000  1.0
  H  H19  1  0.05775000  0.40965000  0.15632000  1.0
  H  H20  1  0.05777000  0.90965000  0.34368000  1.0
  H  H21  1  0.94223000  0.59035000  0.84368000  1.0
  H  H22  1  0.48373000  0.11206000  0.62173000  1.0
  H  H23  1  0.51625000  0.38793000  0.12172000  1.0
  H  H24  1  0.51627000  0.88794000  0.37828000  1.0
  H  H25  1  0.48371000  0.61205000  0.87828000  1.0
  H  H26  1  0.69382000  0.85171000  0.73753000  1.0
  H  H27  1  0.30618000  0.64829000  0.23753000  1.0
  H  H28  1  0.30618000  0.14829000  0.26247000  1.0
  H  H29  1  0.69382000  0.35171000  0.76247000  1.0
  H  H30  1  0.44669000  0.90275000  0.80350000  1.0
  H  H31  1  0.55332000  0.59725000  0.30350000  1.0
  H  H32  1  0.55330000  0.09725000  0.19650000  1.0
  H  H33  1  0.44668000  0.40275000  0.69650000  1.0
  H  H34  1  0.65971000  0.06181000  0.83060000  1.0
  H  H35  1  0.34029000  0.43819000  0.33060000  1.0
  H  H36  1  0.34028000  0.93819000  0.16940000  1.0
  H  H37  1  0.65972000  0.56181000  0.66940000  1.0
  C  C38  1  0.97501000  0.41870000  0.57114000  1.0
  C  C39  1  0.02500000  0.08130000  0.07114000  1.0
  C  C40  1  0.02501000  0.58132000  0.42886000  1.0
  C  C41  1  0.97502000  0.91868000  0.92886000  1.0
  C  C42  1  0.65414000  0.78809000  0.58474000  1.0
  C  C43  1  0.34586000  0.71191000  0.08474000  1.0
  C  C44  1  0.34587000  0.21192000  0.41526000  1.0
  C  C45  1  0.65413000  0.28808000  0.91526000  1.0
  C  C46  1  0.30951000  0.81299000  0.53240000  1.0
  C  C47  1  0.69049000  0.68701000  0.03239000  1.0
  C  C48  1  0.69050000  0.18702000  0.46760000  1.0
  C  C49  1  0.30950000  0.31297000  0.96760000  1.0
  C  C50  1  0.66037000  0.92251000  0.61412000  1.0
  C  C51  1  0.33963000  0.57748000  0.11412000  1.0
  C  C52  1  0.33964000  0.07750000  0.38588000  1.0
  C  C53  1  0.66035000  0.42251000  0.88588000  1.0
  C  C54  1  0.30535000  0.95016000  0.55859000  1.0
  C  C55  1  0.69464000  0.54983000  0.05859000  1.0
  C  C56  1  0.69466000  0.04985000  0.44141000  1.0
  C  C57  1  0.30533000  0.45014000  0.94141000  1.0
  C  C58  1  0.84562000  0.97114000  0.66163000  1.0
  C  C59  1  0.15438000  0.52886000  0.16163000  1.0
  C  C60  1  0.15439000  0.02886000  0.33837000  1.0
  C  C61  1  0.84561000  0.47114000  0.83837000  1.0
  C  C62  1  0.48245000  0.00580000  0.59991000  1.0
  C  C63  1  0.51754000  0.49420000  0.09990000  1.0
  C  C64  1  0.51755000  0.99421000  0.40010000  1.0
  C  C65  1  0.48244000  0.50578000  0.90010000  1.0
  C  C66  1  0.63258000  0.06575000  0.74014000  1.0
  C  C67  1  0.36743000  0.43425000  0.24014000  1.0
  C  C68  1  0.36741000  0.93426000  0.25986000  1.0
  C  C69  1  0.63258000  0.56574000  0.75986000  1.0
  C  C70  1  0.51305000  0.02577000  0.79839000  1.0
  C  C71  1  0.48694000  0.47424000  0.29839000  1.0
  C  C72  1  0.48693000  0.97424000  0.20161000  1.0
  C  C73  1  0.51306000  0.52576000  0.70161000  1.0
  C  C74  1  0.30861000  0.10022000  0.80854000  1.0
  C  C75  1  0.69140000  0.39978000  0.30854000  1.0
  C  C76  1  0.69138000  0.89980000  0.19147000  1.0
  C  C77  1  0.30861000  0.60021000  0.69146000  1.0
  S  S78  1  0.80266000  0.66966000  0.41721000  1.0
  S  S79  1  0.19735000  0.83034000  0.91721000  1.0
  S  S80  1  0.19735000  0.33035000  0.58279000  1.0
  S  S81  1  0.80266000  0.16965000  0.08279000  1.0
  N  N82  1  0.81567000  0.48472000  0.56172000  1.0
  N  N83  1  0.18434000  0.01528000  0.06172000  1.0
  N  N84  1  0.18435000  0.51529000  0.43828000  1.0
  N  N85  1  0.81567000  0.98471000  0.93828000  1.0
  N  N86  1  0.48237000  0.73377000  0.54492000  1.0
  N  N87  1  0.51764000  0.76624000  0.04492000  1.0
  N  N88  1  0.51765000  0.26625000  0.45508000  1.0
  N  N89  1  0.48235000  0.23375000  0.95508000  1.0
  N  N90  1  0.72056000  0.95450000  0.71642000  1.0
  N  N91  1  0.27944000  0.54550000  0.21642000  1.0
  N  N92  1  0.27945000  0.04551000  0.28358000  1.0
  N  N93  1  0.72056000  0.45450000  0.78358000  1.0
  N  N94  1  0.14569000  0.16143000  0.81586000  1.0
  N  N95  1  0.85432000  0.33857000  0.31585000  1.0
  N  N96  1  0.85432000  0.83857000  0.18415000  1.0
  N  N97  1  0.14568000  0.66143000  0.68415000  1.0
  O  O98  1  0.64851000  0.19339000  0.71835000  1.0
  O  O99  1  0.35148000  0.30660000  0.21835000  1.0
  O  O100  1  0.35147000  0.80660000  0.28165000  1.0
  O  O101  1  0.64853000  0.69341000  0.78165000  1.0
