# generated using pymatgen
data_Zn4H51C84BrN16
_symmetry_space_group_name_H-M   'P 1'
_cell_length_a   18.92920000
_cell_length_b   18.98120000
_cell_length_c   20.34880000
_cell_angle_alpha   107.56700000
_cell_angle_beta   105.39800000
_cell_angle_gamma   112.10800000
_symmetry_Int_Tables_number   1
_chemical_formula_structural   Zn4H51C84BrN16
_chemical_formula_sum   'Zn4 H51 C84 Br1 N16'
_cell_volume   5832.74138174
_cell_formula_units_Z   1
loop_
 _symmetry_equiv_pos_site_id
 _symmetry_equiv_pos_as_xyz
  1  'x, y, z'
loop_
 _atom_site_type_symbol
 _atom_site_label
 _atom_site_symmetry_multiplicity
 _atom_site_fract_x
 _atom_site_fract_y
 _atom_site_fract_z
 _atom_site_occupancy
  Zn  Zn0  1  0.10331000  0.10395000  0.49692000  1.0
  Zn  Zn1  1  0.88454000  0.88807000  0.49948000  1.0
  Zn  Zn2  1  0.99106000  0.89604000  0.39676000  1.0
  Zn  Zn3  1  0.99587000  0.09522000  0.59953000  1.0
  H  H4  1  0.20231000  0.14822000  0.38635000  1.0
  H  H5  1  0.77813000  0.54555000  0.43614000  1.0
  H  H6  1  0.72468000  0.42187000  0.46373000  1.0
  H  H7  1  0.71683000  0.85235000  0.53515000  1.0
  H  H8  1  0.73245000  0.29749000  0.47116000  1.0
  H  H9  1  0.80082000  0.20852000  0.45815000  1.0
  H  H10  1  0.95334000  0.22546000  0.33283000  1.0
  H  H11  1  0.97328000  0.32350000  0.27415000  1.0
  H  H12  1  0.96620000  0.44854000  0.26724000  1.0
  H  H13  1  0.24398000  0.84026000  0.53301000  1.0
  H  H14  1  0.37998000  0.11279000  0.67046000  1.0
  H  H15  1  0.81116000  0.68480000  0.46603000  1.0
  H  H16  1  0.53611000  0.19146000  0.73277000  1.0
  H  H17  1  0.66962000  0.19504000  0.73934000  1.0
  H  H18  1  0.74284000  0.12132000  0.69255000  1.0
  H  H19  1  0.86825000  0.90382000  0.25649000  1.0
  H  H20  1  0.60689000  0.84819000  0.55803000  1.0
  H  H21  1  0.45567000  0.76479000  0.52562000  1.0
  H  H22  1  0.32200000  0.76165000  0.51795000  1.0
  H  H23  1  0.19689000  0.44267000  0.80557000  1.0
  H  H24  1  0.75754000  0.89835000  0.16256000  1.0
  H  H25  1  0.60238000  0.82337000  0.27725000  1.0
  H  H26  1  0.11837000  0.84494000  0.48783000  1.0
  H  H27  1  0.41086000  0.67953000  0.02047000  1.0
  H  H28  1  0.49161000  0.57397000  0.83500000  1.0
  H  H29  1  0.63159000  0.81783000  0.04070000  1.0
  H  H30  1  0.38676000  0.43035000  0.73099000  1.0
  H  H31  1  0.85918000  0.13770000  0.51122000  1.0
  H  H32  1  0.53551000  0.69040000  0.94778000  1.0
  H  H33  1  0.30182000  0.58453000  0.91041000  1.0
  H  H34  1  0.47595000  0.74406000  0.15524000  1.0
  H  H35  1  0.13464000  0.87981000  0.18764000  1.0
  H  H36  1  0.17467000  0.09597000  0.83879000  1.0
  H  H37  1  0.14683000  0.11014000  0.73434000  1.0
  H  H38  1  0.18188000  0.89028000  0.97780000  1.0
  H  H39  1  0.27858000  0.15295000  0.17854000  1.0
  H  H40  1  0.22606000  0.09565000  0.96087000  1.0
  H  H41  1  0.23627000  0.15170000  0.28267000  1.0
  H  H42  1  0.72745000  0.89516000  0.39360000  1.0
  H  H43  1  0.26389000  0.08551000  0.05852000  1.0
  H  H44  1  0.17515000  0.88093000  0.08318000  1.0
  H  H45  1  0.16186000  0.83348000  0.84529000  1.0
  H  H46  1  0.00116000  0.14723000  0.37516000  1.0
  H  H47  1  0.86026000  0.12621000  0.66933000  1.0
  H  H48  1  0.99583000  0.83507000  0.60795000  1.0
  H  H49  1  0.04985000  0.87427000  0.25447000  1.0
  H  H50  1  0.26698000  0.30543000  0.61169000  1.0
  H  H51  1  0.26304000  0.11992000  0.61855000  1.0
  H  H52  1  0.12369000  0.29035000  0.74597000  1.0
  H  H53  1  0.94886000  0.69290000  0.32675000  1.0
  H  H54  1  0.93195000  0.56219000  0.31203000  1.0
  C  C55  1  0.15886000  0.08045000  0.36221000  1.0
  C  C56  1  0.21644000  0.05339000  0.58092000  1.0
  C  C57  1  0.14868000  0.28036000  0.70381000  1.0
  C  C58  1  0.76295000  0.91981000  0.56560000  1.0
  C  C59  1  0.91799000  0.70439000  0.36358000  1.0
  C  C60  1  0.22247000  0.33676000  0.70359000  1.0
  C  C61  1  0.87142000  0.65003000  0.38876000  1.0
  C  C62  1  0.22394000  0.98004000  0.56915000  1.0
  C  C63  1  0.09303000  0.96899000  0.69979000  1.0
  C  C64  1  0.89582000  0.52899000  0.33741000  1.0
  C  C65  1  0.85751000  0.56499000  0.37637000  1.0
  C  C66  1  0.75730000  0.98840000  0.61026000  1.0
  C  C67  1  0.81009000  0.51982000  0.40713000  1.0
  C  C68  1  0.80523000  0.44340000  0.40447000  1.0
  C  C69  1  0.84920000  0.41036000  0.36912000  1.0
  C  C70  1  0.84500000  0.90446000  0.29992000  1.0
  C  C71  1  0.89269000  0.45275000  0.33306000  1.0
  C  C72  1  0.76088000  0.39858000  0.43906000  1.0
  C  C73  1  0.76510000  0.32958000  0.44311000  1.0
  C  C74  1  0.81407000  0.29901000  0.41298000  1.0
  C  C75  1  0.85339000  0.33864000  0.37319000  1.0
  C  C76  1  0.90104000  0.30842000  0.34126000  1.0
  C  C77  1  0.76585000  0.89234000  0.29685000  1.0
  C  C78  1  0.93906000  0.34837000  0.30059000  1.0
  C  C79  1  0.93524000  0.41757000  0.29683000  1.0
  C  C80  1  0.82870000  0.23582000  0.42512000  1.0
  C  C81  1  0.88192000  0.21122000  0.39998000  1.0
  C  C82  1  0.90025000  0.13433000  0.48336000  1.0
  C  C83  1  0.91370000  0.24509000  0.35484000  1.0
  C  C84  1  0.30320000  0.90034000  0.56909000  1.0
  C  C85  1  0.30194000  0.97702000  0.59714000  1.0
  C  C86  1  0.37930000  0.05277000  0.64580000  1.0
  C  C87  1  0.45679000  0.05485000  0.65985000  1.0
  C  C88  1  0.91222000  0.16024000  0.42733000  1.0
  C  C89  1  0.45725000  0.97760000  0.62494000  1.0
  C  C90  1  0.37913000  0.89904000  0.58181000  1.0
  C  C91  1  0.53618000  0.13281000  0.70376000  1.0
  C  C92  1  0.61009000  0.13476000  0.70749000  1.0
  C  C93  1  0.61145000  0.05874000  0.66837000  1.0
  C  C94  1  0.77262000  0.89888000  0.36935000  1.0
  C  C95  1  0.53402000  0.97951000  0.62928000  1.0
  C  C96  1  0.53374000  0.90266000  0.59105000  1.0
  C  C97  1  0.45534000  0.82376000  0.55291000  1.0
  C  C98  1  0.38140000  0.82201000  0.54859000  1.0
  C  C99  1  0.22242000  0.28773000  0.63608000  1.0
  C  C100  1  0.68470000  0.06002000  0.66431000  1.0
  C  C101  1  0.68383000  0.98541000  0.62276000  1.0
  C  C102  1  0.60863000  0.90726000  0.58901000  1.0
  C  C103  1  0.28402000  0.42406000  0.76140000  1.0
  C  C104  1  0.26205000  0.47059000  0.81262000  1.0
  C  C105  1  0.32134000  0.55105000  0.87169000  1.0
  C  C106  1  0.97266000  0.13922000  0.41408000  1.0
  C  C107  1  0.40622000  0.58948000  0.88275000  1.0
  C  C108  1  0.42668000  0.54506000  0.82854000  1.0
  C  C109  1  0.36742000  0.46414000  0.76969000  1.0
  C  C110  1  0.84754000  0.70012000  0.43416000  1.0
  C  C111  1  0.62467000  0.81812000  0.09231000  1.0
  C  C112  1  0.69597000  0.86360000  0.16130000  1.0
  C  C113  1  0.60945000  0.82331000  0.22575000  1.0
  C  C114  1  0.53789000  0.77835000  0.15674000  1.0
  C  C115  1  0.54404000  0.76996000  0.08754000  1.0
  C  C116  1  0.47405000  0.66717000  0.94970000  1.0
  C  C117  1  0.47083000  0.70526000  0.01607000  1.0
  C  C118  1  0.83595000  0.05923000  0.63376000  1.0
  C  C119  1  0.69072000  0.86308000  0.22909000  1.0
  C  C120  1  0.17889000  0.01520000  0.24178000  1.0
  C  C121  1  0.14281000  0.91323000  0.51411000  1.0
  C  C122  1  0.16559000  0.94011000  0.18565000  1.0
  C  C123  1  0.18902000  0.94079000  0.12671000  1.0
  C  C124  1  0.22736000  0.01698000  0.12086000  1.0
  C  C125  1  0.24724000  0.09283000  0.18077000  1.0
  C  C126  1  0.22331000  0.09208000  0.23948000  1.0
  C  C127  1  0.20284000  0.03827000  0.90924000  1.0
  C  C128  1  0.17378000  0.03849000  0.83957000  1.0
  C  C129  1  0.13829000  0.89394000  0.77469000  1.0
  C  C130  1  0.08192000  0.94085000  0.29556000  1.0
  C  C131  1  0.16565000  0.89204000  0.84460000  1.0
  C  C132  1  0.10104000  0.04396000  0.69466000  1.0
  C  C133  1  0.19561000  0.96326000  0.91374000  1.0
  C  C134  1  0.23708000  0.02101000  0.05350000  1.0
  C  C135  1  0.20742000  0.95548000  0.98440000  1.0
  C  C136  1  0.13641000  0.96547000  0.76888000  1.0
  C  C137  1  0.14384000  0.01261000  0.29729000  1.0
  C  C138  1  0.02441000  0.90354000  0.62978000  1.0
  Br  Br139  1  0.10194000  0.79245000  0.68631000  1.0
  N  N140  1  0.11018000  0.05113000  0.39601000  1.0
  N  N141  1  0.89341000  0.91562000  0.36810000  1.0
  N  N142  1  0.95067000  0.10220000  0.50215000  1.0
  N  N143  1  0.84904000  0.91232000  0.41081000  1.0
  N  N144  1  0.99519000  0.10522000  0.45954000  1.0
  N  N145  1  0.88400000  0.03441000  0.60546000  1.0
  N  N146  1  0.06218000  0.96408000  0.35430000  1.0
  N  N147  1  0.15416000  0.20917000  0.59941000  1.0
  N  N148  1  0.87743000  0.77738000  0.43569000  1.0
  N  N149  1  0.09251000  0.94528000  0.49452000  1.0
  N  N150  1  0.04125000  0.02402000  0.62836000  1.0
  N  N151  1  0.99422000  0.93784000  0.58860000  1.0
  N  N152  1  0.13785000  0.03141000  0.53558000  1.0
  N  N153  1  0.10843000  0.20460000  0.64186000  1.0
  N  N154  1  0.92143000  0.78012000  0.39173000  1.0
  N  N155  1  0.83824000  0.94745000  0.56298000  1.0
