# generated using pymatgen
data_NiH20C28(NO2)2
_symmetry_space_group_name_H-M   'P 1'
_cell_length_a   8.81817000
_cell_length_b   12.83070000
_cell_length_c   13.63601913
_cell_angle_alpha   61.94667576
_cell_angle_beta   84.44392948
_cell_angle_gamma   78.14020000
_symmetry_Int_Tables_number   1
_chemical_formula_structural   NiH20C28(NO2)2
_chemical_formula_sum   'Ni2 H40 C56 N4 O8'
_cell_volume   1332.49351406
_cell_formula_units_Z   2
loop_
 _symmetry_equiv_pos_site_id
 _symmetry_equiv_pos_as_xyz
  1  'x, y, z'
loop_
 _atom_site_type_symbol
 _atom_site_label
 _atom_site_symmetry_multiplicity
 _atom_site_fract_x
 _atom_site_fract_y
 _atom_site_fract_z
 _atom_site_occupancy
  Ni  Ni0  1  0.80858000  0.74275000  0.20210000  1.0
  Ni  Ni1  1  0.30844000  0.94487000  0.79798000  1.0
  H  H2  1  0.78461000  0.08450000  0.78635000  1.0
  H  H3  1  0.28473000  0.87076000  0.21338000  1.0
  H  H4  1  0.02121000  0.25348000  0.13487000  1.0
  H  H5  1  0.52101000  0.38845000  0.86536000  1.0
  H  H6  1  0.97120000  0.11355000  0.88924000  1.0
  H  H7  1  0.47195000  0.00256000  0.11070000  1.0
  H  H8  1  0.27687000  0.56012000  0.08699000  1.0
  H  H9  1  0.77688000  0.64713000  0.91341000  1.0
  H  H10  1  0.13199000  0.73888000  0.10140000  1.0
  H  H11  1  0.63215000  0.83999000  0.89851000  1.0
  H  H12  1  0.76273000  0.93702000  0.26772000  1.0
  H  H13  1  0.26248000  0.20507000  0.73252000  1.0
  H  H14  1  0.83235000  0.14055000  0.19079000  1.0
  H  H15  1  0.33226000  0.33139000  0.80972000  1.0
  H  H16  1  0.89639000  0.91370000  0.97784000  1.0
  H  H17  1  0.39678000  0.89162000  0.02191000  1.0
  H  H18  1  0.15870000  0.37780000  0.15987000  1.0
  H  H19  1  0.65855000  0.53785000  0.84034000  1.0
  H  H20  1  0.54387000  0.22700000  0.69705000  1.0
  H  H21  1  0.04388000  0.92414000  0.30253000  1.0
  H  H22  1  0.04906000  0.46727000  0.82437000  1.0
  H  H23  1  0.54924000  0.29153000  0.17580000  1.0
  H  H24  1  0.40755000  0.38088000  0.55018000  1.0
  H  H25  1  0.90729000  0.93165000  0.44932000  1.0
  H  H26  1  0.04216000  0.27054000  0.49158000  1.0
  H  H27  1  0.54173000  0.76177000  0.50843000  1.0
  H  H28  1  0.16725000  0.64829000  0.75372000  1.0
  H  H29  1  0.66754000  0.40171000  0.24663000  1.0
  H  H30  1  0.98546000  0.29827000  0.89494000  1.0
  H  H31  1  0.48617000  0.19307000  0.10529000  1.0
  H  H32  1  0.20318000  0.51535000  0.50616000  1.0
  H  H33  1  0.70288000  0.02246000  0.49363000  1.0
  H  H34  1  0.39830000  0.64121000  0.17506000  1.0
  H  H35  1  0.89844000  0.81649000  0.82451000  1.0
  H  H36  1  0.57510000  0.52471000  0.33247000  1.0
  H  H37  1  0.07496000  0.85775000  0.66699000  1.0
  H  H38  1  0.80254000  0.41456000  0.40029000  1.0
  H  H39  1  0.30200000  0.81477000  0.59954000  1.0
  H  H40  1  0.94471000  0.61927000  0.41854000  1.0
  H  H41  1  0.44451000  0.03811000  0.58156000  1.0
  C  C42  1  0.78731000  0.15731000  0.70231000  1.0
  C  C43  1  0.28731000  0.85954000  0.29743000  1.0
  C  C44  1  0.22827000  0.61661000  0.91606000  1.0
  C  C45  1  0.72838000  0.53251000  0.08428000  1.0
  C  C46  1  0.92816000  0.16817000  0.64431000  1.0
  C  C47  1  0.42801000  0.81232000  0.35554000  1.0
  C  C48  1  0.02605000  0.30138000  0.04405000  1.0
  C  C49  1  0.52613000  0.34546000  0.95617000  1.0
  C  C50  1  0.92471000  0.07927000  0.97327000  1.0
  C  C51  1  0.42524000  0.05245000  0.02676000  1.0
  C  C52  1  0.22679000  0.53894000  0.03028000  1.0
  C  C53  1  0.72676000  0.56924000  0.97003000  1.0
  C  C54  1  0.15235000  0.68803000  0.19079000  1.0
  C  C55  1  0.65241000  0.87878000  0.80909000  1.0
  C  C56  1  0.09544000  0.40830000  0.99795000  1.0
  C  C57  1  0.59540000  0.40634000  0.00226000  1.0
  C  C58  1  0.80972000  0.98076000  0.18403000  1.0
  C  C59  1  0.30965000  0.16499000  0.81616000  1.0
  C  C60  1  0.85025000  0.09290000  0.14107000  1.0
  C  C61  1  0.35033000  0.23401000  0.85926000  1.0
  C  C62  1  0.91440000  0.14403000  0.03365000  1.0
  C  C63  1  0.41479000  0.17757000  0.96659000  1.0
  C  C64  1  0.88330000  0.96682000  0.02232000  1.0
  C  C65  1  0.38361000  0.98923000  0.97758000  1.0
  C  C66  1  0.16111000  0.43679000  0.07051000  1.0
  C  C67  1  0.66096000  0.50743000  0.92972000  1.0
  C  C68  1  0.07007000  0.08049000  0.69932000  1.0
  C  C69  1  0.57006000  0.77962000  0.30066000  1.0
  C  C70  1  0.65312000  0.23718000  0.65187000  1.0
  C  C71  1  0.15304000  0.88909000  0.34779000  1.0
  C  C72  1  0.10036000  0.48581000  0.88282000  1.0
  C  C73  1  0.60043000  0.36858000  0.11741000  1.0
  C  C74  1  0.50659000  0.40655000  0.49469000  1.0
  C  C75  1  0.00634000  0.90173000  0.50482000  1.0
  C  C76  1  0.93170000  0.26220000  0.53563000  1.0
  C  C77  1  0.43135000  0.79759000  0.46430000  1.0
  C  C78  1  0.16604000  0.58781000  0.84261000  1.0
  C  C79  1  0.66621000  0.43027000  0.15770000  1.0
  C  C80  1  0.97400000  0.25532000  0.98537000  1.0
  C  C81  1  0.47447000  0.24056000  0.01488000  1.0
  C  C82  1  0.65431000  0.33060000  0.54233000  1.0
  C  C83  1  0.15406000  0.87308000  0.45731000  1.0
  C  C84  1  0.28278000  0.73294000  0.87257000  1.0
  C  C85  1  0.78301000  0.60529000  0.12775000  1.0
  C  C86  1  0.19334000  0.56134000  0.41591000  1.0
  C  C87  1  0.69318000  0.97789000  0.58389000  1.0
  C  C88  1  0.30102000  0.63217000  0.23249000  1.0
  C  C89  1  0.80104000  0.86489000  0.76721000  1.0
  C  C90  1  0.47924000  0.49863000  0.39090000  1.0
  C  C91  1  0.97908000  0.89012000  0.60860000  1.0
  C  C92  1  0.32502000  0.56368000  0.34791000  1.0
  C  C93  1  0.82491000  0.91214000  0.65173000  1.0
  C  C94  1  0.79725000  0.34261000  0.48489000  1.0
  C  C95  1  0.29684000  0.82740000  0.51493000  1.0
  C  C96  1  0.04894000  0.61966000  0.36837000  1.0
  C  C97  1  0.54882000  0.98838000  0.63161000  1.0
  N  N98  1  0.82902000  0.91647000  0.12723000  1.0
  N  N99  1  0.32904000  0.04391000  0.87275000  1.0
  N  N100  1  0.02728000  0.68075000  0.25718000  1.0
  N  N101  1  0.52724000  0.93792000  0.74284000  1.0
  O  O102  1  0.20299000  0.09329000  0.65186000  1.0
  O  O103  1  0.70290000  0.74513000  0.34818000  1.0
  O  O104  1  0.06061000  0.99342000  0.79660000  1.0
  O  O105  1  0.56081000  0.78968000  0.20341000  1.0
  O  O106  1  0.32156000  0.76835000  0.93858000  1.0
  O  O107  1  0.82176000  0.70670000  0.06169000  1.0
  O  O108  1  0.28075000  0.80185000  0.76744000  1.0
  O  O109  1  0.78111000  0.56912000  0.23287000  1.0
