# generated using pymatgen
data_HgH8C10(IN2)2
_symmetry_space_group_name_H-M   'P 1'
_cell_length_a   5.45173000
_cell_length_b   8.31024000
_cell_length_c   15.97000000
_cell_angle_alpha   101.63100000
_cell_angle_beta   91.12400000
_cell_angle_gamma   91.16730000
_symmetry_Int_Tables_number   1
_chemical_formula_structural   HgH8C10(IN2)2
_chemical_formula_sum   'Hg2 H16 C20 I4 N8'
_cell_volume   708.31217999
_cell_formula_units_Z   2
loop_
 _symmetry_equiv_pos_site_id
 _symmetry_equiv_pos_as_xyz
  1  'x, y, z'
loop_
 _atom_site_type_symbol
 _atom_site_label
 _atom_site_symmetry_multiplicity
 _atom_site_fract_x
 _atom_site_fract_y
 _atom_site_fract_z
 _atom_site_occupancy
  Hg  Hg0  1  0.92257000  0.24871000  0.75312000  1.0
  Hg  Hg1  1  0.07743000  0.75129000  0.24688000  1.0
  H  H2  1  0.27378000  0.39482000  0.28964000  1.0
  H  H3  1  0.72622000  0.60518000  0.71037000  1.0
  H  H4  1  0.71220000  0.37243000  0.95158000  1.0
  H  H5  1  0.28780000  0.62757000  0.04842000  1.0
  H  H6  1  0.51965000  0.87250000  0.38763000  1.0
  H  H7  1  0.48035000  0.12750000  0.61237000  1.0
  H  H8  1  0.85808000  0.77740000  0.47323000  1.0
  H  H9  1  0.14191000  0.22260000  0.52677000  1.0
  H  H10  1  0.59231000  0.27975000  0.37686000  1.0
  H  H11  1  0.40769000  0.72025000  0.62314000  1.0
  H  H12  1  0.16146000  0.89119000  0.85132000  1.0
  H  H13  1  0.83853000  0.10881000  0.14868000  1.0
  H  H14  1  0.61376000  0.69638000  0.94944000  1.0
  H  H15  1  0.38624000  0.30362000  0.05056000  1.0
  H  H16  1  0.50188000  0.97166000  0.76270000  1.0
  H  H17  1  0.49813000  0.02835000  0.23730000  1.0
  C  C18  1  0.40527000  0.47507000  0.33189000  1.0
  C  C19  1  0.59472000  0.52493000  0.66811000  1.0
  C  C20  1  0.58646000  0.26678000  0.93224000  1.0
  C  C21  1  0.41354000  0.73322000  0.06776000  1.0
  C  C22  1  0.54424000  0.74189000  0.38626000  1.0
  C  C23  1  0.45576000  0.25812000  0.61374000  1.0
  C  C24  1  0.73066000  0.68957000  0.43409000  1.0
  C  C25  1  0.26934000  0.31043000  0.56591000  1.0
  C  C26  1  0.58174000  0.41142000  0.37952000  1.0
  C  C27  1  0.41826000  0.58858000  0.62048000  1.0
  C  C28  1  0.74834000  0.52033000  0.43121000  1.0
  C  C29  1  0.25165000  0.47967000  0.56879000  1.0
  C  C30  1  0.25152000  0.09251000  0.95776000  1.0
  C  C31  1  0.74848000  0.90749000  0.04224000  1.0
  C  C32  1  0.28079000  0.99775000  0.87550000  1.0
  C  C33  1  0.71921000  0.00225000  0.12450000  1.0
  C  C34  1  0.40743000  0.22915000  0.98677000  1.0
  C  C35  1  0.59257000  0.77085000  0.01323000  1.0
  C  C36  1  0.46781000  0.04274000  0.82657000  1.0
  C  C37  1  0.53219000  0.95726000  0.17343000  1.0
  I  I38  1  0.95449000  0.94555000  0.65257000  1.0
  I  I39  1  0.04552000  0.05445000  0.34743000  1.0
  I  I40  1  0.11288000  0.53048000  0.84699000  1.0
  I  I41  1  0.88712000  0.46952000  0.15301000  1.0
  N  N42  1  0.38595000  0.63712000  0.33586000  1.0
  N  N43  1  0.61404000  0.36288000  0.66414000  1.0
  N  N44  1  0.61687000  0.17451000  0.85411000  1.0
  N  N45  1  0.38313000  0.82549000  0.14589000  1.0
  N  N46  1  0.92274000  0.44908000  0.47883000  1.0
  N  N47  1  0.07726000  0.55092000  0.52117000  1.0
  N  N48  1  0.07640000  0.05660000  0.01614000  1.0
  N  N49  1  0.92359000  0.94340000  0.98386000  1.0
