# generated using pymatgen
data_Zn4H7C24S4O15F
_symmetry_space_group_name_H-M   'P 1'
_cell_length_a   19.66670000
_cell_length_b   19.71770000
_cell_length_c   33.36620000
_cell_angle_alpha   79.02420000
_cell_angle_beta   79.17460000
_cell_angle_gamma   63.94330000
_symmetry_Int_Tables_number   1
_chemical_formula_structural   Zn4H7C24S4O15F
_chemical_formula_sum   'Zn16 H28 C96 S16 O60 F4'
_cell_volume   11331.18442837
_cell_formula_units_Z   4
loop_
 _symmetry_equiv_pos_site_id
 _symmetry_equiv_pos_as_xyz
  1  'x, y, z'
loop_
 _atom_site_type_symbol
 _atom_site_label
 _atom_site_symmetry_multiplicity
 _atom_site_fract_x
 _atom_site_fract_y
 _atom_site_fract_z
 _atom_site_occupancy
  Zn  Zn0  1  0.05610000  0.40057000  0.47839000  1.0
  Zn  Zn1  1  0.98450000  0.48366000  0.56057000  1.0
  Zn  Zn2  1  0.05852000  0.56144000  0.48231000  1.0
  Zn  Zn3  1  0.90040000  0.55525000  0.47964000  1.0
  Zn  Zn4  1  0.69480000  0.34962000  0.27113000  1.0
  Zn  Zn5  1  0.68931000  0.19028000  0.26645000  1.0
  Zn  Zn6  1  0.76944000  0.26615000  0.18997000  1.0
  Zn  Zn7  1  0.84842000  0.19505000  0.27257000  1.0
  Zn  Zn8  1  0.26657000  0.76687000  0.68969000  1.0
  Zn  Zn9  1  0.34877000  0.69595000  0.77198000  1.0
  Zn  Zn10  1  0.19263000  0.84774000  0.77164000  1.0
  Zn  Zn11  1  0.19109000  0.68765000  0.76694000  1.0
  Zn  Zn12  1  0.56060000  0.05992000  0.98325000  1.0
  Zn  Zn13  1  0.40110000  0.05516000  0.97814000  1.0
  Zn  Zn14  1  0.55470000  0.90165000  0.97818000  1.0
  Zn  Zn15  1  0.48385000  0.98301000  0.06038000  1.0
  H  H16  1  0.95395000  0.24900000  0.35148000  1.0
  H  H17  1  0.74680000  0.45520000  0.35085000  1.0
  H  H18  1  0.00043000  0.29852000  0.39956000  1.0
  H  H19  1  0.09739000  0.59708000  0.70005000  1.0
  H  H20  1  0.20157000  0.70143000  0.59720000  1.0
  H  H21  1  0.05031000  0.55049000  0.65072000  1.0
  H  H22  1  0.46271000  0.24065000  0.34124000  1.0
  H  H23  1  0.47984000  0.70236000  0.60128000  1.0
  H  H24  1  0.20230000  0.98007000  0.60145000  1.0
  H  H25  1  0.94846000  0.96975000  0.34818000  1.0
  H  H26  1  0.54995000  0.05011000  0.15303000  1.0
  H  H27  1  0.65279000  0.15291000  0.04872000  1.0
  H  H28  1  0.59914000  0.09909000  0.19997000  1.0
  H  H29  1  0.54790000  0.76954000  0.14850000  1.0
  H  H30  1  0.16241000  0.14139000  0.04074000  1.0
  H  H31  1  0.50123000  0.79572000  0.89860000  1.0
  H  H32  1  0.29521000  0.00315000  0.89915000  1.0
  H  H33  1  0.45067000  0.75039000  0.85048000  1.0
  H  H34  1  0.30101000  0.28045000  0.90184000  1.0
  H  H35  1  0.78767000  0.00908000  0.90871000  1.0
  H  H36  1  0.32569000  0.54236000  0.39846000  1.0
  H  H37  1  0.75626000  0.53965000  0.68462000  1.0
  H  H38  1  0.04015000  0.25607000  0.68415000  1.0
  H  H39  1  0.74281000  0.81561000  0.38802000  1.0
  H  H40  1  0.71035000  0.49315000  0.06571000  1.0
  H  H41  1  0.14874000  0.07555000  0.22082000  1.0
  H  H42  1  0.50715000  0.43389000  0.86202000  1.0
  H  H43  1  0.92387000  0.70701000  0.85188000  1.0
  C  C44  1  0.06147000  0.31653000  0.56212000  1.0
  C  C45  1  0.06916000  0.57018000  0.56894000  1.0
  C  C46  1  0.18374000  0.44047000  0.43852000  1.0
  C  C47  1  0.93606000  0.68439000  0.43869000  1.0
  C  C48  1  0.93112000  0.43035000  0.43120000  1.0
  C  C49  1  0.81677000  0.56098000  0.56267000  1.0
  C  C50  1  0.56585000  0.31131000  0.31116000  1.0
  C  C51  1  0.68137000  0.18053000  0.18083000  1.0
  C  C52  1  0.68981000  0.43329000  0.18773000  1.0
  C  C53  1  0.93583000  0.18736000  0.18990000  1.0
  C  C54  1  0.81882000  0.32009000  0.31956000  1.0
  C  C55  1  0.81117000  0.06624000  0.31154000  1.0
  C  C56  1  0.43356000  0.68955000  0.68831000  1.0
  C  C57  1  0.31837000  0.82003000  0.81908000  1.0
  C  C58  1  0.18857000  0.93356000  0.68838000  1.0
  C  C59  1  0.06556000  0.80887000  0.81122000  1.0
  C  C60  1  0.18119000  0.68023000  0.68055000  1.0
  C  C61  1  0.31384000  0.56561000  0.81143000  1.0
  C  C62  1  0.43824000  0.18386000  0.93862000  1.0
  C  C63  1  0.43056000  0.93052000  0.93055000  1.0
  C  C64  1  0.68395000  0.93903000  0.93863000  1.0
  C  C65  1  0.56132000  0.81613000  0.06152000  1.0
  C  C66  1  0.56953000  0.06941000  0.06944000  1.0
  C  C67  1  0.31600000  0.06148000  0.06114000  1.0
  C  C68  1  0.90083000  0.40368000  0.40228000  1.0
  C  C69  1  0.84762000  0.34875000  0.34815000  1.0
  C  C70  1  0.82930000  0.44663000  0.38782000  1.0
  C  C71  1  0.91931000  0.30453000  0.36191000  1.0
  C  C72  1  0.80254000  0.42020000  0.36124000  1.0
  C  C73  1  0.94496000  0.33201000  0.38852000  1.0
  C  C74  1  0.09892000  0.59929000  0.59684000  1.0
  C  C75  1  0.15237000  0.65203000  0.65179000  1.0
  C  C76  1  0.14196000  0.64211000  0.58266000  1.0
  C  C77  1  0.10960000  0.60941000  0.66696000  1.0
  C  C78  1  0.16849000  0.66840000  0.60940000  1.0
  C  C79  1  0.08357000  0.58371000  0.63967000  1.0
  C  C80  1  0.30435000  0.45575000  0.40101000  1.0
  C  C81  1  0.44590000  0.29736000  0.34906000  1.0
  C  C82  1  0.25842000  0.41624000  0.41389000  1.0
  C  C83  1  0.49122000  0.33667000  0.33628000  1.0
  C  C84  1  0.37783000  0.34041000  0.37267000  1.0
  C  C85  1  0.37270000  0.41201000  0.37739000  1.0
  C  C86  1  0.72654000  0.57545000  0.63049000  1.0
  C  C87  1  0.52445000  0.67341000  0.62141000  1.0
  C  C88  1  0.74266000  0.58516000  0.58777000  1.0
  C  C89  1  0.50862000  0.66388000  0.66375000  1.0
  C  C90  1  0.60373000  0.64130000  0.60912000  1.0
  C  C91  1  0.64679000  0.60777000  0.64257000  1.0
  C  C92  1  0.07579000  0.22631000  0.63009000  1.0
  C  C93  1  0.17345000  0.02456000  0.62149000  1.0
  C  C94  1  0.08555000  0.24244000  0.58733000  1.0
  C  C95  1  0.16369000  0.00868000  0.66384000  1.0
  C  C96  1  0.14150000  0.10369000  0.60905000  1.0
  C  C97  1  0.10796000  0.14669000  0.64237000  1.0
  C  C98  1  0.84176000  0.80085000  0.39716000  1.0
  C  C99  1  0.90393000  0.94957000  0.35260000  1.0
  C  C100  1  0.91074000  0.75855000  0.41364000  1.0
  C  C101  1  0.83550000  0.99138000  0.33633000  1.0
  C  C102  1  0.90660000  0.88005000  0.37471000  1.0
  C  C103  1  0.83974000  0.87041000  0.37483000  1.0
  C  C104  1  0.65319000  0.15297000  0.15132000  1.0
  C  C105  1  0.59817000  0.09827000  0.09800000  1.0
  C  C106  1  0.66727000  0.16725000  0.10831000  1.0
  C  C107  1  0.58300000  0.08314000  0.14074000  1.0
  C  C108  1  0.64053000  0.14063000  0.08180000  1.0
  C  C109  1  0.61028000  0.11029000  0.16670000  1.0
  C  C110  1  0.67464000  0.52337000  0.11971000  1.0
  C  C111  1  0.57672000  0.72510000  0.12842000  1.0
  C  C112  1  0.66492000  0.50726000  0.16248000  1.0
  C  C113  1  0.58640000  0.74107000  0.08608000  1.0
  C  C114  1  0.60864000  0.64596000  0.14080000  1.0
  C  C115  1  0.64222000  0.60301000  0.10744000  1.0
  C  C116  1  0.08265000  0.12316000  0.17871000  1.0
  C  C117  1  0.17027000  0.12471000  0.07312000  1.0
  C  C118  1  0.01051000  0.16224000  0.16539000  1.0
  C  C119  1  0.24167000  0.08600000  0.08642000  1.0
  C  C120  1  0.11213000  0.13842000  0.10659000  1.0
  C  C121  1  0.14070000  0.10966000  0.14488000  1.0
  C  C122  1  0.34556000  0.85015000  0.84778000  1.0
  C  C123  1  0.40159000  0.90213000  0.90191000  1.0
  C  C124  1  0.30298000  0.92145000  0.86216000  1.0
  C  C125  1  0.44551000  0.83068000  0.88818000  1.0
  C  C126  1  0.32996000  0.94760000  0.88877000  1.0
  C  C127  1  0.41748000  0.80564000  0.86154000  1.0
  C  C128  1  0.40812000  0.44897000  0.85288000  1.0
  C  C129  1  0.34562000  0.30051000  0.89745000  1.0
  C  C130  1  0.33923000  0.49128000  0.83630000  1.0
  C  C131  1  0.41396000  0.25866000  0.91378000  1.0
  C  C132  1  0.34320000  0.36985000  0.87521000  1.0
  C  C133  1  0.41011000  0.37938000  0.87513000  1.0
  C  C134  1  0.94517000  0.79367000  0.84906000  1.0
  C  C135  1  0.80421000  0.95239000  0.90093000  1.0
  C  C136  1  0.99116000  0.83305000  0.83604000  1.0
  C  C137  1  0.75867000  0.91335000  0.91372000  1.0
  C  C138  1  0.87217000  0.90908000  0.87736000  1.0
  C  C139  1  0.87699000  0.83753000  0.87273000  1.0
  S  S140  1  0.29890000  0.32646000  0.39723000  1.0
  S  S141  1  0.45155000  0.42631000  0.35283000  1.0
  S  S142  1  0.66089000  0.63326000  0.56277000  1.0
  S  S143  1  0.58984000  0.61572000  0.68907000  1.0
  S  S144  1  0.13358000  0.16074000  0.56259000  1.0
  S  S145  1  0.11561000  0.08975000  0.68896000  1.0
  S  S146  1  0.97226000  0.80371000  0.40185000  1.0
  S  S147  1  0.77377000  0.94668000  0.34772000  1.0
  S  S148  1  0.61652000  0.58890000  0.18724000  1.0
  S  S149  1  0.63445000  0.66006000  0.06089000  1.0
  S  S150  1  0.01401000  0.18212000  0.11198000  1.0
  S  S151  1  0.23889000  0.06582000  0.13969000  1.0
  S  S152  1  0.27769000  0.44614000  0.84798000  1.0
  S  S153  1  0.47593000  0.30310000  0.90231000  1.0
  S  S154  1  0.95111000  0.92282000  0.85268000  1.0
  S  S155  1  0.79798000  0.82362000  0.89731000  1.0
  O  O156  1  0.00044000  0.49909000  0.50017000  1.0
  O  O157  1  0.07788000  0.31528000  0.52307000  1.0
  O  O158  1  0.03191000  0.53120000  0.58652000  1.0
  O  O159  1  0.15488000  0.50689000  0.44958000  1.0
  O  O160  1  0.02669000  0.37521000  0.58105000  1.0
  O  O161  1  0.15414000  0.39213000  0.44663000  1.0
  O  O162  1  0.08307000  0.58646000  0.53047000  1.0
  O  O163  1  0.00330000  0.65795000  0.44941000  1.0
  O  O164  1  0.88843000  0.49473000  0.44338000  1.0
  O  O165  1  0.88988000  0.65281000  0.44766000  1.0
  O  O166  1  0.99754000  0.38568000  0.44122000  1.0
  O  O167  1  0.87592000  0.52626000  0.58147000  1.0
  O  O168  1  0.81495000  0.57739000  0.52366000  1.0
  O  O169  1  0.74985000  0.25016000  0.25037000  1.0
  O  O170  1  0.59681000  0.35828000  0.30297000  1.0
  O  O171  1  0.66303000  0.16392000  0.21906000  1.0
  O  O172  1  0.72628000  0.37437000  0.16909000  1.0
  O  O173  1  0.59277000  0.24511000  0.29983000  1.0
  O  O174  1  0.67242000  0.43482000  0.22675000  1.0
  O  O175  1  0.72093000  0.21778000  0.16568000  1.0
  O  O176  1  0.87818000  0.22290000  0.16951000  1.0
  O  O177  1  0.86218000  0.25411000  0.30911000  1.0
  O  O178  1  0.93427000  0.17207000  0.22888000  1.0
  O  O179  1  0.75345000  0.36391000  0.30804000  1.0
  O  O180  1  0.74484000  0.09366000  0.29971000  1.0
  O  O181  1  0.85815000  0.09693000  0.30408000  1.0
  O  O182  1  0.25009000  0.74940000  0.74993000  1.0
  O  O183  1  0.37548000  0.72480000  0.66859000  1.0
  O  O184  1  0.36415000  0.75473000  0.80830000  1.0
  O  O185  1  0.17162000  0.93322000  0.72738000  1.0
  O  O186  1  0.43363000  0.67410000  0.72735000  1.0
  O  O187  1  0.22456000  0.87578000  0.66871000  1.0
  O  O188  1  0.25262000  0.86129000  0.80788000  1.0
  O  O189  1  0.09489000  0.85745000  0.80322000  1.0
  O  O190  1  0.16575000  0.66285000  0.71892000  1.0
  O  O191  1  0.09462000  0.74268000  0.79984000  1.0
  O  O192  1  0.21889000  0.71933000  0.66422000  1.0
  O  O193  1  0.35944000  0.59790000  0.80335000  1.0
  O  O194  1  0.24719000  0.59151000  0.80001000  1.0
  O  O195  1  0.49993000  0.00005000  0.00000000  1.0
  O  O196  1  0.50491000  0.15620000  0.95001000  1.0
  O  O197  1  0.38712000  0.99609000  0.94159000  1.0
  O  O198  1  0.65282000  0.89218000  0.94675000  1.0
  O  O199  1  0.39100000  0.15340000  0.94656000  1.0
  O  O200  1  0.65694000  0.00530000  0.94986000  1.0
  O  O201  1  0.49634000  0.88679000  0.94153000  1.0
  O  O202  1  0.57726000  0.81633000  0.02247000  1.0
  O  O203  1  0.53131000  0.03093000  0.08588000  1.0
  O  O204  1  0.52610000  0.87406000  0.08114000  1.0
  O  O205  1  0.58576000  0.08564000  0.03098000  1.0
  O  O206  1  0.31546000  0.07783000  0.02223000  1.0
  O  O207  1  0.37462000  0.02582000  0.08062000  1.0
  O  O208  1  0.28493000  0.52652000  0.41025000  1.0
  O  O209  1  0.78092000  0.53970000  0.65642000  1.0
  O  O210  1  0.04008000  0.28058000  0.65588000  1.0
  O  O211  1  0.78512000  0.77728000  0.40227000  1.0
  O  O212  1  0.71052000  0.46899000  0.09404000  1.0
  O  O213  1  0.09417000  0.10162000  0.21886000  1.0
  O  O214  1  0.46478000  0.47253000  0.84791000  1.0
  O  O215  1  0.96447000  0.72291000  0.83983000  1.0
  F  F216  1  0.78273000  0.51636000  0.39919000  1.0
  F  F217  1  0.15975000  0.65975000  0.54198000  1.0
  F  F218  1  0.70778000  0.20799000  0.09060000  1.0
  F  F219  1  0.23320000  0.96833000  0.85062000  1.0
