# generated using pymatgen
data_CdH8C10S2(NO)4
_symmetry_space_group_name_H-M   'P 1'
_cell_length_a   7.15298000
_cell_length_b   9.81320000
_cell_length_c   9.81320000
_cell_angle_alpha   84.04910000
_cell_angle_beta   75.88200000
_cell_angle_gamma   75.88190000
_symmetry_Int_Tables_number   1
_chemical_formula_structural   CdH8C10S2(NO)4
_chemical_formula_sum   'Cd2 H16 C20 S4 N8 O8'
_cell_volume   647.12580504
_cell_formula_units_Z   2
loop_
 _symmetry_equiv_pos_site_id
 _symmetry_equiv_pos_as_xyz
  1  'x, y, z'
loop_
 _atom_site_type_symbol
 _atom_site_label
 _atom_site_symmetry_multiplicity
 _atom_site_fract_x
 _atom_site_fract_y
 _atom_site_fract_z
 _atom_site_occupancy
  Cd  Cd0  1  0.75000000  0.56709000  0.43291000  1.0
  Cd  Cd1  1  0.25000000  0.43291000  0.56709000  1.0
  H  H2  1  0.68465000  0.06104000  0.63193000  1.0
  H  H3  1  0.81535000  0.36807000  0.93896000  1.0
  H  H4  1  0.31535000  0.93896000  0.36807000  1.0
  H  H5  1  0.18465000  0.63193000  0.06104000  1.0
  H  H6  1  0.37164000  0.82147000  0.00029000  1.0
  H  H7  1  0.12836000  0.99971000  0.17853000  1.0
  H  H8  1  0.62836000  0.17853000  0.99971000  1.0
  H  H9  1  0.87164000  0.00030000  0.82147000  1.0
  H  H10  1  0.86687000  0.88253000  0.44525000  1.0
  H  H11  1  0.63313000  0.55475000  0.11747000  1.0
  H  H12  1  0.13313000  0.11747000  0.55475000  1.0
  H  H13  1  0.36687000  0.44525000  0.88253000  1.0
  H  H14  1  0.40022000  0.71749000  0.70411000  1.0
  H  H15  1  0.09978000  0.29588000  0.28251000  1.0
  H  H16  1  0.59978000  0.28250000  0.29589000  1.0
  H  H17  1  0.90022000  0.70411000  0.71749000  1.0
  C  C18  1  0.31384000  0.93100000  0.97176000  1.0
  C  C19  1  0.18616000  0.02824000  0.06900000  1.0
  C  C20  1  0.68616000  0.06900000  0.02824000  1.0
  C  C21  1  0.81384000  0.97176000  0.93100000  1.0
  C  C22  1  0.36248000  0.98994000  0.83742000  1.0
  C  C23  1  0.13752000  0.16258000  0.01006000  1.0
  C  C24  1  0.63752000  0.01006000  0.16258000  1.0
  C  C25  1  0.86248000  0.83742000  0.98994000  1.0
  C  C26  1  0.48819000  0.91881000  0.71417000  1.0
  C  C27  1  0.01181000  0.28583000  0.08119000  1.0
  C  C28  1  0.51181000  0.08119000  0.28584000  1.0
  C  C29  1  0.98819000  0.71417000  0.91881000  1.0
  C  C30  1  0.73531000  0.87331000  0.52569000  1.0
  C  C31  1  0.76469000  0.47431000  0.12669000  1.0
  C  C32  1  0.26469000  0.12669000  0.47431000  1.0
  C  C33  1  0.23531000  0.52569000  0.87331000  1.0
  C  C34  1  0.49594000  0.78983000  0.66516000  1.0
  C  C35  1  0.00407000  0.33484000  0.21018000  1.0
  C  C36  1  0.50406000  0.21017000  0.33485000  1.0
  C  C37  1  0.99593000  0.66516000  0.78983000  1.0
  S  S38  1  0.25000000  0.16745000  0.83255000  1.0
  S  S39  1  0.75000000  0.83255000  0.16745000  1.0
  S  S40  1  0.75000000  0.33324000  0.66676000  1.0
  S  S41  1  0.25000000  0.66676000  0.33324000  1.0
  N  N42  1  0.65081000  0.76284000  0.54884000  1.0
  N  N43  1  0.84919000  0.45116000  0.23717000  1.0
  N  N44  1  0.34919000  0.23716000  0.45116000  1.0
  N  N45  1  0.15081000  0.54884000  0.76284000  1.0
  N  N46  1  0.63967000  0.96941000  0.62260000  1.0
  N  N47  1  0.86033000  0.37740000  0.03059000  1.0
  N  N48  1  0.36033000  0.03059000  0.37740000  1.0
  N  N49  1  0.13967000  0.62260000  0.96941000  1.0
  O  O50  1  0.80999000  0.18119000  0.64131000  1.0
  O  O51  1  0.69001000  0.35869000  0.81881000  1.0
  O  O52  1  0.19001000  0.81881000  0.35869000  1.0
  O  O53  1  0.30999000  0.64131000  0.18119000  1.0
  O  O54  1  0.91679000  0.40279000  0.59501000  1.0
  O  O55  1  0.58321000  0.40499000  0.59721000  1.0
  O  O56  1  0.08321000  0.59721000  0.40499000  1.0
  O  O57  1  0.41679000  0.59501000  0.40279000  1.0
