# generated using pymatgen
data_Cu3H32C16S4(Br3O2)2
_symmetry_space_group_name_H-M   'P 1'
_cell_length_a   8.24612000
_cell_length_b   9.41203000
_cell_length_c   11.38783878
_cell_angle_alpha   66.57789409
_cell_angle_beta   70.30931621
_cell_angle_gamma   72.99500000
_symmetry_Int_Tables_number   1
_chemical_formula_structural   Cu3H32C16S4(Br3O2)2
_chemical_formula_sum   'Cu3 H32 C16 S4 Br6 O4'
_cell_volume   750.62645229
_cell_formula_units_Z   1
loop_
 _symmetry_equiv_pos_site_id
 _symmetry_equiv_pos_as_xyz
  1  'x, y, z'
loop_
 _atom_site_type_symbol
 _atom_site_label
 _atom_site_symmetry_multiplicity
 _atom_site_fract_x
 _atom_site_fract_y
 _atom_site_fract_z
 _atom_site_occupancy
  Cu  Cu0  1  0.01533000  0.39170000  0.66361000  1.0
  Cu  Cu1  1  0.98465000  0.60831000  0.33640000  1.0
  Cu  Cu2  1  0.00001000  0.50001000  0.00000000  1.0
  H  H3  1  0.68439000  0.20974000  0.16624000  1.0
  H  H4  1  0.31560000  0.79029000  0.83375000  1.0
  H  H5  1  0.46060000  0.29876000  0.16827000  1.0
  H  H6  1  0.53939000  0.70127000  0.83173000  1.0
  H  H7  1  0.58098000  0.08391000  0.39865000  1.0
  H  H8  1  0.41899000  0.91611000  0.60134000  1.0
  H  H9  1  0.37345000  0.21036000  0.40078000  1.0
  H  H10  1  0.62653000  0.78967000  0.59921000  1.0
  H  H11  1  0.48288000  0.29357000  0.52581000  1.0
  H  H12  1  0.51711000  0.70643000  0.47420000  1.0
  H  H13  1  0.70083000  0.27555000  0.42563000  1.0
  H  H14  1  0.29915000  0.72445000  0.57438000  1.0
  H  H15  1  0.38515000  0.52316000  0.33985000  1.0
  H  H16  1  0.61487000  0.47687000  0.66015000  1.0
  H  H17  1  0.58505000  0.56231000  0.34240000  1.0
  H  H18  1  0.41497000  0.43769000  0.65762000  1.0
  H  H19  1  0.33631000  0.03777000  0.99898000  1.0
  H  H20  1  0.66368000  0.96221000  0.00101000  1.0
  H  H21  1  0.19462000  0.89749000  0.06891000  1.0
  H  H22  1  0.80535000  0.10251000  0.93109000  1.0
  H  H23  1  0.45122000  0.88451000  0.19230000  1.0
  H  H24  1  0.54878000  0.11547000  0.80768000  1.0
  H  H25  1  0.26326000  0.79544000  0.27281000  1.0
  H  H26  1  0.73674000  0.20455000  0.72717000  1.0
  H  H27  1  0.22996000  0.96083000  0.40018000  1.0
  H  H28  1  0.77006000  0.03914000  0.59981000  1.0
  H  H29  1  0.29760000  0.11899000  0.25616000  1.0
  H  H30  1  0.70242000  0.88097000  0.74385000  1.0
  H  H31  1  0.95748000  0.99358000  0.33042000  1.0
  H  H32  1  0.04252000  0.00641000  0.66958000  1.0
  H  H33  1  0.97327000  0.18942000  0.31031000  1.0
  H  H34  1  0.02675000  0.81056000  0.68971000  1.0
  C  C35  1  0.56671000  0.27742000  0.21437000  1.0
  C  C36  1  0.43329000  0.72261000  0.78562000  1.0
  C  C37  1  0.51550000  0.20735000  0.36625000  1.0
  C  C38  1  0.48447000  0.79266000  0.63375000  1.0
  C  C39  1  0.56216000  0.30801000  0.42397000  1.0
  C  C40  1  0.43785000  0.69200000  0.57603000  1.0
  C  C41  1  0.52567000  0.47774000  0.33387000  1.0
  C  C42  1  0.47433000  0.52226000  0.66614000  1.0
  C  C43  1  0.24218000  0.98140000  0.08851000  1.0
  C  C44  1  0.75781000  0.01859000  0.91148000  1.0
  C  C45  1  0.30744000  0.90862000  0.21521000  1.0
  C  C46  1  0.69256000  0.09135000  0.78478000  1.0
  C  C47  1  0.22707000  0.02056000  0.29598000  1.0
  C  C48  1  0.77295000  0.97941000  0.70402000  1.0
  C  C49  1  0.04014000  0.08440000  0.28197000  1.0
  C  C50  1  0.95987000  0.91558000  0.71803000  1.0
  S  S51  1  0.05856000  0.14285000  0.10618000  1.0
  S  S52  1  0.94144000  0.85715000  0.89383000  1.0
  S  S53  1  0.62522000  0.46897000  0.16785000  1.0
  S  S54  1  0.37479000  0.53104000  0.83216000  1.0
  Br  Br55  1  0.80716000  0.41899000  0.86015000  1.0
  Br  Br56  1  0.19283000  0.58101000  0.13986000  1.0
  Br  Br57  1  0.21265000  0.16583000  0.75004000  1.0
  Br  Br58  1  0.78733000  0.83419000  0.24994000  1.0
  Br  Br59  1  0.99072000  0.66768000  0.52737000  1.0
  Br  Br60  1  0.00927000  0.33233000  0.47263000  1.0
  O  O61  1  0.15035000  0.28791000  0.04281000  1.0
  O  O62  1  0.84968000  0.71208000  0.95720000  1.0
  O  O63  1  0.82302000  0.42584000  0.16565000  1.0
  O  O64  1  0.17699000  0.57416000  0.83435000  1.0
