# generated using pymatgen
data_Cu2H8C13N5
_symmetry_space_group_name_H-M   'P 1'
_cell_length_a   8.19430000
_cell_length_b   10.67070000
_cell_length_c   13.88670000
_cell_angle_alpha   90.00180000
_cell_angle_beta   90.00010000
_cell_angle_gamma   91.44600000
_symmetry_Int_Tables_number   1
_chemical_formula_structural   Cu2H8C13N5
_chemical_formula_sum   'Cu8 H32 C52 N20'
_cell_volume   1213.85133680
_cell_formula_units_Z   4
loop_
 _symmetry_equiv_pos_site_id
 _symmetry_equiv_pos_as_xyz
  1  'x, y, z'
loop_
 _atom_site_type_symbol
 _atom_site_label
 _atom_site_symmetry_multiplicity
 _atom_site_fract_x
 _atom_site_fract_y
 _atom_site_fract_z
 _atom_site_occupancy
  Cu  Cu0  1  0.92476000  0.48210000  0.57686000  1.0
  Cu  Cu1  1  0.57521000  0.01786000  0.07684000  1.0
  Cu  Cu2  1  0.07509000  0.51797000  0.42317000  1.0
  Cu  Cu3  1  0.42485000  0.98209000  0.92317000  1.0
  Cu  Cu4  1  0.55151000  0.24245000  0.38702000  1.0
  Cu  Cu5  1  0.94863000  0.25752000  0.88708000  1.0
  Cu  Cu6  1  0.44869000  0.75758000  0.61290000  1.0
  Cu  Cu7  1  0.05143000  0.74237000  0.11291000  1.0
  H  H8  1  0.74684000  0.03290000  0.29012000  1.0
  H  H9  1  0.75317000  0.46707000  0.79013000  1.0
  H  H10  1  0.25319000  0.96706000  0.70987000  1.0
  H  H11  1  0.24681000  0.53292000  0.20988000  1.0
  H  H12  1  0.90233000  0.84849000  0.34644000  1.0
  H  H13  1  0.59768000  0.65151000  0.84643000  1.0
  H  H14  1  0.09769000  0.15150000  0.65358000  1.0
  H  H15  1  0.40231000  0.34851000  0.15357000  1.0
  H  H16  1  0.90890000  0.80143000  0.52388000  1.0
  H  H17  1  0.59113000  0.69859000  0.02387000  1.0
  H  H18  1  0.09113000  0.19857000  0.47614000  1.0
  H  H19  1  0.40887000  0.30144000  0.97613000  1.0
  H  H20  1  0.76534000  0.94397000  0.63698000  1.0
  H  H21  1  0.73471000  0.55608000  0.13699000  1.0
  H  H22  1  0.23471000  0.05607000  0.36301000  1.0
  H  H23  1  0.26532000  0.44397000  0.86301000  1.0
  H  H24  1  0.65367000  0.08069000  0.72418000  1.0
  H  H25  1  0.84626000  0.41926000  0.22417000  1.0
  H  H26  1  0.34634000  0.91929000  0.27586000  1.0
  H  H27  1  0.15370000  0.58071000  0.77582000  1.0
  H  H28  1  0.51421000  0.24648000  0.81156000  1.0
  H  H29  1  0.98578000  0.25351000  0.31153000  1.0
  H  H30  1  0.48579000  0.75349000  0.18848000  1.0
  H  H31  1  0.01423000  0.74650000  0.68846000  1.0
  H  H32  1  0.38399000  0.42212000  0.71573000  1.0
  H  H33  1  0.11603000  0.07788000  0.21568000  1.0
  H  H34  1  0.61599000  0.57785000  0.28432000  1.0
  H  H35  1  0.88398000  0.92213000  0.78429000  1.0
  H  H36  1  0.39620000  0.41352000  0.53817000  1.0
  H  H37  1  0.10383000  0.08647000  0.03813000  1.0
  H  H38  1  0.60384000  0.58645000  0.46187000  1.0
  H  H39  1  0.89621000  0.91356000  0.96185000  1.0
  C  C40  1  0.75496000  0.59216000  0.61499000  1.0
  C  C41  1  0.74511000  0.90795000  0.11504000  1.0
  C  C42  1  0.24496000  0.40800000  0.38492000  1.0
  C  C43  1  0.25498000  0.09206000  0.88496000  1.0
  C  C44  1  0.95545000  0.36424000  0.67815000  1.0
  C  C45  1  0.54463000  0.13566000  0.17817000  1.0
  C  C46  1  0.04453000  0.63564000  0.32175000  1.0
  C  C47  1  0.45551000  0.86424000  0.82187000  1.0
  C  C48  1  0.75678000  0.01136000  0.36647000  1.0
  C  C49  1  0.74323000  0.48862000  0.86647000  1.0
  C  C50  1  0.24324000  0.98861000  0.63353000  1.0
  C  C51  1  0.25675000  0.51139000  0.13353000  1.0
  C  C52  1  0.84278000  0.90842000  0.39847000  1.0
  C  C53  1  0.65723000  0.59158000  0.89847000  1.0
  C  C54  1  0.15723000  0.09156000  0.60154000  1.0
  C  C55  1  0.34276000  0.40845000  0.10153000  1.0
  C  C56  1  0.84615000  0.88315000  0.49686000  1.0
  C  C57  1  0.65386000  0.61686000  0.99686000  1.0
  C  C58  1  0.15386000  0.11685000  0.50315000  1.0
  C  C59  1  0.34613000  0.38316000  0.00314000  1.0
  C  C60  1  0.76626000  0.96258000  0.55992000  1.0
  C  C61  1  0.73375000  0.53745000  0.05994000  1.0
  C  C62  1  0.23376000  0.03744000  0.44007000  1.0
  C  C63  1  0.26626000  0.46257000  0.94008000  1.0
  C  C64  1  0.68501000  0.06601000  0.52331000  1.0
  C  C65  1  0.81499000  0.43401000  0.02332000  1.0
  C  C66  1  0.31500000  0.93401000  0.47669000  1.0
  C  C67  1  0.18500000  0.56601000  0.97669000  1.0
  C  C68  1  0.60024000  0.15765000  0.58326000  1.0
  C  C69  1  0.89977000  0.34235000  0.08323000  1.0
  C  C70  1  0.39980000  0.84235000  0.41677000  1.0
  C  C71  1  0.10022000  0.65766000  0.91675000  1.0
  C  C72  1  0.59556000  0.15455000  0.68373000  1.0
  C  C73  1  0.90443000  0.34542000  0.18372000  1.0
  C  C74  1  0.40449000  0.84543000  0.31630000  1.0
  C  C75  1  0.09554000  0.65457000  0.81628000  1.0
  C  C76  1  0.51679000  0.24905000  0.73329000  1.0
  C  C77  1  0.98321000  0.25093000  0.23326000  1.0
  C  C78  1  0.48323000  0.75092000  0.26674000  1.0
  C  C79  1  0.01680000  0.74907000  0.76672000  1.0
  C  C80  1  0.44511000  0.34457000  0.68143000  1.0
  C  C81  1  0.05490000  0.15543000  0.18139000  1.0
  C  C82  1  0.55489000  0.65541000  0.31862000  1.0
  C  C83  1  0.94510000  0.84458000  0.81859000  1.0
  C  C84  1  0.45236000  0.34149000  0.58135000  1.0
  C  C85  1  0.04769000  0.15852000  0.08131000  1.0
  C  C86  1  0.54769000  0.65850000  0.41871000  1.0
  C  C87  1  0.95235000  0.84150000  0.91867000  1.0
  C  C88  1  0.85577000  0.42153000  0.44341000  1.0
  C  C89  1  0.64424000  0.07842000  0.94339000  1.0
  C  C90  1  0.14419000  0.57859000  0.55653000  1.0
  C  C91  1  0.35581000  0.92137000  0.05650000  1.0
  N  N92  1  0.67997000  0.08803000  0.42709000  1.0
  N  N93  1  0.82001000  0.41197000  0.92711000  1.0
  N  N94  1  0.32002000  0.91197000  0.57289000  1.0
  N  N95  1  0.17994000  0.58803000  0.07289000  1.0
  N  N96  1  0.52649000  0.24993000  0.53376000  1.0
  N  N97  1  0.97357000  0.25010000  0.03372000  1.0
  N  N98  1  0.47355000  0.75008000  0.46628000  1.0
  N  N99  1  0.02652000  0.74994000  0.96625000  1.0
  N  N100  1  0.75140000  0.37222000  0.39737000  1.0
  N  N101  1  0.74862000  0.12778000  0.89740000  1.0
  N  N102  1  0.24854000  0.62780000  0.60263000  1.0
  N  N103  1  0.25142000  0.87221000  0.10260000  1.0
  N  N104  1  0.64049000  0.65368000  0.62969000  1.0
  N  N105  1  0.85933000  0.84608000  0.12946000  1.0
  N  N106  1  0.35929000  0.34620000  0.37063000  1.0
  N  N107  1  0.14051000  0.15362000  0.87038000  1.0
  N  N108  1  0.95698000  0.31073000  0.75227000  1.0
  N  N109  1  0.54275000  0.18955000  0.25212000  1.0
  N  N110  1  0.04306000  0.68949000  0.24778000  1.0
  N  N111  1  0.45682000  0.81079000  0.74772000  1.0
