# generated using pymatgen
data_Cd2H21C19(N3O4)2
_symmetry_space_group_name_H-M   'P 1'
_cell_length_a   8.91060000
_cell_length_b   10.56830000
_cell_length_c   12.82560000
_cell_angle_alpha   86.18970000
_cell_angle_beta   73.90910000
_cell_angle_gamma   83.28940000
_symmetry_Int_Tables_number   1
_chemical_formula_structural   Cd2H21C19(N3O4)2
_chemical_formula_sum   'Cd4 H42 C38 N12 O16'
_cell_volume   1151.78325876
_cell_formula_units_Z   2
loop_
 _symmetry_equiv_pos_site_id
 _symmetry_equiv_pos_as_xyz
  1  'x, y, z'
loop_
 _atom_site_type_symbol
 _atom_site_label
 _atom_site_symmetry_multiplicity
 _atom_site_fract_x
 _atom_site_fract_y
 _atom_site_fract_z
 _atom_site_occupancy
  Cd  Cd0  1  0.15388000  0.49723000  0.08335000  1.0
  Cd  Cd1  1  0.84612000  0.50277000  0.91665000  1.0
  Cd  Cd2  1  0.57924000  0.82784000  0.30907000  1.0
  Cd  Cd3  1  0.42076000  0.17216000  0.69093000  1.0
  H  H4  1  0.78481000  0.39924000  0.18404000  1.0
  H  H5  1  0.21519000  0.60076000  0.81596000  1.0
  H  H6  1  0.73318000  0.17009000  0.30238000  1.0
  H  H7  1  0.26682000  0.82991000  0.69762000  1.0
  H  H8  1  0.20606000  0.24118000  0.25148000  1.0
  H  H9  1  0.79394000  0.75882000  0.74852000  1.0
  H  H10  1  0.13219000  0.01722000  0.31469000  1.0
  H  H11  1  0.86781000  0.98278000  0.68531000  1.0
  H  H12  1  0.93578000  0.98412000  0.33459000  1.0
  H  H13  1  0.06422000  0.01588000  0.66541000  1.0
  H  H14  1  0.85711000  0.10045000  0.51012000  1.0
  H  H15  1  0.14289000  0.89955000  0.48988000  1.0
  H  H16  1  0.05293000  0.13474000  0.48909000  1.0
  H  H17  1  0.94707000  0.86526000  0.51091000  1.0
  H  H18  1  0.54876000  0.54620000  0.20009000  1.0
  H  H19  1  0.45124000  0.45380000  0.79991000  1.0
  H  H20  1  0.36079000  0.36176000  0.31194000  1.0
  H  H21  1  0.63921000  0.63824000  0.68806000  1.0
  H  H22  1  0.33744000  0.66281000  0.51998000  1.0
  H  H23  1  0.66256000  0.33719000  0.48002000  1.0
  H  H24  1  0.19008000  0.48101000  0.60252000  1.0
  H  H25  1  0.80992000  0.51898000  0.39748000  1.0
  H  H26  1  0.25103000  0.33337000  0.53775000  1.0
  H  H27  1  0.74897000  0.66666667  0.46225000  1.0
  H  H28  1  0.05351000  0.38052000  0.43197000  1.0
  H  H29  1  0.94649000  0.61948000  0.56803000  1.0
  H  H30  1  0.96851000  0.37936000  0.57424000  1.0
  H  H31  1  0.03149000  0.62064000  0.42576000  1.0
  H  H32  1  0.48886000  0.12225000  0.20287000  1.0
  H  H33  1  0.51114000  0.87775000  0.79713000  1.0
  H  H34  1  0.34258000  0.15589000  0.03535000  1.0
  H  H35  1  0.65742000  0.84411000  0.96465000  1.0
  H  H36  1  0.30628000  0.78005000  0.17002000  1.0
  H  H37  1  0.69372000  0.21995000  0.82998000  1.0
  H  H38  1  0.20483000  0.83289000  0.00856000  1.0
  H  H39  1  0.79517000  0.16711000  0.99144000  1.0
  H  H40  1  0.27275000  0.96680000  0.92615000  1.0
  H  H41  1  0.72725000  0.03320000  0.07385000  1.0
  H  H42  1  0.05601000  0.11018000  0.04688000  1.0
  H  H43  1  0.94399000  0.88982000  0.95312000  1.0
  H  H44  1  0.98110000  0.97443000  0.12228000  1.0
  H  H45  1  0.01890000  0.02557000  0.87772000  1.0
  C  C46  1  0.92755000  0.71790000  0.21270000  1.0
  C  C47  1  0.07245000  0.28210000  0.78730000  1.0
  C  C48  1  0.84272000  0.68524000  0.12654000  1.0
  C  C49  1  0.15728000  0.31476000  0.87346000  1.0
  C  C50  1  0.51360000  0.43630000  0.03338000  1.0
  C  C51  1  0.48640000  0.56370000  0.96662000  1.0
  C  C52  1  0.52290000  0.05821000  0.45982000  1.0
  C  C53  1  0.47710000  0.94179000  0.54018000  1.0
  C  C54  1  0.86414000  0.33513000  0.21819000  1.0
  C  C55  1  0.13586000  0.66487000  0.78181000  1.0
  C  C56  1  0.83662000  0.22184000  0.27570000  1.0
  C  C57  1  0.16338000  0.77816000  0.72430000  1.0
  C  C58  1  0.08403000  0.25740000  0.25138000  1.0
  C  C59  1  0.91597000  0.74261000  0.74862000  1.0
  C  C60  1  0.00912000  0.05254000  0.35146000  1.0
  C  C61  1  0.99088000  0.94746000  0.64854000  1.0
  C  C62  1  0.98049000  0.06440000  0.47349000  1.0
  C  C63  1  0.01951000  0.93560000  0.52651000  1.0
  C  C64  1  0.47591000  0.54310000  0.28298000  1.0
  C  C65  1  0.52409000  0.45690000  0.71702000  1.0
  C  C66  1  0.38223000  0.45193000  0.33733000  1.0
  C  C67  1  0.61777000  0.54807000  0.66267000  1.0
  C  C68  1  0.36824000  0.60833000  0.44697000  1.0
  C  C69  1  0.63176000  0.39167000  0.55303000  1.0
  C  C70  1  0.20094000  0.43172000  0.52760000  1.0
  C  C71  1  0.79906000  0.56828000  0.47240000  1.0
  C  C72  1  0.04048000  0.43319000  0.50582000  1.0
  C  C73  1  0.95952000  0.56681000  0.49418000  1.0
  C  C74  1  0.42925000  0.05628000  0.17142000  1.0
  C  C75  1  0.57075000  0.94372000  0.82858000  1.0
  C  C76  1  0.35677000  0.07446000  0.08921000  1.0
  C  C77  1  0.64323000  0.92554000  0.91079000  1.0
  C  C78  1  0.33932000  0.87668000  0.15746000  1.0
  C  C79  1  0.66068000  0.12332000  0.84254000  1.0
  C  C80  1  0.20871000  0.93634000  0.00838000  1.0
  C  C81  1  0.79130000  0.06366000  0.99162000  1.0
  C  C82  1  0.04533000  0.00832000  0.04093000  1.0
  C  C83  1  0.95467000  0.99168000  0.95907000  1.0
  N  N84  1  0.01903000  0.35630000  0.20363000  1.0
  N  N85  1  0.98097000  0.64370000  0.79637000  1.0
  N  N86  1  0.97757000  0.17362000  0.29551000  1.0
  N  N87  1  0.02243000  0.82638000  0.70449000  1.0
  N  N88  1  0.46671000  0.63999000  0.35222000  1.0
  N  N89  1  0.53329000  0.36001000  0.64778000  1.0
  N  N90  1  0.31447000  0.49492000  0.44088000  1.0
  N  N91  1  0.68553000  0.50508000  0.55912000  1.0
  N  N92  1  0.41765000  0.93253000  0.21336000  1.0
  N  N93  1  0.58235000  0.06747000  0.78664000  1.0
  N  N94  1  0.30017000  0.96008000  0.08194000  1.0
  N  N95  1  0.69983000  0.03992000  0.91806000  1.0
  O  O96  1  0.91832000  0.60399000  0.05618000  1.0
  O  O97  1  0.08168000  0.39601000  0.94382000  1.0
  O  O98  1  0.06740000  0.66946000  0.20248000  1.0
  O  O99  1  0.93260000  0.33054000  0.79753000  1.0
  O  O100  1  0.70836000  0.74014000  0.13128000  1.0
  O  O101  1  0.29164000  0.25986000  0.86872000  1.0
  O  O102  1  0.84916000  0.79250000  0.28675000  1.0
  O  O103  1  0.15084000  0.20750000  0.71325000  1.0
  O  O104  1  0.39410000  0.38643000  0.09080000  1.0
  O  O105  1  0.60590000  0.61357000  0.90920000  1.0
  O  O106  1  0.65461000  0.39140000  0.02676000  1.0
  O  O107  1  0.34539000  0.60860000  0.97324000  1.0
  O  O108  1  0.58395000  0.03527000  0.36030000  1.0
  O  O109  1  0.41605000  0.96473000  0.63969000  1.0
  O  O110  1  0.49729000  0.16805000  0.49870000  1.0
  O  O111  1  0.50271000  0.83195000  0.50130000  1.0
