# generated using pymatgen
data_Cu2H19C19NO7
_symmetry_space_group_name_H-M   'P 1'
_cell_length_a   9.92221000
_cell_length_b   9.92164000
_cell_length_c   27.03460000
_cell_angle_alpha   95.80040000
_cell_angle_beta   95.83220000
_cell_angle_gamma   90.17230000
_symmetry_Int_Tables_number   1
_chemical_formula_structural   Cu2H19C19NO7
_chemical_formula_sum   'Cu8 H76 C76 N4 O28'
_cell_volume   2633.84127256
_cell_formula_units_Z   4
loop_
 _symmetry_equiv_pos_site_id
 _symmetry_equiv_pos_as_xyz
  1  'x, y, z'
loop_
 _atom_site_type_symbol
 _atom_site_label
 _atom_site_symmetry_multiplicity
 _atom_site_fract_x
 _atom_site_fract_y
 _atom_site_fract_z
 _atom_site_occupancy
  Cu  Cu0  1  0.00001000  0.99999000  0.49998000  1.0
  Cu  Cu1  1  0.99999000  0.00000000  0.99997000  1.0
  Cu  Cu2  1  0.83347000  0.24401000  0.48713000  1.0
  Cu  Cu3  1  0.75598000  0.16639000  0.01288000  1.0
  Cu  Cu4  1  0.16635000  0.75592000  0.51291000  1.0
  Cu  Cu5  1  0.24430000  0.83349000  0.98714000  1.0
  Cu  Cu6  1  0.99989000  0.49997000  0.49999000  1.0
  Cu  Cu7  1  0.50030000  0.00022000  0.99998000  1.0
  H  H8  1  0.08560000  0.07957000  0.66165000  1.0
  H  H9  1  0.92038000  0.91442000  0.83835000  1.0
  H  H10  1  0.91429000  0.92038000  0.33840000  1.0
  H  H11  1  0.07955000  0.08560000  0.16162000  1.0
  H  H12  1  0.12822000  0.16902000  0.75111000  1.0
  H  H13  1  0.83088000  0.87174000  0.74890000  1.0
  H  H14  1  0.87169000  0.83103000  0.24893000  1.0
  H  H15  1  0.16902000  0.12825000  0.25108000  1.0
  H  H16  1  0.98787000  0.56104000  0.71442000  1.0
  H  H17  1  0.43878000  0.01191000  0.78550000  1.0
  H  H18  1  0.01214000  0.43898000  0.28560000  1.0
  H  H19  1  0.56111000  0.98799000  0.21446000  1.0
  H  H20  1  0.94574000  0.46904000  0.62408000  1.0
  H  H21  1  0.53089000  0.05410000  0.87585000  1.0
  H  H22  1  0.05420000  0.53095000  0.37594000  1.0
  H  H23  1  0.46897000  0.94581000  0.12412000  1.0
  H  H24  1  0.33922000  0.39221000  0.81339000  1.0
  H  H25  1  0.60762000  0.66061000  0.68652000  1.0
  H  H26  1  0.66090000  0.60782000  0.18657000  1.0
  H  H27  1  0.39217000  0.33910000  0.31340000  1.0
  H  H28  1  0.43104000  0.25317000  0.88196000  1.0
  H  H29  1  0.74667000  0.56888000  0.61803000  1.0
  H  H30  1  0.56906000  0.74681000  0.11800000  1.0
  H  H31  1  0.25320000  0.43094000  0.38189000  1.0
  H  H32  1  0.02576000  0.14662000  0.90693000  1.0
  H  H33  1  0.85343000  0.97423000  0.59315000  1.0
  H  H34  1  0.97434000  0.85349000  0.09309000  1.0
  H  H35  1  0.14661000  0.02563000  0.40689000  1.0
  H  H36  1  0.93283000  0.28607000  0.83853000  1.0
  H  H37  1  0.71404000  0.06701000  0.66150000  1.0
  H  H38  1  0.06726000  0.71399000  0.16145000  1.0
  H  H39  1  0.28602000  0.93276000  0.33857000  1.0
  H  H40  1  0.83619000  0.43403000  0.39904000  1.0
  H  H41  1  0.56654000  0.16326000  0.10076000  1.0
  H  H42  1  0.16362000  0.56608000  0.60103000  1.0
  H  H43  1  0.43393000  0.83627000  0.89901000  1.0
  H  H44  1  0.71456000  0.54748000  0.42284000  1.0
  H  H45  1  0.45270000  0.28490000  0.07716000  1.0
  H  H46  1  0.28526000  0.45264000  0.57729000  1.0
  H  H47  1  0.54731000  0.71450000  0.92273000  1.0
  H  H48  1  0.60115000  0.33510000  0.37464000  1.0
  H  H49  1  0.66486000  0.39841000  0.12545000  1.0
  H  H50  1  0.39862000  0.66504000  0.62541000  1.0
  H  H51  1  0.33491000  0.60147000  0.87459000  1.0
  H  H52  1  0.56959000  0.35579000  0.43874000  1.0
  H  H53  1  0.64438000  0.43049000  0.06139000  1.0
  H  H54  1  0.43028000  0.64413000  0.56131000  1.0
  H  H55  1  0.35567000  0.56956000  0.93869000  1.0
  H  H56  1  0.63524000  0.92996000  0.48089000  1.0
  H  H57  1  0.06986000  0.36479000  0.01900000  1.0
  H  H58  1  0.36470000  0.07001000  0.51901000  1.0
  H  H59  1  0.93007000  0.63586000  0.98111000  1.0
  H  H60  1  0.74660000  0.92451000  0.43318000  1.0
  H  H61  1  0.07549000  0.25341000  0.06672000  1.0
  H  H62  1  0.25345000  0.07551000  0.56676000  1.0
  H  H63  1  0.92453000  0.74693000  0.93326000  1.0
  H  H64  1  0.54726000  0.05827000  0.40583000  1.0
  H  H65  1  0.94216000  0.45263000  0.09415000  1.0
  H  H66  1  0.45279000  0.94180000  0.59411000  1.0
  H  H67  1  0.05771000  0.54756000  0.90587000  1.0
  H  H68  1  0.55736000  0.15556000  0.46535000  1.0
  H  H69  1  0.84433000  0.44275000  0.03469000  1.0
  H  H70  1  0.44267000  0.84437000  0.53459000  1.0
  H  H71  1  0.15540000  0.55727000  0.96537000  1.0
  H  H72  1  0.84937000  0.22754000  0.36958000  1.0
  H  H73  1  0.77310000  0.15041000  0.13050000  1.0
  H  H74  1  0.15072000  0.77284000  0.63046000  1.0
  H  H75  1  0.22709000  0.84963000  0.86960000  1.0
  H  H76  1  0.70920000  0.11556000  0.34746000  1.0
  H  H77  1  0.88502000  0.29063000  0.15260000  1.0
  H  H78  1  0.29106000  0.88469000  0.65251000  1.0
  H  H79  1  0.11509000  0.70944000  0.84748000  1.0
  H  H80  1  0.84527000  0.06402000  0.39074000  1.0
  H  H81  1  0.93643000  0.15479000  0.10925000  1.0
  H  H82  1  0.15495000  0.93631000  0.60927000  1.0
  H  H83  1  0.06371000  0.84537000  0.89081000  1.0
  C  C84  1  0.98314000  0.21631000  0.58335000  1.0
  C  C85  1  0.78355000  0.01667000  0.91664000  1.0
  C  C86  1  0.01692000  0.78367000  0.41667000  1.0
  C  C87  1  0.21624000  0.98287000  0.08337000  1.0
  C  C88  1  0.01338000  0.26877000  0.63712000  1.0
  C  C89  1  0.73114000  0.98653000  0.86284000  1.0
  C  C90  1  0.98665000  0.73124000  0.36289000  1.0
  C  C91  1  0.26870000  0.01324000  0.13715000  1.0
  C  C92  1  0.06538000  0.18531000  0.67306000  1.0
  C  C93  1  0.81461000  0.93460000  0.82693000  1.0
  C  C94  1  0.93458000  0.81468000  0.32696000  1.0
  C  C95  1  0.18528000  0.06533000  0.17306000  1.0
  C  C96  1  0.08911000  0.23501000  0.72330000  1.0
  C  C97  1  0.76491000  0.91085000  0.77669000  1.0
  C  C98  1  0.91083000  0.76501000  0.27671000  1.0
  C  C99  1  0.23501000  0.08912000  0.22330000  1.0
  C  C100  1  0.06113000  0.37074000  0.73774000  1.0
  C  C101  1  0.62915000  0.93875000  0.76222000  1.0
  C  C102  1  0.93889000  0.62928000  0.26227000  1.0
  C  C103  1  0.37076000  0.06113000  0.23776000  1.0
  C  C104  1  0.00960000  0.45589000  0.70223000  1.0
  C  C105  1  0.54398000  0.99023000  0.79770000  1.0
  C  C106  1  0.99040000  0.54414000  0.29778000  1.0
  C  C107  1  0.45592000  0.00967000  0.20228000  1.0
  C  C108  1  0.98562000  0.40465000  0.65239000  1.0
  C  C109  1  0.59525000  0.01423000  0.84754000  1.0
  C  C110  1  0.01438000  0.59535000  0.34763000  1.0
  C  C111  1  0.40460000  0.98561000  0.15243000  1.0
  C  C112  1  0.13182000  0.34613000  0.82289000  1.0
  C  C113  1  0.65383000  0.86802000  0.67709000  1.0
  C  C114  1  0.86828000  0.65391000  0.17710000  1.0
  C  C115  1  0.34610000  0.13174000  0.32290000  1.0
  C  C116  1  0.27176000  0.33814000  0.83426000  1.0
  C  C117  1  0.66178000  0.72810000  0.66570000  1.0
  C  C118  1  0.72834000  0.66189000  0.16570000  1.0
  C  C119  1  0.33807000  0.27167000  0.33425000  1.0
  C  C120  1  0.32232000  0.26026000  0.87190000  1.0
  C  C121  1  0.73966000  0.67759000  0.62807000  1.0
  C  C122  1  0.67778000  0.73980000  0.12807000  1.0
  C  C123  1  0.26017000  0.32222000  0.37187000  1.0
  C  C124  1  0.23333000  0.18987000  0.89756000  1.0
  C  C125  1  0.81008000  0.76662000  0.60244000  1.0
  C  C126  1  0.76679000  0.81028000  0.10244000  1.0
  C  C127  1  0.18978000  0.23320000  0.39753000  1.0
  C  C128  1  0.09305000  0.20052000  0.88604000  1.0
  C  C129  1  0.79951000  0.90689000  0.61400000  1.0
  C  C130  1  0.90707000  0.79953000  0.11396000  1.0
  C  C131  1  0.20048000  0.09293000  0.38601000  1.0
  C  C132  1  0.04165000  0.27836000  0.84847000  1.0
  C  C133  1  0.72170000  0.95824000  0.65156000  1.0
  C  C134  1  0.95845000  0.72167000  0.15152000  1.0
  C  C135  1  0.27833000  0.04157000  0.34847000  1.0
  C  C136  1  0.28643000  0.10034000  0.93650000  1.0
  C  C137  1  0.89951000  0.71366000  0.56346000  1.0
  C  C138  1  0.71382000  0.90003000  0.06356000  1.0
  C  C139  1  0.10032000  0.28622000  0.43650000  1.0
  C  C140  1  0.75892000  0.44621000  0.42581000  1.0
  C  C141  1  0.55406000  0.24088000  0.07414000  1.0
  C  C142  1  0.24088000  0.55386000  0.57426000  1.0
  C  C143  1  0.44616000  0.75899000  0.92579000  1.0
  C  C144  1  0.64879000  0.33692000  0.41337000  1.0
  C  C145  1  0.66326000  0.35109000  0.08668000  1.0
  C  C146  1  0.35107000  0.66315000  0.58666000  1.0
  C  C147  1  0.33676000  0.64889000  0.91336000  1.0
  C  C148  1  0.70218000  0.99248000  0.46183000  1.0
  C  C149  1  0.00742000  0.29783000  0.03808000  1.0
  C  C150  1  0.29783000  0.00750000  0.53810000  1.0
  C  C151  1  0.99254000  0.70247000  0.96191000  1.0
  C  C152  1  0.61766000  0.10199000  0.43776000  1.0
  C  C153  1  0.89810000  0.38237000  0.06224000  1.0
  C  C154  1  0.38240000  0.89802000  0.56218000  1.0
  C  C155  1  0.10181000  0.61774000  0.93781000  1.0
  C  C156  1  0.78268000  0.14901000  0.37990000  1.0
  C  C157  1  0.85145000  0.21727000  0.12015000  1.0
  C  C158  1  0.21746000  0.85126000  0.62010000  1.0
  C  C159  1  0.14867000  0.78283000  0.87994000  1.0
  N  N160  1  0.71042000  0.20421000  0.42235000  1.0
  N  N161  1  0.79598000  0.28958000  0.07772000  1.0
  N  N162  1  0.28956000  0.79588000  0.57763000  1.0
  N  N163  1  0.20407000  0.71050000  0.92238000  1.0
  O  O164  1  0.91126000  0.29252000  0.55632000  1.0
  O  O165  1  0.70728000  0.08834000  0.94368000  1.0
  O  O166  1  0.08851000  0.70735000  0.44373000  1.0
  O  O167  1  0.29253000  0.91105000  0.05637000  1.0
  O  O168  1  0.02987000  0.10065000  0.56874000  1.0
  O  O169  1  0.89929000  0.97001000  0.93125000  1.0
  O  O170  1  0.97043000  0.89949000  0.43124000  1.0
  O  O171  1  0.10055000  0.02952000  0.06873000  1.0
  O  O172  1  0.08103000  0.42851000  0.78657000  1.0
  O  O173  1  0.57140000  0.91873000  0.71337000  1.0
  O  O174  1  0.91909000  0.57156000  0.21342000  1.0
  O  O175  1  0.42849000  0.08096000  0.28662000  1.0
  O  O176  1  0.20417000  0.04653000  0.96152000  1.0
  O  O177  1  0.95300000  0.79601000  0.53839000  1.0
  O  O178  1  0.79614000  0.95335000  0.03842000  1.0
  O  O179  1  0.04715000  0.20395000  0.46169000  1.0
  O  O180  1  0.41498000  0.08224000  0.94077000  1.0
  O  O181  1  0.91789000  0.58516000  0.55922000  1.0
  O  O182  1  0.58539000  0.91897000  0.05942000  1.0
  O  O183  1  0.08162000  0.41466000  0.44064000  1.0
  O  O184  1  0.81625000  0.43575000  0.47553000  1.0
  O  O185  1  0.56429000  0.18408000  0.02433000  1.0
  O  O186  1  0.18354000  0.56409000  0.52453000  1.0
  O  O187  1  0.43619000  0.81636000  0.97552000  1.0
  O  O188  1  0.80554000  0.05420000  0.49735000  1.0
  O  O189  1  0.94562000  0.19453000  0.00259000  1.0
  O  O190  1  0.19447000  0.94566000  0.50260000  1.0
  O  O191  1  0.05467000  0.80589000  0.99735000  1.0
