# generated using pymatgen
data_AgH10C10N5O2
_symmetry_space_group_name_H-M   'P 1'
_cell_length_a   11.39580000
_cell_length_b   11.93980000
_cell_length_c   12.63870000
_cell_angle_alpha   116.43100000
_cell_angle_beta   103.66300000
_cell_angle_gamma   103.66600000
_symmetry_Int_Tables_number   1
_chemical_formula_structural   AgH10C10N5O2
_chemical_formula_sum   'Ag4 H40 C40 N20 O8'
_cell_volume   1376.34727736
_cell_formula_units_Z   4
loop_
 _symmetry_equiv_pos_site_id
 _symmetry_equiv_pos_as_xyz
  1  'x, y, z'
loop_
 _atom_site_type_symbol
 _atom_site_label
 _atom_site_symmetry_multiplicity
 _atom_site_fract_x
 _atom_site_fract_y
 _atom_site_fract_z
 _atom_site_occupancy
  Ag  Ag0  1  0.12995000  0.68888000  0.01478000  1.0
  Ag  Ag1  1  0.87005000  0.31112000  0.98522000  1.0
  Ag  Ag2  1  0.74765000  0.07332000  0.73358000  1.0
  Ag  Ag3  1  0.25235000  0.92668000  0.26642000  1.0
  H  H4  1  0.93156000  0.04137000  0.46815000  1.0
  H  H5  1  0.06844000  0.95863000  0.53185000  1.0
  H  H6  1  0.82535000  0.09646000  0.39611000  1.0
  H  H7  1  0.17465000  0.90354000  0.60389000  1.0
  H  H8  1  0.77607000  0.02187000  0.48111000  1.0
  H  H9  1  0.22393000  0.97813000  0.51889000  1.0
  H  H10  1  0.35845000  0.47351000  0.11875000  1.0
  H  H11  1  0.64155000  0.52649000  0.88125000  1.0
  H  H12  1  0.51810000  0.49960000  0.11520000  1.0
  H  H13  1  0.48190000  0.50040000  0.88480000  1.0
  H  H14  1  0.45909000  0.40553000  0.18040000  1.0
  H  H15  1  0.54091000  0.59447000  0.81960000  1.0
  H  H16  1  0.61503000  0.81975000  0.28307000  1.0
  H  H17  1  0.38497000  0.18025000  0.71693000  1.0
  H  H18  1  0.82883000  0.80502000  0.28223000  1.0
  H  H19  1  0.17117000  0.19498000  0.71777000  1.0
  H  H20  1  0.86580000  0.83924000  0.92679000  1.0
  H  H21  1  0.13420000  0.16076000  0.07321000  1.0
  H  H22  1  0.71898000  0.84569000  0.75308000  1.0
  H  H23  1  0.28101000  0.15430000  0.24691000  1.0
  H  H24  1  0.50141000  0.85295000  0.75014000  1.0
  H  H25  1  0.49858000  0.14704000  0.24986000  1.0
  H  H26  1  0.42932000  0.85031000  0.91897000  1.0
  H  H27  1  0.57067000  0.14969000  0.08103000  1.0
  H  H28  1  0.27241000  0.59367000  0.86293000  1.0
  H  H29  1  0.72759000  0.40633000  0.13707000  1.0
  H  H30  1  0.27203000  0.45456000  0.72411000  1.0
  H  H31  1  0.72798000  0.54544000  0.27589000  1.0
  H  H32  1  0.86147000  0.53086000  0.90660000  1.0
  H  H33  1  0.13853000  0.46914000  0.09340000  1.0
  H  H34  1  0.72859000  0.37915000  0.78146000  1.0
  H  H35  1  0.27141000  0.62084000  0.21854000  1.0
  H  H36  1  0.33671000  0.82570000  0.44914000  1.0
  H  H37  1  0.66329000  0.17430000  0.55086000  1.0
  H  H38  1  0.47260000  0.95119000  0.59846000  1.0
  H  H39  1  0.52740000  0.04881000  0.40154000  1.0
  H  H40  1  0.88444000  0.90846000  0.63294000  1.0
  H  H41  1  0.11556000  0.09154000  0.36706000  1.0
  H  H42  1  0.88117000  0.76691000  0.49676000  1.0
  H  H43  1  0.11883000  0.23309000  0.50324000  1.0
  C  C44  1  0.90435000  0.39081000  0.77220000  1.0
  C  C45  1  0.09565000  0.60919000  0.22780000  1.0
  C  C46  1  0.92108000  0.22544000  0.60005000  1.0
  C  C47  1  0.07892000  0.77456000  0.39995000  1.0
  C  C48  1  0.09812000  0.42632000  0.74330000  1.0
  C  C49  1  0.90188000  0.57367000  0.25670000  1.0
  C  C50  1  0.85997000  0.08809000  0.48012000  1.0
  C  C51  1  0.14003000  0.91191000  0.51988000  1.0
  C  C52  1  0.70413000  0.77427000  0.48478000  1.0
  C  C53  1  0.29587000  0.22574000  0.51521000  1.0
  C  C54  1  0.52033000  0.61892000  0.30200000  1.0
  C  C55  1  0.47968000  0.38108000  0.69800000  1.0
  C  C56  1  0.50810000  0.80066000  0.46314000  1.0
  C  C57  1  0.49190000  0.19934000  0.53685000  1.0
  C  C58  1  0.45930000  0.49275000  0.17121000  1.0
  C  C59  1  0.54070000  0.50725000  0.82879000  1.0
  C  C60  1  0.43395000  0.82996000  0.12338000  1.0
  C  C61  1  0.56605000  0.17005000  0.87663000  1.0
  C  C62  1  0.56492000  0.83378000  0.11775000  1.0
  C  C63  1  0.43508000  0.16623000  0.88226000  1.0
  C  C64  1  0.64710000  0.82353000  0.20986000  1.0
  C  C65  1  0.35290000  0.17647000  0.79014000  1.0
  C  C66  1  0.76866000  0.81707000  0.21010000  1.0
  C  C67  1  0.23134000  0.18293000  0.78990000  1.0
  C  C68  1  0.81166000  0.82541000  0.11934000  1.0
  C  C69  1  0.18834000  0.17460000  0.88067000  1.0
  C  C70  1  0.73104000  0.83708000  0.02249000  1.0
  C  C71  1  0.26896000  0.16293000  0.97752000  1.0
  C  C72  1  0.77055000  0.84194000  0.92557000  1.0
  C  C73  1  0.22945000  0.15806000  0.07443000  1.0
  C  C74  1  0.68866000  0.84574000  0.82874000  1.0
  C  C75  1  0.31133000  0.15425000  0.17125000  1.0
  C  C76  1  0.56489000  0.84876000  0.82656000  1.0
  C  C77  1  0.43510000  0.15123000  0.17343000  1.0
  C  C78  1  0.52446000  0.84741000  0.92078000  1.0
  C  C79  1  0.47553000  0.15259000  0.07922000  1.0
  C  C80  1  0.60456000  0.83983000  0.02032000  1.0
  C  C81  1  0.39544000  0.16017000  0.97968000  1.0
  C  C82  1  0.94315000  0.81938000  0.12450000  1.0
  C  C83  1  0.05685000  0.18062000  0.87550000  1.0
  N  N84  1  0.03014000  0.47494000  0.81583000  1.0
  N  N85  1  0.96986000  0.52506000  0.18417000  1.0
  N  N86  1  0.84638000  0.26262000  0.66571000  1.0
  N  N87  1  0.15362000  0.73739000  0.33429000  1.0
  N  N88  1  0.04446000  0.30180000  0.63201000  1.0
  N  N89  1  0.95554000  0.69820000  0.36799000  1.0
  N  N90  1  0.22347000  0.50052000  0.77900000  1.0
  N  N91  1  0.77653000  0.49948000  0.22101000  1.0
  N  N92  1  0.82871000  0.42987000  0.83733000  1.0
  N  N93  1  0.17129000  0.57013000  0.16267000  1.0
  N  N94  1  0.63837000  0.85149000  0.53556000  1.0
  N  N95  1  0.36163000  0.14851000  0.46443000  1.0
  N  N96  1  0.64698000  0.65489000  0.36908000  1.0
  N  N97  1  0.35302000  0.34511000  0.63092000  1.0
  N  N98  1  0.44630000  0.68636000  0.34263000  1.0
  N  N99  1  0.55370000  0.31364000  0.65737000  1.0
  N  N100  1  0.43387000  0.86472000  0.50901000  1.0
  N  N101  1  0.56613000  0.13528000  0.49098000  1.0
  N  N102  1  0.83270000  0.81563000  0.54924000  1.0
  N  N103  1  0.16730000  0.18437000  0.45076000  1.0
  O  O104  1  0.43213000  0.89646000  0.23430000  1.0
  O  O105  1  0.56787000  0.10354000  0.76572000  1.0
  O  O106  1  0.33261000  0.75629000  0.01837000  1.0
  O  O107  1  0.66739000  0.24372000  0.98164000  1.0
  O  O108  1  0.04355000  0.91786000  0.22193000  1.0
  O  O109  1  0.95645000  0.08214000  0.77807000  1.0
  O  O110  1  0.94456000  0.71553000  0.03293000  1.0
  O  O111  1  0.05544000  0.28447000  0.96707000  1.0
