# generated using pymatgen
data_Zr3H9C26S5ClO21
_symmetry_space_group_name_H-M   'P 1'
_cell_length_a   16.45710000
_cell_length_b   16.46140000
_cell_length_c   16.46019100
_cell_angle_alpha   88.65556643
_cell_angle_beta   60.24114727
_cell_angle_gamma   60.24290000
_symmetry_Int_Tables_number   1
_chemical_formula_structural   Zr3H9C26S5ClO21
_chemical_formula_sum   'Zr6 H18 C52 S10 Cl2 O42'
_cell_volume   3210.32435197
_cell_formula_units_Z   2
loop_
 _symmetry_equiv_pos_site_id
 _symmetry_equiv_pos_as_xyz
  1  'x, y, z'
loop_
 _atom_site_type_symbol
 _atom_site_label
 _atom_site_symmetry_multiplicity
 _atom_site_fract_x
 _atom_site_fract_y
 _atom_site_fract_z
 _atom_site_occupancy
  Zr  Zr0  1  0.51374000  0.09771000  0.59790000  1.0
  Zr  Zr1  1  0.49008000  0.89817000  0.39835000  1.0
  Zr  Zr2  1  0.29050000  0.10625000  0.60665000  1.0
  Zr  Zr3  1  0.71346000  0.88934000  0.38976000  1.0
  Zr  Zr4  1  0.50205000  0.10707000  0.38887000  1.0
  Zr  Zr5  1  0.50203000  0.88854000  0.60743000  1.0
  H  H6  1  0.34495000  0.24751000  0.57634000  1.0
  H  H7  1  0.65893000  0.91974000  0.24848000  1.0
  H  H8  1  0.32682000  0.91829000  0.58973000  1.0
  H  H9  1  0.67698000  0.90628000  0.57787000  1.0
  H  H10  1  0.02731000  0.36353000  0.87133000  1.0
  H  H11  1  0.30665000  0.34422000  0.85120000  1.0
  H  H12  1  0.97622000  0.62496000  0.13251000  1.0
  H  H13  1  0.69690000  0.64519000  0.15182000  1.0
  H  H14  1  0.50746000  0.55044000  0.67891000  1.0
  H  H15  1  0.51075000  0.43811000  0.31030000  1.0
  H  H16  1  0.49136000  0.18695000  0.05873000  1.0
  H  H17  1  0.49407000  0.81866000  0.94646000  1.0
  H  H18  1  0.89258000  0.18964000  0.93923000  1.0
  H  H19  1  0.11252000  0.81569000  0.06671000  1.0
  H  H20  1  0.89190000  0.43022000  0.68122000  1.0
  H  H21  1  0.11175000  0.55787000  0.30746000  1.0
  H  H22  1  0.24447000  0.82892000  0.31932000  1.0
  H  H23  1  0.75938000  0.17673000  0.66704000  1.0
  C  C24  1  0.52013000  0.26140000  0.48369000  1.0
  C  C25  1  0.48332000  0.01276000  0.23480000  1.0
  C  C26  1  0.49734000  0.72760000  0.50589000  1.0
  C  C27  1  0.50629000  0.99058000  0.76851000  1.0
  C  C28  1  0.25305000  0.25939000  0.76578000  1.0
  C  C29  1  0.78010000  0.99568000  0.48857000  1.0
  C  C30  1  0.75060000  0.73042000  0.23666000  1.0
  C  C31  1  0.22376000  0.00755000  0.50026000  1.0
  C  C32  1  0.23003000  0.26982000  0.49731000  1.0
  C  C33  1  0.23064000  0.00378000  0.77705000  1.0
  C  C34  1  0.77351000  0.71913000  0.49241000  1.0
  C  C35  1  0.77418000  0.99878000  0.22638000  1.0
  C  C36  1  0.50727000  0.57816000  0.56571000  1.0
  C  C37  1  0.51518000  0.40851000  0.42145000  1.0
  C  C38  1  0.50282000  0.63631000  0.50300000  1.0
  C  C39  1  0.51953000  0.35041000  0.48420000  1.0
  C  C40  1  0.51131000  0.49138000  0.45110000  1.0
  C  C41  1  0.51239000  0.49475000  0.53543000  1.0
  C  C42  1  0.48730000  0.07560000  0.08814000  1.0
  C  C43  1  0.49512000  0.93146000  0.91845000  1.0
  C  C44  1  0.48310000  0.01276000  0.14617000  1.0
  C  C45  1  0.50011000  0.99392000  0.86010000  1.0
  C  C46  1  0.48984000  0.96177000  0.00198000  1.0
  C  C47  1  0.49112000  0.04600000  0.00529000  1.0
  C  C48  1  0.02414000  0.07299000  0.91781000  1.0
  C  C49  1  0.98093000  0.93318000  0.08941000  1.0
  C  C50  1  0.14089000  0.00571000  0.86637000  1.0
  C  C51  1  0.86414000  0.00003000  0.14043000  1.0
  C  C52  1  0.03905000  0.96026000  0.00846000  1.0
  C  C53  1  0.96604000  0.04647000  0.99937000  1.0
  C  C54  1  0.02338000  0.40726000  0.56339000  1.0
  C  C55  1  0.98011000  0.57896000  0.42368000  1.0
  C  C56  1  0.14011000  0.35609000  0.49635000  1.0
  C  C57  1  0.86335000  0.63020000  0.49082000  1.0
  C  C58  1  0.03825000  0.49735000  0.45013000  1.0
  C  C59  1  0.96525000  0.48825000  0.53635000  1.0
  C  C60  1  0.05750000  0.39261000  0.90024000  1.0
  C  C61  1  0.21566000  0.38198000  0.88924000  1.0
  C  C62  1  0.14226000  0.46287000  0.96989000  1.0
  C  C63  1  0.02271000  0.51309000  0.02033000  1.0
  C  C64  1  0.94605000  0.59602000  0.10343000  1.0
  C  C65  1  0.78790000  0.60705000  0.11408000  1.0
  C  C66  1  0.86128000  0.52632000  0.03327000  1.0
  C  C67  1  0.98084000  0.47579000  0.98309000  1.0
  C  C68  1  0.17245000  0.34671000  0.85432000  1.0
  C  C69  1  0.83113000  0.64194000  0.14932000  1.0
  C  C70  1  0.15301000  0.94103000  0.42924000  1.0
  C  C71  1  0.85095000  0.06665000  0.55499000  1.0
  C  C72  1  0.13769000  0.00706000  0.49568000  1.0
  C  C73  1  0.86622000  0.00015000  0.48909000  1.0
  C  C74  1  0.95588000  0.04525000  0.53245000  1.0
  C  C75  1  0.04809000  0.96345000  0.45071000  1.0
  S  S76  1  0.50447000  0.58940000  0.40766000  1.0
  S  S77  1  0.51921000  0.39673000  0.57890000  1.0
  S  S78  1  0.48316000  0.91821000  0.09992000  1.0
  S  S79  1  0.49847000  0.08922000  0.90703000  1.0
  S  S80  1  0.17910000  0.91079000  0.91812000  1.0
  S  S81  1  0.82597000  0.09572000  0.08951000  1.0
  S  S82  1  0.17830000  0.40708000  0.40073000  1.0
  S  S83  1  0.82518000  0.57848000  0.58578000  1.0
  S  S84  1  0.99574000  0.09614000  0.58367000  1.0
  S  S85  1  0.00815000  0.91217000  0.39996000  1.0
  Cl  Cl86  1  0.80614000  0.48505000  0.99120000  1.0
  Cl  Cl87  1  0.19736000  0.50494000  0.01125000  1.0
  O  O88  1  0.52264000  0.22453000  0.55254000  1.0
  O  O89  1  0.48103000  0.94379000  0.27153000  1.0
  O  O90  1  0.49190000  0.76584000  0.43851000  1.0
  O  O91  1  0.51200000  0.05779000  0.73008000  1.0
  O  O92  1  0.21215000  0.22960000  0.73529000  1.0
  O  O93  1  0.81239000  0.92717000  0.42208000  1.0
  O  O94  1  0.79151000  0.76082000  0.26650000  1.0
  O  O95  1  0.19146000  0.07405000  0.56878000  1.0
  O  O96  1  0.33184000  0.23760000  0.42768000  1.0
  O  O97  1  0.33231000  0.93257000  0.74318000  1.0
  O  O98  1  0.67184000  0.75286000  0.56351000  1.0
  O  O99  1  0.67236000  0.06829000  0.25845000  1.0
  O  O100  1  0.19974000  0.07266000  0.73930000  1.0
  O  O101  1  0.80434000  0.75671000  0.42333000  1.0
  O  O102  1  0.80491000  0.92751000  0.26161000  1.0
  O  O103  1  0.19922000  0.23443000  0.56844000  1.0
  O  O104  1  0.35775000  0.22267000  0.72692000  1.0
  O  O105  1  0.32581000  0.93888000  0.43463000  1.0
  O  O106  1  0.64588000  0.76928000  0.27340000  1.0
  O  O107  1  0.67806000  0.06140000  0.55715000  1.0
  O  O108  1  0.50636000  0.92171000  0.73406000  1.0
  O  O109  1  0.51572000  0.22898000  0.41713000  1.0
  O  O110  1  0.48821000  0.07906000  0.26703000  1.0
  O  O111  1  0.49753000  0.76199000  0.57461000  1.0
  O  O112  1  0.62762000  0.93152000  0.55482000  1.0
  O  O113  1  0.37632000  0.94119000  0.56447000  1.0
  O  O114  1  0.61419000  0.94189000  0.31946000  1.0
  O  O115  1  0.38975000  0.17653000  0.55415000  1.0
  O  O116  1  0.40930000  0.04692000  0.45643000  1.0
  O  O117  1  0.59471000  0.03953000  0.44908000  1.0
  O  O118  1  0.58454000  0.86633000  0.45726000  1.0
  O  O119  1  0.41938000  0.03872000  0.62969000  1.0
  O  O120  1  0.50620000  0.60015000  0.64533000  1.0
  O  O121  1  0.51424000  0.38739000  0.34283000  1.0
  O  O122  1  0.48822000  0.15421000  0.10928000  1.0
  O  O123  1  0.49593000  0.85200000  0.89650000  1.0
  O  O124  1  0.97397000  0.15288000  0.89175000  1.0
  O  O125  1  0.03120000  0.85263000  0.11470000  1.0
  O  O126  1  0.97318000  0.38205000  0.64405000  1.0
  O  O127  1  0.03033000  0.60518000  0.34395000  1.0
  O  O128  1  0.25554000  0.86512000  0.35438000  1.0
  O  O129  1  0.74842000  0.14145000  0.63095000  1.0
