# generated using pymatgen
data_ZnH12C14S2(N3O2)2
_symmetry_space_group_name_H-M   'P 1'
_cell_length_a   8.95447000
_cell_length_b   11.67590000
_cell_length_c   11.86190000
_cell_angle_alpha   89.99990000
_cell_angle_beta   106.12900000
_cell_angle_gamma   89.99940000
_symmetry_Int_Tables_number   1
_chemical_formula_structural   ZnH12C14S2(N3O2)2
_chemical_formula_sum   'Zn2 H24 C28 S4 N12 O8'
_cell_volume   1191.36428261
_cell_formula_units_Z   2
loop_
 _symmetry_equiv_pos_site_id
 _symmetry_equiv_pos_as_xyz
  1  'x, y, z'
loop_
 _atom_site_type_symbol
 _atom_site_label
 _atom_site_symmetry_multiplicity
 _atom_site_fract_x
 _atom_site_fract_y
 _atom_site_fract_z
 _atom_site_occupancy
  Zn  Zn0  1  0.00000000  0.00001000  0.00000000  1.0
  Zn  Zn1  1  0.50000000  0.50000000  0.50000000  1.0
  H  H2  1  0.22890000  0.07164000  0.18346000  1.0
  H  H3  1  0.27110000  0.57163000  0.31654000  1.0
  H  H4  1  0.77110000  0.92837000  0.81653000  1.0
  H  H5  1  0.72890000  0.42836000  0.68347000  1.0
  H  H6  1  0.06581000  0.13191000  0.18573000  1.0
  H  H7  1  0.43419000  0.63191000  0.31427000  1.0
  H  H8  1  0.93420000  0.86809000  0.81428000  1.0
  H  H9  1  0.56580000  0.36809000  0.68573000  1.0
  H  H10  1  0.12098000  0.75878000  0.39260000  1.0
  H  H11  1  0.37902000  0.25877000  0.10741000  1.0
  H  H12  1  0.87903000  0.24122000  0.60740000  1.0
  H  H13  1  0.62097000  0.74122000  0.89259000  1.0
  H  H14  1  0.18403000  0.87468000  0.23627000  1.0
  H  H15  1  0.31596000  0.37467000  0.26374000  1.0
  H  H16  1  0.81598000  0.12533000  0.76373000  1.0
  H  H17  1  0.68403000  0.62532000  0.73627000  1.0
  H  H18  1  0.72471000  0.87222000  0.03362000  1.0
  H  H19  1  0.77529000  0.37222000  0.46638000  1.0
  H  H20  1  0.27529000  0.12779000  0.96639000  1.0
  H  H21  1  0.22471000  0.62778000  0.53362000  1.0
  H  H22  1  0.64212000  0.75377000  0.17931000  1.0
  H  H23  1  0.85788000  0.25376000  0.32069000  1.0
  H  H24  1  0.35789000  0.24624000  0.82069000  1.0
  H  H25  1  0.14211000  0.74623000  0.67931000  1.0
  C  C26  1  0.87460000  0.74720000  0.29936000  1.0
  C  C27  1  0.62541000  0.24719000  0.20065000  1.0
  C  C28  1  0.12542000  0.25281000  0.70065000  1.0
  C  C29  1  0.37459000  0.75280000  0.79935000  1.0
  C  C30  1  0.02908000  0.78182000  0.31462000  1.0
  C  C31  1  0.47092000  0.28181000  0.18539000  1.0
  C  C32  1  0.97093000  0.21819000  0.68539000  1.0
  C  C33  1  0.52907000  0.71818000  0.81461000  1.0
  C  C34  1  0.06470000  0.84684000  0.22738000  1.0
  C  C35  1  0.43530000  0.34683000  0.27263000  1.0
  C  C36  1  0.93530000  0.15317000  0.77262000  1.0
  C  C37  1  0.56470000  0.65316000  0.72738000  1.0
  C  C38  1  0.80939000  0.84406000  0.11364000  1.0
  C  C39  1  0.69061000  0.34406000  0.38636000  1.0
  C  C40  1  0.19061000  0.15595000  0.88636000  1.0
  C  C41  1  0.30939000  0.65594000  0.61364000  1.0
  C  C42  1  0.76336000  0.77797000  0.19494000  1.0
  C  C43  1  0.73664000  0.27796000  0.30507000  1.0
  C  C44  1  0.23664000  0.22204000  0.80507000  1.0
  C  C45  1  0.26336000  0.72203000  0.69493000  1.0
  C  C46  1  0.82732000  0.68269000  0.38775000  1.0
  C  C47  1  0.67268000  0.18269000  0.11224000  1.0
  C  C48  1  0.17268000  0.31731000  0.61224000  1.0
  C  C49  1  0.32731000  0.81730000  0.88775000  1.0
  C  C50  1  0.84805000  0.59534000  0.55539000  1.0
  C  C51  1  0.65195000  0.09535000  0.94460000  1.0
  C  C52  1  0.15195000  0.40466000  0.44461000  1.0
  C  C53  1  0.34805000  0.90466000  0.05539000  1.0
  S  S54  1  0.93255000  0.54339000  0.68934000  1.0
  S  S55  1  0.56745000  0.04341000  0.81065000  1.0
  S  S56  1  0.06744000  0.45661000  0.31066000  1.0
  S  S57  1  0.43255000  0.95661000  0.18933000  1.0
  N  N58  1  0.95690000  0.87931000  0.12898000  1.0
  N  N59  1  0.54310000  0.37930000  0.37102000  1.0
  N  N60  1  0.04310000  0.12070000  0.87103000  1.0
  N  N61  1  0.45690000  0.62069000  0.62897000  1.0
  N  N62  1  0.68907000  0.64279000  0.38217000  1.0
  N  N63  1  0.81093000  0.14279000  0.11782000  1.0
  N  N64  1  0.31093000  0.35721000  0.61782000  1.0
  N  N65  1  0.18907000  0.85720000  0.88218000  1.0
  N  N66  1  0.70110000  0.58838000  0.48723000  1.0
  N  N67  1  0.79889000  0.08838000  0.01276000  1.0
  N  N68  1  0.29890000  0.41162000  0.51276000  1.0
  N  N69  1  0.20110000  0.91162000  0.98723000  1.0
  O  O70  1  0.93249000  0.65778000  0.49317000  1.0
  O  O71  1  0.56750000  0.15779000  0.00683000  1.0
  O  O72  1  0.06751000  0.34222000  0.50683000  1.0
  O  O73  1  0.43248000  0.84221000  0.99317000  1.0
  O  O74  1  0.13584000  0.11455000  0.13760000  1.0
  O  O75  1  0.36416000  0.61455000  0.36240000  1.0
  O  O76  1  0.86416000  0.88545000  0.86240000  1.0
  O  O77  1  0.63584000  0.38545000  0.63760000  1.0
