# generated using pymatgen
data_ZnPH4C2N3O4
_symmetry_space_group_name_H-M   'P 1'
_cell_length_a   8.45312000
_cell_length_b   8.51322000
_cell_length_c   8.94528000
_cell_angle_alpha   89.99990000
_cell_angle_beta   90.00000000
_cell_angle_gamma   89.99980000
_symmetry_Int_Tables_number   1
_chemical_formula_structural   ZnPH4C2N3O4
_chemical_formula_sum   'Zn4 P4 H16 C8 N12 O16'
_cell_volume   643.73160206
_cell_formula_units_Z   4
loop_
 _symmetry_equiv_pos_site_id
 _symmetry_equiv_pos_as_xyz
  1  'x, y, z'
loop_
 _atom_site_type_symbol
 _atom_site_label
 _atom_site_symmetry_multiplicity
 _atom_site_fract_x
 _atom_site_fract_y
 _atom_site_fract_z
 _atom_site_occupancy
  Zn  Zn0  1  0.82572000  0.16961000  0.48884000  1.0
  Zn  Zn1  1  0.17428000  0.83039000  0.98884000  1.0
  Zn  Zn2  1  0.17428000  0.66961000  0.48884000  1.0
  Zn  Zn3  1  0.82573000  0.33039000  0.98884000  1.0
  P  P4  1  0.96271000  0.04664000  0.78776000  1.0
  P  P5  1  0.03729000  0.95337000  0.28776000  1.0
  P  P6  1  0.03729000  0.54664000  0.78777000  1.0
  P  P7  1  0.96271000  0.45336000  0.28776000  1.0
  H  H8  1  0.92881000  0.80837000  0.69244000  1.0
  H  H9  1  0.07119000  0.19163000  0.19245000  1.0
  H  H10  1  0.07119000  0.30837000  0.69245000  1.0
  H  H11  1  0.92881000  0.69163000  0.19244000  1.0
  H  H12  1  0.28527000  0.05020000  0.72016000  1.0
  H  H13  1  0.71473000  0.94980000  0.22016000  1.0
  H  H14  1  0.71474000  0.55020000  0.72016000  1.0
  H  H15  1  0.28526000  0.44980000  0.22016000  1.0
  H  H16  1  0.23639000  0.20595000  0.47617000  1.0
  H  H17  1  0.76361000  0.79405000  0.97617000  1.0
  H  H18  1  0.76361000  0.70595000  0.47617000  1.0
  H  H19  1  0.23639000  0.29405000  0.97617000  1.0
  H  H20  1  0.59033000  0.01315000  0.75476000  1.0
  H  H21  1  0.40967000  0.98685000  0.25476000  1.0
  H  H22  1  0.40967000  0.51315000  0.75476000  1.0
  H  H23  1  0.59033000  0.48685000  0.25476000  1.0
  C  C24  1  0.35126000  0.17510000  0.52044000  1.0
  C  C25  1  0.64874000  0.82490000  0.02044000  1.0
  C  C26  1  0.64874000  0.67510000  0.52044000  1.0
  C  C27  1  0.35126000  0.32490000  0.02044000  1.0
  C  C28  1  0.53154000  0.07455000  0.66437000  1.0
  C  C29  1  0.46846000  0.92545000  0.16437000  1.0
  C  C30  1  0.46846000  0.57455000  0.66437000  1.0
  C  C31  1  0.53154000  0.42545000  0.16437000  1.0
  N  N32  1  0.60204000  0.14574000  0.55035000  1.0
  N  N33  1  0.39797000  0.85426000  0.05035000  1.0
  N  N34  1  0.39796000  0.64574000  0.55036000  1.0
  N  N35  1  0.60204000  0.35426000  0.05035000  1.0
  N  N36  1  0.48790000  0.21026000  0.45789000  1.0
  N  N37  1  0.51210000  0.78974000  0.95790000  1.0
  N  N38  1  0.51210000  0.71026000  0.45790000  1.0
  N  N39  1  0.48790000  0.28974000  0.95789000  1.0
  N  N40  1  0.37364000  0.09080000  0.64840000  1.0
  N  N41  1  0.62636000  0.90920000  0.14840000  1.0
  N  N42  1  0.62636000  0.59080000  0.64840000  1.0
  N  N43  1  0.37364000  0.40920000  0.14840000  1.0
  O  O44  1  0.98447000  0.15870000  0.65139000  1.0
  O  O45  1  0.01553000  0.84130000  0.15139000  1.0
  O  O46  1  0.01553000  0.65870000  0.65139000  1.0
  O  O47  1  0.98447000  0.34130000  0.15139000  1.0
  O  O48  1  0.12995000  0.99374000  0.83697000  1.0
  O  O49  1  0.87004000  0.00626000  0.33697000  1.0
  O  O50  1  0.87004000  0.49374000  0.83697000  1.0
  O  O51  1  0.12996000  0.50626000  0.33697000  1.0
  O  O52  1  0.86529000  0.12063000  0.91226000  1.0
  O  O53  1  0.13470000  0.87937000  0.41226000  1.0
  O  O54  1  0.13471000  0.62064000  0.91226000  1.0
  O  O55  1  0.86529000  0.37936000  0.41226000  1.0
  O  O56  1  0.86273000  0.90005000  0.73363000  1.0
  O  O57  1  0.13727000  0.09995000  0.23363000  1.0
  O  O58  1  0.13727000  0.40005000  0.73364000  1.0
  O  O59  1  0.86273000  0.59995000  0.23363000  1.0
