# generated using pymatgen
data_BaH7C8NO5
_symmetry_space_group_name_H-M   'P 1'
_cell_length_a   7.60162000
_cell_length_b   8.04373000
_cell_length_c   8.36391000
_cell_angle_alpha   79.97380000
_cell_angle_beta   65.68410000
_cell_angle_gamma   83.07510000
_symmetry_Int_Tables_number   1
_chemical_formula_structural   BaH7C8NO5
_chemical_formula_sum   'Ba2 H14 C16 N2 O10'
_cell_volume   458.24770219
_cell_formula_units_Z   2
loop_
 _symmetry_equiv_pos_site_id
 _symmetry_equiv_pos_as_xyz
  1  'x, y, z'
loop_
 _atom_site_type_symbol
 _atom_site_label
 _atom_site_symmetry_multiplicity
 _atom_site_fract_x
 _atom_site_fract_y
 _atom_site_fract_z
 _atom_site_occupancy
  Ba  Ba0  1  0.04505000  0.60107000  0.20942000  1.0
  Ba  Ba1  1  0.95495000  0.39893000  0.79058000  1.0
  H  H2  1  0.78850000  0.95789000  0.09857000  1.0
  H  H3  1  0.21151000  0.04211000  0.90143000  1.0
  H  H4  1  0.80377000  0.81104000  0.98590000  1.0
  H  H5  1  0.19623000  0.18896000  0.01410000  1.0
  H  H6  1  0.50364000  0.71146000  0.04190000  1.0
  H  H7  1  0.49635000  0.28854000  0.95811000  1.0
  H  H8  1  0.53014000  0.55545000  0.18991000  1.0
  H  H9  1  0.46985000  0.44455000  0.81009000  1.0
  H  H10  1  0.19605000  0.06655000  0.65595000  1.0
  H  H11  1  0.80395000  0.93345000  0.34405000  1.0
  H  H12  1  0.37531000  0.56725000  0.50885000  1.0
  H  H13  1  0.62470000  0.43275000  0.49115000  1.0
  H  H14  1  0.34761000  0.98382000  0.11960000  1.0
  H  H15  1  0.65239000  0.01618000  0.88040000  1.0
  C  C16  1  0.20628000  0.22521000  0.33708000  1.0
  C  C17  1  0.79373000  0.77479000  0.66292000  1.0
  C  C18  1  0.26077000  0.04315000  0.38446000  1.0
  C  C19  1  0.73923000  0.95685000  0.61554000  1.0
  C  C20  1  0.24294000  0.98143000  0.55703000  1.0
  C  C21  1  0.75706000  0.01857000  0.44297000  1.0
  C  C22  1  0.28317000  0.80968000  0.60215000  1.0
  C  C23  1  0.71683000  0.19032000  0.39786000  1.0
  C  C24  1  0.34717000  0.70154000  0.47294000  1.0
  C  C25  1  0.65283000  0.29846000  0.52706000  1.0
  C  C26  1  0.37720000  0.76345000  0.29657000  1.0
  C  C27  1  0.62280000  0.23655000  0.70343000  1.0
  C  C28  1  0.32910000  0.93481000  0.25500000  1.0
  C  C29  1  0.67090000  0.06519000  0.74500000  1.0
  C  C30  1  0.25246000  0.73720000  0.78908000  1.0
  C  C31  1  0.74754000  0.26281000  0.21092000  1.0
  N  N32  1  0.43894000  0.65322000  0.16923000  1.0
  N  N33  1  0.56106000  0.34678000  0.83077000  1.0
  O  O34  1  0.14225000  0.32322000  0.45599000  1.0
  O  O35  1  0.85776000  0.67679000  0.54400000  1.0
  O  O36  1  0.82116000  0.83533000  0.09050000  1.0
  O  O37  1  0.17884000  0.16467000  0.90950000  1.0
  O  O38  1  0.22439000  0.27727000  0.17772000  1.0
  O  O39  1  0.77561000  0.72273000  0.82228000  1.0
  O  O40  1  0.26152000  0.82875000  0.89408000  1.0
  O  O41  1  0.73848000  0.17125000  0.10592000  1.0
  O  O42  1  0.21533000  0.57939000  0.83709000  1.0
  O  O43  1  0.78467000  0.42061000  0.16291000  1.0
