# generated using pymatgen
data_UH6C5O6
_symmetry_space_group_name_H-M   'P 1'
_cell_length_a   5.95773000
_cell_length_b   9.46037000
_cell_length_c   13.94320000
_cell_angle_alpha   89.99900000
_cell_angle_beta   88.74880000
_cell_angle_gamma   89.99900000
_symmetry_Int_Tables_number   1
_chemical_formula_structural   UH6C5O6
_chemical_formula_sum   'U4 H24 C20 O24'
_cell_volume   785.68386635
_cell_formula_units_Z   4
loop_
 _symmetry_equiv_pos_site_id
 _symmetry_equiv_pos_as_xyz
  1  'x, y, z'
loop_
 _atom_site_type_symbol
 _atom_site_label
 _atom_site_symmetry_multiplicity
 _atom_site_fract_x
 _atom_site_fract_y
 _atom_site_fract_z
 _atom_site_occupancy
  U  U0  1  0.06783000  0.21652000  0.50860000  1.0
  U  U1  1  0.93222000  0.71651000  0.99140000  1.0
  U  U2  1  0.93221000  0.78349000  0.49141000  1.0
  U  U3  1  0.06780000  0.28351000  0.00859000  1.0
  H  H4  1  0.40825000  0.83328000  0.68675000  1.0
  H  H5  1  0.59176000  0.33328000  0.81325000  1.0
  H  H6  1  0.59176000  0.16671000  0.31326000  1.0
  H  H7  1  0.40823000  0.66666667  0.18676000  1.0
  H  H8  1  0.15718000  0.85876000  0.75102000  1.0
  H  H9  1  0.84281000  0.35878000  0.74899000  1.0
  H  H10  1  0.84282000  0.14124000  0.24899000  1.0
  H  H11  1  0.15719000  0.64124000  0.25101000  1.0
  H  H12  1  0.42565000  0.90142000  0.86710000  1.0
  H  H13  1  0.57437000  0.40142000  0.63290000  1.0
  H  H14  1  0.57438000  0.09856000  0.13291000  1.0
  H  H15  1  0.42563000  0.59857000  0.36710000  1.0
  H  H16  1  0.35532000  0.07558000  0.83276000  1.0
  H  H17  1  0.64464000  0.57559000  0.66726000  1.0
  H  H18  1  0.64465000  0.92443000  0.16726000  1.0
  H  H19  1  0.35534000  0.42443000  0.33274000  1.0
  H  H20  1  0.75573000  0.90996000  0.74923000  1.0
  H  H21  1  0.24424000  0.40992000  0.75075000  1.0
  H  H22  1  0.24427000  0.09007000  0.25076000  1.0
  H  H23  1  0.75572000  0.59006000  0.24924000  1.0
  H  H24  1  0.70812000  0.09463000  0.73437000  1.0
  H  H25  1  0.29180000  0.59458000  0.76562000  1.0
  H  H26  1  0.29185000  0.90541000  0.26563000  1.0
  H  H27  1  0.70814000  0.40540000  0.23437000  1.0
  C  C28  1  0.23352000  0.01675000  0.65014000  1.0
  C  C29  1  0.76650000  0.51675000  0.84987000  1.0
  C  C30  1  0.76651000  0.98325000  0.34987000  1.0
  C  C31  1  0.23347000  0.48326000  0.15014000  1.0
  C  C32  1  0.30838000  0.91466000  0.72461000  1.0
  C  C33  1  0.69162000  0.41465000  0.77540000  1.0
  C  C34  1  0.69162000  0.08534000  0.27539000  1.0
  C  C35  1  0.30837000  0.58535000  0.22461000  1.0
  C  C36  1  0.43586000  0.97741000  0.80792000  1.0
  C  C37  1  0.56413000  0.47739000  0.69209000  1.0
  C  C38  1  0.56412000  0.02260000  0.19210000  1.0
  C  C39  1  0.43587000  0.52261000  0.30791000  1.0
  C  C40  1  0.68492000  0.00534000  0.78362000  1.0
  C  C41  1  0.31505000  0.50529000  0.71638000  1.0
  C  C42  1  0.31506000  0.99469000  0.21639000  1.0
  C  C43  1  0.68491000  0.49469000  0.28361000  1.0
  C  C44  1  0.81218000  0.03001000  0.87413000  1.0
  C  C45  1  0.18783000  0.52998000  0.62584000  1.0
  C  C46  1  0.18781000  0.97001000  0.12585000  1.0
  C  C47  1  0.81217000  0.47001000  0.37415000  1.0
  O  O48  1  0.81813000  0.22948000  0.58340000  1.0
  O  O49  1  0.18191000  0.72947000  0.91659000  1.0
  O  O50  1  0.18189000  0.77051000  0.41659000  1.0
  O  O51  1  0.81813000  0.27050000  0.08342000  1.0
  O  O52  1  0.31791000  0.19728000  0.43404000  1.0
  O  O53  1  0.68211000  0.69730000  0.06594000  1.0
  O  O54  1  0.68209000  0.80273000  0.56595000  1.0
  O  O55  1  0.31791000  0.30273000  0.93405000  1.0
  O  O56  1  0.11820000  0.97039000  0.57809000  1.0
  O  O57  1  0.88182000  0.47040000  0.92192000  1.0
  O  O58  1  0.88183000  0.02958000  0.42191000  1.0
  O  O59  1  0.11817000  0.52959000  0.07809000  1.0
  O  O60  1  0.27246000  0.14807000  0.65341000  1.0
  O  O61  1  0.72753000  0.64807000  0.84659000  1.0
  O  O62  1  0.72755000  0.85193000  0.34660000  1.0
  O  O63  1  0.27246000  0.35194000  0.15340000  1.0
  O  O64  1  0.81797000  0.92990000  0.93573000  1.0
  O  O65  1  0.18211000  0.42989000  0.56425000  1.0
  O  O66  1  0.18213000  0.07009000  0.06427000  1.0
  O  O67  1  0.81790000  0.57008000  0.43573000  1.0
  O  O68  1  0.90769000  0.14830000  0.88818000  1.0
  O  O69  1  0.09229000  0.64826000  0.61181000  1.0
  O  O70  1  0.09234000  0.85172000  0.11181000  1.0
  O  O71  1  0.90767000  0.35171000  0.38818000  1.0
