# generated using pymatgen
data_RbH4C3(N3O)3
_symmetry_space_group_name_H-M   'P 1'
_cell_length_a   7.53528000
_cell_length_b   7.64620000
_cell_length_c   18.14830000
_cell_angle_alpha   85.34200000
_cell_angle_beta   79.47880000
_cell_angle_gamma   71.12430000
_symmetry_Int_Tables_number   1
_chemical_formula_structural   RbH4C3(N3O)3
_chemical_formula_sum   'Rb4 H16 C12 N36 O12'
_cell_volume   972.49571022
_cell_formula_units_Z   4
loop_
 _symmetry_equiv_pos_site_id
 _symmetry_equiv_pos_as_xyz
  1  'x, y, z'
loop_
 _atom_site_type_symbol
 _atom_site_label
 _atom_site_symmetry_multiplicity
 _atom_site_fract_x
 _atom_site_fract_y
 _atom_site_fract_z
 _atom_site_occupancy
  Rb  Rb0  1  0.84055000  0.29182000  0.00351000  1.0
  Rb  Rb1  1  0.15945000  0.70819000  0.99649000  1.0
  Rb  Rb2  1  0.66572000  0.63690000  0.42970000  1.0
  Rb  Rb3  1  0.33428000  0.36309000  0.57030000  1.0
  H  H4  1  0.23570000  0.57320000  0.28472000  1.0
  H  H5  1  0.76430000  0.42680000  0.71528000  1.0
  H  H6  1  0.23025000  0.71116000  0.19981000  1.0
  H  H7  1  0.76975000  0.28884000  0.80019000  1.0
  H  H8  1  0.19599000  0.09399000  0.13512000  1.0
  H  H9  1  0.80400000  0.90601000  0.86488000  1.0
  H  H10  1  0.36471000  0.21720000  0.11777000  1.0
  H  H11  1  0.63529000  0.78280000  0.88223000  1.0
  H  H12  1  0.92339000  0.01337000  0.16934000  1.0
  H  H13  1  0.07661000  0.98664000  0.83066000  1.0
  H  H14  1  0.83245000  0.97453000  0.10231000  1.0
  H  H15  1  0.16755000  0.02548000  0.89769000  1.0
  H  H16  1  0.82336000  0.24801000  0.55135000  1.0
  H  H17  1  0.17664000  0.75198000  0.44865000  1.0
  H  H18  1  0.80715000  0.18228000  0.47358000  1.0
  H  H19  1  0.19285000  0.81771000  0.52642000  1.0
  C  C20  1  0.14387000  0.67852000  0.25150000  1.0
  C  C21  1  0.85613000  0.32149000  0.74850000  1.0
  C  C22  1  0.03566000  0.84496000  0.29717000  1.0
  C  C23  1  0.96434000  0.15504000  0.70283000  1.0
  C  C24  1  0.34284000  0.08545000  0.13804000  1.0
  C  C25  1  0.65716000  0.91456000  0.86197000  1.0
  C  C26  1  0.33898000  0.11202000  0.32843000  1.0
  C  C27  1  0.66103000  0.88798000  0.67157000  1.0
  C  C28  1  0.47980000  0.92741000  0.09454000  1.0
  C  C29  1  0.52020000  0.07260000  0.90546000  1.0
  C  C30  1  0.80602000  0.48431000  0.22132000  1.0
  C  C31  1  0.19398000  0.51568000  0.77868000  1.0
  N  N32  1  0.65902000  0.91820000  0.06456000  1.0
  N  N33  1  0.34098000  0.08181000  0.93544000  1.0
  N  N34  1  0.36527000  0.06399000  0.21750000  1.0
  N  N35  1  0.63473000  0.93601000  0.78250000  1.0
  N  N36  1  0.01714000  0.59412000  0.22572000  1.0
  N  N37  1  0.98286000  0.40588000  0.77428000  1.0
  N  N38  1  0.02881000  0.85590000  0.37144000  1.0
  N  N39  1  0.97119000  0.14410000  0.62856000  1.0
  N  N40  1  0.86435000  0.57152000  0.26805000  1.0
  N  N41  1  0.13566000  0.42847000  0.73195000  1.0
  N  N42  1  0.91754000  0.45394000  0.15370000  1.0
  N  N43  1  0.08246000  0.54606000  0.84630000  1.0
  N  N44  1  0.26960000  0.19167000  0.26720000  1.0
  N  N45  1  0.73040000  0.80833000  0.73280000  1.0
  N  N46  1  0.93137000  0.00524000  0.26867000  1.0
  N  N47  1  0.06862000  0.99477000  0.73133000  1.0
  N  N48  1  0.85756000  0.11875000  0.32695000  1.0
  N  N49  1  0.14244000  0.88125000  0.67305000  1.0
  N  N50  1  0.28283000  0.20055000  0.39997000  1.0
  N  N51  1  0.71719000  0.79945000  0.60003000  1.0
  N  N52  1  0.05303000  0.52528000  0.15685000  1.0
  N  N53  1  0.94697000  0.47472000  0.84315000  1.0
  N  N54  1  0.47022000  0.94416000  0.31710000  1.0
  N  N55  1  0.52978000  0.05583000  0.68290000  1.0
  N  N56  1  0.91617000  0.03008000  0.38820000  1.0
  N  N57  1  0.08382000  0.96992000  0.61180000  1.0
  N  N58  1  0.59959000  0.67246000  0.03797000  1.0
  N  N59  1  0.40041000  0.32755000  0.96203000  1.0
  N  N60  1  0.48668000  0.91371000  0.24551000  1.0
  N  N61  1  0.51331000  0.08628000  0.75448000  1.0
  N  N62  1  0.73139000  0.75619000  0.02911000  1.0
  N  N63  1  0.26860000  0.24382000  0.97089000  1.0
  N  N64  1  0.43919000  0.77704000  0.07949000  1.0
  N  N65  1  0.56081000  0.22296000  0.92052000  1.0
  N  N66  1  0.63417000  0.43424000  0.24150000  1.0
  N  N67  1  0.36583000  0.56576000  0.75849000  1.0
  O  O68  1  0.94906000  0.99258000  0.11451000  1.0
  O  O69  1  0.05094000  0.00743000  0.88549000  1.0
  O  O70  1  0.53907000  0.47900000  0.30442000  1.0
  O  O71  1  0.46093000  0.52099000  0.69558000  1.0
  O  O72  1  0.59353000  0.35199000  0.19442000  1.0
  O  O73  1  0.40648000  0.64802000  0.80557000  1.0
  O  O74  1  0.74532000  0.28135000  0.51076000  1.0
  O  O75  1  0.25468000  0.71865000  0.48924000  1.0
  O  O76  1  0.16482000  0.35727000  0.40416000  1.0
  O  O77  1  0.83520000  0.64271000  0.59584000  1.0
  O  O78  1  0.36085000  0.11178000  0.45199000  1.0
  O  O79  1  0.63918000  0.88821000  0.54801000  1.0
