# generated using pymatgen
data_Co3H22(C15O8)2
_symmetry_space_group_name_H-M   'P 1'
_cell_length_a   7.22424000
_cell_length_b   13.76240000
_cell_length_c   17.46090000
_cell_angle_alpha   90.00010000
_cell_angle_beta   90.00070000
_cell_angle_gamma   96.96860000
_symmetry_Int_Tables_number   1
_chemical_formula_structural   Co3H22(C15O8)2
_chemical_formula_sum   'Co6 H44 C60 O32'
_cell_volume   1723.18868473
_cell_formula_units_Z   2
loop_
 _symmetry_equiv_pos_site_id
 _symmetry_equiv_pos_as_xyz
  1  'x, y, z'
loop_
 _atom_site_type_symbol
 _atom_site_label
 _atom_site_symmetry_multiplicity
 _atom_site_fract_x
 _atom_site_fract_y
 _atom_site_fract_z
 _atom_site_occupancy
  Co  Co0  1  0.00814000  0.68139000  0.61304000  1.0
  Co  Co1  1  0.99186000  0.31861000  0.11304000  1.0
  Co  Co2  1  0.28585000  0.49777000  0.55539000  1.0
  Co  Co3  1  0.71414000  0.50223000  0.05539000  1.0
  Co  Co4  1  0.58546000  0.34567000  0.49969000  1.0
  Co  Co5  1  0.41454000  0.65433000  0.99969000  1.0
  H  H6  1  0.91930000  0.50556000  0.82101000  1.0
  H  H7  1  0.08069000  0.49445000  0.32101000  1.0
  H  H8  1  0.01703000  0.21975000  0.89827000  1.0
  H  H9  1  0.98296000  0.78026000  0.39827000  1.0
  H  H10  1  0.03022000  0.28742000  0.65711000  1.0
  H  H11  1  0.96980000  0.71259000  0.15711000  1.0
  H  H12  1  0.91286000  0.07322000  0.85674000  1.0
  H  H13  1  0.08715000  0.92677000  0.35674000  1.0
  H  H14  1  0.92767000  0.90206000  0.81714000  1.0
  H  H15  1  0.07232000  0.09793000  0.31715000  1.0
  H  H16  1  0.21838000  0.00376000  0.61244000  1.0
  H  H17  1  0.78164000  0.99624000  0.11244000  1.0
  H  H18  1  0.20239000  0.17449000  0.64971000  1.0
  H  H19  1  0.79763000  0.82551000  0.14970000  1.0
  H  H20  1  0.22888000  0.97884000  0.51212000  1.0
  H  H21  1  0.77112000  0.02116000  0.01212000  1.0
  H  H22  1  0.28455000  0.81608000  0.46799000  1.0
  H  H23  1  0.71546000  0.18392000  0.96800000  1.0
  H  H24  1  0.60927000  0.94750000  0.27874000  1.0
  H  H25  1  0.39076000  0.05251000  0.77873000  1.0
  H  H26  1  0.57575000  0.11192000  0.33078000  1.0
  H  H27  1  0.42427000  0.88809000  0.83077000  1.0
  H  H28  1  0.52650000  0.72235000  0.45990000  1.0
  H  H29  1  0.47350000  0.27765000  0.95990000  1.0
  H  H30  1  0.57669000  0.50758000  0.28560000  1.0
  H  H31  1  0.42332000  0.49242000  0.78560000  1.0
  H  H32  1  0.44965000  0.79452000  0.22258000  1.0
  H  H33  1  0.55036000  0.20548000  0.72258000  1.0
  H  H34  1  0.32247000  0.62011000  0.67379000  1.0
  H  H35  1  0.67754000  0.37988000  0.17379000  1.0
  H  H36  1  0.40966000  0.69214000  0.61067000  1.0
  H  H37  1  0.59036000  0.30785000  0.11066000  1.0
  H  H38  1  0.69032000  0.64368000  0.65894000  1.0
  H  H39  1  0.30968000  0.35632000  0.15895000  1.0
  H  H40  1  0.65909000  0.62852000  0.56994000  1.0
  H  H41  1  0.34091000  0.37147000  0.06994000  1.0
  H  H42  1  0.93549000  0.36637000  0.54324000  1.0
  H  H43  1  0.06450000  0.63364000  0.04324000  1.0
  H  H44  1  0.88568000  0.25951000  0.50602000  1.0
  H  H45  1  0.11432000  0.74049000  0.00602000  1.0
  H  H46  1  0.23091000  0.37546000  0.44474000  1.0
  H  H47  1  0.76908000  0.62454000  0.94474000  1.0
  H  H48  1  0.25062000  0.28114000  0.49956000  1.0
  H  H49  1  0.74937000  0.71885000  0.99956000  1.0
  C  C50  1  0.97936000  0.40392000  0.73281000  1.0
  C  C51  1  0.02064000  0.59608000  0.23281000  1.0
  C  C52  1  0.94807000  0.43146000  0.80839000  1.0
  C  C53  1  0.05192000  0.56854000  0.30839000  1.0
  C  C54  1  0.96036000  0.36401000  0.86741000  1.0
  C  C55  1  0.03963000  0.63600000  0.36741000  1.0
  C  C56  1  0.00195000  0.26948000  0.85080000  1.0
  C  C57  1  0.99804000  0.73053000  0.35080000  1.0
  C  C58  1  0.02257000  0.23896000  0.77492000  1.0
  C  C59  1  0.97744000  0.76104000  0.27492000  1.0
  C  C60  1  0.01225000  0.30805000  0.71656000  1.0
  C  C61  1  0.98775000  0.69195000  0.21656000  1.0
  C  C62  1  0.04986000  0.13728000  0.75536000  1.0
  C  C63  1  0.95015000  0.86273000  0.25535000  1.0
  C  C64  1  0.98051000  0.05881000  0.80299000  1.0
  C  C65  1  0.01949000  0.94119000  0.30299000  1.0
  C  C66  1  0.98783000  0.96227000  0.78091000  1.0
  C  C67  1  0.01216000  0.03774000  0.28091000  1.0
  C  C68  1  0.06823000  0.94167000  0.71063000  1.0
  C  C69  1  0.93177000  0.05833000  0.21064000  1.0
  C  C70  1  0.14878000  0.01966000  0.66525000  1.0
  C  C71  1  0.85124000  0.98035000  0.16525000  1.0
  C  C72  1  0.13907000  0.11599000  0.68679000  1.0
  C  C73  1  0.86094000  0.88402000  0.18679000  1.0
  C  C74  1  0.98957000  0.47746000  0.67031000  1.0
  C  C75  1  0.01043000  0.52255000  0.17030000  1.0
  C  C76  1  0.92685000  0.39220000  0.94848000  1.0
  C  C77  1  0.07314000  0.60780000  0.44848000  1.0
  C  C78  1  0.05700000  0.83984000  0.68149000  1.0
  C  C79  1  0.94300000  0.16017000  0.18150000  1.0
  C  C80  1  0.40223000  0.05670000  0.42564000  1.0
  C  C81  1  0.59776000  0.94330000  0.92564000  1.0
  C  C82  1  0.31815000  0.97254000  0.46276000  1.0
  C  C83  1  0.68185000  0.02745000  0.96276000  1.0
  C  C84  1  0.34862000  0.88024000  0.43697000  1.0
  C  C85  1  0.65139000  0.11976000  0.93697000  1.0
  C  C86  1  0.45314000  0.86959000  0.37020000  1.0
  C  C87  1  0.54687000  0.13040000  0.87020000  1.0
  C  C88  1  0.52821000  0.95422000  0.33067000  1.0
  C  C89  1  0.47181000  0.04578000  0.83067000  1.0
  C  C90  1  0.50837000  0.04667000  0.35944000  1.0
  C  C91  1  0.49164000  0.95333000  0.85943000  1.0
  C  C92  1  0.48588000  0.77083000  0.34435000  1.0
  C  C93  1  0.51411000  0.22917000  0.84434000  1.0
  C  C94  1  0.52115000  0.70167000  0.39967000  1.0
  C  C95  1  0.47884000  0.29833000  0.89967000  1.0
  C  C96  1  0.55132000  0.60680000  0.37890000  1.0
  C  C97  1  0.44866000  0.39319000  0.87891000  1.0
  C  C98  1  0.55130000  0.58102000  0.30169000  1.0
  C  C99  1  0.44869000  0.41897000  0.80169000  1.0
  C  C100  1  0.51559000  0.64866000  0.24543000  1.0
  C  C101  1  0.48441000  0.35134000  0.74543000  1.0
  C  C102  1  0.48122000  0.74306000  0.26679000  1.0
  C  C103  1  0.51877000  0.25694000  0.76679000  1.0
  C  C104  1  0.38756000  0.15580000  0.45818000  1.0
  C  C105  1  0.61244000  0.84419000  0.95817000  1.0
  C  C106  1  0.57083000  0.53219000  0.43838000  1.0
  C  C107  1  0.42915000  0.46780000  0.93839000  1.0
  C  C108  1  0.51811000  0.61684000  0.16358000  1.0
  C  C109  1  0.48190000  0.38316000  0.66358000  1.0
  O  O110  1  0.96410000  0.56488000  0.68652000  1.0
  O  O111  1  0.03591000  0.43513000  0.18652000  1.0
  O  O112  1  0.30188000  0.64362000  0.62207000  1.0
  O  O113  1  0.69812000  0.35638000  0.12206000  1.0
  O  O114  1  0.03304000  0.45099000  0.60223000  1.0
  O  O115  1  0.96696000  0.54901000  0.10223000  1.0
  O  O116  1  0.70798000  0.67757000  0.60988000  1.0
  O  O117  1  0.29201000  0.32243000  0.10989000  1.0
  O  O118  1  0.83833000  0.46608000  0.95883000  1.0
  O  O119  1  0.16166000  0.53392000  0.45882000  1.0
  O  O120  1  0.86305000  0.32766000  0.50227000  1.0
  O  O121  1  0.13695000  0.67235000  0.00227000  1.0
  O  O122  1  0.98649000  0.33992000  0.00109000  1.0
  O  O123  1  0.01349000  0.66008000  0.50109000  1.0
  O  O124  1  0.28014000  0.35837000  0.49441000  1.0
  O  O125  1  0.71984000  0.64162000  0.99441000  1.0
  O  O126  1  0.97404000  0.76797000  0.71872000  1.0
  O  O127  1  0.02595000  0.23203000  0.21873000  1.0
  O  O128  1  0.12502000  0.82381000  0.61466000  1.0
  O  O129  1  0.87500000  0.17620000  0.11467000  1.0
  O  O130  1  0.53469000  0.21784000  0.44987000  1.0
  O  O131  1  0.46531000  0.78216000  0.94986000  1.0
  O  O132  1  0.24010000  0.17412000  0.49240000  1.0
  O  O133  1  0.75990000  0.82588000  0.99239000  1.0
  O  O134  1  0.54192000  0.55295000  0.50945000  1.0
  O  O135  1  0.45806000  0.44705000  0.00946000  1.0
  O  O136  1  0.60519000  0.44737000  0.41860000  1.0
  O  O137  1  0.39478000  0.55263000  0.91860000  1.0
  O  O138  1  0.58252000  0.53560000  0.15092000  1.0
  O  O139  1  0.41749000  0.46440000  0.65092000  1.0
  O  O140  1  0.45828000  0.67067000  0.11178000  1.0
  O  O141  1  0.54175000  0.32933000  0.61179000  1.0
