# generated using pymatgen
data_CdH18C18(N2O3)2
_symmetry_space_group_name_H-M   'P 1'
_cell_length_a   8.37367000
_cell_length_b   9.59529000
_cell_length_c   11.70760000
_cell_angle_alpha   89.99990000
_cell_angle_beta   89.99990000
_cell_angle_gamma   84.36800000
_symmetry_Int_Tables_number   1
_chemical_formula_structural   CdH18C18(N2O3)2
_chemical_formula_sum   'Cd2 H36 C36 N8 O12'
_cell_volume   936.13890771
_cell_formula_units_Z   2
loop_
 _symmetry_equiv_pos_site_id
 _symmetry_equiv_pos_as_xyz
  1  'x, y, z'
loop_
 _atom_site_type_symbol
 _atom_site_label
 _atom_site_symmetry_multiplicity
 _atom_site_fract_x
 _atom_site_fract_y
 _atom_site_fract_z
 _atom_site_occupancy
  Cd  Cd0  1  0.00000000  0.00000000  0.00000000  1.0
  Cd  Cd1  1  0.50000000  0.00000000  0.50000000  1.0
  H  H2  1  0.86050000  0.87441000  0.26337000  1.0
  H  H3  1  0.63950000  0.12559000  0.76337000  1.0
  H  H4  1  0.13950000  0.12559000  0.73663000  1.0
  H  H5  1  0.36050000  0.87441000  0.23663000  1.0
  H  H6  1  0.84881000  0.73309000  0.52269000  1.0
  H  H7  1  0.65119000  0.26691000  0.02269000  1.0
  H  H8  1  0.15119000  0.26691000  0.47731000  1.0
  H  H9  1  0.34881000  0.73309000  0.97731000  1.0
  H  H10  1  0.69155000  0.52962000  0.30267000  1.0
  H  H11  1  0.80845000  0.47038000  0.80267000  1.0
  H  H12  1  0.30845000  0.47038000  0.69733000  1.0
  H  H13  1  0.19155000  0.52962000  0.19733000  1.0
  H  H14  1  0.69512000  0.69840000  0.36318000  1.0
  H  H15  1  0.80488000  0.30159000  0.86318000  1.0
  H  H16  1  0.30488000  0.30160000  0.63682000  1.0
  H  H17  1  0.19513000  0.69840000  0.13682000  1.0
  H  H18  1  0.93989000  0.66045000  0.95038000  1.0
  H  H19  1  0.56011000  0.33955000  0.45038000  1.0
  H  H20  1  0.06011000  0.33955000  0.04962000  1.0
  H  H21  1  0.43989000  0.66045000  0.54962000  1.0
  H  H22  1  0.82877000  0.47795000  0.11249000  1.0
  H  H23  1  0.67123000  0.52205000  0.61249000  1.0
  H  H24  1  0.17123000  0.52205000  0.88751000  1.0
  H  H25  1  0.32877000  0.47795000  0.38751000  1.0
  H  H26  1  0.04003000  0.64455000  0.67251000  1.0
  H  H27  1  0.45997000  0.35545000  0.17251000  1.0
  H  H28  1  0.95997000  0.35545000  0.32749000  1.0
  H  H29  1  0.54004000  0.64455000  0.82749000  1.0
  H  H30  1  0.97321000  0.11728000  0.22204000  1.0
  H  H31  1  0.52679000  0.88272000  0.72204000  1.0
  H  H32  1  0.02679000  0.88272000  0.77796000  1.0
  H  H33  1  0.47321000  0.11728000  0.27796000  1.0
  H  H34  1  0.79398000  0.12109000  0.17041000  1.0
  H  H35  1  0.70602000  0.87891000  0.67041000  1.0
  H  H36  1  0.20602000  0.87891000  0.82959000  1.0
  H  H37  1  0.29398000  0.12109000  0.32959000  1.0
  C  C38  1  0.54560000  0.03320000  0.07731000  1.0
  C  C39  1  0.95440000  0.96680000  0.57731000  1.0
  C  C40  1  0.45440000  0.96680000  0.92269000  1.0
  C  C41  1  0.04560000  0.03320000  0.42269000  1.0
  C  C42  1  0.61118000  0.00766000  0.96105000  1.0
  C  C43  1  0.88881000  0.99235000  0.46104000  1.0
  C  C44  1  0.38882000  0.99235000  0.03895000  1.0
  C  C45  1  0.11119000  0.00766000  0.53896000  1.0
  C  C46  1  0.87515000  0.79202000  0.19953000  1.0
  C  C47  1  0.62485000  0.20798000  0.69953000  1.0
  C  C48  1  0.12485000  0.20798000  0.80047000  1.0
  C  C49  1  0.37515000  0.79202000  0.30047000  1.0
  C  C50  1  0.91651000  0.63117000  0.51218000  1.0
  C  C51  1  0.58350000  0.36883000  0.01218000  1.0
  C  C52  1  0.08350000  0.36883000  0.48782000  1.0
  C  C53  1  0.41651000  0.63117000  0.98782000  1.0
  C  C54  1  0.77034000  0.60991000  0.32632000  1.0
  C  C55  1  0.72966000  0.39008000  0.82632000  1.0
  C  C56  1  0.22966000  0.39008000  0.67368000  1.0
  C  C57  1  0.27034000  0.60992000  0.17368000  1.0
  C  C58  1  0.90980000  0.67648000  0.03965000  1.0
  C  C59  1  0.59020000  0.32352000  0.53965000  1.0
  C  C60  1  0.09020000  0.32352000  0.96035000  1.0
  C  C61  1  0.40980000  0.67648000  0.46035000  1.0
  C  C62  1  0.85716000  0.58537000  0.11861000  1.0
  C  C63  1  0.64284000  0.41463000  0.61861000  1.0
  C  C64  1  0.14284000  0.41463000  0.88139000  1.0
  C  C65  1  0.35716000  0.58537000  0.38139000  1.0
  C  C66  1  0.02251000  0.57970000  0.59768000  1.0
  C  C67  1  0.47749000  0.42030000  0.09768000  1.0
  C  C68  1  0.97749000  0.42030000  0.40232000  1.0
  C  C69  1  0.52251000  0.57970000  0.90232000  1.0
  C  C70  1  0.89292000  0.55289000  0.41368000  1.0
  C  C71  1  0.60708000  0.44711000  0.91368000  1.0
  C  C72  1  0.10708000  0.44711000  0.58632000  1.0
  C  C73  1  0.39292000  0.55289000  0.08632000  1.0
  N  N74  1  0.92120000  0.80457000  0.09135000  1.0
  N  N75  1  0.57879000  0.19543000  0.59135000  1.0
  N  N76  1  0.07879000  0.19543000  0.90865000  1.0
  N  N77  1  0.42120000  0.80457000  0.40865000  1.0
  N  N78  1  0.83584000  0.66006000  0.21924000  1.0
  N  N79  1  0.66416000  0.33994000  0.71924000  1.0
  N  N80  1  0.16416000  0.33994000  0.78076000  1.0
  N  N81  1  0.33584000  0.66006000  0.28076000  1.0
  O  O82  1  0.90472000  0.14654000  0.15405000  1.0
  O  O83  1  0.59528000  0.85346000  0.65405000  1.0
  O  O84  1  0.09528000  0.85346000  0.84595000  1.0
  O  O85  1  0.40472000  0.14654000  0.34595000  1.0
  O  O86  1  0.74294000  0.01878000  0.91130000  1.0
  O  O87  1  0.75706000  0.98122000  0.41130000  1.0
  O  O88  1  0.25706000  0.98122000  0.08870000  1.0
  O  O89  1  0.24293000  0.01878000  0.58870000  1.0
  O  O90  1  0.59989000  0.07534000  0.17058000  1.0
  O  O91  1  0.90011000  0.92466000  0.67058000  1.0
  O  O92  1  0.40011000  0.92466000  0.82942000  1.0
  O  O93  1  0.09989000  0.07534000  0.32942000  1.0
