# generated using pymatgen
data_ZnH23C42N6Cl11O9
_symmetry_space_group_name_H-M   'P 1'
_cell_length_a   18.47990000
_cell_length_b   19.13130000
_cell_length_c   27.90010000
_cell_angle_alpha   91.29010000
_cell_angle_beta   89.63950000
_cell_angle_gamma   89.98630000
_symmetry_Int_Tables_number   1
_chemical_formula_structural   ZnH23C42N6Cl11O9
_chemical_formula_sum   'Zn2 H46 C84 N12 Cl22 O18'
_cell_volume   9861.23093263
_cell_formula_units_Z   2
loop_
 _symmetry_equiv_pos_site_id
 _symmetry_equiv_pos_as_xyz
  1  'x, y, z'
loop_
 _atom_site_type_symbol
 _atom_site_label
 _atom_site_symmetry_multiplicity
 _atom_site_fract_x
 _atom_site_fract_y
 _atom_site_fract_z
 _atom_site_occupancy
  Zn  Zn0  1  0.42021000  0.49662000  0.49830000  1.0
  Zn  Zn1  1  0.58239000  0.50055000  0.49706000  1.0
  H  H2  1  0.38102000  0.52273000  0.64635000  1.0
  H  H3  1  0.51330000  0.09468000  0.14956000  1.0
  H  H4  1  0.56061000  0.13182000  0.10086000  1.0
  H  H5  1  0.52263000  0.77675000  0.85490000  1.0
  H  H6  1  0.54688000  0.74012000  0.91063000  1.0
  H  H7  1  0.39872000  0.80368000  0.88729000  1.0
  H  H8  1  0.42366000  0.77217000  0.94393000  1.0
  H  H9  1  0.52381000  0.86296000  0.94932000  1.0
  H  H10  1  0.43774000  0.90263000  0.94308000  1.0
  H  H11  1  0.49719000  0.89541000  0.89296000  1.0
  H  H12  1  0.47425000  0.22921000  0.83430000  1.0
  H  H13  1  0.38062000  0.47520000  0.34819000  1.0
  H  H14  1  0.41145000  0.29805000  0.84392000  1.0
  H  H15  1  0.46174000  0.19626000  0.92098000  1.0
  H  H16  1  0.39827000  0.26420000  0.93043000  1.0
  H  H17  1  0.31559000  0.20818000  0.86800000  1.0
  H  H18  1  0.33333333  0.15054000  0.91548000  1.0
  H  H19  1  0.37868000  0.13906000  0.85958000  1.0
  H  H20  1  0.44846000  0.77760000  0.16466000  1.0
  H  H21  1  0.39345000  0.70445000  0.15055000  1.0
  H  H22  1  0.43862000  0.81625000  0.07857000  1.0
  H  H23  1  0.37967000  0.74551000  0.06630000  1.0
  H  H24  1  0.48597000  0.33428000  0.03395000  1.0
  H  H25  1  0.29218000  0.79261000  0.13041000  1.0
  H  H26  1  0.30705000  0.85400000  0.08466000  1.0
  H  H27  1  0.35082000  0.86464000  0.14080000  1.0
  H  H28  1  0.61750000  0.34009000  0.00906000  1.0
  H  H29  1  0.63411000  0.32336000  0.94657000  1.0
  H  H30  1  0.57747000  0.21214000  0.01462000  1.0
  H  H31  1  0.60744000  0.19883000  0.95492000  1.0
  H  H32  1  0.73462000  0.23652000  0.97995000  1.0
  H  H33  1  0.70447000  0.16337000  0.01248000  1.0
  H  H34  1  0.70330000  0.24801000  0.03988000  1.0
  H  H35  1  0.48032000  0.67956000  0.96195000  1.0
  H  H36  1  0.59421000  0.76052000  0.99591000  1.0
  H  H37  1  0.60633000  0.66916000  0.98421000  1.0
  H  H38  1  0.63271000  0.74341000  0.08136000  1.0
  H  H39  1  0.64684000  0.65361000  0.06855000  1.0
  H  H40  1  0.74070000  0.68387000  0.00535000  1.0
  H  H41  1  0.76473000  0.71735000  0.06288000  1.0
  H  H42  1  0.72836000  0.77402000  0.01971000  1.0
  H  H43  1  0.54143000  0.26189000  0.08307000  1.0
  H  H44  1  0.44547000  0.25070000  0.08052000  1.0
  H  H45  1  0.53988000  0.22162000  0.16798000  1.0
  H  H46  1  0.44570000  0.20756000  0.16448000  1.0
  H  H47  1  0.46578000  0.11756000  0.09713000  1.0
  C  C48  1  0.51951000  0.36469000  0.49939000  1.0
  C  C49  1  0.48715000  0.43312000  0.87053000  1.0
  C  C50  1  0.48720000  0.51846000  0.35388000  1.0
  C  C51  1  0.49070000  0.48692000  0.64252000  1.0
  C  C52  1  0.49924000  0.44001000  0.97301000  1.0
  C  C53  1  0.49731000  0.57427000  0.02319000  1.0
  C  C54  1  0.49205000  0.56954000  0.97068000  1.0
  C  C55  1  0.49413000  0.44455000  0.02555000  1.0
  C  C56  1  0.49206000  0.50267000  0.94644000  1.0
  C  C57  1  0.49258000  0.51133000  0.04975000  1.0
  C  C58  1  0.50951000  0.37685000  0.94696000  1.0
  C  C59  1  0.51188000  0.63320000  0.50330000  1.0
  C  C60  1  0.50425000  0.63781000  0.04930000  1.0
  C  C61  1  0.50089000  0.37247000  0.89642000  1.0
  C  C62  1  0.49253000  0.64179000  0.09974000  1.0
  C  C63  1  0.48486000  0.50889000  0.40729000  1.0
  C  C64  1  0.48832000  0.49125000  0.58880000  1.0
  C  C65  1  0.48833000  0.38440000  0.05266000  1.0
  C  C66  1  0.48420000  0.62928000  0.94351000  1.0
  C  C67  1  0.50097000  0.26184000  0.55278000  1.0
  C  C68  1  0.51059000  0.75572000  0.47194000  1.0
  C  C69  1  0.49517000  0.73949000  0.55739000  1.0
  C  C70  1  0.48807000  0.51415000  0.10118000  1.0
  C  C71  1  0.52396000  0.23937000  0.46820000  1.0
  C  C72  1  0.49489000  0.18977000  0.56016000  1.0
  C  C73  1  0.50500000  0.82834000  0.47921000  1.0
  C  C74  1  0.48909000  0.81214000  0.56473000  1.0
  C  C75  1  0.51734000  0.16722000  0.47542000  1.0
  C  C76  1  0.50300000  0.14245000  0.52141000  1.0
  C  C77  1  0.49461000  0.85657000  0.52556000  1.0
  C  C78  1  0.51587000  0.28662000  0.50688000  1.0
  C  C79  1  0.50629000  0.71148000  0.51113000  1.0
  C  C80  1  0.49183000  0.93357000  0.53230000  1.0
  C  C81  1  0.48693000  0.49954000  0.89508000  1.0
  C  C82  1  0.49645000  0.06634000  0.52934000  1.0
  C  C83  1  0.73812000  0.46940000  0.46292000  1.0
  C  C84  1  0.26404000  0.54627000  0.52695000  1.0
  C  C85  1  0.73655000  0.53794000  0.53307000  1.0
  C  C86  1  0.26350000  0.44606000  0.47811000  1.0
  C  C87  1  0.81427000  0.46773000  0.46222000  1.0
  C  C88  1  0.18789000  0.54881000  0.52776000  1.0
  C  C89  1  0.81267000  0.53716000  0.53551000  1.0
  C  C90  1  0.18740000  0.44415000  0.47789000  1.0
  C  C91  1  0.85165000  0.50172000  0.49940000  1.0
  C  C92  1  0.48898000  0.45154000  0.12784000  1.0
  C  C93  1  0.14949000  0.49689000  0.50277000  1.0
  C  C94  1  0.06918000  0.49814000  0.50219000  1.0
  C  C95  1  0.93193000  0.50041000  0.50046000  1.0
  C  C96  1  0.49669000  0.45428000  0.18021000  1.0
  C  C97  1  0.49060000  0.55975000  0.81577000  1.0
  C  C98  1  0.47446000  0.58414000  0.17843000  1.0
  C  C99  1  0.47760000  0.42873000  0.81810000  1.0
  C  C100  1  0.42493000  0.49773000  0.27861000  1.0
  C  C101  1  0.42474000  0.50834000  0.71685000  1.0
  C  C102  1  0.42653000  0.49544000  0.32826000  1.0
  C  C103  1  0.48372000  0.56218000  0.86835000  1.0
  C  C104  1  0.42775000  0.50746000  0.66716000  1.0
  C  C105  1  0.54665000  0.54642000  0.32884000  1.0
  C  C106  1  0.55163000  0.46532000  0.66857000  1.0
  C  C107  1  0.54501000  0.54774000  0.27838000  1.0
  C  C108  1  0.54847000  0.46734000  0.71904000  1.0
  C  C109  1  0.48459000  0.52283000  0.25308000  1.0
  C  C110  1  0.48538000  0.48911000  0.74329000  1.0
  C  C111  1  0.49135000  0.26123000  0.10481000  1.0
  C  C112  1  0.49610000  0.20664000  0.14327000  1.0
  C  C113  1  0.50962000  0.13376000  0.12146000  1.0
  C  C114  1  0.48656000  0.38674000  0.10289000  1.0
  C  C115  1  0.50108000  0.75079000  0.88676000  1.0
  C  C116  1  0.44479000  0.79731000  0.91162000  1.0
  C  C117  1  0.47761000  0.86848000  0.92497000  1.0
  C  C118  1  0.45195000  0.26563000  0.86158000  1.0
  C  C119  1  0.41929000  0.22651000  0.90335000  1.0
  C  C120  1  0.35839000  0.17845000  0.88569000  1.0
  C  C121  1  0.43152000  0.74215000  0.13533000  1.0
  C  C122  1  0.39753000  0.78235000  0.09476000  1.0
  C  C123  1  0.33338000  0.82574000  0.11361000  1.0
  C  C124  1  0.60276000  0.30632000  0.97794000  1.0
  C  C125  1  0.48028000  0.62682000  0.89336000  1.0
  C  C126  1  0.61709000  0.22997000  0.98790000  1.0
  C  C127  1  0.69405000  0.21887000  0.00602000  1.0
  C  C128  1  0.59367000  0.70885000  0.01240000  1.0
  C  C129  1  0.64843000  0.70584000  0.05277000  1.0
  C  C130  1  0.72469000  0.72108000  0.03414000  1.0
  C  C131  1  0.48364000  0.58042000  0.12580000  1.0
  N  N132  1  0.48490000  0.52081000  0.20196000  1.0
  N  N133  1  0.03448000  0.45698000  0.53336000  1.0
  N  N134  1  0.96280000  0.45833000  0.53254000  1.0
  N  N135  1  0.03835000  0.54049000  0.47026000  1.0
  N  N136  1  0.48382000  0.49242000  0.79436000  1.0
  N  N137  1  0.55367000  0.03410000  0.54885000  1.0
  N  N138  1  0.42954000  0.96667000  0.52245000  1.0
  N  N139  1  0.55130000  0.96502000  0.55036000  1.0
  N  N140  1  0.43194000  0.03588000  0.52094000  1.0
  N  N141  1  0.70089000  0.50394000  0.49765000  1.0
  N  N142  1  0.30018000  0.49625000  0.50207000  1.0
  N  N143  1  0.96672000  0.54156000  0.46928000  1.0
  Cl  Cl144  1  0.62078000  0.58151000  0.35743000  1.0
  Cl  Cl145  1  0.31106000  0.38329000  0.44752000  1.0
  Cl  Cl146  1  0.86073000  0.42404000  0.41761000  1.0
  Cl  Cl147  1  0.14238000  0.61335000  0.55879000  1.0
  Cl  Cl148  1  0.85729000  0.57973000  0.58106000  1.0
  Cl  Cl149  1  0.14137000  0.37972000  0.44750000  1.0
  Cl  Cl150  1  0.61764000  0.57873000  0.24665000  1.0
  Cl  Cl151  1  0.62220000  0.44372000  0.75208000  1.0
  Cl  Cl152  1  0.34596000  0.53312000  0.74591000  1.0
  Cl  Cl153  1  0.34924000  0.46864000  0.24834000  1.0
  Cl  Cl154  1  0.48875000  0.31968000  0.59997000  1.0
  Cl  Cl155  1  0.62907000  0.43376000  0.64153000  1.0
  Cl  Cl156  1  0.52266000  0.72042000  0.41537000  1.0
  Cl  Cl157  1  0.48920000  0.68431000  0.60518000  1.0
  Cl  Cl158  1  0.54045000  0.27059000  0.41183000  1.0
  Cl  Cl159  1  0.47593000  0.15906000  0.61623000  1.0
  Cl  Cl160  1  0.51227000  0.88381000  0.43172000  1.0
  Cl  Cl161  1  0.47374000  0.84718000  0.62110000  1.0
  Cl  Cl162  1  0.52722000  0.10805000  0.42845000  1.0
  Cl  Cl163  1  0.69151000  0.42700000  0.41891000  1.0
  Cl  Cl164  1  0.31169000  0.60788000  0.55811000  1.0
  Cl  Cl165  1  0.68874000  0.58280000  0.57569000  1.0
  O  O166  1  0.45894000  0.39391000  0.49369000  1.0
  O  O167  1  0.50218000  0.60976000  0.78990000  1.0
  O  O168  1  0.46627000  0.37489000  0.79432000  1.0
  O  O169  1  0.46026000  0.63721000  0.20247000  1.0
  O  O170  1  0.48230000  0.32811000  0.12864000  1.0
  O  O171  1  0.47257000  0.68559000  0.86802000  1.0
  O  O172  1  0.51347000  0.30897000  0.87519000  1.0
  O  O173  1  0.49768000  0.70632000  0.12068000  1.0
  O  O174  1  0.52629000  0.31475000  0.96822000  1.0
  O  O175  1  0.51926000  0.70060000  0.02835000  1.0
  O  O176  1  0.57505000  0.60813000  0.49895000  1.0
  O  O177  1  0.45218000  0.60111000  0.50219000  1.0
  O  O178  1  0.58161000  0.39272000  0.50002000  1.0
  O  O179  1  0.42202000  0.50670000  0.42647000  1.0
  O  O180  1  0.54745000  0.50003000  0.56671000  1.0
  O  O181  1  0.42562000  0.48792000  0.57001000  1.0
  O  O182  1  0.54453000  0.50122000  0.42859000  1.0
  O  O183  1  0.51256000  0.40494000  0.20561000  1.0
