# generated using pymatgen
data_CuH18C15N6Cl
_symmetry_space_group_name_H-M   'P 1'
_cell_length_a   9.33768000
_cell_length_b   9.33772000
_cell_length_c   9.33773000
_cell_angle_alpha   78.20900000
_cell_angle_beta   78.20880000
_cell_angle_gamma   78.20890000
_symmetry_Int_Tables_number   1
_chemical_formula_structural   CuH18C15N6Cl
_chemical_formula_sum   'Cu2 H36 C30 N12 Cl2'
_cell_volume   768.87173555
_cell_formula_units_Z   2
loop_
 _symmetry_equiv_pos_site_id
 _symmetry_equiv_pos_as_xyz
  1  'x, y, z'
loop_
 _atom_site_type_symbol
 _atom_site_label
 _atom_site_symmetry_multiplicity
 _atom_site_fract_x
 _atom_site_fract_y
 _atom_site_fract_z
 _atom_site_occupancy
  Cu  Cu0  1  0.63014000  0.63015000  0.63015000  1.0
  Cu  Cu1  1  0.36985000  0.36985000  0.36986000  1.0
  H  H2  1  0.74869000  0.74570000  0.05411000  1.0
  H  H3  1  0.74570000  0.05411000  0.74868000  1.0
  H  H4  1  0.05410000  0.74868000  0.74571000  1.0
  H  H5  1  0.25132000  0.25430000  0.94589000  1.0
  H  H6  1  0.25430000  0.94589000  0.25132000  1.0
  H  H7  1  0.94589000  0.25132000  0.25429000  1.0
  H  H8  1  0.76211000  0.54748000  0.32297000  1.0
  H  H9  1  0.54748000  0.32297000  0.76212000  1.0
  H  H10  1  0.32297000  0.76211000  0.54748000  1.0
  H  H11  1  0.23788000  0.45252000  0.67703000  1.0
  H  H12  1  0.45252000  0.67703000  0.23788000  1.0
  H  H13  1  0.67703000  0.23788000  0.45252000  1.0
  H  H14  1  0.51183000  0.09902000  0.12009000  1.0
  H  H15  1  0.09902000  0.12009000  0.51183000  1.0
  H  H16  1  0.12009000  0.51182000  0.09903000  1.0
  H  H17  1  0.48817000  0.90098000  0.87991000  1.0
  H  H18  1  0.90098000  0.87991000  0.48817000  1.0
  H  H19  1  0.87991000  0.48817000  0.90098000  1.0
  H  H20  1  0.64633000  0.00662000  0.98716000  1.0
  H  H21  1  0.00662000  0.98716000  0.64633000  1.0
  H  H22  1  0.98716000  0.64632000  0.00662000  1.0
  H  H23  1  0.35367000  0.99339000  0.01284000  1.0
  H  H24  1  0.99338000  0.01284000  0.35367000  1.0
  H  H25  1  0.01284000  0.35368000  0.99338000  1.0
  H  H26  1  0.70474000  0.10079000  0.10753000  1.0
  H  H27  1  0.10079000  0.10752000  0.70473000  1.0
  H  H28  1  0.10752000  0.70473000  0.10080000  1.0
  H  H29  1  0.29527000  0.89921000  0.89248000  1.0
  H  H30  1  0.89921000  0.89248000  0.29527000  1.0
  H  H31  1  0.89248000  0.29527000  0.89921000  1.0
  H  H32  1  0.47195000  0.10053000  0.35234000  1.0
  H  H33  1  0.10054000  0.35234000  0.47195000  1.0
  H  H34  1  0.35234000  0.47195000  0.10054000  1.0
  H  H35  1  0.52805000  0.89946000  0.64767000  1.0
  H  H36  1  0.89946000  0.64767000  0.52805000  1.0
  H  H37  1  0.64766000  0.52806000  0.89946000  1.0
  C  C38  1  0.51541000  0.00136000  0.42573000  1.0
  C  C39  1  0.00136000  0.42574000  0.51540000  1.0
  C  C40  1  0.42573000  0.51540000  0.00136000  1.0
  C  C41  1  0.48460000  0.99864000  0.57427000  1.0
  C  C42  1  0.99864000  0.57427000  0.48460000  1.0
  C  C43  1  0.57427000  0.48460000  0.99864000  1.0
  C  C44  1  0.59841000  0.88010000  0.35617000  1.0
  C  C45  1  0.88010000  0.35617000  0.59840000  1.0
  C  C46  1  0.35617000  0.59840000  0.88011000  1.0
  C  C47  1  0.40160000  0.11989000  0.64383000  1.0
  C  C48  1  0.11990000  0.64383000  0.40160000  1.0
  C  C49  1  0.64383000  0.40160000  0.11990000  1.0
  C  C50  1  0.71171000  0.76014000  0.16929000  1.0
  C  C51  1  0.76014000  0.16929000  0.71171000  1.0
  C  C52  1  0.16929000  0.71170000  0.76014000  1.0
  C  C53  1  0.28829000  0.23986000  0.83071000  1.0
  C  C54  1  0.23986000  0.83071000  0.28829000  1.0
  C  C55  1  0.83071000  0.28829000  0.23986000  1.0
  C  C56  1  0.71551000  0.66446000  0.30267000  1.0
  C  C57  1  0.66446000  0.30267000  0.71551000  1.0
  C  C58  1  0.30267000  0.71550000  0.66447000  1.0
  C  C59  1  0.28449000  0.33553000  0.69733000  1.0
  C  C60  1  0.33553000  0.69733000  0.28449000  1.0
  C  C61  1  0.69733000  0.28449000  0.33553000  1.0
  C  C62  1  0.62380000  0.03391000  0.09885000  1.0
  C  C63  1  0.03391000  0.09885000  0.62380000  1.0
  C  C64  1  0.09885000  0.62379000  0.03391000  1.0
  C  C65  1  0.37620000  0.96609000  0.90115000  1.0
  C  C66  1  0.96609000  0.90115000  0.37620000  1.0
  C  C67  1  0.90115000  0.37620000  0.96609000  1.0
  N  N68  1  0.64596000  0.73839000  0.41822000  1.0
  N  N69  1  0.73840000  0.41822000  0.64596000  1.0
  N  N70  1  0.41821000  0.64596000  0.73840000  1.0
  N  N71  1  0.35404000  0.26160000  0.58178000  1.0
  N  N72  1  0.26160000  0.58178000  0.35404000  1.0
  N  N73  1  0.58179000  0.35404000  0.26160000  1.0
  N  N74  1  0.63801000  0.89531000  0.20404000  1.0
  N  N75  1  0.89531000  0.20404000  0.63801000  1.0
  N  N76  1  0.20404000  0.63801000  0.89531000  1.0
  N  N77  1  0.36199000  0.10469000  0.79595000  1.0
  N  N78  1  0.10469000  0.79596000  0.36199000  1.0
  N  N79  1  0.79596000  0.36199000  0.10469000  1.0
  Cl  Cl80  1  0.76492000  0.76492000  0.76492000  1.0
  Cl  Cl81  1  0.23508000  0.23508000  0.23508000  1.0
