# generated using pymatgen
data_Zn3H24C38(N3O2)4
_symmetry_space_group_name_H-M   'P 1'
_cell_length_a   11.56340000
_cell_length_b   11.61190000
_cell_length_c   11.79810000
_cell_angle_alpha   64.51460000
_cell_angle_beta   81.18540000
_cell_angle_gamma   72.28510000
_symmetry_Int_Tables_number   1
_chemical_formula_structural   Zn3H24C38(N3O2)4
_chemical_formula_sum   'Zn3 H24 C38 N12 O8'
_cell_volume   1361.75265632
_cell_formula_units_Z   1
loop_
 _symmetry_equiv_pos_site_id
 _symmetry_equiv_pos_as_xyz
  1  'x, y, z'
loop_
 _atom_site_type_symbol
 _atom_site_label
 _atom_site_symmetry_multiplicity
 _atom_site_fract_x
 _atom_site_fract_y
 _atom_site_fract_z
 _atom_site_occupancy
  Zn  Zn0  1  0.00000000  0.00000000  0.50000000  1.0
  Zn  Zn1  1  0.99999000  0.50000000  0.50000000  1.0
  Zn  Zn2  1  0.00000000  0.00000000  0.00000000  1.0
  H  H3  1  0.79024000  0.97969000  0.69590000  1.0
  H  H4  1  0.63540000  0.41646000  0.35758000  1.0
  H  H5  1  0.57218000  0.10076000  0.70794000  1.0
  H  H6  1  0.19765000  0.36978000  0.71444000  1.0
  H  H7  1  0.84936000  0.27971000  0.35977000  1.0
  H  H8  1  0.42119000  0.26249000  0.73169000  1.0
  H  H9  1  0.44558000  0.43753000  0.32601000  1.0
  H  H10  1  0.22180000  0.53818000  0.32682000  1.0
  H  H11  1  0.52881000  0.21000000  0.95642000  1.0
  H  H12  1  0.85637000  0.80277000  0.02632000  1.0
  H  H13  1  0.64399000  0.79204000  0.03290000  1.0
  H  H14  1  0.74697000  0.20094000  0.95174000  1.0
  H  H15  1  0.20976000  0.02031000  0.30409000  1.0
  H  H16  1  0.36462000  0.58355000  0.64241000  1.0
  H  H17  1  0.42781000  0.89925000  0.29205000  1.0
  H  H18  1  0.80235000  0.63022000  0.28555000  1.0
  H  H19  1  0.15065000  0.72029000  0.64023000  1.0
  H  H20  1  0.57880000  0.73752000  0.26830000  1.0
  H  H21  1  0.55442000  0.56248000  0.67398000  1.0
  H  H22  1  0.77819000  0.46181000  0.67317000  1.0
  H  H23  1  0.47120000  0.78999000  0.04358000  1.0
  H  H24  1  0.14363000  0.19721000  0.97370000  1.0
  H  H25  1  0.35602000  0.20794000  0.96711000  1.0
  H  H26  1  0.25304000  0.79905000  0.04827000  1.0
  C  C27  1  0.75155000  0.07782000  0.62416000  1.0
  C  C28  1  0.02671000  0.21845000  0.61797000  1.0
  C  C29  1  0.04375000  0.96199000  0.76891000  1.0
  C  C30  1  0.45367000  0.34013000  0.52951000  1.0
  C  C31  1  0.66484000  0.31981000  0.43458000  1.0
  C  C32  1  0.63055000  0.14617000  0.63010000  1.0
  C  C33  1  0.25696000  0.38323000  0.63080000  1.0
  C  C34  1  0.05728000  0.24583000  0.48246000  1.0
  C  C35  1  0.02192000  0.10751000  0.72968000  1.0
  C  C36  1  0.58394000  0.26965000  0.53240000  1.0
  C  C37  1  0.78461000  0.24551000  0.43562000  1.0
  C  C38  1  0.38130000  0.32329000  0.63958000  1.0
  C  C39  1  0.39524000  0.42210000  0.41496000  1.0
  C  C40  1  0.27043000  0.47802000  0.41455000  1.0
  C  C41  1  0.56442000  0.00054000  0.99704000  1.0
  C  C42  1  0.59702000  0.11646000  0.97257000  1.0
  C  C43  1  0.77994000  0.89038000  0.01145000  1.0
  C  C44  1  0.66045000  0.88581000  0.01543000  1.0
  C  C45  1  0.71878000  0.11288000  0.96968000  1.0
  C  C46  1  0.24844000  0.92219000  0.37584000  1.0
  C  C47  1  0.97329000  0.78156000  0.38203000  1.0
  C  C48  1  0.95625000  0.03802000  0.23110000  1.0
  C  C49  1  0.54633000  0.65988000  0.47048000  1.0
  C  C50  1  0.33517000  0.68019000  0.56541000  1.0
  C  C51  1  0.36945000  0.85383000  0.36989000  1.0
  C  C52  1  0.74303000  0.61677000  0.36919000  1.0
  C  C53  1  0.94271000  0.75417000  0.51755000  1.0
  C  C54  1  0.97808000  0.89249000  0.27033000  1.0
  C  C55  1  0.41606000  0.73036000  0.46759000  1.0
  C  C56  1  0.21539000  0.75450000  0.56437000  1.0
  C  C57  1  0.61870000  0.67671000  0.36041000  1.0
  C  C58  1  0.60476000  0.57790000  0.58503000  1.0
  C  C59  1  0.72956000  0.52198000  0.58544000  1.0
  C  C60  1  0.43559000  0.99945000  0.00296000  1.0
  C  C61  1  0.40298000  0.88353000  0.02743000  1.0
  C  C62  1  0.22007000  0.10960000  0.98856000  1.0
  C  C63  1  0.33955000  0.11417000  0.98458000  1.0
  C  C64  1  0.28122000  0.88711000  0.03034000  1.0
  N  N65  1  0.99847000  0.32280000  0.65094000  1.0
  N  N66  1  0.82690000  0.12582000  0.52816000  1.0
  N  N67  1  0.20181000  0.45816000  0.52040000  1.0
  N  N68  1  0.97634000  0.28296000  0.77430000  1.0
  N  N69  1  0.99073000  0.15278000  0.82217000  1.0
  N  N70  1  0.80866000  0.00178000  0.98969000  1.0
  N  N71  1  0.00153000  0.67720000  0.34907000  1.0
  N  N72  1  0.17310000  0.87418000  0.47184000  1.0
  N  N73  1  0.79818000  0.54184000  0.47959000  1.0
  N  N74  1  0.02366000  0.71704000  0.22571000  1.0
  N  N75  1  0.00927000  0.84722000  0.17784000  1.0
  N  N76  1  0.19134000  0.99820000  0.01033000  1.0
  O  O77  1  0.08724000  0.15178000  0.44695000  1.0
  O  O78  1  0.05183000  0.36633000  0.40949000  1.0
  O  O79  1  0.04961000  0.91542000  0.68842000  1.0
  O  O80  1  0.05444000  0.89063000  0.88683000  1.0
  O  O81  1  0.91277000  0.84822000  0.55306000  1.0
  O  O82  1  0.94815000  0.63368000  0.59050000  1.0
  O  O83  1  0.95041000  0.08458000  0.31158000  1.0
  O  O84  1  0.94557000  0.10937000  0.11318000  1.0
