# generated using pymatgen
data_Zn3H34C54(NO3)4
_symmetry_space_group_name_H-M   'P 1'
_cell_length_a   13.82110000
_cell_length_b   24.77773502
_cell_length_c   26.47500000
_cell_angle_alpha   66.80642481
_cell_angle_beta   89.99650000
_cell_angle_gamma   73.81166429
_symmetry_Int_Tables_number   1
_chemical_formula_structural   Zn3H34C54(NO3)4
_chemical_formula_sum   'Zn12 H136 C216 N16 O48'
_cell_volume   7941.23557910
_cell_formula_units_Z   4
loop_
 _symmetry_equiv_pos_site_id
 _symmetry_equiv_pos_as_xyz
  1  'x, y, z'
loop_
 _atom_site_type_symbol
 _atom_site_label
 _atom_site_symmetry_multiplicity
 _atom_site_fract_x
 _atom_site_fract_y
 _atom_site_fract_z
 _atom_site_occupancy
  Zn  Zn0  1  0.59910000  0.29030000  0.45253000  1.0
  Zn  Zn1  1  0.88947000  0.70960000  0.04750000  1.0
  Zn  Zn2  1  0.40090000  0.70970000  0.54747000  1.0
  Zn  Zn3  1  0.11053000  0.29040000  0.95250000  1.0
  Zn  Zn4  1  0.51885000  0.44157000  0.39238000  1.0
  Zn  Zn5  1  0.96035000  0.55848000  0.10762000  1.0
  Zn  Zn6  1  0.48115000  0.55843000  0.60762000  1.0
  Zn  Zn7  1  0.03965000  0.44152000  0.89239000  1.0
  Zn  Zn8  1  0.69412000  0.13221000  0.51643000  1.0
  Zn  Zn9  1  0.82619000  0.86777000  0.98355000  1.0
  Zn  Zn10  1  0.30588000  0.86779000  0.48357000  1.0
  Zn  Zn11  1  0.17380000  0.13224000  0.01644000  1.0
  H  H12  1  0.78873000  0.28296000  0.57187000  1.0
  H  H13  1  0.07202000  0.71700000  0.92807000  1.0
  H  H14  1  0.21127000  0.71704000  0.42813000  1.0
  H  H15  1  0.92798000  0.28300000  0.07194000  1.0
  H  H16  1  0.87424000  0.27926000  0.65573000  1.0
  H  H17  1  0.15383000  0.72060000  0.84424000  1.0
  H  H18  1  0.12577000  0.72073000  0.34427000  1.0
  H  H19  1  0.84618000  0.27940000  0.15577000  1.0
  H  H20  1  0.74625000  0.47705000  0.59539000  1.0
  H  H21  1  0.22336000  0.52281000  0.90468000  1.0
  H  H22  1  0.25377000  0.52294000  0.40462000  1.0
  H  H23  1  0.77663000  0.47719000  0.09532000  1.0
  H  H24  1  0.66398000  0.47920000  0.51204000  1.0
  H  H25  1  0.14314000  0.52077000  0.98800000  1.0
  H  H26  1  0.33602000  0.52080000  0.48796000  1.0
  H  H27  1  0.85685000  0.47923000  0.01200000  1.0
  H  H28  1  0.91058000  0.27664000  0.72886000  1.0
  H  H29  1  0.18716000  0.72321000  0.77115000  1.0
  H  H30  1  0.08943000  0.72336000  0.27114000  1.0
  H  H31  1  0.81284000  0.27679000  0.22886000  1.0
  H  H32  1  0.98580000  0.27568000  0.81393000  1.0
  H  H33  1  0.26119000  0.72423000  0.68601000  1.0
  H  H34  1  0.01422000  0.72431000  0.18607000  1.0
  H  H35  1  0.73881000  0.27577000  0.31400000  1.0
  H  H36  1  0.89614000  0.47318000  0.74130000  1.0
  H  H37  1  0.36939000  0.52674000  0.75866000  1.0
  H  H38  1  0.10385000  0.52682000  0.25870000  1.0
  H  H39  1  0.63060000  0.47326000  0.24135000  1.0
  H  H40  1  0.82314000  0.47596000  0.65556000  1.0
  H  H41  1  0.29939000  0.52391000  0.84449000  1.0
  H  H42  1  0.17687000  0.52404000  0.34444000  1.0
  H  H43  1  0.70061000  0.47609000  0.15551000  1.0
  H  H44  1  0.37759000  0.29004000  0.48972000  1.0
  H  H45  1  0.66755000  0.71028000  0.01038000  1.0
  H  H46  1  0.62241000  0.70996000  0.51029000  1.0
  H  H47  1  0.33245000  0.28972000  0.98961000  1.0
  H  H48  1  0.24280000  0.23856000  0.51036000  1.0
  H  H49  1  0.48139000  0.76185000  0.98977000  1.0
  H  H50  1  0.75720000  0.76144000  0.48964000  1.0
  H  H51  1  0.51861000  0.23815000  0.01023000  1.0
  H  H52  1  0.08136000  0.36067000  0.34786000  1.0
  H  H53  1  0.44181000  0.63941000  0.15208000  1.0
  H  H54  1  0.91865000  0.63933000  0.65214000  1.0
  H  H55  1  0.55819000  0.36059000  0.84792000  1.0
  H  H56  1  0.21396000  0.41426000  0.32934000  1.0
  H  H57  1  0.62793000  0.58584000  0.17063000  1.0
  H  H58  1  0.78605000  0.58574000  0.67067000  1.0
  H  H59  1  0.37207000  0.41416000  0.82937000  1.0
  H  H60  1  0.16961000  0.17657000  0.49627000  1.0
  H  H61  1  0.34569000  0.82365000  0.00370000  1.0
  H  H62  1  0.83039000  0.82343000  0.50373000  1.0
  H  H63  1  0.65432000  0.17635000  0.99629000  1.0
  H  H64  1  0.02961000  0.12869000  0.52001000  1.0
  H  H65  1  0.15779000  0.87132000  0.98010000  1.0
  H  H66  1  0.97040000  0.87131000  0.47999000  1.0
  H  H67  1  0.84221000  0.12868000  0.01988000  1.0
  H  H68  1  0.81201000  0.30216000  0.41870000  1.0
  H  H69  1  0.11419000  0.69763000  0.08124000  1.0
  H  H70  1  0.18800000  0.69784000  0.58131000  1.0
  H  H71  1  0.88580000  0.30238000  0.91874000  1.0
  H  H72  1  0.95008000  0.35066000  0.39490000  1.0
  H  H73  1  0.30074000  0.64935000  0.10498000  1.0
  H  H74  1  0.04993000  0.64934000  0.60510000  1.0
  H  H75  1  0.69926000  0.35065000  0.89501000  1.0
  H  H76  1  0.55951000  0.09771000  0.39233000  1.0
  H  H77  1  0.65668000  0.90224000  0.10744000  1.0
  H  H78  1  0.44048000  0.90229000  0.60767000  1.0
  H  H79  1  0.34332000  0.09776000  0.89255000  1.0
  H  H80  1  0.47620000  0.10075000  0.30753000  1.0
  H  H81  1  0.57633000  0.89922000  0.19224000  1.0
  H  H82  1  0.52379000  0.89925000  0.69247000  1.0
  H  H83  1  0.42367000  0.10078000  0.80776000  1.0
  H  H84  1  0.31288000  0.29271000  0.26038000  1.0
  H  H85  1  0.60556000  0.70711000  0.23960000  1.0
  H  H86  1  0.68712000  0.70729000  0.73962000  1.0
  H  H87  1  0.39444000  0.29289000  0.76039000  1.0
  H  H88  1  0.39936000  0.28894000  0.34477000  1.0
  H  H89  1  0.68830000  0.71091000  0.15521000  1.0
  H  H90  1  0.60065000  0.71105000  0.65524000  1.0
  H  H91  1  0.31170000  0.28910000  0.84477000  1.0
  H  H92  1  0.32799000  0.10788000  0.26432000  1.0
  H  H93  1  0.43556000  0.89205000  0.23545000  1.0
  H  H94  1  0.67201000  0.89212000  0.73567000  1.0
  H  H95  1  0.56444000  0.10795000  0.76455000  1.0
  H  H96  1  0.25498000  0.11108000  0.17684000  1.0
  H  H97  1  0.36580000  0.88908000  0.32289000  1.0
  H  H98  1  0.74503000  0.88892000  0.82315000  1.0
  H  H99  1  0.63418000  0.11093000  0.67710000  1.0
  H  H100  1  0.27047000  0.29469000  0.08849000  1.0
  H  H101  1  0.56485000  0.70552000  0.41145000  1.0
  H  H102  1  0.72953000  0.70532000  0.91150000  1.0
  H  H103  1  0.43513000  0.29448000  0.58854000  1.0
  H  H104  1  0.34780000  0.29146000  0.17519000  1.0
  H  H105  1  0.63898000  0.70856000  0.32480000  1.0
  H  H106  1  0.65220000  0.70854000  0.82481000  1.0
  H  H107  1  0.36101000  0.29144000  0.67520000  1.0
  H  H108  1  0.40361000  0.53009000  0.28594000  1.0
  H  H109  1  0.93382000  0.46997000  0.21418000  1.0
  H  H110  1  0.59639000  0.46991000  0.71407000  1.0
  H  H111  1  0.06616000  0.53003000  0.78582000  1.0
  H  H112  1  0.34060000  0.64555000  0.23195000  1.0
  H  H113  1  0.98591000  0.35453000  0.26816000  1.0
  H  H114  1  0.65940000  0.35445000  0.76805000  1.0
  H  H115  1  0.01407000  0.64547000  0.73184000  1.0
  H  H116  1  0.44869000  0.66218000  0.37660000  1.0
  H  H117  1  0.11063000  0.33778000  0.12354000  1.0
  H  H118  1  0.55129000  0.33783000  0.62340000  1.0
  H  H119  1  0.88937000  0.66222000  0.87646000  1.0
  H  H120  1  0.51201000  0.54649000  0.42316000  1.0
  H  H121  1  0.05862000  0.45346000  0.07699000  1.0
  H  H122  1  0.48798000  0.45352000  0.57684000  1.0
  H  H123  1  0.94138000  0.54654000  0.92301000  1.0
  H  H124  1  0.36678000  0.75709000  0.29390000  1.0
  H  H125  1  0.12356000  0.24286000  0.20632000  1.0
  H  H126  1  0.63322000  0.24291000  0.70610000  1.0
  H  H127  1  0.87645000  0.75714000  0.79369000  1.0
  H  H128  1  0.35080000  0.81327000  0.12442000  1.0
  H  H129  1  0.16458000  0.18684000  0.37584000  1.0
  H  H130  1  0.64920000  0.18673000  0.87558000  1.0
  H  H131  1  0.83541000  0.81317000  0.62416000  1.0
  H  H132  1  0.26695000  0.02346000  0.98801000  1.0
  H  H133  1  0.29068000  0.97643000  0.51223000  1.0
  H  H134  1  0.73306000  0.97654000  0.01198000  1.0
  H  H135  1  0.70932000  0.02357000  0.48777000  1.0
  H  H136  1  0.31705000  0.90776000  0.03646000  1.0
  H  H137  1  0.22537000  0.09213000  0.46392000  1.0
  H  H138  1  0.68294000  0.09224000  0.96354000  1.0
  H  H139  1  0.77463000  0.90787000  0.53609000  1.0
  H  H140  1  0.20050000  0.04338000  0.13305000  1.0
  H  H141  1  0.24436000  0.95681000  0.36703000  1.0
  H  H142  1  0.79951000  0.95663000  0.86694000  1.0
  H  H143  1  0.75563000  0.04320000  0.63298000  1.0
  H  H144  1  0.24863000  0.92815000  0.18824000  1.0
  H  H145  1  0.17724000  0.07205000  0.31200000  1.0
  H  H146  1  0.75138000  0.07185000  0.81176000  1.0
  H  H147  1  0.82273000  0.92796000  0.68801000  1.0
  C  C148  1  0.66272000  0.38277000  0.48854000  1.0
  C  C149  1  0.04553000  0.61726000  0.01144000  1.0
  C  C150  1  0.33729000  0.61723000  0.51147000  1.0
  C  C151  1  0.95446000  0.38274000  0.98857000  1.0
  C  C152  1  0.72031000  0.38117000  0.53698000  1.0
  C  C153  1  0.10161000  0.61879000  0.96302000  1.0
  C  C154  1  0.27969000  0.61883000  0.46303000  1.0
  C  C155  1  0.89839000  0.38121000  0.03698000  1.0
  C  C156  1  0.78073000  0.32512000  0.57767000  1.0
  C  C157  1  0.10610000  0.67482000  0.92231000  1.0
  C  C158  1  0.21927000  0.67488000  0.42233000  1.0
  C  C159  1  0.89390000  0.32518000  0.07769000  1.0
  C  C160  1  0.82806000  0.32362000  0.62476000  1.0
  C  C161  1  0.15195000  0.67627000  0.87523000  1.0
  C  C162  1  0.17195000  0.67638000  0.37524000  1.0
  C  C163  1  0.84805000  0.32373000  0.12477000  1.0
  C  C164  1  0.81684000  0.37785000  0.63300000  1.0
  C  C165  1  0.19487000  0.62202000  0.86704000  1.0
  C  C166  1  0.18317000  0.62215000  0.36701000  1.0
  C  C167  1  0.80513000  0.37798000  0.13297000  1.0
  C  C168  1  0.75825000  0.43398000  0.59079000  1.0
  C  C169  1  0.19235000  0.56590000  0.90926000  1.0
  C  C170  1  0.24176000  0.56602000  0.40922000  1.0
  C  C171  1  0.80764000  0.43410000  0.09075000  1.0
  C  C172  1  0.71092000  0.43562000  0.54375000  1.0
  C  C173  1  0.14661000  0.56431000  0.95627000  1.0
  C  C174  1  0.28909000  0.56437000  0.45625000  1.0
  C  C175  1  0.85338000  0.43569000  0.04373000  1.0
  C  C176  1  0.86233000  0.37632000  0.68434000  1.0
  C  C177  1  0.23878000  0.62354000  0.81568000  1.0
  C  C178  1  0.13769000  0.62367000  0.31566000  1.0
  C  C179  1  0.76121000  0.37647000  0.18432000  1.0
  C  C180  1  0.90813000  0.32031000  0.73035000  1.0
  C  C181  1  0.22840000  0.67956000  0.76964000  1.0
  C  C182  1  0.09189000  0.67968000  0.26965000  1.0
  C  C183  1  0.77160000  0.32044000  0.23036000  1.0
  C  C184  1  0.95003000  0.31917000  0.77866000  1.0
  C  C185  1  0.26907000  0.68072000  0.72130000  1.0
  C  C186  1  0.04997000  0.68083000  0.22134000  1.0
  C  C187  1  0.73093000  0.31928000  0.27870000  1.0
  C  C188  1  0.94638000  0.37431000  0.78283000  1.0
  C  C189  1  0.32060000  0.62560000  0.71714000  1.0
  C  C190  1  0.05363000  0.62568000  0.21717000  1.0
  C  C191  1  0.67940000  0.37440000  0.28287000  1.0
  C  C192  1  0.89968000  0.43036000  0.73776000  1.0
  C  C193  1  0.33008000  0.56954000  0.76223000  1.0
  C  C194  1  0.10032000  0.56964000  0.26224000  1.0
  C  C195  1  0.66992000  0.43046000  0.23778000  1.0
  C  C196  1  0.85898000  0.43136000  0.68938000  1.0
  C  C197  1  0.29051000  0.56851000  0.81064000  1.0
  C  C198  1  0.14102000  0.56864000  0.31062000  1.0
  C  C199  1  0.70949000  0.43149000  0.18936000  1.0
  C  C200  1  0.99185000  0.37395000  0.83418000  1.0
  C  C201  1  0.36573000  0.62598000  0.66578000  1.0
  C  C202  1  0.00815000  0.62604000  0.16582000  1.0
  C  C203  1  0.63428000  0.37401000  0.33422000  1.0
  C  C204  1  0.37741000  0.39079000  0.39680000  1.0
  C  C205  1  0.76804000  0.60930000  0.10319000  1.0
  C  C206  1  0.62260000  0.60920000  0.60321000  1.0
  C  C207  1  0.23196000  0.39070000  0.89681000  1.0
  C  C208  1  0.30275000  0.35582000  0.40856000  1.0
  C  C209  1  0.65843000  0.64434000  0.09144000  1.0
  C  C210  1  0.69726000  0.64417000  0.59144000  1.0
  C  C211  1  0.34157000  0.35566000  0.90856000  1.0
  C  C212  1  0.31195000  0.30541000  0.45915000  1.0
  C  C213  1  0.61725000  0.69486000  0.04091000  1.0
  C  C214  1  0.68805000  0.69459000  0.54086000  1.0
  C  C215  1  0.38275000  0.30514000  0.95909000  1.0
  C  C216  1  0.23697000  0.27624000  0.47006000  1.0
  C  C217  1  0.51311000  0.72406000  0.03001000  1.0
  C  C218  1  0.76303000  0.72376000  0.52995000  1.0
  C  C219  1  0.48688000  0.27595000  0.96998000  1.0
  C  C220  1  0.15177000  0.29615000  0.43078000  1.0
  C  C221  1  0.44775000  0.70406000  0.06922000  1.0
  C  C222  1  0.84823000  0.70385000  0.56922000  1.0
  C  C223  1  0.55224000  0.29595000  0.93078000  1.0
  C  C224  1  0.14509000  0.34570000  0.37952000  1.0
  C  C225  1  0.49058000  0.65444000  0.12045000  1.0
  C  C226  1  0.85492000  0.65430000  0.62049000  1.0
  C  C227  1  0.50941000  0.34557000  0.87955000  1.0
  C  C228  1  0.21915000  0.37542000  0.36870000  1.0
  C  C229  1  0.59437000  0.62470000  0.13128000  1.0
  C  C230  1  0.78086000  0.62458000  0.63131000  1.0
  C  C231  1  0.40563000  0.37530000  0.86872000  1.0
  C  C232  1  0.07007000  0.26699000  0.44357000  1.0
  C  C233  1  0.33687000  0.73312000  0.05641000  1.0
  C  C234  1  0.92994000  0.73301000  0.55643000  1.0
  C  C235  1  0.66313000  0.26688000  0.94358000  1.0
  C  C236  1  0.09117000  0.20423000  0.47915000  1.0
  C  C237  1  0.29507000  0.79589000  0.02086000  1.0
  C  C238  1  0.90884000  0.79577000  0.52085000  1.0
  C  C239  1  0.70492000  0.20412000  0.97913000  1.0
  C  C240  1  0.01374000  0.17726000  0.49254000  1.0
  C  C241  1  0.19065000  0.82276000  0.00752000  1.0
  C  C242  1  0.98627000  0.82274000  0.50747000  1.0
  C  C243  1  0.80935000  0.17724000  0.99247000  1.0
  C  C244  1  0.91267000  0.21257000  0.47084000  1.0
  C  C245  1  0.12503000  0.78734000  0.02919000  1.0
  C  C246  1  0.08733000  0.78743000  0.52916000  1.0
  C  C247  1  0.87497000  0.21266000  0.97079000  1.0
  C  C248  1  0.89065000  0.27496000  0.43498000  1.0
  C  C249  1  0.16550000  0.72494000  0.06500000  1.0
  C  C250  1  0.10935000  0.72504000  0.56502000  1.0
  C  C251  1  0.83450000  0.27506000  0.93499000  1.0
  C  C252  1  0.96850000  0.30164000  0.42151000  1.0
  C  C253  1  0.27004000  0.69837000  0.07843000  1.0
  C  C254  1  0.03150000  0.69836000  0.57849000  1.0
  C  C255  1  0.72996000  0.30163000  0.92156000  1.0
  C  C256  1  0.83045000  0.18364000  0.48657000  1.0
  C  C257  1  0.01390000  0.81621000  0.01347000  1.0
  C  C258  1  0.16955000  0.81636000  0.51343000  1.0
  C  C259  1  0.98611000  0.18379000  0.98652000  1.0
  C  C260  1  0.54048000  0.19241000  0.42246000  1.0
  C  C261  1  0.73278000  0.80750000  0.07749000  1.0
  C  C262  1  0.45953000  0.80758000  0.57754000  1.0
  C  C263  1  0.26722000  0.19251000  0.92251000  1.0
  C  C264  1  0.48492000  0.19321000  0.37349000  1.0
  C  C265  1  0.67791000  0.80669000  0.12641000  1.0
  C  C266  1  0.51507000  0.80679000  0.62651000  1.0
  C  C267  1  0.32208000  0.19332000  0.87358000  1.0
  C  C268  1  0.50477000  0.14002000  0.36324000  1.0
  C  C269  1  0.64435000  0.85991000  0.13658000  1.0
  C  C270  1  0.49524000  0.85997000  0.63676000  1.0
  C  C271  1  0.35564000  0.14010000  0.86342000  1.0
  C  C272  1  0.45745000  0.14191000  0.31599000  1.0
  C  C273  1  0.59888000  0.85803000  0.18382000  1.0
  C  C274  1  0.54255000  0.85809000  0.68401000  1.0
  C  C275  1  0.40112000  0.14198000  0.81618000  1.0
  C  C276  1  0.38914000  0.19711000  0.27754000  1.0
  C  C277  1  0.58593000  0.80280000  0.22234000  1.0
  C  C278  1  0.61086000  0.80289000  0.72245000  1.0
  C  C279  1  0.41407000  0.19720000  0.77766000  1.0
  C  C280  1  0.36773000  0.24989000  0.28887000  1.0
  C  C281  1  0.61745000  0.74998000  0.21107000  1.0
  C  C282  1  0.63228000  0.75010000  0.71113000  1.0
  C  C283  1  0.38255000  0.25002000  0.78892000  1.0
  C  C284  1  0.41508000  0.24803000  0.33616000  1.0
  C  C285  1  0.66300000  0.75185000  0.16379000  1.0
  C  C286  1  0.58492000  0.75197000  0.66384000  1.0
  C  C287  1  0.33699000  0.24816000  0.83620000  1.0
  C  C288  1  0.34332000  0.19945000  0.22612000  1.0
  C  C289  1  0.54250000  0.80053000  0.27377000  1.0
  C  C290  1  0.65668000  0.80056000  0.77388000  1.0
  C  C291  1  0.45751000  0.19947000  0.72623000  1.0
  C  C292  1  0.31695000  0.14868000  0.22570000  1.0
  C  C293  1  0.46537000  0.85132000  0.27412000  1.0
  C  C294  1  0.68305000  0.85132000  0.77429000  1.0
  C  C295  1  0.53463000  0.14868000  0.72588000  1.0
  C  C296  1  0.27517000  0.15045000  0.17711000  1.0
  C  C297  1  0.42539000  0.84966000  0.32271000  1.0
  C  C298  1  0.72482000  0.84956000  0.82289000  1.0
  C  C299  1  0.57460000  0.15034000  0.67729000  1.0
  C  C300  1  0.25751000  0.20323000  0.12741000  1.0
  C  C301  1  0.46051000  0.79695000  0.37245000  1.0
  C  C302  1  0.74249000  0.79678000  0.87259000  1.0
  C  C303  1  0.53948000  0.20305000  0.62754000  1.0
  C  C304  1  0.28339000  0.25404000  0.12741000  1.0
  C  C305  1  0.53720000  0.74611000  0.37250000  1.0
  C  C306  1  0.71662000  0.74596000  0.87259000  1.0
  C  C307  1  0.46279000  0.25389000  0.62749000  1.0
  C  C308  1  0.32591000  0.25212000  0.17601000  1.0
  C  C309  1  0.57778000  0.74794000  0.32391000  1.0
  C  C310  1  0.67410000  0.74788000  0.82399000  1.0
  C  C311  1  0.42222000  0.25206000  0.67608000  1.0
  C  C312  1  0.21289000  0.20497000  0.07487000  1.0
  C  C313  1  0.41762000  0.79523000  0.42501000  1.0
  C  C314  1  0.78711000  0.79503000  0.92512000  1.0
  C  C315  1  0.58236000  0.20478000  0.57498000  1.0
  C  C316  1  0.41362000  0.56161000  0.30339000  1.0
  C  C317  1  0.97523000  0.43843000  0.19672000  1.0
  C  C318  1  0.58638000  0.43839000  0.69662000  1.0
  C  C319  1  0.02475000  0.56157000  0.80328000  1.0
  C  C320  1  0.37858000  0.62490000  0.27415000  1.0
  C  C321  1  0.00332000  0.37515000  0.22597000  1.0
  C  C322  1  0.62142000  0.37511000  0.72585000  1.0
  C  C323  1  0.99667000  0.62485000  0.77403000  1.0
  C  C324  1  0.39129000  0.66276000  0.30000000  1.0
  C  C325  1  0.05385000  0.33723000  0.20016000  1.0
  C  C326  1  0.60871000  0.33724000  0.70000000  1.0
  C  C327  1  0.94614000  0.66277000  0.79984000  1.0
  C  C328  1  0.43901000  0.63459000  0.35469000  1.0
  C  C329  1  0.07343000  0.36537000  0.14547000  1.0
  C  C330  1  0.56100000  0.36541000  0.64531000  1.0
  C  C331  1  0.92656000  0.63463000  0.85453000  1.0
  C  C332  1  0.47359000  0.57072000  0.38089000  1.0
  C  C333  1  0.04433000  0.42925000  0.11925000  1.0
  C  C334  1  0.52640000  0.42929000  0.61911000  1.0
  C  C335  1  0.95566000  0.57075000  0.88075000  1.0
  C  C336  1  0.35757000  0.72970000  0.27122000  1.0
  C  C337  1  0.08709000  0.27028000  0.22900000  1.0
  C  C338  1  0.64243000  0.27030000  0.72878000  1.0
  C  C339  1  0.91291000  0.72972000  0.77100000  1.0
  C  C340  1  0.31352000  0.84209000  0.14578000  1.0
  C  C341  1  0.15604000  0.15799000  0.35452000  1.0
  C  C342  1  0.68648000  0.15791000  0.85422000  1.0
  C  C343  1  0.84395000  0.84201000  0.64548000  1.0
  C  C344  1  0.28613000  0.90891000  0.11646000  1.0
  C  C345  1  0.19553000  0.09116000  0.38383000  1.0
  C  C346  1  0.71386000  0.09110000  0.88353000  1.0
  C  C347  1  0.80446000  0.90884000  0.61618000  1.0
  C  C348  1  0.26414000  0.00007000  0.03231000  1.0
  C  C349  1  0.26457000  0.99990000  0.46793000  1.0
  C  C350  1  0.73587000  0.99993000  0.96769000  1.0
  C  C351  1  0.73543000  0.00010000  0.53208000  1.0
  C  C352  1  0.29213000  0.93620000  0.05945000  1.0
  C  C353  1  0.22883000  0.06379000  0.44085000  1.0
  C  C354  1  0.70786000  0.06381000  0.94055000  1.0
  C  C355  1  0.77116000  0.93622000  0.55916000  1.0
  C  C356  1  0.22663000  0.01114000  0.11376000  1.0
  C  C357  1  0.23821000  0.98898000  0.38639000  1.0
  C  C358  1  0.77337000  0.98887000  0.88623000  1.0
  C  C359  1  0.76178000  0.01102000  0.61362000  1.0
  C  C360  1  0.25303000  0.94796000  0.14388000  1.0
  C  C361  1  0.20149000  0.05217000  0.35635000  1.0
  C  C362  1  0.74698000  0.05204000  0.85612000  1.0
  C  C363  1  0.79850000  0.94783000  0.64365000  1.0
  N  N364  1  0.46133000  0.53495000  0.35568000  1.0
  N  N365  1  0.99638000  0.46506000  0.14444000  1.0
  N  N366  1  0.53867000  0.46505000  0.64433000  1.0
  N  N367  1  0.00361000  0.53494000  0.85556000  1.0
  N  N368  1  0.32168000  0.75535000  0.21937000  1.0
  N  N369  1  0.07718000  0.24469000  0.28091000  1.0
  N  N370  1  0.67831000  0.24466000  0.78063000  1.0
  N  N371  1  0.92280000  0.75531000  0.71908000  1.0
  N  N372  1  0.29385000  0.81800000  0.19615000  1.0
  N  N373  1  0.11213000  0.18203000  0.30419000  1.0
  N  N374  1  0.70615000  0.18200000  0.80385000  1.0
  N  N375  1  0.88786000  0.81797000  0.69581000  1.0
  N  N376  1  0.23197000  0.03694000  0.05889000  1.0
  N  N377  1  0.26923000  0.96310000  0.44127000  1.0
  N  N378  1  0.76805000  0.96306000  0.94111000  1.0
  N  N379  1  0.73077000  0.03691000  0.55873000  1.0
  O  O380  1  0.68035000  0.33372000  0.48099000  1.0
  O  O381  1  0.01420000  0.66633000  0.01895000  1.0
  O  O382  1  0.31966000  0.66628000  0.51901000  1.0
  O  O383  1  0.98579000  0.33367000  0.98105000  1.0
  O  O384  1  0.59795000  0.43487000  0.45806000  1.0
  O  O385  1  0.03270000  0.56519000  0.04190000  1.0
  O  O386  1  0.40206000  0.56513000  0.54194000  1.0
  O  O387  1  0.96731000  0.43480000  0.95810000  1.0
  O  O388  1  0.04421000  0.32282000  0.87126000  1.0
  O  O389  1  0.36692000  0.67713000  0.62870000  1.0
  O  O390  1  0.95578000  0.67718000  0.12874000  1.0
  O  O391  1  0.63310000  0.32286000  0.37131000  1.0
  O  O392  1  0.97331000  0.42690000  0.83599000  1.0
  O  O393  1  0.40026000  0.57303000  0.66401000  1.0
  O  O394  1  0.02668000  0.57310000  0.16401000  1.0
  O  O395  1  0.59974000  0.42697000  0.33599000  1.0
  O  O396  1  0.45986000  0.36990000  0.43171000  1.0
  O  O397  1  0.82964000  0.63017000  0.06829000  1.0
  O  O398  1  0.54015000  0.63010000  0.56830000  1.0
  O  O399  1  0.17035000  0.36984000  0.93171000  1.0
  O  O400  1  0.35984000  0.44122000  0.35516000  1.0
  O  O401  1  0.80083000  0.55883000  0.14479000  1.0
  O  O402  1  0.64016000  0.55878000  0.64485000  1.0
  O  O403  1  0.19917000  0.44117000  0.85521000  1.0
  O  O404  1  0.85178000  0.12622000  0.51738000  1.0
  O  O405  1  0.97780000  0.87364000  0.98266000  1.0
  O  O406  1  0.14823000  0.87378000  0.48263000  1.0
  O  O407  1  0.02221000  0.12636000  0.01732000  1.0
  O  O408  1  0.73702000  0.21575000  0.46899000  1.0
  O  O409  1  0.95258000  0.78411000  0.03104000  1.0
  O  O410  1  0.26298000  0.78425000  0.53102000  1.0
  O  O411  1  0.04742000  0.21590000  0.96895000  1.0
  O  O412  1  0.60503000  0.14047000  0.45396000  1.0
  O  O413  1  0.74543000  0.85945000  0.04602000  1.0
  O  O414  1  0.39498000  0.85953000  0.54603000  1.0
  O  O415  1  0.25456000  0.14056000  0.95397000  1.0
  O  O416  1  0.52037000  0.24173000  0.42941000  1.0
  O  O417  1  0.76204000  0.75819000  0.07054000  1.0
  O  O418  1  0.47964000  0.75826000  0.57059000  1.0
  O  O419  1  0.23796000  0.24182000  0.92946000  1.0
  O  O420  1  0.20751000  0.15300000  0.07747000  1.0
  O  O421  1  0.36015000  0.84717000  0.42240000  1.0
  O  O422  1  0.79248000  0.84701000  0.92252000  1.0
  O  O423  1  0.63984000  0.15283000  0.57759000  1.0
  O  O424  1  0.18550000  0.25612000  0.03331000  1.0
  O  O425  1  0.44149000  0.74409000  0.46661000  1.0
  O  O426  1  0.81449000  0.74389000  0.96669000  1.0
  O  O427  1  0.55851000  0.25591000  0.53339000  1.0
