# generated using pymatgen
data_CdH9C13NO4
_symmetry_space_group_name_H-M   'P 1'
_cell_length_a   7.91645000
_cell_length_b   9.84183000
_cell_length_c   9.84186000
_cell_angle_alpha   60.26020000
_cell_angle_beta   75.48060000
_cell_angle_gamma   75.48060000
_symmetry_Int_Tables_number   1
_chemical_formula_structural   CdH9C13NO4
_chemical_formula_sum   'Cd2 H18 C26 N2 O8'
_cell_volume   637.21845561
_cell_formula_units_Z   2
loop_
 _symmetry_equiv_pos_site_id
 _symmetry_equiv_pos_as_xyz
  1  'x, y, z'
loop_
 _atom_site_type_symbol
 _atom_site_label
 _atom_site_symmetry_multiplicity
 _atom_site_fract_x
 _atom_site_fract_y
 _atom_site_fract_z
 _atom_site_occupancy
  Cd  Cd0  1  0.75000000  0.47910000  0.52090000  1.0
  Cd  Cd1  1  0.25000000  0.52090000  0.47910000  1.0
  H  H2  1  0.21392000  0.67708000  0.93839000  1.0
  H  H3  1  0.28609000  0.06161000  0.32292000  1.0
  H  H4  1  0.78608000  0.32292000  0.06161000  1.0
  H  H5  1  0.71392000  0.93838000  0.67709000  1.0
  H  H6  1  0.89924000  0.31880000  0.28099000  1.0
  H  H7  1  0.60076000  0.71901000  0.68120000  1.0
  H  H8  1  0.10076000  0.68120000  0.71901000  1.0
  H  H9  1  0.39924000  0.28099000  0.31880000  1.0
  H  H10  1  0.11909000  0.19109000  0.63044000  1.0
  H  H11  1  0.38091000  0.36956000  0.80891000  1.0
  H  H12  1  0.88091000  0.80891000  0.36956000  1.0
  H  H13  1  0.61909000  0.63044000  0.19109000  1.0
  H  H14  1  0.11737000  0.93276000  0.87842000  1.0
  H  H15  1  0.38263000  0.12158000  0.06724000  1.0
  H  H16  1  0.88263000  0.06724000  0.12158000  1.0
  H  H17  1  0.61737000  0.87842000  0.93276000  1.0
  H  H18  1  0.25000000  0.89632000  0.10368000  1.0
  H  H19  1  0.75000000  0.10368000  0.89632000  1.0
  C  C20  1  0.12045000  0.50293000  0.25261000  1.0
  C  C21  1  0.37955000  0.74739000  0.49707000  1.0
  C  C22  1  0.87954000  0.49707000  0.74739000  1.0
  C  C23  1  0.62045000  0.25261000  0.50293000  1.0
  C  C24  1  0.06102000  0.49928000  0.12205000  1.0
  C  C25  1  0.43898000  0.87795000  0.50072000  1.0
  C  C26  1  0.93897000  0.50072000  0.87795000  1.0
  C  C27  1  0.56102000  0.12205000  0.49928000  1.0
  C  C28  1  0.11938000  0.60092000  0.96373000  1.0
  C  C29  1  0.38062000  0.03627000  0.39908000  1.0
  C  C30  1  0.88062000  0.39908000  0.03627000  1.0
  C  C31  1  0.61938000  0.96373000  0.60092000  1.0
  C  C32  1  0.05783000  0.60234000  0.84249000  1.0
  C  C33  1  0.44217000  0.15751000  0.39766000  1.0
  C  C34  1  0.94217000  0.39766000  0.15751000  1.0
  C  C35  1  0.55783000  0.84249000  0.60234000  1.0
  C  C36  1  0.17746000  0.16916000  0.73008000  1.0
  C  C37  1  0.32254000  0.26992000  0.83084000  1.0
  C  C38  1  0.82254000  0.83084000  0.26992000  1.0
  C  C39  1  0.67746000  0.73008000  0.16916000  1.0
  C  C40  1  0.17709000  0.02617000  0.86847000  1.0
  C  C41  1  0.32291000  0.13153000  0.97383000  1.0
  C  C42  1  0.82291000  0.97384000  0.13153000  1.0
  C  C43  1  0.67709000  0.86847000  0.02617000  1.0
  C  C44  1  0.25000000  0.00667000  0.99333000  1.0
  C  C45  1  0.75000000  0.99333000  0.00667000  1.0
  N  N46  1  0.25000000  0.28855000  0.71145000  1.0
  N  N47  1  0.75000000  0.71145000  0.28855000  1.0
  O  O48  1  0.23380000  0.59134000  0.21826000  1.0
  O  O49  1  0.26621000  0.78174000  0.40866000  1.0
  O  O50  1  0.76620000  0.40866000  0.78174000  1.0
  O  O51  1  0.73379000  0.21826000  0.59134000  1.0
  O  O52  1  0.94426000  0.58321000  0.60353000  1.0
  O  O53  1  0.55574000  0.39647000  0.41679000  1.0
  O  O54  1  0.05574000  0.41679000  0.39647000  1.0
  O  O55  1  0.44426000  0.60353000  0.58321000  1.0
