# generated using pymatgen
data_AgH2C4(NO)5
_symmetry_space_group_name_H-M   'P 1'
_cell_length_a   5.33169000
_cell_length_b   10.20030000
_cell_length_c   14.54070000
_cell_angle_alpha   89.99980000
_cell_angle_beta   90.00020000
_cell_angle_gamma   89.99990000
_symmetry_Int_Tables_number   1
_chemical_formula_structural   AgH2C4(NO)5
_chemical_formula_sum   'Ag4 H8 C16 N20 O20'
_cell_volume   790.79360673
_cell_formula_units_Z   4
loop_
 _symmetry_equiv_pos_site_id
 _symmetry_equiv_pos_as_xyz
  1  'x, y, z'
loop_
 _atom_site_type_symbol
 _atom_site_label
 _atom_site_symmetry_multiplicity
 _atom_site_fract_x
 _atom_site_fract_y
 _atom_site_fract_z
 _atom_site_occupancy
  Ag  Ag0  1  0.02890000  0.49787000  0.75000000  1.0
  Ag  Ag1  1  0.52890000  0.00213000  0.25000000  1.0
  Ag  Ag2  1  0.97110000  0.50213000  0.25000000  1.0
  Ag  Ag3  1  0.47111000  0.99787000  0.75000000  1.0
  H  H4  1  0.48233000  0.31334000  0.64935000  1.0
  H  H5  1  0.98233000  0.18665000  0.35065000  1.0
  H  H6  1  0.51767000  0.68666000  0.14934000  1.0
  H  H7  1  0.01768000  0.81335000  0.85065000  1.0
  H  H8  1  0.51767000  0.68666000  0.35065000  1.0
  H  H9  1  0.01767000  0.81334000  0.64934000  1.0
  H  H10  1  0.48232000  0.31334000  0.85066000  1.0
  H  H11  1  0.98233000  0.18666000  0.14935000  1.0
  C  C12  1  0.10542000  0.45906000  0.51382000  1.0
  C  C13  1  0.60541000  0.04093000  0.48618000  1.0
  C  C14  1  0.89458000  0.54094000  0.01382000  1.0
  C  C15  1  0.39459000  0.95906000  0.98618000  1.0
  C  C16  1  0.89458000  0.54094000  0.48618000  1.0
  C  C17  1  0.39457000  0.95906000  0.51382000  1.0
  C  C18  1  0.10542000  0.45906000  0.98618000  1.0
  C  C19  1  0.60543000  0.04094000  0.01382000  1.0
  C  C20  1  0.36619000  0.35770000  0.59617000  1.0
  C  C21  1  0.86619000  0.14229000  0.40383000  1.0
  C  C22  1  0.63381000  0.64230000  0.09617000  1.0
  C  C23  1  0.13382000  0.85771000  0.90383000  1.0
  C  C24  1  0.63381000  0.64230000  0.40383000  1.0
  C  C25  1  0.13380000  0.85770000  0.59617000  1.0
  C  C26  1  0.36618000  0.35770000  0.90383000  1.0
  C  C27  1  0.86619000  0.14230000  0.09617000  1.0
  N  N28  1  0.25124000  0.40156000  0.45261000  1.0
  N  N29  1  0.75123000  0.09844000  0.54739000  1.0
  N  N30  1  0.74876000  0.59845000  0.95261000  1.0
  N  N31  1  0.24876000  0.90156000  0.04739000  1.0
  N  N32  1  0.74875000  0.59844000  0.54739000  1.0
  N  N33  1  0.24875000  0.90156000  0.45261000  1.0
  N  N34  1  0.25124000  0.40156000  0.04739000  1.0
  N  N35  1  0.75126000  0.09845000  0.95261000  1.0
  N  N36  1  0.17074000  0.43408000  0.60413000  1.0
  N  N37  1  0.67073000  0.06591000  0.39586000  1.0
  N  N38  1  0.82926000  0.56592000  0.10414000  1.0
  N  N39  1  0.32927000  0.93409000  0.89586000  1.0
  N  N40  1  0.82926000  0.56591000  0.39587000  1.0
  N  N41  1  0.32926000  0.93408000  0.60413000  1.0
  N  N42  1  0.17073000  0.43409000  0.89586000  1.0
  N  N43  1  0.67074000  0.06592000  0.10414000  1.0
  N  N44  1  0.54851000  0.66073000  0.75000000  1.0
  N  N45  1  0.04851000  0.83927000  0.25000000  1.0
  N  N46  1  0.45149000  0.33927000  0.25000000  1.0
  N  N47  1  0.95149000  0.16073000  0.75000000  1.0
  O  O48  1  0.42589000  0.33365000  0.50766000  1.0
  O  O49  1  0.92589000  0.16635000  0.49234000  1.0
  O  O50  1  0.57411000  0.66635000  0.00766000  1.0
  O  O51  1  0.07411000  0.83365000  0.99234000  1.0
  O  O52  1  0.57410000  0.66635000  0.49234000  1.0
  O  O53  1  0.07409000  0.83365000  0.50766000  1.0
  O  O54  1  0.42589000  0.33365000  0.99234000  1.0
  O  O55  1  0.92590000  0.16635000  0.00766000  1.0
  O  O56  1  0.59600000  0.53850000  0.75000000  1.0
  O  O57  1  0.09600000  0.96150000  0.25000000  1.0
  O  O58  1  0.40401000  0.46151000  0.25000000  1.0
  O  O59  1  0.90401000  0.03849000  0.75000000  1.0
  O  O60  1  0.72416000  0.74401000  0.75000000  1.0
  O  O61  1  0.22416000  0.75599000  0.25001000  1.0
  O  O62  1  0.27584000  0.25599000  0.25000000  1.0
  O  O63  1  0.77584000  0.24401000  0.75000000  1.0
  O  O64  1  0.32102000  0.69799000  0.75000000  1.0
  O  O65  1  0.82103000  0.80201000  0.25000000  1.0
  O  O66  1  0.67898000  0.30201000  0.25000000  1.0
  O  O67  1  0.17898000  0.19799000  0.75000000  1.0
