# generated using pymatgen
data_CuH6C4(NF2)2
_symmetry_space_group_name_H-M   'P 1'
_cell_length_a   6.70049000
_cell_length_b   7.01808969
_cell_length_c   8.02497000
_cell_angle_alpha   91.38405587
_cell_angle_beta   90.00650000
_cell_angle_gamma   118.50100819
_symmetry_Int_Tables_number   1
_chemical_formula_structural   CuH6C4(NF2)2
_chemical_formula_sum   'Cu2 H12 C8 N4 F8'
_cell_volume   331.51135753
_cell_formula_units_Z   2
loop_
 _symmetry_equiv_pos_site_id
 _symmetry_equiv_pos_as_xyz
  1  'x, y, z'
loop_
 _atom_site_type_symbol
 _atom_site_label
 _atom_site_symmetry_multiplicity
 _atom_site_fract_x
 _atom_site_fract_y
 _atom_site_fract_z
 _atom_site_occupancy
  Cu  Cu0  1  0.50000000  0.00000000  0.50000000  1.0
  Cu  Cu1  1  0.50001000  0.00000000  0.00000000  1.0
  H  H2  1  0.66196000  0.32352000  0.24715000  1.0
  H  H3  1  0.33802000  0.67646000  0.75285000  1.0
  H  H4  1  0.97861000  0.33131000  0.56022000  1.0
  H  H5  1  0.02541000  0.67377000  0.06092000  1.0
  H  H6  1  0.35127000  0.32666000  0.93905000  1.0
  H  H7  1  0.64759000  0.66832000  0.43995000  1.0
  H  H8  1  0.02140000  0.66870000  0.43979000  1.0
  H  H9  1  0.97461000  0.32622000  0.93908000  1.0
  H  H10  1  0.64875000  0.67334000  0.06093000  1.0
  H  H11  1  0.35245000  0.33172000  0.56007000  1.0
  H  H12  1  0.68383000  0.36988000  0.73702000  1.0
  H  H13  1  0.31611000  0.63008000  0.26298000  1.0
  C  C14  1  0.98765000  0.18314000  0.53418000  1.0
  C  C15  1  0.01356000  0.81931000  0.03477000  1.0
  C  C16  1  0.19411000  0.18093000  0.96524000  1.0
  C  C17  1  0.80460000  0.81658000  0.46604000  1.0
  C  C18  1  0.01238000  0.81691000  0.46583000  1.0
  C  C19  1  0.98647000  0.18071000  0.96522000  1.0
  C  C20  1  0.80589000  0.81905000  0.03476000  1.0
  C  C21  1  0.19536000  0.18336000  0.53397000  1.0
  N  N22  1  0.79431000  0.99980000  0.50017000  1.0
  N  N23  1  0.20549000  0.00016000  0.99996000  1.0
  N  N24  1  0.20569000  0.00022000  0.49984000  1.0
  N  N25  1  0.79451000  0.99984000  0.00003000  1.0
  F  F26  1  0.67340000  0.34588000  0.37655000  1.0
  F  F27  1  0.34867000  0.69783000  0.91312000  1.0
  F  F28  1  0.65132000  0.30216000  0.08688000  1.0
  F  F29  1  0.32658000  0.65412000  0.62345000  1.0
  F  F30  1  0.57110000  0.14235000  0.72471000  1.0
  F  F31  1  0.42890000  0.85765000  0.27529000  1.0
  F  F32  1  0.76378000  0.53164000  0.74618000  1.0
  F  F33  1  0.23619000  0.46836000  0.25381000  1.0
