# generated using pymatgen
data_Zn4H18C24N6O13
_symmetry_space_group_name_H-M   'P 1'
_cell_length_a   16.25703853
_cell_length_b   16.50770000
_cell_length_c   16.58500000
_cell_angle_alpha   62.33500000
_cell_angle_beta   60.95372284
_cell_angle_gamma   60.76685538
_symmetry_Int_Tables_number   1
_chemical_formula_structural   Zn4H18C24N6O13
_chemical_formula_sum   'Zn8 H36 C48 N12 O26'
_cell_volume   3241.42866755
_cell_formula_units_Z   2
loop_
 _symmetry_equiv_pos_site_id
 _symmetry_equiv_pos_as_xyz
  1  'x, y, z'
loop_
 _atom_site_type_symbol
 _atom_site_label
 _atom_site_symmetry_multiplicity
 _atom_site_fract_x
 _atom_site_fract_y
 _atom_site_fract_z
 _atom_site_occupancy
  Zn  Zn0  1  0.03221000  0.04422000  0.06484000  1.0
  Zn  Zn1  1  0.03102000  0.06947000  0.86555000  1.0
  Zn  Zn2  1  0.83371000  0.05798000  0.05178000  1.0
  Zn  Zn3  1  0.04232000  0.86774000  0.03488000  1.0
  Zn  Zn4  1  0.43028000  0.46340000  0.44364000  1.0
  Zn  Zn5  1  0.43936000  0.45301000  0.63741000  1.0
  Zn  Zn6  1  0.46370000  0.64446000  0.44323000  1.0
  Zn  Zn7  1  0.62839000  0.44883000  0.45435000  1.0
  H  H8  1  0.88164000  0.65857000  0.67626000  1.0
  H  H9  1  0.92664000  0.67692000  0.73474000  1.0
  H  H10  1  0.89299000  0.54693000  0.84403000  1.0
  H  H11  1  0.11783000  0.53520000  0.64906000  1.0
  H  H12  1  0.26216000  0.22706000  0.76414000  1.0
  H  H13  1  0.94525000  0.36146000  0.89338000  1.0
  H  H14  1  0.77539000  0.04147000  0.62595000  1.0
  H  H15  1  0.69939000  0.97745000  0.69404000  1.0
  H  H16  1  0.85392000  0.89910000  0.54978000  1.0
  H  H17  1  0.66412000  0.13946000  0.56105000  1.0
  H  H18  1  0.68790000  0.23673000  0.26309000  1.0
  H  H19  1  0.86856000  0.94678000  0.38427000  1.0
  H  H20  1  0.59139000  0.62772000  0.97348000  1.0
  H  H21  1  0.62810000  0.68755000  0.85833000  1.0
  H  H22  1  0.61945000  0.77273000  0.97002000  1.0
  H  H23  1  0.55235000  0.68837000  0.13501000  1.0
  H  H24  1  0.23687000  0.73720000  0.23905000  1.0
  H  H25  1  0.38966000  0.85214000  0.93528000  1.0
  H  H26  1  0.81326000  0.61312000  0.57675000  1.0
  H  H27  1  0.70747000  0.68423000  0.63469000  1.0
  H  H28  1  0.82682000  0.54079000  0.74801000  1.0
  H  H29  1  0.68087000  0.55134000  0.62491000  1.0
  H  H30  1  0.69232000  0.25451000  0.78717000  1.0
  H  H31  1  0.84268000  0.38192000  0.82605000  1.0
  H  H32  1  0.04260000  0.82888000  0.51574000  1.0
  H  H33  1  0.00444000  0.73279000  0.58172000  1.0
  H  H34  1  0.89874000  0.87791000  0.67025000  1.0
  H  H35  1  0.15427000  0.70650000  0.59710000  1.0
  H  H36  1  0.25581000  0.75546000  0.76193000  1.0
  H  H37  1  0.95159000  0.91093000  0.76194000  1.0
  H  H38  1  0.84158000  0.53036000  0.01580000  1.0
  H  H39  1  0.75680000  0.60875000  0.95785000  1.0
  H  H40  1  0.90323000  0.68103000  0.90551000  1.0
  H  H41  1  0.73157000  0.58516000  0.13872000  1.0
  H  H42  1  0.71252000  0.76926000  0.26889000  1.0
  H  H43  1  0.88829000  0.79181000  0.96774000  1.0
  C  C44  1  0.02148000  0.45886000  0.77133000  1.0
  C  C45  1  0.11385000  0.46523000  0.70179000  1.0
  C  C46  1  0.20021000  0.38283000  0.70278000  1.0
  C  C47  1  0.19526000  0.29163000  0.76649000  1.0
  C  C48  1  0.10198000  0.28477000  0.83329000  1.0
  C  C49  1  0.01672000  0.36802000  0.83897000  1.0
  C  C50  1  0.09001000  0.18775000  0.89391000  1.0
  C  C51  1  0.29838000  0.39673000  0.63589000  1.0
  C  C52  1  0.76268000  0.02973000  0.48609000  1.0
  C  C53  1  0.69587000  0.12258000  0.49354000  1.0
  C  C54  1  0.67050000  0.19643000  0.41353000  1.0
  C  C55  1  0.70854000  0.17948000  0.32505000  1.0
  C  C56  1  0.78203000  0.08908000  0.31550000  1.0
  C  C57  1  0.80947000  0.01538000  0.39425000  1.0
  C  C58  1  0.83904000  0.07506000  0.21732000  1.0
  C  C59  1  0.61378000  0.29680000  0.42327000  1.0
  C  C60  1  0.48167000  0.76562000  0.02607000  1.0
  C  C61  1  0.48243000  0.71816000  0.12102000  1.0
  C  C62  1  0.39478000  0.70737000  0.19729000  1.0
  C  C63  1  0.30512000  0.74662000  0.17977000  1.0
  C  C64  1  0.30258000  0.80202000  0.08608000  1.0
  C  C65  1  0.39072000  0.81017000  0.00872000  1.0
  C  C66  1  0.20171000  0.85720000  0.07367000  1.0
  C  C67  1  0.40034000  0.65316000  0.29703000  1.0
  C  C68  1  0.75527000  0.48002000  0.73147000  1.0
  C  C69  1  0.70422000  0.48494000  0.68036000  1.0
  C  C70  1  0.68188000  0.40395000  0.70124000  1.0
  C  C71  1  0.71099000  0.31661000  0.77115000  1.0
  C  C72  1  0.77175000  0.30908000  0.81371000  1.0
  C  C73  1  0.79321000  0.38957000  0.79438000  1.0
  C  C74  1  0.82644000  0.21335000  0.87148000  1.0
  C  C75  1  0.62938000  0.41278000  0.64295000  1.0
  C  C76  1  0.04188000  0.80730000  0.67956000  1.0
  C  C77  1  0.13856000  0.74356000  0.64548000  1.0
  C  C78  1  0.21474000  0.72609000  0.67447000  1.0
  C  C79  1  0.19686000  0.77036000  0.73800000  1.0
  C  C80  1  0.10172000  0.83778000  0.76790000  1.0
  C  C81  1  0.02477000  0.85704000  0.73908000  1.0
  C  C82  1  0.08457000  0.88944000  0.83169000  1.0
  C  C83  1  0.31665000  0.66025000  0.63142000  1.0
  C  C84  1  0.80863000  0.68991000  0.04070000  1.0
  C  C85  1  0.75058000  0.64398000  0.13043000  1.0
  C  C86  1  0.71720000  0.67278000  0.21167000  1.0
  C  C87  1  0.74042000  0.74706000  0.20528000  1.0
  C  C88  1  0.80396000  0.78777000  0.11713000  1.0
  C  C89  1  0.83787000  0.75998000  0.03584000  1.0
  C  C90  1  0.84381000  0.85763000  0.10824000  1.0
  C  C91  1  0.65960000  0.62032000  0.30746000  1.0
  N  N92  1  0.93814000  0.62932000  0.70382000  1.0
  N  N93  1  0.93155000  0.53873000  0.77528000  1.0
  N  N94  1  0.77013000  0.97460000  0.64665000  1.0
  N  N95  1  0.78631000  0.95383000  0.56504000  1.0
  N  N96  1  0.62901000  0.67552000  0.92424000  1.0
  N  N97  1  0.57425000  0.76752000  0.94745000  1.0
  N  N98  1  0.77776000  0.63808000  0.63579000  1.0
  N  N99  1  0.77122000  0.55980000  0.72253000  1.0
  N  N100  1  0.98434000  0.80590000  0.56964000  1.0
  N  N101  1  0.96385000  0.82044000  0.65641000  1.0
  N  N102  1  0.82802000  0.58897000  0.95741000  1.0
  N  N103  1  0.83857000  0.66952000  0.95585000  1.0
  O  O104  1  0.98066000  0.00860000  0.00481000  1.0
  O  O105  1  0.12458000  0.12527000  0.84994000  1.0
  O  O106  1  0.04367000  0.17418000  0.98477000  1.0
  O  O107  1  0.36261000  0.37118000  0.67434000  1.0
  O  O108  1  0.30929000  0.43553000  0.54613000  1.0
  O  O109  1  0.78971000  0.10375000  0.16252000  1.0
  O  O110  1  0.93427000  0.03673000  0.19609000  1.0
  O  O111  1  0.65190000  0.31993000  0.45785000  1.0
  O  O112  1  0.53647000  0.35003000  0.39761000  1.0
  O  O113  1  0.15792000  0.80863000  0.07711000  1.0
  O  O114  1  0.16767000  0.94767000  0.06401000  1.0
  O  O115  1  0.42065000  0.69370000  0.33096000  1.0
  O  O116  1  0.38633000  0.57177000  0.33688000  1.0
  O  O117  1  0.77731000  0.16454000  0.95006000  1.0
  O  O118  1  0.92140000  0.19025000  0.83458000  1.0
  O  O119  1  0.66821000  0.44457000  0.55131000  1.0
  O  O120  1  0.55047000  0.38944000  0.68789000  1.0
  O  O121  1  0.09580000  0.83574000  0.91325000  1.0
  O  O122  1  0.06186000  0.98196000  0.79818000  1.0
  O  O123  1  0.36661000  0.70170000  0.54704000  1.0
  O  O124  1  0.34233000  0.57127000  0.68019000  1.0
  O  O125  1  0.79061000  0.94733000  0.09135000  1.0
  O  O126  1  0.93002000  0.81896000  0.11691000  1.0
  O  O127  1  0.68091000  0.52980000  0.32267000  1.0
  O  O128  1  0.59399000  0.66747000  0.36841000  1.0
  O  O129  1  0.48157000  0.50632000  0.49658000  1.0
