# generated using pymatgen
data_ZnH14C16N2O5
_symmetry_space_group_name_H-M   'P 1'
_cell_length_a   6.92458000
_cell_length_b   13.24260000
_cell_length_c   17.55382324
_cell_angle_alpha   95.56291368
_cell_angle_beta   101.38584512
_cell_angle_gamma   89.99520000
_symmetry_Int_Tables_number   1
_chemical_formula_structural   ZnH14C16N2O5
_chemical_formula_sum   'Zn4 H56 C64 N8 O20'
_cell_volume   1570.26606266
_cell_formula_units_Z   4
loop_
 _symmetry_equiv_pos_site_id
 _symmetry_equiv_pos_as_xyz
  1  'x, y, z'
loop_
 _atom_site_type_symbol
 _atom_site_label
 _atom_site_symmetry_multiplicity
 _atom_site_fract_x
 _atom_site_fract_y
 _atom_site_fract_z
 _atom_site_occupancy
  Zn  Zn0  1  0.22546000  0.08461000  0.32569000  1.0
  Zn  Zn1  1  0.89898000  0.41558000  0.67429000  1.0
  Zn  Zn2  1  0.77455000  0.91538000  0.67431000  1.0
  Zn  Zn3  1  0.10102000  0.58442000  0.32571000  1.0
  H  H4  1  0.48566000  0.08751000  0.12406000  1.0
  H  H5  1  0.36125000  0.41296000  0.87592000  1.0
  H  H6  1  0.51435000  0.91249000  0.87594000  1.0
  H  H7  1  0.63874000  0.58704000  0.12408000  1.0
  H  H8  1  0.67773000  0.12066000  0.02231000  1.0
  H  H9  1  0.65512000  0.37967000  0.97764000  1.0
  H  H10  1  0.32227000  0.87934000  0.97769000  1.0
  H  H11  1  0.34487000  0.62033000  0.02236000  1.0
  H  H12  1  0.00210000  0.21390000  0.06276000  1.0
  H  H13  1  0.93864000  0.28605000  0.93719000  1.0
  H  H14  1  0.99790000  0.78610000  0.93724000  1.0
  H  H15  1  0.06135000  0.71394000  0.06281000  1.0
  H  H16  1  0.13300000  0.26678000  0.20155000  1.0
  H  H17  1  0.93049000  0.23309000  0.79841000  1.0
  H  H18  1  0.86700000  0.73322000  0.79845000  1.0
  H  H19  1  0.06950000  0.76691000  0.20159000  1.0
  H  H20  1  0.06106000  0.90860000  0.43229000  1.0
  H  H21  1  0.62805000  0.59160000  0.56787000  1.0
  H  H22  1  0.93895000  0.09140000  0.56771000  1.0
  H  H23  1  0.37195000  0.40840000  0.43213000  1.0
  H  H24  1  0.80138000  0.90762000  0.42627000  1.0
  H  H25  1  0.37436000  0.59259000  0.57380000  1.0
  H  H26  1  0.19863000  0.09238000  0.57373000  1.0
  H  H27  1  0.62564000  0.40741000  0.42620000  1.0
  H  H28  1  0.93249000  0.02554000  0.43301000  1.0
  H  H29  1  0.49874000  0.47466000  0.56702000  1.0
  H  H30  1  0.06752000  0.97446000  0.56699000  1.0
  H  H31  1  0.50126000  0.52534000  0.43298000  1.0
  H  H32  1  0.51345000  0.82484000  0.11850000  1.0
  H  H33  1  0.39399000  0.67477000  0.88166000  1.0
  H  H34  1  0.48655000  0.17516000  0.88149000  1.0
  H  H35  1  0.60600000  0.32524000  0.11834000  1.0
  H  H36  1  0.66090000  0.84448000  0.00160000  1.0
  H  H37  1  0.65881000  0.65544000  0.99850000  1.0
  H  H38  1  0.33910000  0.15552000  0.99840000  1.0
  H  H39  1  0.34118000  0.34455000  0.00150000  1.0
  H  H40  1  0.98524000  0.92776000  0.01487000  1.0
  H  H41  1  0.97016000  0.57253000  0.98519000  1.0
  H  H42  1  0.01475000  0.07225000  0.98512000  1.0
  H  H43  1  0.02984000  0.42746000  0.01482000  1.0
  H  H44  1  0.17472000  0.00008000  0.14560000  1.0
  H  H45  1  0.02885000  0.50030000  0.85442000  1.0
  H  H46  1  0.82529000  0.99992000  0.85440000  1.0
  H  H47  1  0.97114000  0.49969000  0.14559000  1.0
  H  H48  1  0.43971000  0.96183000  0.40347000  1.0
  H  H49  1  0.03552000  0.53819000  0.59646000  1.0
  H  H50  1  0.56029000  0.03817000  0.59653000  1.0
  H  H51  1  0.96449000  0.46181000  0.40354000  1.0
  H  H52  1  0.54129000  0.07124000  0.40135000  1.0
  H  H53  1  0.13917000  0.42875000  0.59862000  1.0
  H  H54  1  0.45870000  0.92876000  0.59865000  1.0
  H  H55  1  0.86082000  0.57125000  0.40138000  1.0
  H  H56  1  0.61892000  0.86569000  0.29271000  1.0
  H  H57  1  0.32515000  0.63412000  0.70738000  1.0
  H  H58  1  0.38108000  0.13431000  0.70729000  1.0
  H  H59  1  0.67485000  0.36589000  0.29262000  1.0
  C  C60  1  0.58147000  0.13494000  0.27872000  1.0
  C  C61  1  0.30211000  0.36540000  0.72127000  1.0
  C  C62  1  0.41853000  0.86506000  0.72128000  1.0
  C  C63  1  0.69789000  0.63459000  0.27873000  1.0
  C  C64  1  0.69808000  0.15985000  0.21921000  1.0
  C  C65  1  0.47828000  0.34047000  0.78077000  1.0
  C  C66  1  0.30192000  0.84015000  0.78079000  1.0
  C  C67  1  0.52172000  0.65953000  0.21923000  1.0
  C  C68  1  0.62700000  0.12787000  0.14006000  1.0
  C  C69  1  0.48651000  0.37251000  0.85992000  1.0
  C  C70  1  0.37300000  0.87213000  0.85994000  1.0
  C  C71  1  0.51349000  0.62749000  0.14009000  1.0
  C  C72  1  0.73435000  0.14666000  0.08351000  1.0
  C  C73  1  0.65039000  0.35362000  0.91646000  1.0
  C  C74  1  0.26565000  0.85334000  0.91649000  1.0
  C  C75  1  0.34960000  0.64638000  0.08354000  1.0
  C  C76  1  0.91591000  0.19772000  0.10591000  1.0
  C  C77  1  0.80937000  0.30238000  0.89405000  1.0
  C  C78  1  0.08409000  0.80227000  0.89409000  1.0
  C  C79  1  0.19062000  0.69761000  0.10595000  1.0
  C  C80  1  0.98988000  0.22850000  0.18444000  1.0
  C  C81  1  0.80466000  0.27157000  0.81551000  1.0
  C  C82  1  0.01011000  0.77151000  0.81555000  1.0
  C  C83  1  0.19532000  0.72843000  0.18448000  1.0
  C  C84  1  0.88208000  0.21093000  0.24171000  1.0
  C  C85  1  0.63959000  0.28925000  0.75826000  1.0
  C  C86  1  0.11792000  0.78907000  0.75829000  1.0
  C  C87  1  0.36040000  0.71076000  0.24174000  1.0
  C  C88  1  0.96788000  0.25590000  0.32402000  1.0
  C  C89  1  0.64302000  0.24430000  0.67596000  1.0
  C  C90  1  0.03212000  0.74410000  0.67598000  1.0
  C  C91  1  0.35698000  0.75570000  0.32404000  1.0
  C  C92  1  0.92336000  0.94582000  0.40859000  1.0
  C  C93  1  0.51400000  0.55435000  0.59150000  1.0
  C  C94  1  0.07665000  0.05418000  0.59141000  1.0
  C  C95  1  0.48601000  0.44565000  0.40851000  1.0
  C  C96  1  0.89635000  0.94010000  0.32258000  1.0
  C  C97  1  0.57299000  0.55997000  0.67751000  1.0
  C  C98  1  0.10365000  0.05990000  0.67742000  1.0
  C  C99  1  0.42700000  0.44004000  0.32249000  1.0
  C  C100  1  0.76738000  0.89839000  0.19705000  1.0
  C  C101  1  0.56956000  0.60150000  0.80304000  1.0
  C  C102  1  0.23263000  0.10161000  0.80295000  1.0
  C  C103  1  0.43044000  0.39851000  0.19696000  1.0
  C  C104  1  0.65641000  0.86199000  0.12431000  1.0
  C  C105  1  0.53130000  0.63781000  0.87578000  1.0
  C  C106  1  0.34359000  0.13801000  0.87568000  1.0
  C  C107  1  0.46870000  0.36219000  0.12422000  1.0
  C  C108  1  0.73989000  0.87384000  0.05951000  1.0
  C  C109  1  0.67979000  0.62614000  0.94058000  1.0
  C  C110  1  0.26012000  0.12616000  0.94049000  1.0
  C  C111  1  0.32020000  0.37386000  0.05942000  1.0
  C  C112  1  0.92521000  0.92150000  0.06704000  1.0
  C  C113  1  0.85779000  0.57868000  0.93303000  1.0
  C  C114  1  0.07479000  0.07850000  0.93296000  1.0
  C  C115  1  0.14220000  0.42131000  0.06697000  1.0
  C  C116  1  0.03261000  0.96150000  0.13924000  1.0
  C  C117  1  0.89297000  0.53871000  0.86084000  1.0
  C  C118  1  0.96740000  0.03850000  0.86076000  1.0
  C  C119  1  0.10702000  0.46129000  0.13916000  1.0
  C  C120  1  0.95101000  0.94946000  0.20449000  1.0
  C  C121  1  0.74597000  0.55062000  0.79560000  1.0
  C  C122  1  0.04899000  0.05053000  0.79551000  1.0
  C  C123  1  0.25403000  0.44938000  0.20440000  1.0
  N  N124  1  0.02549000  0.97609000  0.28351000  1.0
  N  N125  1  0.74134000  0.52405000  0.71656000  1.0
  N  N126  1  0.97451000  0.02390000  0.71648000  1.0
  N  N127  1  0.25865000  0.47595000  0.28344000  1.0
  N  N128  1  0.73960000  0.89420000  0.27279000  1.0
  N  N129  1  0.46587000  0.60567000  0.72731000  1.0
  N  N130  1  0.26041000  0.10580000  0.72721000  1.0
  N  N131  1  0.53413000  0.39433000  0.27269000  1.0
  O  O132  1  0.39755000  0.11160000  0.25175000  1.0
  O  O133  1  0.14515000  0.38877000  0.74822000  1.0
  O  O134  1  0.60246000  0.88840000  0.74825000  1.0
  O  O135  1  0.85484000  0.61123000  0.25178000  1.0
  O  O136  1  0.66761000  0.13628000  0.34917000  1.0
  O  O137  1  0.31763000  0.36388000  0.65079000  1.0
  O  O138  1  0.33240000  0.86372000  0.65083000  1.0
  O  O139  1  0.68237000  0.63612000  0.34921000  1.0
  O  O140  1  0.89567000  0.33803000  0.34759000  1.0
  O  O141  1  0.54723000  0.16218000  0.65239000  1.0
  O  O142  1  0.10433000  0.66197000  0.65241000  1.0
  O  O143  1  0.45278000  0.83782000  0.34761000  1.0
  O  O144  1  0.11993000  0.21523000  0.36258000  1.0
  O  O145  1  0.75638000  0.28497000  0.63737000  1.0
  O  O146  1  0.88008000  0.78476000  0.63742000  1.0
  O  O147  1  0.24362000  0.71503000  0.36263000  1.0
  O  O148  1  0.42471000  0.03603000  0.41492000  1.0
  O  O149  1  0.00901000  0.46399000  0.58500000  1.0
  O  O150  1  0.57529000  0.96397000  0.58508000  1.0
  O  O151  1  0.99099000  0.53601000  0.41500000  1.0
