# generated using pymatgen
data_Al3H17C36(O7F)2
_symmetry_space_group_name_H-M   'P 1'
_cell_length_a   12.17580000
_cell_length_b   12.20450000
_cell_length_c   27.03300000
_cell_angle_alpha   97.57310000
_cell_angle_beta   90.89090000
_cell_angle_gamma   118.28750000
_symmetry_Int_Tables_number   1
_chemical_formula_structural   Al3H17C36(O7F)2
_chemical_formula_sum   'Al6 H34 C72 O28 F4'
_cell_volume   3492.49026974
_cell_formula_units_Z   2
loop_
 _symmetry_equiv_pos_site_id
 _symmetry_equiv_pos_as_xyz
  1  'x, y, z'
loop_
 _atom_site_type_symbol
 _atom_site_label
 _atom_site_symmetry_multiplicity
 _atom_site_fract_x
 _atom_site_fract_y
 _atom_site_fract_z
 _atom_site_occupancy
  Al  Al0  1  0.58827000  0.18945000  0.51020000  1.0
  Al  Al1  1  0.59093000  0.92519000  0.50046000  1.0
  Al  Al2  1  0.34173000  0.91899000  0.49655000  1.0
  Al  Al3  1  0.08625000  0.16148000  0.98343000  1.0
  Al  Al4  1  0.34217000  0.42315000  0.99685000  1.0
  Al  Al5  1  0.10076000  0.43455000  0.99749000  1.0
  H  H6  1  0.52050000  0.68544000  0.79277000  1.0
  H  H7  1  0.21589000  0.39865000  0.38257000  1.0
  H  H8  1  0.04960000  0.17918000  0.35076000  1.0
  H  H9  1  0.15347000  0.24138000  0.30457000  1.0
  H  H10  1  0.98769000  0.60774000  0.73489000  1.0
  H  H11  1  0.96186000  0.45210000  0.71486000  1.0
  H  H12  1  0.89107000  0.48373000  0.76756000  1.0
  H  H13  1  0.07109000  0.46196000  0.79770000  1.0
  H  H14  1  0.09911000  0.61582000  0.81638000  1.0
  H  H15  1  0.59645000  0.25461000  0.34183000  1.0
  H  H16  1  0.66592000  0.34931000  0.29466000  1.0
  H  H17  1  0.14229000  0.59396000  0.68624000  1.0
  H  H18  1  0.69483000  0.41921000  0.35904000  1.0
  H  H19  1  0.53892000  0.46126000  0.31495000  1.0
  H  H20  1  0.47072000  0.36645000  0.36188000  1.0
  H  H21  1  0.96955000  0.00079000  0.19702000  1.0
  H  H22  1  0.04970000  0.09552000  0.15123000  1.0
  H  H23  1  0.95009000  0.93180000  0.13292000  1.0
  H  H24  1  0.17372000  0.98135000  0.13650000  1.0
  H  H25  1  0.09564000  0.88441000  0.18117000  1.0
  H  H26  1  0.18875000  0.81610000  0.24217000  1.0
  H  H27  1  0.25283000  0.88153000  0.30510000  1.0
  H  H28  1  0.58374000  0.90368000  0.68112000  1.0
  H  H29  1  0.09594000  0.75770000  0.29252000  1.0
  H  H30  1  0.10019000  0.96440000  0.31719000  1.0
  H  H31  1  0.03478000  0.90075000  0.25478000  1.0
  H  H32  1  0.65590000  0.91874000  0.74107000  1.0
  H  H33  1  0.73126000  0.90793000  0.68611000  1.0
  H  H34  1  0.63310000  0.70125000  0.71826000  1.0
  H  H35  1  0.56246000  0.68710000  0.65828000  1.0
  H  H36  1  0.17196000  0.45521000  0.33258000  1.0
  H  H37  1  0.06719000  0.39301000  0.37911000  1.0
  H  H38  1  0.70023000  0.39890000  0.55009000  1.0
  H  H39  1  0.95797000  0.95585000  0.94214000  1.0
  C  C40  1  0.72752000  0.11285000  0.58109000  1.0
  C  C41  1  0.33274000  0.19897000  0.81958000  1.0
  C  C42  1  0.33982000  0.18122000  0.77007000  1.0
  C  C43  1  0.39153000  0.76457000  0.55313000  1.0
  C  C44  1  0.34231000  0.16430000  0.72419000  1.0
  C  C45  1  0.34696000  0.14430000  0.67457000  1.0
  C  C46  1  0.35237000  0.12438000  0.62924000  1.0
  C  C47  1  0.89743000  0.23338000  0.86831000  1.0
  C  C48  1  0.87535000  0.21849000  0.82277000  1.0
  C  C49  1  0.85392000  0.20299000  0.77295000  1.0
  C  C50  1  0.83608000  0.18866000  0.72696000  1.0
  C  C51  1  0.21236000  0.59666000  0.76021000  1.0
  C  C52  1  0.81096000  0.16879000  0.67720000  1.0
  C  C53  1  0.78314000  0.14590000  0.63182000  1.0
  C  C54  1  0.32474000  0.63163000  0.12600000  1.0
  C  C55  1  0.37794000  0.09933000  0.57856000  1.0
  C  C56  1  0.33800000  0.65231000  0.17199000  1.0
  C  C57  1  0.35132000  0.67295000  0.22225000  1.0
  C  C58  1  0.36205000  0.69022000  0.26852000  1.0
  C  C59  1  0.37400000  0.71298000  0.31878000  1.0
  C  C60  1  0.38515000  0.73596000  0.36475000  1.0
  C  C61  1  0.32263000  0.11745000  0.39221000  1.0
  C  C62  1  0.22402000  0.61335000  0.71029000  1.0
  C  C63  1  0.40985000  0.26909000  0.28694000  1.0
  C  C64  1  0.40998000  0.28189000  0.23680000  1.0
  C  C65  1  0.22483000  0.07584000  0.21223000  1.0
  C  C66  1  0.21991000  0.05949000  0.26260000  1.0
  C  C67  1  0.73120000  0.10007000  0.44086000  1.0
  C  C68  1  0.31313000  0.15470000  0.29900000  1.0
  C  C69  1  0.32178000  0.18917000  0.19920000  1.0
  C  C70  1  0.32937000  0.21043000  0.14915000  1.0
  C  C71  1  0.31418000  0.13433000  0.34915000  1.0
  C  C72  1  0.33136000  0.22623000  0.10552000  1.0
  C  C73  1  0.34013000  0.65603000  0.68930000  1.0
  C  C74  1  0.78938000  0.12006000  0.39457000  1.0
  C  C75  1  0.74756000  0.13477000  0.26825000  1.0
  C  C76  1  0.76829000  0.16160000  0.21992000  1.0
  C  C77  1  0.98866000  0.24679000  0.24074000  1.0
  C  C78  1  0.97207000  0.22018000  0.28935000  1.0
  C  C79  1  0.40532000  0.78408000  0.41745000  1.0
  C  C80  1  0.84768000  0.16397000  0.30342000  1.0
  C  C81  1  0.89026000  0.21824000  0.20458000  1.0
  C  C82  1  0.91175000  0.23890000  0.15472000  1.0
  C  C83  1  0.82023000  0.13888000  0.35257000  1.0
  C  C84  1  0.32288000  0.62583000  0.79021000  1.0
  C  C85  1  0.93119000  0.25139000  0.11127000  1.0
  C  C86  1  0.29289000  0.23764000  0.91487000  1.0
  C  C87  1  0.29340000  0.56479000  0.93416000  1.0
  C  C88  1  0.94840000  0.25597000  0.91923000  1.0
  C  C89  1  0.30967000  0.24878000  0.05675000  1.0
  C  C90  1  0.29672000  0.58097000  0.07353000  1.0
  C  C91  1  0.36118000  0.09514000  0.43834000  1.0
  C  C92  1  0.97220000  0.26310000  0.06158000  1.0
  C  C93  1  0.36218000  0.70530000  0.59680000  1.0
  C  C94  1  0.44928000  0.68076000  0.71882000  1.0
  C  C95  1  0.31763000  0.61438000  0.84164000  1.0
  C  C96  1  0.43799000  0.66543000  0.76893000  1.0
  C  C97  1  0.57443000  0.72959000  0.69779000  1.0
  C  C98  1  0.64034000  0.87350000  0.70182000  1.0
  C  C99  1  0.08108000  0.25027000  0.32561000  1.0
  C  C100  1  0.13708000  0.38228000  0.35679000  1.0
  C  C101  1  0.08872000  0.54830000  0.78289000  1.0
  C  C102  1  0.97657000  0.52182000  0.74798000  1.0
  C  C103  1  0.50975000  0.36803000  0.32545000  1.0
  C  C104  1  0.62376000  0.34653000  0.33044000  1.0
  C  C105  1  0.12908000  0.97914000  0.17163000  1.0
  C  C106  1  0.34912000  0.67902000  0.63917000  1.0
  C  C107  1  0.01784000  0.00306000  0.16282000  1.0
  C  C108  1  0.12201000  0.94084000  0.27924000  1.0
  C  C109  1  0.16728000  0.84302000  0.27970000  1.0
  C  C110  1  0.31185000  0.60361000  0.88594000  1.0
  C  C111  1  0.32310000  0.21505000  0.86472000  1.0
  O  O112  1  0.47695000  0.18273000  0.56422000  1.0
  O  O113  1  0.19375000  0.55070000  0.95413000  1.0
  O  O114  1  0.97629000  0.36425000  0.94473000  1.0
  O  O115  1  0.70332000  0.19169000  0.56448000  1.0
  O  O116  1  0.99769000  0.17963000  0.04143000  1.0
  O  O117  1  0.21052000  0.16670000  0.03057000  1.0
  O  O118  1  0.39052000  0.35442000  0.04398000  1.0
  O  O119  1  0.37546000  0.55445000  0.05202000  1.0
  O  O120  1  0.19125000  0.55992000  0.05338000  1.0
  O  O121  1  0.98386000  0.35960000  0.04295000  1.0
  O  O122  1  0.17671000  0.34185000  0.99244000  1.0
  O  O123  1  0.50865000  0.80748000  0.44027000  1.0
  O  O124  1  0.70282000  0.00324000  0.55814000  1.0
  O  O125  1  0.50066000  0.79645000  0.53806000  1.0
  O  O126  1  0.30994000  0.78780000  0.53321000  1.0
  O  O127  1  0.29973000  0.99166000  0.55319000  1.0
  O  O128  1  0.46994000  0.17445000  0.45788000  1.0
  O  O129  1  0.69192000  0.17551000  0.45715000  1.0
  O  O130  1  0.71961000  0.00468000  0.46058000  1.0
  O  O131  1  0.32041000  0.80497000  0.43654000  1.0
  O  O132  1  0.28472000  0.99393000  0.45534000  1.0
  O  O133  1  0.50657000  0.00944000  0.50304000  1.0
  O  O134  1  0.96705000  0.17159000  0.93364000  1.0
  O  O135  1  0.18296000  0.16485000  0.92456000  1.0
  O  O136  1  0.37850000  0.33261000  0.94459000  1.0
  O  O137  1  0.37547000  0.54049000  0.95299000  1.0
  O  O138  1  0.66473000  0.35386000  0.51675000  1.0
  O  O139  1  0.00171000  0.99712000  0.97486000  1.0
  F  F140  1  0.67009000  0.13150000  0.18711000  1.0
  F  F141  1  0.10688000  0.30232000  0.22621000  1.0
  F  F142  1  0.50033000  0.38924000  0.22271000  1.0
  F  F143  1  0.62865000  0.07854000  0.28123000  1.0
