# generated using pymatgen
data_Cd3H36C48(NO7)2
_symmetry_space_group_name_H-M   'P 1'
_cell_length_a   10.13600000
_cell_length_b   11.02045508
_cell_length_c   24.69470000
_cell_angle_alpha   97.07735937
_cell_angle_beta   90.00960000
_cell_angle_gamma   117.36647440
_symmetry_Int_Tables_number   1
_chemical_formula_structural   Cd3H36C48(NO7)2
_chemical_formula_sum   'Cd6 H72 C96 N4 O28'
_cell_volume   2426.04310886
_cell_formula_units_Z   2
loop_
 _symmetry_equiv_pos_site_id
 _symmetry_equiv_pos_as_xyz
  1  'x, y, z'
loop_
 _atom_site_type_symbol
 _atom_site_label
 _atom_site_symmetry_multiplicity
 _atom_site_fract_x
 _atom_site_fract_y
 _atom_site_fract_z
 _atom_site_occupancy
  Cd  Cd0  1  0.54160000  0.17560000  0.98207000  1.0
  Cd  Cd1  1  0.36610000  0.82438000  0.51789000  1.0
  Cd  Cd2  1  0.45840000  0.82441000  0.01793000  1.0
  Cd  Cd3  1  0.63390000  0.17562000  0.48211000  1.0
  Cd  Cd4  1  0.50000000  0.50000000  0.00000000  1.0
  Cd  Cd5  1  0.00000000  0.50000000  0.50000000  1.0
  H  H6  1  0.68917000  0.26605000  0.79602000  1.0
  H  H7  1  0.42380000  0.73368000  0.70398000  1.0
  H  H8  1  0.31084000  0.73395000  0.20398000  1.0
  H  H9  1  0.57620000  0.26632000  0.29602000  1.0
  H  H10  1  0.78881000  0.41884000  0.72415000  1.0
  H  H11  1  0.36997000  0.58098000  0.77593000  1.0
  H  H12  1  0.21119000  0.58116000  0.27585000  1.0
  H  H13  1  0.63004000  0.41902000  0.22407000  1.0
  H  H14  1  0.72839000  0.73567000  0.82543000  1.0
  H  H15  1  0.99219000  0.26485000  0.67468000  1.0
  H  H16  1  0.27161000  0.26433000  0.17457000  1.0
  H  H17  1  0.00780000  0.73515000  0.32533000  1.0
  H  H18  1  0.62987000  0.58276000  0.89590000  1.0
  H  H19  1  0.04702000  0.41778000  0.60421000  1.0
  H  H20  1  0.37014000  0.41725000  0.10411000  1.0
  H  H21  1  0.95298000  0.58223000  0.39579000  1.0
  H  H22  1  0.96963000  0.59633000  0.69517000  1.0
  H  H23  1  0.37282000  0.40360000  0.80494000  1.0
  H  H24  1  0.03037000  0.40367000  0.30483000  1.0
  H  H25  1  0.62718000  0.59640000  0.19506000  1.0
  H  H26  1  0.07105000  0.75220000  0.62656000  1.0
  H  H27  1  0.31838000  0.24751000  0.87346000  1.0
  H  H28  1  0.92894000  0.24780000  0.37344000  1.0
  H  H29  1  0.68162000  0.75249000  0.12655000  1.0
  H  H30  1  0.80553000  0.95191000  0.68012000  1.0
  H  H31  1  0.85327000  0.04795000  0.81980000  1.0
  H  H32  1  0.19447000  0.04809000  0.31988000  1.0
  H  H33  1  0.14674000  0.95206000  0.18020000  1.0
  H  H34  1  0.69725000  0.79095000  0.74686000  1.0
  H  H35  1  0.90592000  0.20913000  0.75316000  1.0
  H  H36  1  0.30275000  0.20905000  0.25314000  1.0
  H  H37  1  0.09407000  0.79087000  0.24684000  1.0
  H  H38  1  0.22670000  0.95454000  0.60984000  1.0
  H  H39  1  0.27194000  0.04534000  0.89010000  1.0
  H  H40  1  0.77328000  0.04545000  0.39016000  1.0
  H  H41  1  0.72807000  0.95467000  0.10990000  1.0
  H  H42  1  0.20712000  0.23884000  0.51012000  1.0
  H  H43  1  0.96866000  0.76151000  0.99006000  1.0
  H  H44  1  0.79288000  0.76116000  0.48988000  1.0
  H  H45  1  0.03134000  0.23849000  0.00994000  1.0
  H  H46  1  0.82726000  0.00202000  0.59664000  1.0
  H  H47  1  0.82488000  0.99755000  0.90329000  1.0
  H  H48  1  0.17273000  0.99797000  0.40336000  1.0
  H  H49  1  0.17512000  0.00245000  0.09671000  1.0
  H  H50  1  0.17282000  0.40760000  0.96553000  1.0
  H  H51  1  0.76552000  0.59259000  0.53459000  1.0
  H  H52  1  0.82717000  0.59240000  0.03447000  1.0
  H  H53  1  0.23449000  0.40741000  0.46541000  1.0
  H  H54  1  0.94821000  0.36572000  0.94592000  1.0
  H  H55  1  0.58256000  0.63416000  0.55398000  1.0
  H  H56  1  0.05178000  0.63428000  0.05408000  1.0
  H  H57  1  0.41744000  0.36584000  0.44602000  1.0
  H  H58  1  0.91491000  0.37154000  0.87556000  1.0
  H  H59  1  0.54328000  0.62842000  0.62431000  1.0
  H  H60  1  0.08509000  0.62847000  0.12444000  1.0
  H  H61  1  0.45673000  0.37158000  0.37568000  1.0
  H  H62  1  0.92878000  0.50782000  0.92637000  1.0
  H  H63  1  0.42106000  0.49206000  0.57349000  1.0
  H  H64  1  0.07122000  0.49219000  0.07363000  1.0
  H  H65  1  0.57894000  0.50794000  0.42650000  1.0
  H  H66  1  0.30270000  0.66555000  0.87385000  1.0
  H  H67  1  0.63680000  0.33410000  0.62609000  1.0
  H  H68  1  0.69730000  0.33445000  0.12615000  1.0
  H  H69  1  0.36320000  0.66590000  0.37390000  1.0
  H  H70  1  0.13310000  0.67864000  0.87877000  1.0
  H  H71  1  0.45426000  0.32138000  0.62113000  1.0
  H  H72  1  0.86691000  0.32137000  0.12123000  1.0
  H  H73  1  0.54574000  0.67862000  0.37887000  1.0
  H  H74  1  0.14335000  0.55391000  0.82821000  1.0
  H  H75  1  0.58924000  0.44584000  0.67174000  1.0
  H  H76  1  0.85666000  0.44610000  0.17179000  1.0
  H  H77  1  0.41076000  0.55416000  0.32825000  1.0
  C  C78  1  0.60749000  0.32529000  0.89486000  1.0
  C  C79  1  0.28267000  0.67477000  0.60516000  1.0
  C  C80  1  0.39251000  0.67471000  0.10514000  1.0
  C  C81  1  0.71733000  0.32524000  0.39484000  1.0
  C  C82  1  0.65453000  0.41461000  0.85079000  1.0
  C  C83  1  0.24030000  0.58553000  0.64926000  1.0
  C  C84  1  0.34547000  0.58539000  0.14921000  1.0
  C  C85  1  0.75970000  0.41448000  0.35074000  1.0
  C  C86  1  0.69860000  0.36948000  0.80175000  1.0
  C  C87  1  0.32952000  0.63044000  0.69828000  1.0
  C  C88  1  0.30140000  0.63052000  0.19825000  1.0
  C  C89  1  0.67048000  0.36956000  0.30172000  1.0
  C  C90  1  0.75451000  0.45570000  0.76184000  1.0
  C  C91  1  0.29880000  0.54426000  0.73824000  1.0
  C  C92  1  0.24549000  0.54430000  0.23816000  1.0
  C  C93  1  0.70120000  0.45574000  0.26176000  1.0
  C  C94  1  0.76577000  0.58921000  0.76908000  1.0
  C  C95  1  0.17629000  0.41094000  0.73101000  1.0
  C  C96  1  0.23423000  0.41079000  0.23092000  1.0
  C  C97  1  0.82372000  0.58907000  0.26899000  1.0
  C  C98  1  0.71792000  0.63196000  0.81791000  1.0
  C  C99  1  0.08569000  0.36840000  0.68218000  1.0
  C  C100  1  0.28208000  0.36804000  0.18209000  1.0
  C  C101  1  0.91430000  0.63160000  0.31782000  1.0
  C  C102  1  0.66393000  0.54657000  0.85819000  1.0
  C  C103  1  0.11737000  0.45381000  0.64189000  1.0
  C  C104  1  0.33607000  0.45343000  0.14181000  1.0
  C  C105  1  0.88263000  0.54619000  0.35811000  1.0
  C  C106  1  0.82648000  0.68212000  0.72721000  1.0
  C  C107  1  0.14394000  0.31795000  0.77286000  1.0
  C  C108  1  0.17352000  0.31788000  0.27278000  1.0
  C  C109  1  0.85606000  0.68205000  0.22714000  1.0
  C  C110  1  0.93199000  0.67348000  0.69213000  1.0
  C  C111  1  0.25805000  0.32645000  0.80795000  1.0
  C  C112  1  0.06800000  0.32651000  0.30787000  1.0
  C  C113  1  0.74195000  0.67355000  0.19205000  1.0
  C  C114  1  0.99157000  0.76347000  0.65369000  1.0
  C  C115  1  0.22766000  0.23637000  0.84633000  1.0
  C  C116  1  0.00843000  0.23653000  0.34631000  1.0
  C  C117  1  0.77235000  0.76364000  0.15367000  1.0
  C  C118  1  0.94954000  0.86688000  0.64866000  1.0
  C  C119  1  0.08226000  0.13296000  0.85135000  1.0
  C  C120  1  0.05044000  0.13311000  0.35134000  1.0
  C  C121  1  0.91775000  0.86705000  0.14865000  1.0
  C  C122  1  0.84149000  0.87350000  0.68290000  1.0
  C  C123  1  0.96761000  0.12645000  0.81710000  1.0
  C  C124  1  0.15851000  0.12650000  0.31710000  1.0
  C  C125  1  0.03240000  0.87356000  0.18290000  1.0
  C  C126  1  0.78135000  0.78318000  0.72120000  1.0
  C  C127  1  0.99777000  0.21688000  0.77884000  1.0
  C  C128  1  0.21865000  0.21682000  0.27880000  1.0
  C  C129  1  0.00223000  0.78312000  0.22117000  1.0
  C  C130  1  0.01881000  0.96704000  0.60970000  1.0
  C  C131  1  0.05150000  0.03275000  0.89028000  1.0
  C  C132  1  0.98119000  0.03296000  0.39030000  1.0
  C  C133  1  0.94850000  0.96725000  0.10972000  1.0
  C  C134  1  0.16360000  0.00143000  0.59371000  1.0
  C  C135  1  0.16201000  0.99845000  0.90627000  1.0
  C  C136  1  0.83639000  0.99856000  0.40629000  1.0
  C  C137  1  0.83799000  0.00155000  0.09373000  1.0
  C  C138  1  0.23038000  0.09733000  0.55731000  1.0
  C  C139  1  0.13312000  0.90274000  0.94273000  1.0
  C  C140  1  0.76962000  0.90267000  0.44269000  1.0
  C  C141  1  0.86688000  0.09726000  0.05726000  1.0
  C  C142  1  0.15491000  0.16388000  0.53810000  1.0
  C  C143  1  0.99122000  0.83629000  0.96202000  1.0
  C  C144  1  0.84510000  0.83612000  0.46190000  1.0
  C  C145  1  0.00877000  0.16370000  0.03798000  1.0
  C  C146  1  0.01078000  0.13018000  0.55294000  1.0
  C  C147  1  0.88065000  0.86978000  0.94713000  1.0
  C  C148  1  0.98921000  0.86981000  0.44706000  1.0
  C  C149  1  0.11935000  0.13022000  0.05287000  1.0
  C  C150  1  0.94245000  0.03068000  0.58778000  1.0
  C  C151  1  0.91155000  0.96909000  0.91221000  1.0
  C  C152  1  0.05756000  0.96933000  0.41222000  1.0
  C  C153  1  0.08844000  0.03090000  0.08779000  1.0
  C  C154  1  0.37851000  0.12549000  0.53647000  1.0
  C  C155  1  0.25315000  0.87467000  0.96358000  1.0
  C  C156  1  0.62148000  0.87450000  0.46354000  1.0
  C  C157  1  0.74685000  0.12534000  0.03642000  1.0
  C  C158  1  0.92927000  0.19783000  0.52938000  1.0
  C  C159  1  0.73157000  0.80216000  0.97071000  1.0
  C  C160  1  0.07074000  0.80218000  0.47063000  1.0
  C  C161  1  0.26844000  0.19784000  0.02928000  1.0
  C  C162  1  0.22592000  0.48584000  0.93804000  1.0
  C  C163  1  0.74029000  0.51423000  0.56204000  1.0
  C  C164  1  0.77407000  0.51415000  0.06196000  1.0
  C  C165  1  0.25972000  0.48577000  0.43796000  1.0
  C  C166  1  0.97200000  0.43396000  0.91454000  1.0
  C  C167  1  0.53808000  0.56595000  0.58537000  1.0
  C  C168  1  0.02800000  0.56604000  0.08546000  1.0
  C  C169  1  0.46192000  0.43405000  0.41463000  1.0
  C  C170  1  0.18108000  0.60756000  0.87006000  1.0
  C  C171  1  0.57333000  0.39226000  0.62989000  1.0
  C  C172  1  0.81893000  0.39245000  0.12994000  1.0
  C  C173  1  0.42668000  0.60774000  0.37011000  1.0
  N  N174  1  0.13127000  0.50834000  0.90871000  1.0
  N  N175  1  0.62300000  0.49161000  0.59129000  1.0
  N  N176  1  0.86872000  0.49166000  0.09129000  1.0
  N  N177  1  0.37700000  0.50839000  0.40871000  1.0
  O  O178  1  0.59334000  0.37725000  0.94329000  1.0
  O  O179  1  0.21616000  0.62298000  0.55678000  1.0
  O  O180  1  0.40666000  0.62275000  0.05671000  1.0
  O  O181  1  0.78384000  0.37703000  0.44323000  1.0
  O  O182  1  0.58757000  0.20246000  0.88608000  1.0
  O  O183  1  0.38593000  0.79741000  0.61388000  1.0
  O  O184  1  0.41243000  0.79754000  0.11392000  1.0
  O  O185  1  0.61407000  0.20259000  0.38613000  1.0
  O  O186  1  0.44316000  0.05580000  0.54941000  1.0
  O  O187  1  0.38738000  0.94424000  0.95057000  1.0
  O  O188  1  0.55683000  0.94419000  0.45059000  1.0
  O  O189  1  0.61261000  0.05576000  0.04943000  1.0
  O  O190  1  0.43831000  0.21924000  0.50568000  1.0
  O  O191  1  0.21929000  0.78107000  0.99445000  1.0
  O  O192  1  0.56169000  0.78075000  0.49432000  1.0
  O  O193  1  0.78071000  0.21893000  0.00555000  1.0
  O  O194  1  0.79109000  0.14938000  0.53702000  1.0
  O  O195  1  0.64177000  0.85057000  0.96304000  1.0
  O  O196  1  0.20892000  0.85063000  0.46297000  1.0
  O  O197  1  0.35824000  0.14943000  0.03696000  1.0
  O  O198  1  0.00484000  0.29798000  0.50312000  1.0
  O  O199  1  0.70708000  0.70206000  0.99700000  1.0
  O  O200  1  0.99517000  0.70203000  0.49689000  1.0
  O  O201  1  0.29292000  0.29793000  0.00300000  1.0
  O  O202  1  0.36561000  0.54650000  0.93566000  1.0
  O  O203  1  0.81933000  0.45358000  0.56443000  1.0
  O  O204  1  0.63439000  0.45350000  0.06434000  1.0
  O  O205  1  0.18067000  0.54641000  0.43556000  1.0
