# generated using pymatgen
data_FeNiH12(C7N4)2
_symmetry_space_group_name_H-M   'P 1'
_cell_length_a   6.85710000
_cell_length_b   7.01849000
_cell_length_c   8.37046184
_cell_angle_alpha   96.15973159
_cell_angle_beta   114.18244922
_cell_angle_gamma   89.99970000
_symmetry_Int_Tables_number   1
_chemical_formula_structural   FeNiH12(C7N4)2
_chemical_formula_sum   'Fe1 Ni1 H12 C14 N8'
_cell_volume   364.93900892
_cell_formula_units_Z   1
loop_
 _symmetry_equiv_pos_site_id
 _symmetry_equiv_pos_as_xyz
  1  'x, y, z'
loop_
 _atom_site_type_symbol
 _atom_site_label
 _atom_site_symmetry_multiplicity
 _atom_site_fract_x
 _atom_site_fract_y
 _atom_site_fract_z
 _atom_site_occupancy
  Fe  Fe0  1  0.00000000  0.50000000  1.00000000  1.0
  Ni  Ni1  1  0.50001000  0.99999000  1.00000000  1.0
  H  H2  1  0.85331000  0.94144000  0.46805000  1.0
  H  H3  1  0.38144000  0.05696000  0.52669000  1.0
  H  H4  1  0.14670000  0.05857000  0.53196000  1.0
  H  H5  1  0.61854000  0.94304000  0.47330000  1.0
  H  H6  1  0.88354000  0.79868000  0.76720000  1.0
  H  H7  1  0.11647000  0.20132000  0.23280000  1.0
  H  H8  1  0.61682000  0.51966000  0.23429000  1.0
  H  H9  1  0.38318000  0.48035000  0.76572000  1.0
  H  H10  1  0.67928000  0.20496000  0.35885000  1.0
  H  H11  1  0.32071000  0.79504000  0.64115000  1.0
  H  H12  1  0.84564000  0.20570000  0.69147000  1.0
  H  H13  1  0.15436000  0.79430000  0.30853000  1.0
  C  C14  1  0.30670000  0.18633000  0.98807000  1.0
  C  C15  1  0.31807000  0.81422000  0.01197000  1.0
  C  C16  1  0.69330000  0.81367000  0.01192000  1.0
  C  C17  1  0.68194000  0.18579000  0.98803000  1.0
  C  C18  1  0.83653000  0.66940000  0.67323000  1.0
  C  C19  1  0.16347000  0.33060000  0.32677000  1.0
  C  C20  1  0.74586000  0.68161000  0.49221000  1.0
  C  C21  1  0.25414000  0.31839000  0.50779000  1.0
  C  C22  1  0.68791000  0.51309000  0.37601000  1.0
  C  C23  1  0.31208000  0.48691000  0.62399000  1.0
  C  C24  1  0.72360000  0.33890000  0.44721000  1.0
  C  C25  1  0.27639000  0.66109000  0.55278000  1.0
  C  C26  1  0.81466000  0.33754000  0.62920000  1.0
  C  C27  1  0.18534000  0.66246000  0.37081000  1.0
  N  N28  1  0.18712000  0.30734000  0.98402000  1.0
  N  N29  1  0.20255000  0.69311000  0.01597000  1.0
  N  N30  1  0.81289000  0.69266000  0.01598000  1.0
  N  N31  1  0.79744000  0.30687000  0.98402000  1.0
  N  N32  1  0.87086000  0.50126000  0.74179000  1.0
  N  N33  1  0.12914000  0.49874000  0.25821000  1.0
  N  N34  1  0.71154000  0.86398000  0.42503000  1.0
  N  N35  1  0.28846000  0.13602000  0.57497000  1.0
