# generated using pymatgen
data_Mg3H10(C5O6)2
_symmetry_space_group_name_H-M   'P 1'
_cell_length_a   9.92823000
_cell_length_b   11.21080000
_cell_length_c   14.88880000
_cell_angle_alpha   91.78150000
_cell_angle_beta   89.99960000
_cell_angle_gamma   90.00000000
_symmetry_Int_Tables_number   1
_chemical_formula_structural   Mg3H10(C5O6)2
_chemical_formula_sum   'Mg12 H40 C40 O48'
_cell_volume   1656.37308054
_cell_formula_units_Z   4
loop_
 _symmetry_equiv_pos_site_id
 _symmetry_equiv_pos_as_xyz
  1  'x, y, z'
loop_
 _atom_site_type_symbol
 _atom_site_label
 _atom_site_symmetry_multiplicity
 _atom_site_fract_x
 _atom_site_fract_y
 _atom_site_fract_z
 _atom_site_occupancy
  Mg  Mg0  1  0.91752000  0.74425000  0.86444000  1.0
  Mg  Mg1  1  0.41752000  0.75576000  0.63556000  1.0
  Mg  Mg2  1  0.08248000  0.25575000  0.13556000  1.0
  Mg  Mg3  1  0.58249000  0.24425000  0.36444000  1.0
  Mg  Mg4  1  0.00000000  0.99999000  0.00000000  1.0
  Mg  Mg5  1  0.49999000  0.50001000  0.49999000  1.0
  Mg  Mg6  1  0.10639000  0.76037000  0.69037000  1.0
  Mg  Mg7  1  0.60639000  0.73964000  0.80964000  1.0
  Mg  Mg8  1  0.89362000  0.23964000  0.30963000  1.0
  Mg  Mg9  1  0.39361000  0.26037000  0.19036000  1.0
  Mg  Mg10  1  0.00000000  0.50000000  0.00000000  1.0
  Mg  Mg11  1  0.50001000  0.00000000  0.50000000  1.0
  H  H12  1  0.01651000  0.03777000  0.72982000  1.0
  H  H13  1  0.51650000  0.46223000  0.77018000  1.0
  H  H14  1  0.98350000  0.96223000  0.27019000  1.0
  H  H15  1  0.48351000  0.53778000  0.22981000  1.0
  H  H16  1  0.60357000  0.95154000  0.95413000  1.0
  H  H17  1  0.10356000  0.54846000  0.54587000  1.0
  H  H18  1  0.39643000  0.04845000  0.04587000  1.0
  H  H19  1  0.89643000  0.45155000  0.45413000  1.0
  H  H20  1  0.74518000  0.61894000  0.63163000  1.0
  H  H21  1  0.24519000  0.88106000  0.86838000  1.0
  H  H22  1  0.25482000  0.38106000  0.36837000  1.0
  H  H23  1  0.75481000  0.11894000  0.13162000  1.0
  H  H24  1  0.69637000  0.50653000  0.00004000  1.0
  H  H25  1  0.19637000  0.99347000  0.49996000  1.0
  H  H26  1  0.30362000  0.49346000  0.99995000  1.0
  H  H27  1  0.80364000  0.00653000  0.50004000  1.0
  H  H28  1  0.19300000  0.50791000  0.76028000  1.0
  H  H29  1  0.69300000  0.99209000  0.73972000  1.0
  H  H30  1  0.80701000  0.49209000  0.23972000  1.0
  H  H31  1  0.30701000  0.00791000  0.26028000  1.0
  H  H32  1  0.17162000  0.81230000  0.06958000  1.0
  H  H33  1  0.67162000  0.68770000  0.43042000  1.0
  H  H34  1  0.82839000  0.18769000  0.93041000  1.0
  H  H35  1  0.32839000  0.31230000  0.56959000  1.0
  H  H36  1  0.06818000  0.28921000  0.49462000  1.0
  H  H37  1  0.56816000  0.21077000  0.00537000  1.0
  H  H38  1  0.93182000  0.71078000  0.50539000  1.0
  H  H39  1  0.43181000  0.78920000  0.99464000  1.0
  H  H40  1  0.05829000  0.30309000  0.71985000  1.0
  H  H41  1  0.55830000  0.19688000  0.78014000  1.0
  H  H42  1  0.94169000  0.69690000  0.28015000  1.0
  H  H43  1  0.44170000  0.80312000  0.21988000  1.0
  H  H44  1  0.22423000  0.19932000  0.87664000  1.0
  H  H45  1  0.72423000  0.30073000  0.62337000  1.0
  H  H46  1  0.77576000  0.80067000  0.12335000  1.0
  H  H47  1  0.27576000  0.69932000  0.37664000  1.0
  H  H48  1  0.31405000  0.11346000  0.66755000  1.0
  H  H49  1  0.81406000  0.38657000  0.83247000  1.0
  H  H50  1  0.68593000  0.88652000  0.33244000  1.0
  H  H51  1  0.18594000  0.61345000  0.16755000  1.0
  C  C52  1  0.00111000  0.98519000  0.79054000  1.0
  C  C53  1  0.50110000  0.51481000  0.70946000  1.0
  C  C54  1  0.99889000  0.01480000  0.20946000  1.0
  C  C55  1  0.49889000  0.48519000  0.29053000  1.0
  C  C56  1  0.71094000  0.92667000  0.94872000  1.0
  C  C57  1  0.21093000  0.57333000  0.55129000  1.0
  C  C58  1  0.28906000  0.07332000  0.05129000  1.0
  C  C59  1  0.78907000  0.42668000  0.44871000  1.0
  C  C60  1  0.82393000  0.66133000  0.67409000  1.0
  C  C61  1  0.32394000  0.83867000  0.82592000  1.0
  C  C62  1  0.17607000  0.33868000  0.32591000  1.0
  C  C63  1  0.67607000  0.16132000  0.17408000  1.0
  C  C64  1  0.71739000  0.57495000  0.95011000  1.0
  C  C65  1  0.21739000  0.92505000  0.54989000  1.0
  C  C66  1  0.28261000  0.42505000  0.04989000  1.0
  C  C67  1  0.78263000  0.07495000  0.45010000  1.0
  C  C68  1  0.12328000  0.54210000  0.81320000  1.0
  C  C69  1  0.62328000  0.95790000  0.68679000  1.0
  C  C70  1  0.87672000  0.45790000  0.18679000  1.0
  C  C71  1  0.37673000  0.04211000  0.31321000  1.0
  C  C72  1  0.10538000  0.75809000  0.02523000  1.0
  C  C73  1  0.60538000  0.74191000  0.47477000  1.0
  C  C74  1  0.89462000  0.24190000  0.97476000  1.0
  C  C75  1  0.39463000  0.25809000  0.52524000  1.0
  C  C76  1  0.06530000  0.29282000  0.56691000  1.0
  C  C77  1  0.56530000  0.20714000  0.93308000  1.0
  C  C78  1  0.93469000  0.70716000  0.43309000  1.0
  C  C79  1  0.43468000  0.79284000  0.06694000  1.0
  C  C80  1  0.06161000  0.29977000  0.64808000  1.0
  C  C81  1  0.56163000  0.20020000  0.85191000  1.0
  C  C82  1  0.93837000  0.70022000  0.35192000  1.0
  C  C83  1  0.43837000  0.79979000  0.14810000  1.0
  C  C84  1  0.25365000  0.17094000  0.81027000  1.0
  C  C85  1  0.75365000  0.32909000  0.68975000  1.0
  C  C86  1  0.74635000  0.82906000  0.18972000  1.0
  C  C87  1  0.24634000  0.67094000  0.31026000  1.0
  C  C88  1  0.28463000  0.13792000  0.73505000  1.0
  C  C89  1  0.78463000  0.36210000  0.76497000  1.0
  C  C90  1  0.71536000  0.86207000  0.26494000  1.0
  C  C91  1  0.21536000  0.63791000  0.23505000  1.0
  O  O92  1  0.99953000  0.87080000  0.77890000  1.0
  O  O93  1  0.49953000  0.62920000  0.72110000  1.0
  O  O94  1  0.00047000  0.12920000  0.22110000  1.0
  O  O95  1  0.50047000  0.37080000  0.27889000  1.0
  O  O96  1  0.74047000  0.84690000  0.88747000  1.0
  O  O97  1  0.24047000  0.65310000  0.61253000  1.0
  O  O98  1  0.25953000  0.15310000  0.11253000  1.0
  O  O99  1  0.75952000  0.34690000  0.38747000  1.0
  O  O100  1  0.79366000  0.68735000  0.75610000  1.0
  O  O101  1  0.29367000  0.81265000  0.74391000  1.0
  O  O102  1  0.20633000  0.31265000  0.24390000  1.0
  O  O103  1  0.70633000  0.18736000  0.25609000  1.0
  O  O104  1  0.84228000  0.60454000  0.94059000  1.0
  O  O105  1  0.34229000  0.89547000  0.55942000  1.0
  O  O106  1  0.15771000  0.39546000  0.05941000  1.0
  O  O107  1  0.65773000  0.10453000  0.44058000  1.0
  O  O108  1  0.07797000  0.64836000  0.80315000  1.0
  O  O109  1  0.57796000  0.85164000  0.69685000  1.0
  O  O110  1  0.92204000  0.35163000  0.19685000  1.0
  O  O111  1  0.42205000  0.14837000  0.30315000  1.0
  O  O112  1  0.02722000  0.81514000  0.97230000  1.0
  O  O113  1  0.52721000  0.68486000  0.52769000  1.0
  O  O114  1  0.97278000  0.18485000  0.02769000  1.0
  O  O115  1  0.47279000  0.31515000  0.47231000  1.0
  O  O116  1  0.98674000  0.03881000  0.86473000  1.0
  O  O117  1  0.48673000  0.46119000  0.63527000  1.0
  O  O118  1  0.01326000  0.96118000  0.13528000  1.0
  O  O119  1  0.51326000  0.53882000  0.36472000  1.0
  O  O120  1  0.79353000  0.97679000  0.00091000  1.0
  O  O121  1  0.29352000  0.52321000  0.49909000  1.0
  O  O122  1  0.20648000  0.02320000  0.99909000  1.0
  O  O123  1  0.70646000  0.47680000  0.50090000  1.0
  O  O124  1  0.62005000  0.61647000  0.90761000  1.0
  O  O125  1  0.12006000  0.88354000  0.59239000  1.0
  O  O126  1  0.37994000  0.38353000  0.09238000  1.0
  O  O127  1  0.87995000  0.11647000  0.40760000  1.0
  O  O128  1  0.09539000  0.47555000  0.87643000  1.0
  O  O129  1  0.59539000  0.02445000  0.62356000  1.0
  O  O130  1  0.90462000  0.52445000  0.12356000  1.0
  O  O131  1  0.40463000  0.97555000  0.37644000  1.0
  O  O132  1  0.11220000  0.64692000  0.02915000  1.0
  O  O133  1  0.61220000  0.85308000  0.47085000  1.0
  O  O134  1  0.88781000  0.35307000  0.97084000  1.0
  O  O135  1  0.38782000  0.14693000  0.52916000  1.0
  O  O136  1  0.93662000  0.68047000  0.63865000  1.0
  O  O137  1  0.43664000  0.81953000  0.86137000  1.0
  O  O138  1  0.06337000  0.31955000  0.36135000  1.0
  O  O139  1  0.56336000  0.18046000  0.13864000  1.0
