# generated using pymatgen
data_Al4H12C29O22
_symmetry_space_group_name_H-M   'P 1'
_cell_length_a   6.69039000
_cell_length_b   16.79590000
_cell_length_c   18.67370000
_cell_angle_alpha   105.20560000
_cell_angle_beta   90.80110000
_cell_angle_gamma   90.07160000
_symmetry_Int_Tables_number   1
_chemical_formula_structural   Al4H12C29O22
_chemical_formula_sum   'Al4 H12 C29 O22'
_cell_volume   2024.69776645
_cell_formula_units_Z   1
loop_
 _symmetry_equiv_pos_site_id
 _symmetry_equiv_pos_as_xyz
  1  'x, y, z'
loop_
 _atom_site_type_symbol
 _atom_site_label
 _atom_site_symmetry_multiplicity
 _atom_site_fract_x
 _atom_site_fract_y
 _atom_site_fract_z
 _atom_site_occupancy
  Al  Al0  1  0.88906000  0.50088000  0.49812000  1.0
  Al  Al1  1  0.38843000  0.49953000  0.49727000  1.0
  Al  Al2  1  0.37458000  0.00034000  0.00008000  1.0
  Al  Al3  1  0.87444000  0.99985000  0.99881000  1.0
  H  H4  1  0.43112000  0.19416000  0.19286000  1.0
  H  H5  1  0.43260000  0.30649000  0.30780000  1.0
  H  H6  1  0.92057000  0.82016000  0.80129000  1.0
  H  H7  1  0.45984000  0.80816000  0.79134000  1.0
  H  H8  1  0.97117000  0.19629000  0.19977000  1.0
  H  H9  1  0.97253000  0.30547000  0.29605000  1.0
  H  H10  1  0.05223000  0.76028000  0.57399000  1.0
  H  H11  1  0.50298000  0.67597000  0.71594000  1.0
  H  H12  1  0.64024000  0.40162000  0.51049000  1.0
  H  H13  1  0.14647000  0.59775000  0.55398000  1.0
  H  H14  1  0.62502000  0.10558000  0.00218000  1.0
  H  H15  1  0.12430000  0.89169000  0.97285000  1.0
  C  C16  1  0.63652000  0.58561000  0.41246000  1.0
  C  C17  1  0.63964000  0.61110000  0.61180000  1.0
  C  C18  1  0.14089000  0.41140000  0.58285000  1.0
  C  C19  1  0.13450000  0.39083000  0.38516000  1.0
  C  C20  1  0.28645000  0.21656000  0.21614000  1.0
  C  C21  1  0.12165000  0.17873000  0.18023000  1.0
  C  C22  1  0.28732000  0.28432000  0.28295000  1.0
  C  C23  1  0.12374000  0.32289000  0.31684000  1.0
  C  C24  1  0.12343000  0.13630000  0.86101000  1.0
  C  C25  1  0.12857000  0.17995000  0.81770000  1.0
  C  C26  1  0.13369000  0.22776000  0.77044000  1.0
  C  C27  1  0.13807000  0.27181000  0.72699000  1.0
  C  C28  1  0.14095000  0.31920000  0.67934000  1.0
  C  C29  1  0.14226000  0.36216000  0.63541000  1.0
  C  C30  1  0.63495000  0.63494000  0.35993000  1.0
  C  C31  1  0.63578000  0.67837000  0.31639000  1.0
  C  C32  1  0.63596000  0.72642000  0.26927000  1.0
  C  C33  1  0.63544000  0.77127000  0.22645000  1.0
  C  C34  1  0.63376000  0.82001000  0.17992000  1.0
  C  C35  1  0.63144000  0.86449000  0.13728000  1.0
  C  C36  1  0.77611000  0.79575000  0.77715000  1.0
  C  C37  1  0.60937000  0.82657000  0.81369000  1.0
  C  C38  1  0.78041000  0.73335000  0.70631000  1.0
  C  C39  1  0.63537000  0.67601000  0.68252000  1.0
  C  C40  1  0.61829000  0.88939000  0.88586000  1.0
  C  C41  1  0.62875000  0.91480000  0.08552000  1.0
  C  C42  1  0.12877000  0.11169000  0.11121000  1.0
  C  C43  1  0.12208000  0.08656000  0.91324000  1.0
  C  C44  1  0.96570000  0.73564000  0.66220000  1.0
  O  O45  1  0.46924000  0.58357000  0.58501000  1.0
  O  O46  1  0.80771000  0.56610000  0.43278000  1.0
  O  O47  1  0.96668000  0.41742000  0.41330000  1.0
  O  O48  1  0.80938000  0.58747000  0.58373000  1.0
  O  O49  1  0.96913000  0.43192000  0.56345000  1.0
  O  O50  1  0.46719000  0.56720000  0.43399000  1.0
  O  O51  1  0.63904000  0.45092000  0.49266000  1.0
  O  O52  1  0.31096000  0.42869000  0.56082000  1.0
  O  O53  1  0.30569000  0.41745000  0.41177000  1.0
  O  O54  1  0.13982000  0.55107000  0.51030000  1.0
  O  O55  1  0.79810000  0.93427000  0.06486000  1.0
  O  O56  1  0.44954000  0.91410000  0.91441000  1.0
  O  O57  1  0.29294000  0.06829000  0.93509000  1.0
  O  O58  1  0.45723000  0.93385000  0.06502000  1.0
  O  O59  1  0.29837000  0.08564000  0.08477000  1.0
  O  O60  1  0.78972000  0.91361000  0.91429000  1.0
  O  O61  1  0.62498000  0.04898000  0.00542000  1.0
  O  O62  1  0.95849000  0.08573000  0.08257000  1.0
  O  O63  1  0.95119000  0.06695000  0.93268000  1.0
  O  O64  1  0.12416000  0.95117000  0.99166000  1.0
  O  O65  1  0.13374000  0.72244000  0.68266000  1.0
  O  O66  1  0.92562000  0.75974000  0.59978000  1.0
