# generated using pymatgen
data_MnH8C4(NO2)4
_symmetry_space_group_name_H-M   'P 1'
_cell_length_a   7.22522000
_cell_length_b   8.61291000
_cell_length_c   8.61289000
_cell_angle_alpha   83.82810000
_cell_angle_beta   71.00360000
_cell_angle_gamma   71.00270000
_symmetry_Int_Tables_number   1
_chemical_formula_structural   MnH8C4(NO2)4
_chemical_formula_sum   'Mn2 H16 C8 N8 O16'
_cell_volume   479.18785644
_cell_formula_units_Z   2
loop_
 _symmetry_equiv_pos_site_id
 _symmetry_equiv_pos_as_xyz
  1  'x, y, z'
loop_
 _atom_site_type_symbol
 _atom_site_label
 _atom_site_symmetry_multiplicity
 _atom_site_fract_x
 _atom_site_fract_y
 _atom_site_fract_z
 _atom_site_occupancy
  Mn  Mn0  1  0.00000000  0.00000000  0.50000000  1.0
  Mn  Mn1  1  0.50000000  0.50000000  0.00000000  1.0
  H  H2  1  0.03291000  0.67670000  0.68454000  1.0
  H  H3  1  0.46709000  0.31547000  0.32330000  1.0
  H  H4  1  0.96709000  0.32330000  0.31546000  1.0
  H  H5  1  0.53291000  0.68453000  0.67669000  1.0
  H  H6  1  0.25001000  0.38332000  0.61668000  1.0
  H  H7  1  0.74998000  0.61668000  0.38332000  1.0
  H  H8  1  0.25001000  0.80544000  0.19456000  1.0
  H  H9  1  0.75000000  0.19456000  0.80544000  1.0
  H  H10  1  0.78485000  0.02353000  0.28513000  1.0
  H  H11  1  0.71515000  0.71487000  0.97646000  1.0
  H  H12  1  0.21515000  0.97647000  0.71487000  1.0
  H  H13  1  0.28485000  0.28513000  0.02354000  1.0
  H  H14  1  0.96292000  0.10731000  0.20562000  1.0
  H  H15  1  0.53710000  0.79437000  0.89269000  1.0
  H  H16  1  0.03708000  0.89269000  0.79438000  1.0
  H  H17  1  0.46290000  0.20563000  0.10731000  1.0
  C  C18  1  0.13236000  0.63926000  0.56096000  1.0
  C  C19  1  0.36767000  0.43905000  0.36074000  1.0
  C  C20  1  0.86764000  0.36074000  0.43904000  1.0
  C  C21  1  0.63233000  0.56095000  0.63926000  1.0
  C  C22  1  0.25002000  0.47761000  0.52239000  1.0
  C  C23  1  0.74998000  0.52239000  0.47761000  1.0
  C  C24  1  0.25001000  0.71108000  0.28892000  1.0
  C  C25  1  0.75000000  0.28892000  0.71108000  1.0
  N  N26  1  0.56416000  0.00939000  0.66522000  1.0
  N  N27  1  0.93585000  0.33477000  0.99061000  1.0
  N  N28  1  0.43584000  0.99061000  0.33478000  1.0
  N  N29  1  0.06415000  0.66523000  0.00940000  1.0
  N  N30  1  0.13794000  0.75830000  0.44411000  1.0
  N  N31  1  0.36207000  0.55589000  0.24169000  1.0
  N  N32  1  0.86206000  0.24170000  0.55589000  1.0
  N  N33  1  0.63793000  0.44411000  0.75831000  1.0
  O  O34  1  0.75786000  0.93214000  0.64590000  1.0
  O  O35  1  0.74215000  0.35408000  0.06784000  1.0
  O  O36  1  0.24214000  0.06786000  0.35410000  1.0
  O  O37  1  0.25785000  0.64591000  0.93216000  1.0
  O  O38  1  0.43541000  0.94887000  0.77259000  1.0
  O  O39  1  0.06458000  0.22741000  0.05113000  1.0
  O  O40  1  0.56459000  0.05113000  0.22741000  1.0
  O  O41  1  0.93541000  0.77259000  0.94888000  1.0
  O  O42  1  0.50710000  0.13333000  0.58462000  1.0
  O  O43  1  0.99290000  0.41538000  0.86667000  1.0
  O  O44  1  0.49290000  0.86667000  0.41538000  1.0
  O  O45  1  0.00711000  0.58462000  0.13333000  1.0
  O  O46  1  0.91842000  0.02752000  0.29095000  1.0
  O  O47  1  0.58158000  0.70905000  0.97248000  1.0
  O  O48  1  0.08158000  0.97248000  0.70905000  1.0
  O  O49  1  0.41842000  0.29096000  0.02752000  1.0
