# generated using pymatgen
data_ZnH20C16(NO2)4
_symmetry_space_group_name_H-M   'P 1'
_cell_length_a   7.21546000
_cell_length_b   7.49552000
_cell_length_c   8.90879490
_cell_angle_alpha   111.14480347
_cell_angle_beta   100.31621694
_cell_angle_gamma   96.27360000
_symmetry_Int_Tables_number   1
_chemical_formula_structural   ZnH20C16(NO2)4
_chemical_formula_sum   'Zn1 H20 C16 N4 O8'
_cell_volume   434.10532880
_cell_formula_units_Z   1
loop_
 _symmetry_equiv_pos_site_id
 _symmetry_equiv_pos_as_xyz
  1  'x, y, z'
loop_
 _atom_site_type_symbol
 _atom_site_label
 _atom_site_symmetry_multiplicity
 _atom_site_fract_x
 _atom_site_fract_y
 _atom_site_fract_z
 _atom_site_occupancy
  Zn  Zn0  1  0.50000000  0.00000000  0.50000000  1.0
  H  H1  1  0.32970000  0.55923000  0.31934000  1.0
  H  H2  1  0.67029000  0.44078000  0.68066000  1.0
  H  H3  1  0.19996000  0.41808000  0.79253000  1.0
  H  H4  1  0.80005000  0.58192000  0.20747000  1.0
  H  H5  1  0.36032000  0.75655000  0.85413000  1.0
  H  H6  1  0.63969000  0.24344000  0.14586000  1.0
  H  H7  1  0.48638000  0.98801000  0.15315000  1.0
  H  H8  1  0.51362000  0.01199000  0.84684000  1.0
  H  H9  1  0.79192000  0.47989000  0.40744000  1.0
  H  H10  1  0.20808000  0.52011000  0.59257000  1.0
  H  H11  1  0.96699000  0.35985000  0.31879000  1.0
  H  H12  1  0.03302000  0.64015000  0.68122000  1.0
  H  H13  1  0.97796000  0.01162000  0.86862000  1.0
  H  H14  1  0.02204000  0.98837000  0.13137000  1.0
  H  H15  1  0.02671000  0.17906000  0.77766000  1.0
  H  H16  1  0.97329000  0.82094000  0.22234000  1.0
  H  H17  1  0.18804000  0.18273000  0.49970000  1.0
  H  H18  1  0.81195000  0.81727000  0.50030000  1.0
  H  H19  1  0.28062000  0.20992000  0.35729000  1.0
  H  H20  1  0.71938000  0.79008000  0.64271000  1.0
  C  C21  1  0.32910000  0.59929000  0.21338000  1.0
  C  C22  1  0.67089000  0.40071000  0.78662000  1.0
  C  C23  1  0.24988000  0.46200000  0.05232000  1.0
  C  C24  1  0.75012000  0.53800000  0.94768000  1.0
  C  C25  1  0.25985000  0.51941000  0.92053000  1.0
  C  C26  1  0.74015000  0.48058000  0.07946000  1.0
  C  C27  1  0.34780000  0.70910000  0.95462000  1.0
  C  C28  1  0.65221000  0.29090000  0.04538000  1.0
  C  C29  1  0.41802000  0.83751000  0.11883000  1.0
  C  C30  1  0.58198000  0.16249000  0.88117000  1.0
  C  C31  1  0.15730000  0.26224000  0.02929000  1.0
  C  C32  1  0.84269000  0.73776000  0.97069000  1.0
  C  C33  1  0.85979000  0.25092000  0.48263000  1.0
  C  C34  1  0.14022000  0.74907000  0.51737000  1.0
  C  C35  1  0.92007000  0.42057000  0.43499000  1.0
  C  C36  1  0.07993000  0.57943000  0.56502000  1.0
  N  N37  1  0.40754000  0.78395000  0.24637000  1.0
  N  N38  1  0.59246000  0.21606000  0.75364000  1.0
  N  N39  1  0.05279000  0.14307000  0.87964000  1.0
  N  N40  1  0.94722000  0.85693000  0.12037000  1.0
  O  O41  1  0.17700000  0.21155000  0.15131000  1.0
  O  O42  1  0.82300000  0.78845000  0.84870000  1.0
  O  O43  1  0.68613000  0.16146000  0.41832000  1.0
  O  O44  1  0.31386000  0.83854000  0.58168000  1.0
  O  O45  1  0.98205000  0.20817000  0.57959000  1.0
  O  O46  1  0.01795000  0.79183000  0.42041000  1.0
  O  O47  1  0.30967000  0.19208000  0.46243000  1.0
  O  O48  1  0.69033000  0.80791000  0.53757000  1.0
