# generated using pymatgen
data_HgH11C10N2ClO5
_symmetry_space_group_name_H-M   'P 1'
_cell_length_a   8.53117000
_cell_length_b   9.08899000
_cell_length_c   9.78208000
_cell_angle_alpha   86.31650000
_cell_angle_beta   70.09000000
_cell_angle_gamma   66.45390000
_symmetry_Int_Tables_number   1
_chemical_formula_structural   HgH11C10N2ClO5
_chemical_formula_sum   'Hg2 H22 C20 N4 Cl2 O10'
_cell_volume   651.51242042
_cell_formula_units_Z   2
loop_
 _symmetry_equiv_pos_site_id
 _symmetry_equiv_pos_as_xyz
  1  'x, y, z'
loop_
 _atom_site_type_symbol
 _atom_site_label
 _atom_site_symmetry_multiplicity
 _atom_site_fract_x
 _atom_site_fract_y
 _atom_site_fract_z
 _atom_site_occupancy
  Hg  Hg0  1  0.42206000  0.72763000  0.59698000  1.0
  Hg  Hg1  1  0.57794000  0.27237000  0.40302000  1.0
  H  H2  1  0.27823000  0.22039000  0.29683000  1.0
  H  H3  1  0.72177000  0.77961000  0.70317000  1.0
  H  H4  1  0.75813000  0.90176000  0.10590000  1.0
  H  H5  1  0.24187000  0.09825000  0.89410000  1.0
  H  H6  1  0.05566000  0.65392000  0.04462000  1.0
  H  H7  1  0.94434000  0.34609000  0.95539000  1.0
  H  H8  1  0.82588000  0.48939000  0.45782000  1.0
  H  H9  1  0.17412000  0.51061000  0.54218000  1.0
  H  H10  1  0.47961000  0.41871000  0.84581000  1.0
  H  H11  1  0.52039000  0.58129000  0.15418000  1.0
  H  H12  1  0.78971000  0.13409000  0.95925000  1.0
  H  H13  1  0.21029000  0.86591000  0.04075000  1.0
  H  H14  1  0.69075000  0.03110000  0.88762000  1.0
  H  H15  1  0.30925000  0.96889000  0.11239000  1.0
  H  H16  1  0.55180000  0.22488000  0.98501000  1.0
  H  H17  1  0.44819000  0.77512000  0.01498000  1.0
  H  H18  1  0.92180000  0.21261000  0.56837000  1.0
  H  H19  1  0.07820000  0.78739000  0.43163000  1.0
  H  H20  1  0.89919000  0.02729000  0.61863000  1.0
  H  H21  1  0.10081000  0.97270000  0.38138000  1.0
  H  H22  1  0.01042000  0.10216000  0.70280000  1.0
  H  H23  1  0.98958000  0.89784000  0.29720000  1.0
  C  C24  1  0.63931000  0.82194000  0.31003000  1.0
  C  C25  1  0.36069000  0.17806000  0.68998000  1.0
  C  C26  1  0.78011000  0.80655000  0.17923000  1.0
  C  C27  1  0.21989000  0.19346000  0.82077000  1.0
  C  C28  1  0.94337000  0.67118000  0.14674000  1.0
  C  C29  1  0.05663000  0.32883000  0.85326000  1.0
  C  C30  1  0.96469000  0.55581000  0.24766000  1.0
  C  C31  1  0.03531000  0.44419000  0.75234000  1.0
  C  C32  1  0.81856000  0.57688000  0.37654000  1.0
  C  C33  1  0.18145000  0.42312000  0.62346000  1.0
  C  C34  1  0.46111000  0.97019000  0.35089000  1.0
  C  C35  1  0.53889000  0.02982000  0.64911000  1.0
  C  C36  1  0.14153000  0.41130000  0.21395000  1.0
  C  C37  1  0.85847000  0.58870000  0.78604000  1.0
  C  C38  1  0.60495000  0.36335000  0.75034000  1.0
  C  C39  1  0.39506000  0.63664000  0.24966000  1.0
  C  C40  1  0.68714000  0.14992000  0.90934000  1.0
  C  C41  1  0.31286000  0.85008000  0.09065000  1.0
  C  C42  1  0.89989000  0.13706000  0.65849000  1.0
  C  C43  1  0.10011000  0.86294000  0.34151000  1.0
  N  N44  1  0.66001000  0.70589000  0.40430000  1.0
  N  N45  1  0.33999000  0.29411000  0.59570000  1.0
  N  N46  1  0.72656000  0.22492000  0.77263000  1.0
  N  N47  1  0.27344000  0.77508000  0.22737000  1.0
  Cl  Cl48  1  0.16548000  0.75793000  0.79981000  1.0
  Cl  Cl49  1  0.83452000  0.24207000  0.20019000  1.0
  O  O50  1  0.33247000  0.97629000  0.46555000  1.0
  O  O51  1  0.66753000  0.02371000  0.53444000  1.0
  O  O52  1  0.45768000  0.08127000  0.26354000  1.0
  O  O53  1  0.54232000  0.91873000  0.73646000  1.0
  O  O54  1  0.15207000  0.32045000  0.32457000  1.0
  O  O55  1  0.84794000  0.67955000  0.67543000  1.0
  O  O56  1  0.26183000  0.38543000  0.09322000  1.0
  O  O57  1  0.73817000  0.61458000  0.90678000  1.0
  O  O58  1  0.62768000  0.42711000  0.63054000  1.0
  O  O59  1  0.37232000  0.57289000  0.36945000  1.0
