# generated using pymatgen
data_CdH11C11(NO2)2
_symmetry_space_group_name_H-M   'P 1'
_cell_length_a   7.66642000
_cell_length_b   8.29415000
_cell_length_c   18.02790000
_cell_angle_alpha   97.67130000
_cell_angle_beta   90.00000000
_cell_angle_gamma   90.00000000
_symmetry_Int_Tables_number   1
_chemical_formula_structural   CdH11C11(NO2)2
_chemical_formula_sum   'Cd4 H44 C44 N8 O16'
_cell_volume   1136.07050085
_cell_formula_units_Z   4
loop_
 _symmetry_equiv_pos_site_id
 _symmetry_equiv_pos_as_xyz
  1  'x, y, z'
loop_
 _atom_site_type_symbol
 _atom_site_label
 _atom_site_symmetry_multiplicity
 _atom_site_fract_x
 _atom_site_fract_y
 _atom_site_fract_z
 _atom_site_occupancy
  Cd  Cd0  1  0.29545000  0.20476000  0.22190000  1.0
  Cd  Cd1  1  0.79545000  0.29524000  0.27811000  1.0
  Cd  Cd2  1  0.70455000  0.79524000  0.77810000  1.0
  Cd  Cd3  1  0.20455000  0.70476000  0.72189000  1.0
  H  H4  1  0.37183000  0.13931000  0.03297000  1.0
  H  H5  1  0.87183000  0.36070000  0.46703000  1.0
  H  H6  1  0.62817000  0.86070000  0.96703000  1.0
  H  H7  1  0.12817000  0.63930000  0.53297000  1.0
  H  H8  1  0.26986000  0.85603000  0.94079000  1.0
  H  H9  1  0.76986000  0.64397000  0.55921000  1.0
  H  H10  1  0.73014000  0.14397000  0.05921000  1.0
  H  H11  1  0.23014000  0.35603000  0.44079000  1.0
  H  H12  1  0.04744000  0.86734000  0.15747000  1.0
  H  H13  1  0.54743000  0.63266000  0.34253000  1.0
  H  H14  1  0.95256000  0.13267000  0.84253000  1.0
  H  H15  1  0.45256000  0.36734000  0.65747000  1.0
  H  H16  1  0.11270000  0.57444000  0.12911000  1.0
  H  H17  1  0.61270000  0.92556000  0.37090000  1.0
  H  H18  1  0.88730000  0.42556000  0.87089000  1.0
  H  H19  1  0.38730000  0.07444000  0.62911000  1.0
  H  H20  1  0.00708000  0.69853000  0.90783000  1.0
  H  H21  1  0.50708000  0.80147000  0.59217000  1.0
  H  H22  1  0.99292000  0.30147000  0.09217000  1.0
  H  H23  1  0.49292000  0.19853000  0.40783000  1.0
  H  H24  1  0.93091000  0.89915000  0.41601000  1.0
  H  H25  1  0.43091000  0.60085000  0.08399000  1.0
  H  H26  1  0.06909000  0.10085000  0.58399000  1.0
  H  H27  1  0.56909000  0.39915000  0.91601000  1.0
  H  H28  1  0.12926000  0.97977000  0.45220000  1.0
  H  H29  1  0.62926000  0.52024000  0.04780000  1.0
  H  H30  1  0.87074000  0.02024000  0.54780000  1.0
  H  H31  1  0.37074000  0.47976000  0.95220000  1.0
  H  H32  1  0.29229000  0.79189000  0.35366000  1.0
  H  H33  1  0.79228000  0.70811000  0.14634000  1.0
  H  H34  1  0.70771000  0.20811000  0.64634000  1.0
  H  H35  1  0.20771000  0.29189000  0.85366000  1.0
  H  H36  1  0.17778000  0.69015000  0.41830000  1.0
  H  H37  1  0.67777000  0.80985000  0.08170000  1.0
  H  H38  1  0.82222000  0.30985000  0.58170000  1.0
  H  H39  1  0.32222000  0.19015000  0.91830000  1.0
  H  H40  1  0.06089000  0.72895000  0.25914000  1.0
  H  H41  1  0.56089000  0.77106000  0.24087000  1.0
  H  H42  1  0.93911000  0.27105000  0.74087000  1.0
  H  H43  1  0.43910000  0.22894000  0.75913000  1.0
  H  H44  1  0.92839000  0.64208000  0.32198000  1.0
  H  H45  1  0.42839000  0.85793000  0.17802000  1.0
  H  H46  1  0.07161000  0.35792000  0.67802000  1.0
  H  H47  1  0.57161000  0.14208000  0.82198000  1.0
  C  C48  1  0.28939000  0.03935000  0.04423000  1.0
  C  C49  1  0.78938000  0.46065000  0.45577000  1.0
  C  C50  1  0.71062000  0.96065000  0.95577000  1.0
  C  C51  1  0.21061000  0.53935000  0.54423000  1.0
  C  C52  1  0.24062000  0.90075000  0.99872000  1.0
  C  C53  1  0.74062000  0.59925000  0.50128000  1.0
  C  C54  1  0.75938000  0.09925000  0.00128000  1.0
  C  C55  1  0.25938000  0.40075000  0.49871000  1.0
  C  C56  1  0.12730000  0.90065000  0.11235000  1.0
  C  C57  1  0.62729000  0.59936000  0.38765000  1.0
  C  C58  1  0.87270000  0.09936000  0.88765000  1.0
  C  C59  1  0.37271000  0.40065000  0.61235000  1.0
  C  C60  1  0.06172000  0.54318000  0.07271000  1.0
  C  C61  1  0.56172000  0.95683000  0.42730000  1.0
  C  C62  1  0.93827000  0.45683000  0.92730000  1.0
  C  C63  1  0.43828000  0.04318000  0.57270000  1.0
  C  C64  1  0.06734000  0.65493000  0.02105000  1.0
  C  C65  1  0.56735000  0.84507000  0.47896000  1.0
  C  C66  1  0.93266000  0.34508000  0.97896000  1.0
  C  C67  1  0.43266000  0.15493000  0.52104000  1.0
  C  C68  1  0.00602000  0.61177000  0.94811000  1.0
  C  C69  1  0.50603000  0.88823000  0.55189000  1.0
  C  C70  1  0.99397000  0.38823000  0.05189000  1.0
  C  C71  1  0.49398000  0.11177000  0.44810000  1.0
  C  C72  1  0.06565000  0.04728000  0.34613000  1.0
  C  C73  1  0.56565000  0.45271000  0.15386000  1.0
  C  C74  1  0.93435000  0.95271000  0.65386000  1.0
  C  C75  1  0.43435000  0.54728000  0.84613000  1.0
  C  C76  1  0.06689000  0.92085000  0.40050000  1.0
  C  C77  1  0.56688000  0.57915000  0.09950000  1.0
  C  C78  1  0.93311000  0.07915000  0.59950000  1.0
  C  C79  1  0.43311000  0.42085000  0.90050000  1.0
  C  C80  1  0.16107000  0.76286000  0.37219000  1.0
  C  C81  1  0.66107000  0.73714000  0.12781000  1.0
  C  C82  1  0.83893000  0.23714000  0.62781000  1.0
  C  C83  1  0.33893000  0.26286000  0.87219000  1.0
  C  C84  1  0.06558000  0.66198000  0.30793000  1.0
  C  C85  1  0.56558000  0.83802000  0.19207000  1.0
  C  C86  1  0.93442000  0.33802000  0.69207000  1.0
  C  C87  1  0.43442000  0.16198000  0.80793000  1.0
  C  C88  1  0.14706000  0.49829000  0.28188000  1.0
  C  C89  1  0.64707000  0.00172000  0.21812000  1.0
  C  C90  1  0.85293000  0.50171000  0.71812000  1.0
  C  C91  1  0.35294000  0.99829000  0.78188000  1.0
  N  N92  1  0.21739000  0.03793000  0.11449000  1.0
  N  N93  1  0.71738000  0.46207000  0.38551000  1.0
  N  N94  1  0.78261000  0.96207000  0.88551000  1.0
  N  N95  1  0.28261000  0.53793000  0.61449000  1.0
  N  N96  1  0.13856000  0.81256000  0.04286000  1.0
  N  N97  1  0.63856000  0.68744000  0.45714000  1.0
  N  N98  1  0.86144000  0.18744000  0.95714000  1.0
  N  N99  1  0.36145000  0.31256000  0.54286000  1.0
  O  O100  1  0.29863000  0.46419000  0.30242000  1.0
  O  O101  1  0.79863000  0.03582000  0.19758000  1.0
  O  O102  1  0.70137000  0.53582000  0.69758000  1.0
  O  O103  1  0.20137000  0.96418000  0.80242000  1.0
  O  O104  1  0.05843000  0.39511000  0.23616000  1.0
  O  O105  1  0.55843000  0.10490000  0.26384000  1.0
  O  O106  1  0.94157000  0.60489000  0.76384000  1.0
  O  O107  1  0.44157000  0.89511000  0.73616000  1.0
  O  O108  1  0.96050000  0.16609000  0.36107000  1.0
  O  O109  1  0.46050000  0.33390000  0.13892000  1.0
  O  O110  1  0.03950000  0.83390000  0.63892000  1.0
  O  O111  1  0.53950000  0.66609000  0.86107000  1.0
  O  O112  1  0.17224000  0.02595000  0.29166000  1.0
  O  O113  1  0.67225000  0.47404000  0.20833000  1.0
  O  O114  1  0.82775000  0.97405000  0.70833000  1.0
  O  O115  1  0.32775000  0.52595000  0.79166000  1.0
