# generated using pymatgen
data_CuH12C14N2ClO4
_symmetry_space_group_name_H-M   'P 1'
_cell_length_a   8.10865000
_cell_length_b   8.10867000
_cell_length_c   10.87390000
_cell_angle_alpha   101.27900000
_cell_angle_beta   101.27900000
_cell_angle_gamma   90.69870000
_symmetry_Int_Tables_number   1
_chemical_formula_structural   CuH12C14N2ClO4
_chemical_formula_sum   'Cu2 H24 C28 N4 Cl2 O8'
_cell_volume   686.66595943
_cell_formula_units_Z   2
loop_
 _symmetry_equiv_pos_site_id
 _symmetry_equiv_pos_as_xyz
  1  'x, y, z'
loop_
 _atom_site_type_symbol
 _atom_site_label
 _atom_site_symmetry_multiplicity
 _atom_site_fract_x
 _atom_site_fract_y
 _atom_site_fract_z
 _atom_site_occupancy
  Cu  Cu0  1  0.94163000  0.05837000  0.25000000  1.0
  Cu  Cu1  1  0.05837000  0.94163000  0.75000000  1.0
  H  H2  1  0.11954000  0.77915000  0.12225000  1.0
  H  H3  1  0.77915000  0.11955000  0.62225000  1.0
  H  H4  1  0.88045000  0.22085000  0.87775000  1.0
  H  H5  1  0.22085000  0.88046000  0.37775000  1.0
  H  H6  1  0.05813000  0.57761000  0.91009000  1.0
  H  H7  1  0.57761000  0.05813000  0.41009000  1.0
  H  H8  1  0.94187000  0.42239000  0.08991000  1.0
  H  H9  1  0.42239000  0.94188000  0.58991000  1.0
  H  H10  1  0.59405000  0.82423000  0.81723000  1.0
  H  H11  1  0.82423000  0.59404000  0.31724000  1.0
  H  H12  1  0.40595000  0.17577000  0.18276000  1.0
  H  H13  1  0.17577000  0.40595000  0.68277000  1.0
  H  H14  1  0.67791000  0.02055000  0.03059000  1.0
  H  H15  1  0.02055000  0.67791000  0.53059000  1.0
  H  H16  1  0.32209000  0.97945000  0.96940000  1.0
  H  H17  1  0.97945000  0.32209000  0.46941000  1.0
  H  H18  1  0.67307000  0.44419000  0.47203000  1.0
  H  H19  1  0.44419000  0.67307000  0.97203000  1.0
  H  H20  1  0.32693000  0.55581000  0.52797000  1.0
  H  H21  1  0.55581000  0.32693000  0.02797000  1.0
  H  H22  1  0.55256000  0.34752000  0.56162000  1.0
  H  H23  1  0.34752000  0.55256000  0.06161000  1.0
  H  H24  1  0.44744000  0.65248000  0.43839000  1.0
  H  H25  1  0.65248000  0.44744000  0.93839000  1.0
  C  C26  1  0.00458000  0.78425000  0.05232000  1.0
  C  C27  1  0.78425000  0.00458000  0.55231000  1.0
  C  C28  1  0.99542000  0.21575000  0.94769000  1.0
  C  C29  1  0.21576000  0.99542000  0.44768000  1.0
  C  C30  1  0.97022000  0.67251000  0.93503000  1.0
  C  C31  1  0.67251000  0.97022000  0.43503000  1.0
  C  C32  1  0.02978000  0.32749000  0.06497000  1.0
  C  C33  1  0.32749000  0.02978000  0.56497000  1.0
  C  C34  1  0.82049000  0.68351000  0.84832000  1.0
  C  C35  1  0.68351000  0.82049000  0.34832000  1.0
  C  C36  1  0.17950000  0.31649000  0.15168000  1.0
  C  C37  1  0.31649000  0.17951000  0.65168000  1.0
  C  C38  1  0.71220000  0.81055000  0.88128000  1.0
  C  C39  1  0.81054000  0.71220000  0.38128000  1.0
  C  C40  1  0.28781000  0.18946000  0.11872000  1.0
  C  C41  1  0.18946000  0.28780000  0.61872000  1.0
  C  C42  1  0.75617000  0.91808000  0.00013000  1.0
  C  C43  1  0.91807000  0.75617000  0.50012000  1.0
  C  C44  1  0.24383000  0.08192000  0.99987000  1.0
  C  C45  1  0.08193000  0.24383000  0.49988000  1.0
  C  C46  1  0.77725000  0.55402000  0.72782000  1.0
  C  C47  1  0.55404000  0.77724000  0.22783000  1.0
  C  C48  1  0.22277000  0.44595000  0.27217000  1.0
  C  C49  1  0.44598000  0.22275000  0.77218000  1.0
  C  C50  1  0.57944000  0.46638000  0.53338000  1.0
  C  C51  1  0.46638000  0.57945000  0.03338000  1.0
  C  C52  1  0.42055000  0.53361000  0.46662000  1.0
  C  C53  1  0.53362000  0.42055000  0.96662000  1.0
  N  N54  1  0.89856000  0.90502000  0.08571000  1.0
  N  N55  1  0.90502000  0.89856000  0.58571000  1.0
  N  N56  1  0.10144000  0.09498000  0.91429000  1.0
  N  N57  1  0.09498000  0.10144000  0.41429000  1.0
  Cl  Cl58  1  0.74122000  0.25878000  0.25000000  1.0
  Cl  Cl59  1  0.25878000  0.74122000  0.75000000  1.0
  O  O60  1  0.85112000  0.42373000  0.70634000  1.0
  O  O61  1  0.42371000  0.85112000  0.20634000  1.0
  O  O62  1  0.14888000  0.57629000  0.29367000  1.0
  O  O63  1  0.57628000  0.14888000  0.79366000  1.0
  O  O64  1  0.64218000  0.59376000  0.64678000  1.0
  O  O65  1  0.59375000  0.64218000  0.14678000  1.0
  O  O66  1  0.35782000  0.40624000  0.35322000  1.0
  O  O67  1  0.40624000  0.35782000  0.85321000  1.0
