# generated using pymatgen
data_CdH14C16(N4O)2
_symmetry_space_group_name_H-M   'P 1'
_cell_length_a   7.08451000
_cell_length_b   7.65896000
_cell_length_c   9.60661000
_cell_angle_alpha   72.31390000
_cell_angle_beta   70.90980000
_cell_angle_gamma   85.11280000
_symmetry_Int_Tables_number   1
_chemical_formula_structural   CdH14C16(N4O)2
_chemical_formula_sum   'Cd1 H14 C16 N8 O2'
_cell_volume   469.24783408
_cell_formula_units_Z   1
loop_
 _symmetry_equiv_pos_site_id
 _symmetry_equiv_pos_as_xyz
  1  'x, y, z'
loop_
 _atom_site_type_symbol
 _atom_site_label
 _atom_site_symmetry_multiplicity
 _atom_site_fract_x
 _atom_site_fract_y
 _atom_site_fract_z
 _atom_site_occupancy
  Cd  Cd0  1  0.00000000  0.00002000  0.00000000  1.0
  H  H1  1  0.52532000  0.99589000  0.11266000  1.0
  H  H2  1  0.47468000  0.00411000  0.88734000  1.0
  H  H3  1  0.23382000  0.86203000  0.34092000  1.0
  H  H4  1  0.76618000  0.13796000  0.65908000  1.0
  H  H5  1  0.91907000  0.82012000  0.36268000  1.0
  H  H6  1  0.08093000  0.17988000  0.63732000  1.0
  H  H7  1  0.64708000  0.68158000  0.60359000  1.0
  H  H8  1  0.35293000  0.31841000  0.39640000  1.0
  H  H9  1  0.39563000  0.47011000  0.73798000  1.0
  H  H10  1  0.60437000  0.52987000  0.26202000  1.0
  H  H11  1  0.14349000  0.52005000  0.83216000  1.0
  H  H12  1  0.85652000  0.47993000  0.16784000  1.0
  H  H13  1  0.34179000  0.67246000  0.80143000  1.0
  H  H14  1  0.65821000  0.32752000  0.19856000  1.0
  C  C15  1  0.54553000  0.92434000  0.22350000  1.0
  C  C16  1  0.45446000  0.07566000  0.77650000  1.0
  C  C17  1  0.38323000  0.84990000  0.35087000  1.0
  C  C18  1  0.61677000  0.15009000  0.64913000  1.0
  C  C19  1  0.76453000  0.82706000  0.36315000  1.0
  C  C20  1  0.23547000  0.17294000  0.63685000  1.0
  C  C21  1  0.61179000  0.74801000  0.49775000  1.0
  C  C22  1  0.38821000  0.25197000  0.50225000  1.0
  C  C23  1  0.41569000  0.75675000  0.49141000  1.0
  C  C24  1  0.58432000  0.24323000  0.50859000  1.0
  C  C25  1  0.79268000  0.71067000  0.86955000  1.0
  C  C26  1  0.20732000  0.28937000  0.13045000  1.0
  C  C27  1  0.77775000  0.41102000  0.87580000  1.0
  C  C28  1  0.22222000  0.58902000  0.12421000  1.0
  C  C29  1  0.28818000  0.58019000  0.75410000  1.0
  C  C30  1  0.71182000  0.41979000  0.24589000  1.0
  N  N31  1  0.73480000  0.91247000  0.22773000  1.0
  N  N32  1  0.26520000  0.08753000  0.77227000  1.0
  N  N33  1  0.84393000  0.83899000  0.89225000  1.0
  N  N34  1  0.15607000  0.16103000  0.10775000  1.0
  N  N35  1  0.81475000  0.25348000  0.90495000  1.0
  N  N36  1  0.18523000  0.74654000  0.09507000  1.0
  N  N37  1  0.72530000  0.58044000  0.83771000  1.0
  N  N38  1  0.27468000  0.41958000  0.16231000  1.0
  O  O39  1  0.25430000  0.68017000  0.61125000  1.0
  O  O40  1  0.74571000  0.31981000  0.38875000  1.0
