# generated using pymatgen
data_ZnH8C6(NCl)2
_symmetry_space_group_name_H-M   'P 1'
_cell_length_a   5.93363000
_cell_length_b   10.27130000
_cell_length_c   13.79750000
_cell_angle_alpha   90.00150000
_cell_angle_beta   89.99990000
_cell_angle_gamma   89.99970000
_symmetry_Int_Tables_number   1
_chemical_formula_structural   ZnH8C6(NCl)2
_chemical_formula_sum   'Zn4 H32 C24 N8 Cl8'
_cell_volume   840.90372917
_cell_formula_units_Z   4
loop_
 _symmetry_equiv_pos_site_id
 _symmetry_equiv_pos_as_xyz
  1  'x, y, z'
loop_
 _atom_site_type_symbol
 _atom_site_label
 _atom_site_symmetry_multiplicity
 _atom_site_fract_x
 _atom_site_fract_y
 _atom_site_fract_z
 _atom_site_occupancy
  Zn  Zn0  1  0.39689000  0.25000000  0.49212000  1.0
  Zn  Zn1  1  0.10310000  0.75000000  0.99212000  1.0
  Zn  Zn2  1  0.60309000  0.75001000  0.50788000  1.0
  Zn  Zn3  1  0.89691000  0.24999000  0.00788000  1.0
  H  H4  1  0.08746000  0.37104000  0.35783000  1.0
  H  H5  1  0.41257000  0.62896000  0.85784000  1.0
  H  H6  1  0.91254000  0.87103000  0.64218000  1.0
  H  H7  1  0.58745000  0.12897000  0.14217000  1.0
  H  H8  1  0.91253000  0.62898000  0.64217000  1.0
  H  H9  1  0.58747000  0.37103000  0.14217000  1.0
  H  H10  1  0.08744000  0.12896000  0.35784000  1.0
  H  H11  1  0.41253000  0.87103000  0.85784000  1.0
  H  H12  1  0.18499000  0.35620000  0.70680000  1.0
  H  H13  1  0.31499000  0.64380000  0.20680000  1.0
  H  H14  1  0.81499000  0.85619000  0.29320000  1.0
  H  H15  1  0.68501000  0.14380000  0.79321000  1.0
  H  H16  1  0.81498000  0.64380000  0.29319000  1.0
  H  H17  1  0.68502000  0.35619000  0.79319000  1.0
  H  H18  1  0.18500000  0.14381000  0.70680000  1.0
  H  H19  1  0.31501000  0.85620000  0.20680000  1.0
  H  H20  1  0.21035000  0.52680000  0.72701000  1.0
  H  H21  1  0.28962000  0.47321000  0.22700000  1.0
  H  H22  1  0.78962000  0.02677000  0.27300000  1.0
  H  H23  1  0.71036000  0.97321000  0.77300000  1.0
  H  H24  1  0.78963000  0.47321000  0.27299000  1.0
  H  H25  1  0.71037000  0.52678000  0.77299000  1.0
  H  H26  1  0.21038000  0.97321000  0.72701000  1.0
  H  H27  1  0.28964000  0.02679000  0.22701000  1.0
  H  H28  1  0.42353000  0.44015000  0.66184000  1.0
  H  H29  1  0.07647000  0.55984000  0.16184000  1.0
  H  H30  1  0.57645000  0.94014000  0.33816000  1.0
  H  H31  1  0.92354000  0.05984000  0.83816000  1.0
  H  H32  1  0.57647000  0.55985000  0.33816000  1.0
  H  H33  1  0.92355000  0.44014000  0.83815000  1.0
  H  H34  1  0.42353000  0.05986000  0.66184000  1.0
  H  H35  1  0.07648000  0.94016000  0.16185000  1.0
  C  C36  1  0.11984000  0.47511000  0.58298000  1.0
  C  C37  1  0.38015000  0.52490000  0.08297000  1.0
  C  C38  1  0.88015000  0.97511000  0.41702000  1.0
  C  C39  1  0.61983000  0.02490000  0.91703000  1.0
  C  C40  1  0.88015000  0.52492000  0.41702000  1.0
  C  C41  1  0.61986000  0.47509000  0.91702000  1.0
  C  C42  1  0.11986000  0.02492000  0.58296000  1.0
  C  C43  1  0.38015000  0.97510000  0.08298000  1.0
  C  C44  1  0.04705000  0.42899000  0.42178000  1.0
  C  C45  1  0.45297000  0.57101000  0.92179000  1.0
  C  C46  1  0.95295000  0.92898000  0.57822000  1.0
  C  C47  1  0.54705000  0.07103000  0.07822000  1.0
  C  C48  1  0.95296000  0.57102000  0.57820000  1.0
  C  C49  1  0.54705000  0.42897000  0.07821000  1.0
  C  C50  1  0.04702000  0.07100000  0.42179000  1.0
  C  C51  1  0.45295000  0.92899000  0.92179000  1.0
  C  C52  1  0.24197000  0.44866000  0.67482000  1.0
  C  C53  1  0.25802000  0.55134000  0.17482000  1.0
  C  C54  1  0.75800000  0.94865000  0.32517000  1.0
  C  C55  1  0.74198000  0.05135000  0.82518000  1.0
  C  C56  1  0.75802000  0.55134000  0.32517000  1.0
  C  C57  1  0.74199000  0.44864000  0.82517000  1.0
  C  C58  1  0.24198000  0.05135000  0.67482000  1.0
  C  C59  1  0.25802000  0.94865000  0.17483000  1.0
  N  N60  1  0.16517000  0.40461000  0.50259000  1.0
  N  N61  1  0.33482000  0.59540000  0.00259000  1.0
  N  N62  1  0.83483000  0.90461000  0.49740000  1.0
  N  N63  1  0.66517000  0.09540000  0.99742000  1.0
  N  N64  1  0.83483000  0.59540000  0.49741000  1.0
  N  N65  1  0.66517000  0.40460000  0.99741000  1.0
  N  N66  1  0.16517000  0.09540000  0.50258000  1.0
  N  N67  1  0.33483000  0.90461000  0.00259000  1.0
  Cl  Cl68  1  0.68615000  0.25000000  0.59408000  1.0
  Cl  Cl69  1  0.81386000  0.75000000  0.09408000  1.0
  Cl  Cl70  1  0.31384000  0.74999000  0.40592000  1.0
  Cl  Cl71  1  0.18615000  0.25000000  0.90591000  1.0
  Cl  Cl72  1  0.49195000  0.25000000  0.33495000  1.0
  Cl  Cl73  1  0.00806000  0.75000000  0.83495000  1.0
  Cl  Cl74  1  0.50805000  0.75000000  0.66505000  1.0
  Cl  Cl75  1  0.99195000  0.25000000  0.16505000  1.0
