# generated using pymatgen
data_CuH20C18(N5O)2
_symmetry_space_group_name_H-M   'P 1'
_cell_length_a   7.54296000
_cell_length_b   8.12821000
_cell_length_c   10.54150000
_cell_angle_alpha   89.83560000
_cell_angle_beta   69.78100000
_cell_angle_gamma   67.17200000
_symmetry_Int_Tables_number   1
_chemical_formula_structural   CuH20C18(N5O)2
_chemical_formula_sum   'Cu1 H20 C18 N10 O2'
_cell_volume   552.50692481
_cell_formula_units_Z   1
loop_
 _symmetry_equiv_pos_site_id
 _symmetry_equiv_pos_as_xyz
  1  'x, y, z'
loop_
 _atom_site_type_symbol
 _atom_site_label
 _atom_site_symmetry_multiplicity
 _atom_site_fract_x
 _atom_site_fract_y
 _atom_site_fract_z
 _atom_site_occupancy
  Cu  Cu0  1  1.00000000  0.00001000  0.00000000  1.0
  H  H1  1  0.83286000  0.54133000  0.50636000  1.0
  H  H2  1  0.16714000  0.45868000  0.49364000  1.0
  H  H3  1  0.59104000  0.70973000  0.61125000  1.0
  H  H4  1  0.40895000  0.29028000  0.38876000  1.0
  H  H5  1  0.16905000  0.70572000  0.74643000  1.0
  H  H6  1  0.83095000  0.29428000  0.25357000  1.0
  H  H7  1  0.39908000  0.29973000  0.96746000  1.0
  H  H8  1  0.60093000  0.70026000  0.03254000  1.0
  H  H9  1  0.23236000  0.61200000  0.21380000  1.0
  H  H10  1  0.76763000  0.38799000  0.78620000  1.0
  H  H11  1  0.05216000  0.52071000  0.21810000  1.0
  H  H12  1  0.94785000  0.47929000  0.78189000  1.0
  H  H13  1  0.98062000  0.75711000  0.21989000  1.0
  H  H14  1  0.01938000  0.24288000  0.78010000  1.0
  H  H15  1  0.38430000  0.26020000  0.65681000  1.0
  H  H16  1  0.61570000  0.73979000  0.34319000  1.0
  H  H17  1  0.61814000  0.25695000  0.66224000  1.0
  H  H18  1  0.38187000  0.74305000  0.33775000  1.0
  H  H19  1  0.47273000  0.42638000  0.58726000  1.0
  H  H20  1  0.52727000  0.57362000  0.41273000  1.0
  C  C21  1  0.69707000  0.88038000  0.74968000  1.0
  C  C22  1  0.30292000  0.11965000  0.25032000  1.0
  C  C23  1  0.78120000  0.95484000  0.81821000  1.0
  C  C24  1  0.21881000  0.04516000  0.18179000  1.0
  C  C25  1  0.48235000  0.94684000  0.78806000  1.0
  C  C26  1  0.51764000  0.05315000  0.21195000  1.0
  C  C27  1  0.83733000  0.73007000  0.63776000  1.0
  C  C28  1  0.16266000  0.26995000  0.36224000  1.0
  C  C29  1  0.18567000  0.59251000  0.02624000  1.0
  C  C30  1  0.81435000  0.40748000  0.97376000  1.0
  C  C31  1  0.32379000  0.42848000  0.93784000  1.0
  C  C32  1  0.67622000  0.57150000  0.06215000  1.0
  C  C33  1  0.34218000  0.46460000  0.80610000  1.0
  C  C34  1  0.65782000  0.53540000  0.19390000  1.0
  C  C35  1  0.10791000  0.62370000  0.17810000  1.0
  C  C36  1  0.89210000  0.37629000  0.82189000  1.0
  C  C37  1  0.46037000  0.34591000  0.67096000  1.0
  C  C38  1  0.53963000  0.65409000  0.32904000  1.0
  N  N39  1  0.74792000  0.66141000  0.57423000  1.0
  N  N40  1  0.25207000  0.33859000  0.42577000  1.0
  N  N41  1  0.85837000  0.01796000  0.87177000  1.0
  N  N42  1  0.14163000  0.98204000  0.12824000  1.0
  N  N43  1  0.30354000  0.99676000  0.81353000  1.0
  N  N44  1  0.69645000  0.00324000  0.18647000  1.0
  N  N45  1  0.12411000  0.72301000  0.95191000  1.0
  N  N46  1  0.87590000  0.27698000  0.04809000  1.0
  N  N47  1  0.22207000  0.64339000  0.81874000  1.0
  N  N48  1  0.77794000  0.35661000  0.18125000  1.0
  O  O49  1  0.03179000  0.66876000  0.60465000  1.0
  O  O50  1  0.96818000  0.33125000  0.39536000  1.0
