# generated using pymatgen
data_CdH12C9(N2Cl)2
_symmetry_space_group_name_H-M   'P 1'
_cell_length_a   7.81900000
_cell_length_b   9.75036000
_cell_length_c   15.22120000
_cell_angle_alpha   90.00010000
_cell_angle_beta   90.00010000
_cell_angle_gamma   89.99990000
_symmetry_Int_Tables_number   1
_chemical_formula_structural   CdH12C9(N2Cl)2
_chemical_formula_sum   'Cd4 H48 C36 N16 Cl8'
_cell_volume   1160.43483254
_cell_formula_units_Z   4
loop_
 _symmetry_equiv_pos_site_id
 _symmetry_equiv_pos_as_xyz
  1  'x, y, z'
loop_
 _atom_site_type_symbol
 _atom_site_label
 _atom_site_symmetry_multiplicity
 _atom_site_fract_x
 _atom_site_fract_y
 _atom_site_fract_z
 _atom_site_occupancy
  Cd  Cd0  1  0.38393000  0.99999000  0.74288000  1.0
  Cd  Cd1  1  0.88393000  0.00001000  0.75712000  1.0
  Cd  Cd2  1  0.61607000  0.50001000  0.24288000  1.0
  Cd  Cd3  1  0.11607000  0.49999000  0.25712000  1.0
  H  H4  1  0.07076000  0.17110000  0.93270000  1.0
  H  H5  1  0.57076000  0.82890000  0.56730000  1.0
  H  H6  1  0.92924000  0.32890000  0.43270000  1.0
  H  H7  1  0.42924000  0.67110000  0.06730000  1.0
  H  H8  1  0.68562000  0.87033000  0.94077000  1.0
  H  H9  1  0.18562000  0.12967000  0.55923000  1.0
  H  H10  1  0.31438000  0.62967000  0.44077000  1.0
  H  H11  1  0.81438000  0.37033000  0.05923000  1.0
  H  H12  1  0.96915000  0.13341000  0.10800000  1.0
  H  H13  1  0.46915000  0.86659000  0.39200000  1.0
  H  H14  1  0.03085000  0.36659000  0.60800000  1.0
  H  H15  1  0.53085000  0.63341000  0.89200000  1.0
  H  H16  1  0.82457000  0.90563000  0.17259000  1.0
  H  H17  1  0.32457000  0.09437000  0.32740000  1.0
  H  H18  1  0.17544000  0.59437000  0.67260000  1.0
  H  H19  1  0.67543000  0.40563000  0.82741000  1.0
  H  H20  1  0.67717000  0.82110000  0.10520000  1.0
  H  H21  1  0.17717000  0.17890000  0.39480000  1.0
  H  H22  1  0.32283000  0.67890000  0.60520000  1.0
  H  H23  1  0.82283000  0.32110000  0.89480000  1.0
  H  H24  1  0.61881000  0.11490000  0.17427000  1.0
  H  H25  1  0.11881000  0.88510000  0.32573000  1.0
  H  H26  1  0.38119000  0.38511000  0.67427000  1.0
  H  H27  1  0.88119000  0.61489000  0.82573000  1.0
  H  H28  1  0.56408000  0.96605000  0.23401000  1.0
  H  H29  1  0.06408000  0.03395000  0.26599000  1.0
  H  H30  1  0.43593000  0.53395000  0.73401000  1.0
  H  H31  1  0.93592000  0.46604000  0.76599000  1.0
  H  H32  1  0.36287000  0.88903000  0.12059000  1.0
  H  H33  1  0.86287000  0.11098000  0.37941000  1.0
  H  H34  1  0.63713000  0.61098000  0.62059000  1.0
  H  H35  1  0.13713000  0.38903000  0.87941000  1.0
  H  H36  1  0.31120000  0.05421000  0.16258000  1.0
  H  H37  1  0.81120000  0.94580000  0.33742000  1.0
  H  H38  1  0.68880000  0.44580000  0.66258000  1.0
  H  H39  1  0.18880000  0.55420000  0.83742000  1.0
  H  H40  1  0.46334000  0.26266000  0.06020000  1.0
  H  H41  1  0.96334000  0.73734000  0.43980000  1.0
  H  H42  1  0.53666000  0.23734000  0.56020000  1.0
  H  H43  1  0.03666000  0.76266000  0.93980000  1.0
  H  H44  1  0.45370000  0.27320000  0.87563000  1.0
  H  H45  1  0.95370000  0.72680000  0.62437000  1.0
  H  H46  1  0.54630000  0.22680000  0.37563000  1.0
  H  H47  1  0.04630000  0.77320000  0.12437000  1.0
  H  H48  1  0.33959000  0.87141000  0.95758000  1.0
  H  H49  1  0.83959000  0.12859000  0.54242000  1.0
  H  H50  1  0.66041000  0.62859000  0.45758000  1.0
  H  H51  1  0.16041000  0.37141000  0.04242000  1.0
  C  C52  1  0.97312000  0.10545000  0.96080000  1.0
  C  C53  1  0.47312000  0.89455000  0.53920000  1.0
  C  C54  1  0.02688000  0.39455000  0.46080000  1.0
  C  C55  1  0.52688000  0.60545000  0.03920000  1.0
  C  C56  1  0.77506000  0.94879000  0.96154000  1.0
  C  C57  1  0.27506000  0.05121000  0.53846000  1.0
  C  C58  1  0.22494000  0.55120000  0.46154000  1.0
  C  C59  1  0.72494000  0.44879000  0.03846000  1.0
  C  C60  1  0.92802000  0.08521000  0.04721000  1.0
  C  C61  1  0.42802000  0.91479000  0.45279000  1.0
  C  C62  1  0.07198000  0.41479000  0.54721000  1.0
  C  C63  1  0.57198000  0.58521000  0.95279000  1.0
  C  C64  1  0.72278000  0.92325000  0.12434000  1.0
  C  C65  1  0.22278000  0.07675000  0.37566000  1.0
  C  C66  1  0.27722000  0.57675000  0.62434000  1.0
  C  C67  1  0.77722000  0.42325000  0.87566000  1.0
  C  C68  1  0.58008000  0.00700000  0.16713000  1.0
  C  C69  1  0.08008000  0.99300000  0.33287000  1.0
  C  C70  1  0.41992000  0.49300000  0.66713000  1.0
  C  C71  1  0.91992000  0.50700000  0.83287000  1.0
  C  C72  1  0.40466000  0.99642000  0.12344000  1.0
  C  C73  1  0.90466000  0.00358000  0.37656000  1.0
  C  C74  1  0.59534000  0.50358000  0.62344000  1.0
  C  C75  1  0.09534000  0.49642000  0.87656000  1.0
  C  C76  1  0.43857000  0.18513000  0.01070000  1.0
  C  C77  1  0.93857000  0.81487000  0.48930000  1.0
  C  C78  1  0.56143000  0.31487000  0.51070000  1.0
  C  C79  1  0.06143000  0.68513000  0.98930000  1.0
  C  C80  1  0.43193000  0.18870000  0.92040000  1.0
  C  C81  1  0.93193000  0.81130000  0.57960000  1.0
  C  C82  1  0.56807000  0.31130000  0.42040000  1.0
  C  C83  1  0.06807000  0.68870000  0.07960000  1.0
  C  C84  1  0.37409000  0.97915000  0.95900000  1.0
  C  C85  1  0.87409000  0.02085000  0.54100000  1.0
  C  C86  1  0.62591000  0.52085000  0.45900000  1.0
  C  C87  1  0.12591000  0.47915000  0.04100000  1.0
  N  N88  1  0.87594000  0.02041000  0.90812000  1.0
  N  N89  1  0.37594000  0.97960000  0.59188000  1.0
  N  N90  1  0.12407000  0.47959000  0.40812000  1.0
  N  N91  1  0.62407000  0.52040000  0.09188000  1.0
  N  N92  1  0.39220000  0.05993000  0.88926000  1.0
  N  N93  1  0.89220000  0.94007000  0.61074000  1.0
  N  N94  1  0.60780000  0.44007000  0.38926000  1.0
  N  N95  1  0.10780000  0.55993000  0.11074000  1.0
  N  N96  1  0.40203000  0.05117000  0.03404000  1.0
  N  N97  1  0.90203000  0.94883000  0.46596000  1.0
  N  N98  1  0.59797000  0.44883000  0.53404000  1.0
  N  N99  1  0.09797000  0.55117000  0.96596000  1.0
  N  N100  1  0.80198000  0.98541000  0.04651000  1.0
  N  N101  1  0.30198000  0.01459000  0.45349000  1.0
  N  N102  1  0.19802000  0.51459000  0.54651000  1.0
  N  N103  1  0.69802000  0.48541000  0.95349000  1.0
  Cl  Cl104  1  0.14240000  0.81783000  0.77918000  1.0
  Cl  Cl105  1  0.64240000  0.18217000  0.72082000  1.0
  Cl  Cl106  1  0.85760000  0.68217000  0.27918000  1.0
  Cl  Cl107  1  0.35760000  0.31783000  0.22082000  1.0
  Cl  Cl108  1  0.62559000  0.80668000  0.76487000  1.0
  Cl  Cl109  1  0.12559000  0.19332000  0.73513000  1.0
  Cl  Cl110  1  0.37441000  0.69332000  0.26487000  1.0
  Cl  Cl111  1  0.87441000  0.30668000  0.23513000  1.0
