# generated using pymatgen
data_Al4H21C25O21F
_symmetry_space_group_name_H-M   'P 1'
_cell_length_a   6.67408000
_cell_length_b   12.58770000
_cell_length_c   17.48660000
_cell_angle_alpha   90.26020000
_cell_angle_beta   90.39550000
_cell_angle_gamma   90.80690000
_symmetry_Int_Tables_number   1
_chemical_formula_structural   Al4H21C25O21F
_chemical_formula_sum   'Al4 H21 C25 O21 F1'
_cell_volume   1468.87581040
_cell_formula_units_Z   1
loop_
 _symmetry_equiv_pos_site_id
 _symmetry_equiv_pos_as_xyz
  1  'x, y, z'
loop_
 _atom_site_type_symbol
 _atom_site_label
 _atom_site_symmetry_multiplicity
 _atom_site_fract_x
 _atom_site_fract_y
 _atom_site_fract_z
 _atom_site_occupancy
  Al  Al0  1  0.11825000  0.50200000  0.50045000  1.0
  Al  Al1  1  0.61781000  0.50196000  0.50168000  1.0
  Al  Al2  1  0.62820000  0.99633000  0.99859000  1.0
  Al  Al3  1  0.12933000  0.99950000  0.00057000  1.0
  H  H4  1  0.57715000  0.20258000  0.81522000  1.0
  H  H5  1  0.03355000  0.18776000  0.79302000  1.0
  H  H6  1  0.56705000  0.29916000  0.69274000  1.0
  H  H7  1  0.02850000  0.30406000  0.70025000  1.0
  H  H8  1  0.16835000  0.31529000  0.30962000  1.0
  H  H9  1  0.70623000  0.29918000  0.29926000  1.0
  H  H10  1  0.72925000  0.19314000  0.20112000  1.0
  H  H11  1  0.50269000  0.76075000  0.81452000  1.0
  H  H12  1  0.06827000  0.68717000  0.69088000  1.0
  H  H13  1  0.52335000  0.73143000  0.69072000  1.0
  H  H14  1  0.07243000  0.81498000  0.19673000  1.0
  H  H15  1  0.52654000  0.77583000  0.18791000  1.0
  H  H16  1  0.06932000  0.68829000  0.30462000  1.0
  H  H17  1  0.52691000  0.72271000  0.31216000  1.0
  H  H18  1  0.86993000  0.82010000  0.69737000  1.0
  H  H19  1  0.97231000  0.94529000  0.72987000  1.0
  H  H20  1  0.75654000  0.88959000  0.77600000  1.0
  H  H21  1  0.36482000  0.36869000  0.52761000  1.0
  H  H22  1  0.86943000  0.63480000  0.47425000  1.0
  H  H23  1  0.38633000  0.13009000  0.02895000  1.0
  H  H24  1  0.88167000  0.86838000  0.96806000  1.0
  C  C25  1  0.37415000  0.62996000  0.60531000  1.0
  C  C26  1  0.36819000  0.62477000  0.39467000  1.0
  C  C27  1  0.86098000  0.37891000  0.39425000  1.0
  C  C28  1  0.86829000  0.38156000  0.60882000  1.0
  C  C29  1  0.71922000  0.21805000  0.78628000  1.0
  C  C30  1  0.88579000  0.17749000  0.81851000  1.0
  C  C31  1  0.71433000  0.28003000  0.71635000  1.0
  C  C32  1  0.87696000  0.31750000  0.67903000  1.0
  C  C33  1  0.02402000  0.29137000  0.28449000  1.0
  C  C34  1  0.85562000  0.31824000  0.32148000  1.0
  C  C35  1  0.03207000  0.23282000  0.21293000  1.0
  C  C36  1  0.87651000  0.18600000  0.17534000  1.0
  C  C37  1  0.20002000  0.78252000  0.78402000  1.0
  C  C38  1  0.36307000  0.79840000  0.83039000  1.0
  C  C39  1  0.20918000  0.72073000  0.71312000  1.0
  C  C40  1  0.37659000  0.70000000  0.67358000  1.0
  C  C41  1  0.21551000  0.78362000  0.21665000  1.0
  C  C42  1  0.37886000  0.80719000  0.17453000  1.0
  C  C43  1  0.21432000  0.71861000  0.28491000  1.0
  C  C44  1  0.37747000  0.69366000  0.32693000  1.0
  C  C45  1  0.37060000  0.87676000  0.10656000  1.0
  C  C46  1  0.37373000  0.86869000  0.89732000  1.0
  C  C47  1  0.88441000  0.11603000  0.89054000  1.0
  C  C48  1  0.87956000  0.12251000  0.10463000  1.0
  C  C49  1  0.89803000  0.87096000  0.74786000  1.0
  O  O50  1  0.53696000  0.60106000  0.42476000  1.0
  O  O51  1  0.20455000  0.60500000  0.57600000  1.0
  O  O52  1  0.03861000  0.41017000  0.58215000  1.0
  O  O53  1  0.19705000  0.59388000  0.41877000  1.0
  O  O54  1  0.03147000  0.39965000  0.42441000  1.0
  O  O55  1  0.54554000  0.60096000  0.58161000  1.0
  O  O56  1  0.36644000  0.43715000  0.50254000  1.0
  O  O57  1  0.69047000  0.40526000  0.42030000  1.0
  O  O58  1  0.69830000  0.40418000  0.57969000  1.0
  O  O59  1  0.86962000  0.56643000  0.49948000  1.0
  O  O60  1  0.21331000  0.89191000  0.93210000  1.0
  O  O61  1  0.53762000  0.89292000  0.07295000  1.0
  O  O62  1  0.70803000  0.08730000  0.08244000  1.0
  O  O63  1  0.54945000  0.90312000  0.91601000  1.0
  O  O64  1  0.71697000  0.09917000  0.92324000  1.0
  O  O65  1  0.20110000  0.91389000  0.08736000  1.0
  O  O66  1  0.38184000  0.06433000  0.99982000  1.0
  O  O67  1  0.05626000  0.08560000  0.91349000  1.0
  O  O68  1  0.04528000  0.10610000  0.07114000  1.0
  O  O69  1  0.87766000  0.93268000  0.99886000  1.0
  O  O70  1  0.01746000  0.81957000  0.80508000  1.0
  F  F71  1  0.22200000  0.22740000  0.18555000  1.0
