# generated using pymatgen
data_ZnH6C9N5Cl
_symmetry_space_group_name_H-M   'P 1'
_cell_length_a   8.91518000
_cell_length_b   11.18140000
_cell_length_c   11.31910000
_cell_angle_alpha   95.10680000
_cell_angle_beta   108.19500000
_cell_angle_gamma   92.03460000
_symmetry_Int_Tables_number   1
_chemical_formula_structural   ZnH6C9N5Cl
_chemical_formula_sum   'Zn4 H24 C36 N20 Cl4'
_cell_volume   1065.27133737
_cell_formula_units_Z   4
loop_
 _symmetry_equiv_pos_site_id
 _symmetry_equiv_pos_as_xyz
  1  'x, y, z'
loop_
 _atom_site_type_symbol
 _atom_site_label
 _atom_site_symmetry_multiplicity
 _atom_site_fract_x
 _atom_site_fract_y
 _atom_site_fract_z
 _atom_site_occupancy
  Zn  Zn0  1  0.31037000  0.80540000  0.14859000  1.0
  Zn  Zn1  1  0.68963000  0.19461000  0.85141000  1.0
  Zn  Zn2  1  0.32992000  0.31072000  0.34345000  1.0
  Zn  Zn3  1  0.67008000  0.68928000  0.65655000  1.0
  H  H4  1  0.06475000  0.87721000  0.89631000  1.0
  H  H5  1  0.93525000  0.12279000  0.10369000  1.0
  H  H6  1  0.00568000  0.83355000  0.66802000  1.0
  H  H7  1  0.99432000  0.16645000  0.33198000  1.0
  H  H8  1  0.14108000  0.95818000  0.55382000  1.0
  H  H9  1  0.85893000  0.04182000  0.44618000  1.0
  H  H10  1  0.39717000  0.16887000  0.90207000  1.0
  H  H11  1  0.60283000  0.83113000  0.09793000  1.0
  H  H12  1  0.19540000  0.82101000  0.37316000  1.0
  H  H13  1  0.80460000  0.17899000  0.62684000  1.0
  H  H14  1  0.97836000  0.72125000  0.43299000  1.0
  H  H15  1  0.02164000  0.27875000  0.56701000  1.0
  H  H16  1  0.79901000  0.54797000  0.05478000  1.0
  H  H17  1  0.20099000  0.45203000  0.94522000  1.0
  H  H18  1  0.02200000  0.65569000  0.00927000  1.0
  H  H19  1  0.97799000  0.34431000  0.99073000  1.0
  H  H20  1  0.56227000  0.57704000  0.10183000  1.0
  H  H21  1  0.43773000  0.42296000  0.89817000  1.0
  H  H22  1  0.35926000  0.45235000  0.15228000  1.0
  H  H23  1  0.64074000  0.54765000  0.84771000  1.0
  H  H24  1  0.88590000  0.52380000  0.46531000  1.0
  H  H25  1  0.11410000  0.47619000  0.53469000  1.0
  H  H26  1  0.67143000  0.39778000  0.49890000  1.0
  H  H27  1  0.32856000  0.60222000  0.50110000  1.0
  C  C28  1  0.23584000  0.02570000  0.91322000  1.0
  C  C29  1  0.76416000  0.97430000  0.08678000  1.0
  C  C30  1  0.12593000  0.93098000  0.84757000  1.0
  C  C31  1  0.87407000  0.06901000  0.15243000  1.0
  C  C32  1  0.09241000  0.90645000  0.71853000  1.0
  C  C33  1  0.90759000  0.09354000  0.28147000  1.0
  C  C34  1  0.16821000  0.97555000  0.65488000  1.0
  C  C35  1  0.83179000  0.02444000  0.34512000  1.0
  C  C36  1  0.28016000  0.06965000  0.72034000  1.0
  C  C37  1  0.71984000  0.93035000  0.27966000  1.0
  C  C38  1  0.31333000  0.09463000  0.84952000  1.0
  C  C39  1  0.68668000  0.90537000  0.15048000  1.0
  C  C40  1  0.26868000  0.05918000  0.04726000  1.0
  C  C41  1  0.73132000  0.94082000  0.95274000  1.0
  C  C42  1  0.35364000  0.14487000  0.65172000  1.0
  C  C43  1  0.64636000  0.85513000  0.34828000  1.0
  C  C44  1  0.10480000  0.75973000  0.30574000  1.0
  C  C45  1  0.89520000  0.24027000  0.69426000  1.0
  C  C46  1  0.98478000  0.70332000  0.33852000  1.0
  C  C47  1  0.01522000  0.29668000  0.66148000  1.0
  C  C48  1  0.87104000  0.62534000  0.24803000  1.0
  C  C49  1  0.12896000  0.37466000  0.75197000  1.0
  C  C50  1  0.88213000  0.61024000  0.12691000  1.0
  C  C51  1  0.11787000  0.38976000  0.87309000  1.0
  C  C52  1  0.00694000  0.66823000  0.10157000  1.0
  C  C53  1  0.99306000  0.33177000  0.89842000  1.0
  C  C54  1  0.74507000  0.55736000  0.27754000  1.0
  C  C55  1  0.25493000  0.44264000  0.72246000  1.0
  C  C56  1  0.59371000  0.53697000  0.18983000  1.0
  C  C57  1  0.40629000  0.46303000  0.81017000  1.0
  C  C58  1  0.47896000  0.46843000  0.21750000  1.0
  C  C59  1  0.52104000  0.53157000  0.78250000  1.0
  C  C60  1  0.77263000  0.50837000  0.39161000  1.0
  C  C61  1  0.22737000  0.49162000  0.60838000  1.0
  C  C62  1  0.65301000  0.43839000  0.41176000  1.0
  C  C63  1  0.34699000  0.56161000  0.58824000  1.0
  N  N64  1  0.28929000  0.98319000  0.13740000  1.0
  N  N65  1  0.71071000  0.01681000  0.86260000  1.0
  N  N66  1  0.31765000  0.05111000  0.24679000  1.0
  N  N67  1  0.68236000  0.94889000  0.75321000  1.0
  N  N68  1  0.31359000  0.16371000  0.22142000  1.0
  N  N69  1  0.68641000  0.83630000  0.77858000  1.0
  N  N70  1  0.28373000  0.17332000  0.09902000  1.0
  N  N71  1  0.71628000  0.82668000  0.90098000  1.0
  N  N72  1  0.50181000  0.20022000  0.69373000  1.0
  N  N73  1  0.49819000  0.79978000  0.30627000  1.0
  N  N74  1  0.51849000  0.26307000  0.60275000  1.0
  N  N75  1  0.48151000  0.73693000  0.39725000  1.0
  N  N76  1  0.38411000  0.24524000  0.50998000  1.0
  N  N77  1  0.61589000  0.75476000  0.49002000  1.0
  N  N78  1  0.27859000  0.17262000  0.53609000  1.0
  N  N79  1  0.72141000  0.82738000  0.46391000  1.0
  N  N80  1  0.11776000  0.74080000  0.18997000  1.0
  N  N81  1  0.88224000  0.25920000  0.81003000  1.0
  N  N82  1  0.50832000  0.41802000  0.32561000  1.0
  N  N83  1  0.49168000  0.58198000  0.67438000  1.0
  Cl  Cl84  1  0.32669000  0.69713000  0.98027000  1.0
  Cl  Cl85  1  0.67331000  0.30288000  0.01973000  1.0
  Cl  Cl86  1  0.10553000  0.39996000  0.28373000  1.0
  Cl  Cl87  1  0.89447000  0.60004000  0.71628000  1.0
