# generated using pymatgen
data_CdH15C20(NO2)2
_symmetry_space_group_name_H-M   'P 1'
_cell_length_a   8.24171000
_cell_length_b   10.44190000
_cell_length_c   13.51210000
_cell_angle_alpha   104.39900000
_cell_angle_beta   106.62500000
_cell_angle_gamma   92.26520000
_symmetry_Int_Tables_number   1
_chemical_formula_structural   CdH15C20(NO2)2
_chemical_formula_sum   'Cd2 H30 C40 N4 O8'
_cell_volume   1071.52880338
_cell_formula_units_Z   2
loop_
 _symmetry_equiv_pos_site_id
 _symmetry_equiv_pos_as_xyz
  1  'x, y, z'
loop_
 _atom_site_type_symbol
 _atom_site_label
 _atom_site_symmetry_multiplicity
 _atom_site_fract_x
 _atom_site_fract_y
 _atom_site_fract_z
 _atom_site_occupancy
  Cd  Cd0  1  0.16754000  0.59284000  0.05891000  1.0
  Cd  Cd1  1  0.83246000  0.40716000  0.94108000  1.0
  H  H2  1  0.62833000  0.06597000  0.33176000  1.0
  H  H3  1  0.37166000  0.93403000  0.66825000  1.0
  H  H4  1  0.77039000  0.04023000  0.25425000  1.0
  H  H5  1  0.22962000  0.95978000  0.74576000  1.0
  H  H6  1  0.05914000  0.07638000  0.35240000  1.0
  H  H7  1  0.94086000  0.92362000  0.64761000  1.0
  H  H8  1  0.14218000  0.63360000  0.38393000  1.0
  H  H9  1  0.85782000  0.36638000  0.61606000  1.0
  H  H10  1  0.51810000  0.27732000  0.05929000  1.0
  H  H11  1  0.48190000  0.72267000  0.94071000  1.0
  H  H12  1  0.79361000  0.18271000  0.08075000  1.0
  H  H13  1  0.20639000  0.81730000  0.91926000  1.0
  H  H14  1  0.33808000  0.97426000  0.30973000  1.0
  H  H15  1  0.66193000  0.02574000  0.69028000  1.0
  H  H16  1  0.20176000  0.88442000  0.18051000  1.0
  H  H17  1  0.79824000  0.11558000  0.81949000  1.0
  H  H18  1  0.35055000  0.01914000  0.19278000  1.0
  H  H19  1  0.64945000  0.98086000  0.80722000  1.0
  H  H20  1  0.04744000  0.01641000  0.93187000  1.0
  H  H21  1  0.95257000  0.98360000  0.06813000  1.0
  H  H22  1  0.26304000  0.70911000  0.58319000  1.0
  H  H23  1  0.73695000  0.29089000  0.41680000  1.0
  H  H24  1  0.73424000  0.31342000  0.23655000  1.0
  H  H25  1  0.26574000  0.68657000  0.76344000  1.0
  H  H26  1  0.84119000  0.75342000  0.24978000  1.0
  H  H27  1  0.15882000  0.24659000  0.75023000  1.0
  H  H28  1  0.70272000  0.92297000  0.48557000  1.0
  H  H29  1  0.29728000  0.07703000  0.51444000  1.0
  H  H30  1  0.57674000  0.55081000  0.13274000  1.0
  H  H31  1  0.42326000  0.44920000  0.86725000  1.0
  C  C32  1  0.72157000  0.00115000  0.30998000  1.0
  C  C33  1  0.27843000  0.99885000  0.69002000  1.0
  C  C34  1  0.03336000  0.04279000  0.41725000  1.0
  C  C35  1  0.96664000  0.95722000  0.58276000  1.0
  C  C36  1  0.05820000  0.54974000  0.49562000  1.0
  C  C37  1  0.94180000  0.45024000  0.50437000  1.0
  C  C38  1  0.05416000  0.55931000  0.39250000  1.0
  C  C39  1  0.94583000  0.44068000  0.60749000  1.0
  C  C40  1  0.45098000  0.17669000  0.02906000  1.0
  C  C41  1  0.54902000  0.82330000  0.97094000  1.0
  C  C42  1  0.93999000  0.47519000  0.30085000  1.0
  C  C43  1  0.06001000  0.52479000  0.69913000  1.0
  C  C44  1  0.86527000  0.00054000  0.40843000  1.0
  C  C45  1  0.13472000  0.99946000  0.59158000  1.0
  C  C46  1  0.72620000  0.08210000  0.05189000  1.0
  C  C47  1  0.27381000  0.91791000  0.94812000  1.0
  C  C48  1  0.33087000  0.93475000  0.22482000  1.0
  C  C49  1  0.66913000  0.06525000  0.77518000  1.0
  C  C50  1  0.27455000  0.15843000  0.99665000  1.0
  C  C51  1  0.72546000  0.84157000  0.00336000  1.0
  C  C52  1  0.18614000  0.02762000  0.95569000  1.0
  C  C53  1  0.81386000  0.97240000  0.04433000  1.0
  C  C54  1  0.17427000  0.63457000  0.59090000  1.0
  C  C55  1  0.82572000  0.36543000  0.40909000  1.0
  C  C56  1  0.54504000  0.06608000  0.02068000  1.0
  C  C57  1  0.45497000  0.93392000  0.97933000  1.0
  C  C58  1  0.82393000  0.37759000  0.30969000  1.0
  C  C59  1  0.17605000  0.62240000  0.69030000  1.0
  C  C60  1  0.17585000  0.27643000  0.00236000  1.0
  C  C61  1  0.82417000  0.72358000  0.99764000  1.0
  C  C62  1  0.45630000  0.83837000  0.21205000  1.0
  C  C63  1  0.54370000  0.16163000  0.78795000  1.0
  C  C64  1  0.94201000  0.48712000  0.19266000  1.0
  C  C65  1  0.05798000  0.51285000  0.80733000  1.0
  C  C66  1  0.70408000  0.75379000  0.22658000  1.0
  C  C67  1  0.29594000  0.24622000  0.77342000  1.0
  C  C68  1  0.83320000  0.95762000  0.49205000  1.0
  C  C69  1  0.16680000  0.04239000  0.50796000  1.0
  C  C70  1  0.57243000  0.65508000  0.16894000  1.0
  C  C71  1  0.42758000  0.34493000  0.83106000  1.0
  N  N72  1  0.62916000  0.86858000  0.25359000  1.0
  N  N73  1  0.37083000  0.13143000  0.74642000  1.0
  N  N74  1  0.41986000  0.70876000  0.16029000  1.0
  N  N75  1  0.58015000  0.29125000  0.83970000  1.0
  O  O76  1  0.26098000  0.39083000  0.04690000  1.0
  O  O77  1  0.73903000  0.60918000  0.95310000  1.0
  O  O78  1  0.01433000  0.25109000  0.96126000  1.0
  O  O79  1  0.98568000  0.74892000  0.03875000  1.0
  O  O80  1  0.82770000  0.41307000  0.11075000  1.0
  O  O81  1  0.17229000  0.58693000  0.88923000  1.0
  O  O82  1  0.05755000  0.57067000  0.19178000  1.0
  O  O83  1  0.94243000  0.42932000  0.80822000  1.0
