# generated using pymatgen
data_Zr3H8C20(N3O8)2
_symmetry_space_group_name_H-M   'P 1'
_cell_length_a   15.47810000
_cell_length_b   18.97140000
_cell_length_c   18.98180000
_cell_angle_alpha   88.77640000
_cell_angle_beta   89.85500000
_cell_angle_gamma   89.89490000
_symmetry_Int_Tables_number   1
_chemical_formula_structural   Zr3H8C20(N3O8)2
_chemical_formula_sum   'Zr6 H16 C40 N12 O32'
_cell_volume   5572.54136166
_cell_formula_units_Z   2
loop_
 _symmetry_equiv_pos_site_id
 _symmetry_equiv_pos_as_xyz
  1  'x, y, z'
loop_
 _atom_site_type_symbol
 _atom_site_label
 _atom_site_symmetry_multiplicity
 _atom_site_fract_x
 _atom_site_fract_y
 _atom_site_fract_z
 _atom_site_occupancy
  Zr  Zr0  1  0.99352000  0.09975000  0.01016000  1.0
  Zr  Zr1  1  0.99678000  0.96055000  0.88632000  1.0
  Zr  Zr2  1  0.99659000  0.97307000  0.15156000  1.0
  Zr  Zr3  1  0.99365000  0.83452000  0.02801000  1.0
  Zr  Zr4  1  0.83388000  0.96748000  0.01926000  1.0
  Zr  Zr5  1  0.15678000  0.96713000  0.01919000  1.0
  H  H6  1  0.11352000  0.07794000  0.90847000  1.0
  H  H7  1  0.87336000  0.85679000  0.91492000  1.0
  H  H8  1  0.11280000  0.85607000  0.13042000  1.0
  H  H9  1  0.87692000  0.07648000  0.12669000  1.0
  H  H10  1  0.94219000  0.86946000  0.78588000  1.0
  H  H11  1  0.05198000  0.73228000  0.94342000  1.0
  H  H12  1  0.96146000  0.73214000  0.12183000  1.0
  H  H13  1  0.03825000  0.89928000  0.27748000  1.0
  H  H14  1  0.02887000  0.06668000  0.25000000  1.0
  H  H15  1  0.94834000  0.22407000  0.07935000  1.0
  H  H16  1  0.95978000  0.20068000  0.91542000  1.0
  H  H17  1  0.04487000  0.03245000  0.76496000  1.0
  H  H18  1  0.93830000  0.89272000  0.26043000  1.0
  H  H19  1  0.04840000  0.20788000  0.08832000  1.0
  H  H20  1  0.94410000  0.04313000  0.77502000  1.0
  H  H21  1  0.95517000  0.70922000  0.95727000  1.0
  C  C22  1  0.49381000  0.36008000  0.02006000  1.0
  C  C23  1  0.42165000  0.25650000  0.02539000  1.0
  C  C24  1  0.56784000  0.25732000  0.01719000  1.0
  C  C25  1  0.49541000  0.57444000  0.01843000  1.0
  C  C26  1  0.56962000  0.67678000  0.02260000  1.0
  C  C27  1  0.42361000  0.67841000  0.01315000  1.0
  C  C28  1  0.49673000  0.97010000  0.62624000  1.0
  C  C29  1  0.42285000  0.97004000  0.72922000  1.0
  C  C30  1  0.56914000  0.97607000  0.72924000  1.0
  C  C31  1  0.49486000  0.96503000  0.41219000  1.0
  C  C32  1  0.42013000  0.96581000  0.30999000  1.0
  C  C33  1  0.56641000  0.95885000  0.30843000  1.0
  C  C34  1  0.78313000  0.13315000  0.00960000  1.0
  C  C35  1  0.20828000  0.96417000  0.85454000  1.0
  C  C36  1  0.78224000  0.97677000  0.85538000  1.0
  C  C37  1  0.20795000  0.13064000  0.02813000  1.0
  C  C38  1  0.20582000  0.97226000  0.18518000  1.0
  C  C39  1  0.78394000  0.80143000  0.02930000  1.0
  C  C40  1  0.20886000  0.80374000  0.01048000  1.0
  C  C41  1  0.78079000  0.95673000  0.18263000  1.0
  C  C42  1  0.27694000  0.97108000  0.23475000  1.0
  C  C43  1  0.34078000  0.96875000  0.27182000  1.0
  C  C44  1  0.64479000  0.95517000  0.26888000  1.0
  C  C45  1  0.70861000  0.95378000  0.23154000  1.0
  C  C46  1  0.34389000  0.96751000  0.76804000  1.0
  C  C47  1  0.28009000  0.96536000  0.80539000  1.0
  C  C48  1  0.64763000  0.97932000  0.76836000  1.0
  C  C49  1  0.71071000  0.98029000  0.80629000  1.0
  C  C50  1  0.49685000  0.96825000  0.55116000  1.0
  C  C51  1  0.49599000  0.96684000  0.48725000  1.0
  C  C52  1  0.28107000  0.75500000  0.00747000  1.0
  C  C53  1  0.34515000  0.71791000  0.00901000  1.0
  C  C54  1  0.64880000  0.71497000  0.02699000  1.0
  C  C55  1  0.71263000  0.75198000  0.02958000  1.0
  C  C56  1  0.34315000  0.21723000  0.02927000  1.0
  C  C57  1  0.27956000  0.17976000  0.03079000  1.0
  C  C58  1  0.71145000  0.18240000  0.01043000  1.0
  C  C59  1  0.64708000  0.21897000  0.01324000  1.0
  C  C60  1  0.49354000  0.43527000  0.01932000  1.0
  C  C61  1  0.49442000  0.49927000  0.01885000  1.0
  N  N62  1  0.41659000  0.32752000  0.02478000  1.0
  N  N63  1  0.49517000  0.21844000  0.02194000  1.0
  N  N64  1  0.57167000  0.32831000  0.01600000  1.0
  N  N65  1  0.57328000  0.60575000  0.02352000  1.0
  N  N66  1  0.49716000  0.71604000  0.01759000  1.0
  N  N67  1  0.41842000  0.60746000  0.01303000  1.0
  N  N68  1  0.41895000  0.96776000  0.65835000  1.0
  N  N69  1  0.49576000  0.97445000  0.76760000  1.0
  N  N70  1  0.57417000  0.97409000  0.65837000  1.0
  N  N71  1  0.41675000  0.96807000  0.38088000  1.0
  N  N72  1  0.49263000  0.96111000  0.27083000  1.0
  N  N73  1  0.57190000  0.96048000  0.37928000  1.0
  O  O74  1  0.85953000  0.15806000  0.00793000  1.0
  O  O75  1  0.76137000  0.06860000  0.01151000  1.0
  O  O76  1  0.13230000  0.96592000  0.82956000  1.0
  O  O77  1  0.22997000  0.96215000  0.91921000  1.0
  O  O78  1  0.85841000  0.98359000  0.83110000  1.0
  O  O79  1  0.76056000  0.96468000  0.91929000  1.0
  O  O80  1  0.13180000  0.15408000  0.03592000  1.0
  O  O81  1  0.23000000  0.06723000  0.01614000  1.0
  O  O82  1  0.00749000  0.17213000  0.93285000  1.0
  O  O83  1  0.99000000  0.18846000  0.09503000  1.0
  O  O84  1  0.00054000  0.04913000  0.79741000  1.0
  O  O85  1  0.98994000  0.88878000  0.81195000  1.0
  O  O86  1  0.92522000  0.02135000  0.96052000  1.0
  O  O87  1  0.08408000  0.04415000  0.93931000  1.0
  O  O88  1  0.12916000  0.97311000  0.20993000  1.0
  O  O89  1  0.22822000  0.97162000  0.12082000  1.0
  O  O90  1  0.86049000  0.77654000  0.03056000  1.0
  O  O91  1  0.76180000  0.86596000  0.02652000  1.0
  O  O92  1  0.13306000  0.78033000  0.00162000  1.0
  O  O93  1  0.23001000  0.86692000  0.02407000  1.0
  O  O94  1  0.85657000  0.94782000  0.20641000  1.0
  O  O95  1  0.75968000  0.97014000  0.11881000  1.0
  O  O96  1  0.99690000  0.88570000  0.24159000  1.0
  O  O97  1  0.98176000  0.04952000  0.22153000  1.0
  O  O98  1  0.00859000  0.76127000  0.10435000  1.0
  O  O99  1  0.99142000  0.74804000  0.94038000  1.0
  O  O100  1  0.08308000  0.89033000  0.10030000  1.0
  O  O101  1  0.92464000  0.91266000  0.07700000  1.0
  O  O102  1  0.06514000  0.02347000  0.07269000  1.0
  O  O103  1  0.90699000  0.88725000  0.94469000  1.0
  O  O104  1  0.90647000  0.04671000  0.09317000  1.0
  O  O105  1  0.06538000  0.91054000  0.96563000  1.0
