# generated using pymatgen
data_CdH18C21(NO2)2
_symmetry_space_group_name_H-M   'P 1'
_cell_length_a   6.90657000
_cell_length_b   11.86560000
_cell_length_c   13.20940000
_cell_angle_alpha   91.77390000
_cell_angle_beta   89.99910000
_cell_angle_gamma   89.99950000
_symmetry_Int_Tables_number   1
_chemical_formula_structural   CdH18C21(NO2)2
_chemical_formula_sum   'Cd2 H36 C42 N4 O8'
_cell_volume   1081.99943536
_cell_formula_units_Z   2
loop_
 _symmetry_equiv_pos_site_id
 _symmetry_equiv_pos_as_xyz
  1  'x, y, z'
loop_
 _atom_site_type_symbol
 _atom_site_label
 _atom_site_symmetry_multiplicity
 _atom_site_fract_x
 _atom_site_fract_y
 _atom_site_fract_z
 _atom_site_occupancy
  Cd  Cd0  1  0.74966000  0.81158000  0.65258000  1.0
  Cd  Cd1  1  0.24967000  0.18842000  0.34742000  1.0
  H  H2  1  0.73284000  0.62882000  0.46082000  1.0
  H  H3  1  0.23285000  0.37119000  0.53917000  1.0
  H  H4  1  0.76077000  0.62372000  0.27120000  1.0
  H  H5  1  0.26077000  0.37628000  0.72880000  1.0
  H  H6  1  0.79039000  0.80692000  0.18259000  1.0
  H  H7  1  0.29040000  0.19308000  0.81740000  1.0
  H  H8  1  0.79749000  0.98646000  0.28458000  1.0
  H  H9  1  0.29749000  0.01355000  0.71541000  1.0
  H  H10  1  0.73166000  0.12117000  0.37082000  1.0
  H  H11  1  0.23166000  0.87883000  0.62918000  1.0
  H  H12  1  0.73801000  0.29140000  0.48339000  1.0
  H  H13  1  0.23800000  0.70859000  0.51662000  1.0
  H  H14  1  0.77855000  0.26696000  0.67283000  1.0
  H  H15  1  0.27854000  0.73303000  0.32717000  1.0
  H  H16  1  0.79641000  0.07018000  0.73634000  1.0
  H  H17  1  0.29640000  0.92981000  0.26366000  1.0
  H  H18  1  0.24545000  0.40866000  0.99437000  1.0
  H  H19  1  0.74545000  0.59133000  0.00563000  1.0
  H  H20  1  0.16496000  0.20856000  0.02378000  1.0
  H  H21  1  0.66495000  0.79144000  0.97621000  1.0
  H  H22  1  0.86585000  0.12374000  0.94768000  1.0
  H  H23  1  0.36583000  0.87625000  0.05231000  1.0
  H  H24  1  0.64712000  0.24212000  0.84489000  1.0
  H  H25  1  0.14709000  0.75788000  0.15510000  1.0
  H  H26  1  0.73048000  0.44262000  0.81528000  1.0
  H  H27  1  0.23045000  0.55738000  0.18472000  1.0
  H  H28  1  0.05933000  0.60448000  0.96218000  1.0
  H  H29  1  0.55932000  0.39552000  0.03782000  1.0
  H  H30  1  0.91735000  0.60126000  0.85042000  1.0
  H  H31  1  0.41735000  0.39874000  0.14959000  1.0
  H  H32  1  0.21344000  0.54245000  0.75002000  1.0
  H  H33  1  0.71343000  0.45756000  0.24998000  1.0
  H  H34  1  0.35356000  0.55003000  0.86318000  1.0
  H  H35  1  0.85355000  0.44998000  0.13682000  1.0
  H  H36  1  0.25673000  0.75585000  0.88410000  1.0
  H  H37  1  0.75676000  0.24415000  0.11590000  1.0
  C  C38  1  0.74641000  0.70620000  0.41877000  1.0
  C  C39  1  0.24642000  0.29380000  0.58123000  1.0
  C  C40  1  0.76216000  0.70371000  0.31361000  1.0
  C  C41  1  0.26217000  0.29629000  0.68639000  1.0
  C  C42  1  0.77925000  0.80577000  0.26484000  1.0
  C  C43  1  0.27925000  0.19423000  0.73516000  1.0
  C  C44  1  0.78012000  0.90639000  0.32191000  1.0
  C  C45  1  0.28013000  0.09362000  0.67809000  1.0
  C  C46  1  0.76217000  0.90217000  0.42755000  1.0
  C  C47  1  0.26217000  0.09783000  0.57244000  1.0
  C  C48  1  0.76179000  0.00627000  0.49298000  1.0
  C  C49  1  0.26178000  0.99373000  0.50702000  1.0
  C  C50  1  0.74693000  0.11306000  0.45196000  1.0
  C  C51  1  0.24693000  0.88695000  0.54805000  1.0
  C  C52  1  0.75126000  0.20849000  0.51595000  1.0
  C  C53  1  0.25126000  0.79151000  0.48406000  1.0
  C  C54  1  0.77117000  0.19502000  0.61985000  1.0
  C  C55  1  0.27117000  0.80498000  0.38015000  1.0
  C  C56  1  0.78181000  0.08589000  0.65575000  1.0
  C  C57  1  0.28180000  0.91411000  0.34425000  1.0
  C  C58  1  0.11581000  0.37151000  0.96022000  1.0
  C  C59  1  0.61581000  0.62849000  0.03977000  1.0
  C  C60  1  0.07087000  0.25883000  0.97646000  1.0
  C  C61  1  0.57086000  0.74116000  0.02354000  1.0
  C  C62  1  0.90250000  0.21142000  0.93431000  1.0
  C  C63  1  0.40248000  0.78858000  0.06569000  1.0
  C  C64  1  0.78047000  0.27783000  0.87655000  1.0
  C  C65  1  0.28045000  0.72217000  0.12344000  1.0
  C  C66  1  0.82664000  0.39059000  0.86012000  1.0
  C  C67  1  0.32661000  0.60941000  0.13987000  1.0
  C  C68  1  0.99471000  0.43914000  0.90208000  1.0
  C  C69  1  0.49469000  0.56086000  0.09792000  1.0
  C  C70  1  0.04141000  0.56152000  0.88754000  1.0
  C  C71  1  0.54140000  0.43848000  0.11246000  1.0
  C  C72  1  0.22470000  0.58345000  0.82545000  1.0
  C  C73  1  0.72469000  0.41656000  0.17455000  1.0
  C  C74  1  0.24967000  0.70988000  0.81090000  1.0
  C  C75  1  0.74968000  0.29013000  0.18911000  1.0
  C  C76  1  0.43099000  0.74134000  0.75180000  1.0
  C  C77  1  0.93101000  0.25867000  0.24820000  1.0
  C  C78  1  0.07449000  0.75613000  0.75412000  1.0
  C  C79  1  0.57451000  0.24387000  0.24588000  1.0
  N  N80  1  0.74622000  0.80283000  0.47415000  1.0
  N  N81  1  0.24622000  0.19717000  0.52585000  1.0
  N  N82  1  0.77593000  0.99423000  0.59398000  1.0
  N  N83  1  0.27593000  0.00577000  0.40602000  1.0
  O  O84  1  0.52202000  0.66737000  0.69913000  1.0
  O  O85  1  0.02203000  0.33265000  0.30088000  1.0
  O  O86  1  0.48177000  0.84552000  0.75640000  1.0
  O  O87  1  0.98178000  0.15449000  0.24361000  1.0
  O  O88  1  0.99245000  0.84606000  0.78593000  1.0
  O  O89  1  0.49247000  0.15394000  0.21407000  1.0
  O  O90  1  0.01768000  0.69960000  0.67518000  1.0
  O  O91  1  0.51768000  0.30040000  0.32482000  1.0
