# generated using pymatgen
data_Ag4Mo4H6C10N12O13
_symmetry_space_group_name_H-M   'P 1'
_cell_length_a   9.72017000
_cell_length_b   10.14940000
_cell_length_c   13.14660000
_cell_angle_alpha   102.07200000
_cell_angle_beta   93.79380000
_cell_angle_gamma   111.18300000
_symmetry_Int_Tables_number   1
_chemical_formula_structural   Ag4Mo4H6C10N12O13
_chemical_formula_sum   'Ag8 Mo8 H12 C20 N24 O26'
_cell_volume   1168.20993028
_cell_formula_units_Z   2
loop_
 _symmetry_equiv_pos_site_id
 _symmetry_equiv_pos_as_xyz
  1  'x, y, z'
loop_
 _atom_site_type_symbol
 _atom_site_label
 _atom_site_symmetry_multiplicity
 _atom_site_fract_x
 _atom_site_fract_y
 _atom_site_fract_z
 _atom_site_occupancy
  Ag  Ag0  1  0.29100000  0.26623000  0.28444000  1.0
  Ag  Ag1  1  0.70901000  0.73377000  0.71556000  1.0
  Ag  Ag2  1  0.36934000  0.85191000  0.76215000  1.0
  Ag  Ag3  1  0.63066000  0.14810000  0.23785000  1.0
  Ag  Ag4  1  0.92748000  0.51431000  0.67307000  1.0
  Ag  Ag5  1  0.07252000  0.48569000  0.32694000  1.0
  Ag  Ag6  1  0.74105000  0.60103000  0.37045000  1.0
  Ag  Ag7  1  0.25895000  0.39897000  0.62955000  1.0
  Mo  Mo8  1  0.43539000  0.52745000  0.12005000  1.0
  Mo  Mo9  1  0.56461000  0.47255000  0.87995000  1.0
  Mo  Mo10  1  0.21690000  0.57715000  0.92271000  1.0
  Mo  Mo11  1  0.78310000  0.42285000  0.07729000  1.0
  Mo  Mo12  1  0.09177000  0.28664000  0.03516000  1.0
  Mo  Mo13  1  0.90822000  0.71336000  0.96484000  1.0
  Mo  Mo14  1  0.56542000  0.80684000  0.99377000  1.0
  Mo  Mo15  1  0.43458000  0.19316000  0.00622000  1.0
  H  H16  1  0.91073000  0.30087000  0.82160000  1.0
  H  H17  1  0.08927000  0.69913000  0.17840000  1.0
  H  H18  1  0.72163000  0.07116000  0.85084000  1.0
  H  H19  1  0.27837000  0.92884000  0.14916000  1.0
  H  H20  1  0.42134000  0.05691000  0.60474000  1.0
  H  H21  1  0.57866000  0.94309000  0.39526000  1.0
  H  H22  1  0.75868000  0.81157000  0.22000000  1.0
  H  H23  1  0.24132000  0.18843000  0.78000000  1.0
  H  H24  1  0.94604000  0.04263000  0.19137000  1.0
  H  H25  1  0.05396000  0.95737000  0.80863000  1.0
  H  H26  1  0.24483000  0.06360000  0.44148000  1.0
  H  H27  1  0.75517000  0.93640000  0.55852000  1.0
  C  C28  1  0.63592000  0.23877000  0.63547000  1.0
  C  C29  1  0.36408000  0.76123000  0.36453000  1.0
  C  C30  1  0.80113000  0.24709000  0.77296000  1.0
  C  C31  1  0.19887000  0.75291000  0.22705000  1.0
  C  C32  1  0.69657000  0.11975000  0.78936000  1.0
  C  C33  1  0.30343000  0.88025000  0.21065000  1.0
  C  C34  1  0.53148000  0.11166000  0.65304000  1.0
  C  C35  1  0.46853000  0.88834000  0.34696000  1.0
  C  C36  1  0.59958000  0.29751000  0.55007000  1.0
  C  C37  1  0.40042000  0.70249000  0.44994000  1.0
  C  C38  1  0.03220000  0.87814000  0.40878000  1.0
  C  C39  1  0.96780000  0.12186000  0.59122000  1.0
  C  C40  1  0.86761000  0.86671000  0.26951000  1.0
  C  C41  1  0.13239000  0.13329000  0.73049000  1.0
  C  C42  1  0.97130000  0.99508000  0.25345000  1.0
  C  C43  1  0.02870000  0.00492000  0.74655000  1.0
  C  C44  1  0.13543000  0.00658000  0.39207000  1.0
  C  C45  1  0.86457000  0.99342000  0.60793000  1.0
  C  C46  1  0.06862000  0.81948000  0.49442000  1.0
  C  C47  1  0.93138000  0.18053000  0.50558000  1.0
  N  N48  1  0.77225000  0.30661000  0.69621000  1.0
  N  N49  1  0.22775000  0.69339000  0.30379000  1.0
  N  N50  1  0.56189000  0.05237000  0.72913000  1.0
  N  N51  1  0.43812000  0.94764000  0.27088000  1.0
  N  N52  1  0.47167000  0.23293000  0.48045000  1.0
  N  N53  1  0.52832000  0.76707000  0.51955000  1.0
  N  N54  1  0.48611000  0.31825000  0.41419000  1.0
  N  N55  1  0.51389000  0.68175000  0.58582000  1.0
  N  N56  1  0.61788000  0.43106000  0.44327000  1.0
  N  N57  1  0.38212000  0.56894000  0.55674000  1.0
  N  N58  1  0.69074000  0.42034000  0.52852000  1.0
  N  N59  1  0.30926000  0.57966000  0.47149000  1.0
  N  N60  1  0.89706000  0.80754000  0.34629000  1.0
  N  N61  1  0.10294000  0.19246000  0.65370000  1.0
  N  N62  1  0.10521000  0.06435000  0.31457000  1.0
  N  N63  1  0.89479000  0.93565000  0.68543000  1.0
  N  N64  1  0.19540000  0.88476000  0.56513000  1.0
  N  N65  1  0.80460000  0.11524000  0.43487000  1.0
  N  N66  1  0.18139000  0.79765000  0.63021000  1.0
  N  N67  1  0.81861000  0.20235000  0.36979000  1.0
  N  N68  1  0.05102000  0.68363000  0.59961000  1.0
  N  N69  1  0.94898000  0.31637000  0.40039000  1.0
  N  N70  1  0.97857000  0.69468000  0.51433000  1.0
  N  N71  1  0.02143000  0.30532000  0.48567000  1.0
  O  O72  1  0.42913000  0.55787000  0.94139000  1.0
  O  O73  1  0.57087000  0.44213000  0.05860000  1.0
  O  O74  1  0.24870000  0.52946000  0.08728000  1.0
  O  O75  1  0.75129000  0.47054000  0.91272000  1.0
  O  O76  1  0.29550000  0.29661000  0.02871000  1.0
  O  O77  1  0.70450000  0.70339000  0.97129000  1.0
  O  O78  1  0.43757000  0.49358000  0.24384000  1.0
  O  O79  1  0.56243000  0.50641000  0.75616000  1.0
  O  O80  1  0.55085000  0.71344000  0.14082000  1.0
  O  O81  1  0.44914000  0.28656000  0.85918000  1.0
  O  O82  1  0.93735000  0.37074000  0.04208000  1.0
  O  O83  1  0.06265000  0.62926000  0.95792000  1.0
  O  O84  1  0.12772000  0.38098000  0.89953000  1.0
  O  O85  1  0.87228000  0.61903000  0.10047000  1.0
  O  O86  1  0.36484000  0.77292000  0.00277000  1.0
  O  O87  1  0.63515000  0.22708000  0.99723000  1.0
  O  O88  1  0.22881000  0.60019000  0.79592000  1.0
  O  O89  1  0.77119000  0.39981000  0.20407000  1.0
  O  O90  1  0.98522000  0.11674000  0.95923000  1.0
  O  O91  1  0.01478000  0.88326000  0.04077000  1.0
  O  O92  1  0.09286000  0.27313000  0.16612000  1.0
  O  O93  1  0.90714000  0.72687000  0.83388000  1.0
  O  O94  1  0.56870000  0.83827000  0.86746000  1.0
  O  O95  1  0.43130000  0.16173000  0.13254000  1.0
  O  O96  1  0.66845000  0.97310000  0.07988000  1.0
  O  O97  1  0.33155000  0.02690000  0.92012000  1.0
