# generated using pymatgen
data_ZnSiH16C24Br4(N2F3)2
_symmetry_space_group_name_H-M   'P 1'
_cell_length_a   7.83829000
_cell_length_b   14.04890000
_cell_length_c   14.04880000
_cell_angle_alpha   89.70930000
_cell_angle_beta   86.03120000
_cell_angle_gamma   86.03160000
_symmetry_Int_Tables_number   1
_chemical_formula_structural   ZnSiH16C24Br4(N2F3)2
_chemical_formula_sum   'Zn1 Si1 H16 C24 Br4 N4 F6'
_cell_volume   1539.63436385
_cell_formula_units_Z   1
loop_
 _symmetry_equiv_pos_site_id
 _symmetry_equiv_pos_as_xyz
  1  'x, y, z'
loop_
 _atom_site_type_symbol
 _atom_site_label
 _atom_site_symmetry_multiplicity
 _atom_site_fract_x
 _atom_site_fract_y
 _atom_site_fract_z
 _atom_site_occupancy
  Zn  Zn0  1  0.49999000  0.50000000  0.50000000  1.0
  Si  Si1  1  0.00000000  0.50000000  0.50000000  1.0
  H  H2  1  0.25577000  0.50024000  0.33865000  1.0
  H  H3  1  0.25977000  0.50017000  0.16775000  1.0
  H  H4  1  0.81280000  0.49992000  0.16112000  1.0
  H  H5  1  0.78635000  0.49983000  0.33400000  1.0
  H  H6  1  0.18719000  0.50006000  0.83888000  1.0
  H  H7  1  0.74021000  0.49982000  0.83225000  1.0
  H  H8  1  0.74421000  0.49976000  0.66135000  1.0
  H  H9  1  0.21363000  0.50017000  0.66601000  1.0
  H  H10  1  0.25577000  0.33865000  0.50025000  1.0
  H  H11  1  0.25977000  0.16775000  0.50018000  1.0
  H  H12  1  0.81280000  0.16112000  0.49992000  1.0
  H  H13  1  0.78635000  0.33400000  0.49983000  1.0
  H  H14  1  0.18719000  0.83888000  0.50007000  1.0
  H  H15  1  0.74021000  0.83225000  0.49982000  1.0
  H  H16  1  0.74420000  0.66135000  0.49976000  1.0
  H  H17  1  0.21363000  0.66601000  0.50017000  1.0
  C  C18  1  0.37849000  0.50017000  0.29717000  1.0
  C  C19  1  0.38229000  0.50015000  0.19811000  1.0
  C  C20  1  0.53854000  0.50006000  0.14149000  1.0
  C  C21  1  0.68454000  0.50000000  0.19543000  1.0
  C  C22  1  0.67138000  0.49996000  0.29454000  1.0
  C  C23  1  0.55763000  0.50000000  0.03477000  1.0
  C  C24  1  0.44235000  0.50000000  0.96524000  1.0
  C  C25  1  0.31544000  0.49999000  0.80457000  1.0
  C  C26  1  0.46144000  0.49993000  0.85852000  1.0
  C  C27  1  0.61769000  0.49985000  0.80189000  1.0
  C  C28  1  0.62149000  0.49983000  0.70283000  1.0
  C  C29  1  0.32859000  0.50003000  0.70547000  1.0
  C  C30  1  0.37849000  0.29717000  0.50017000  1.0
  C  C31  1  0.38230000  0.19811000  0.50015000  1.0
  C  C32  1  0.53854000  0.14148000  0.50006000  1.0
  C  C33  1  0.68454000  0.19543000  0.49999000  1.0
  C  C34  1  0.67139000  0.29454000  0.49996000  1.0
  C  C35  1  0.55764000  0.03477000  0.49999000  1.0
  C  C36  1  0.44235000  0.96524000  0.50000000  1.0
  C  C37  1  0.31544000  0.80457000  0.49999000  1.0
  C  C38  1  0.46145000  0.85852000  0.49993000  1.0
  C  C39  1  0.61768000  0.80190000  0.49985000  1.0
  C  C40  1  0.62149000  0.70283000  0.49983000  1.0
  C  C41  1  0.32859000  0.70547000  0.50003000  1.0
  Br  Br42  1  0.79679000  0.49994000  0.99032000  1.0
  Br  Br43  1  0.20320000  0.50007000  0.00969000  1.0
  Br  Br44  1  0.79679000  0.99032000  0.49992000  1.0
  Br  Br45  1  0.20320000  0.00968000  0.50008000  1.0
  N  N46  1  0.51993000  0.50005000  0.34598000  1.0
  N  N47  1  0.48004000  0.49995000  0.65402000  1.0
  N  N48  1  0.51993000  0.34598000  0.50006000  1.0
  N  N49  1  0.48004000  0.65402000  0.49995000  1.0
  F  F50  1  0.22577000  0.50021000  0.50021000  1.0
  F  F51  1  0.77422000  0.49979000  0.49979000  1.0
  F  F52  1  0.00001000  0.58580000  0.41421000  1.0
  F  F53  1  0.99999000  0.41419000  0.58579000  1.0
  F  F54  1  0.02148000  0.41424000  0.41422000  1.0
  F  F55  1  0.97851000  0.58576000  0.58578000  1.0
