# generated using pymatgen
data_Al2H13C50N6Cl9O20
_symmetry_space_group_name_H-M   'P 1'
_cell_length_a   6.82226000
_cell_length_b   28.05430000
_cell_length_c   31.75970000
_cell_angle_alpha   78.27280000
_cell_angle_beta   89.39830000
_cell_angle_gamma   89.24690000
_symmetry_Int_Tables_number   1
_chemical_formula_structural   Al2H13C50N6Cl9O20
_chemical_formula_sum   'Al4 H26 C100 N12 Cl18 O40'
_cell_volume   5951.02072652
_cell_formula_units_Z   2
loop_
 _symmetry_equiv_pos_site_id
 _symmetry_equiv_pos_as_xyz
  1  'x, y, z'
loop_
 _atom_site_type_symbol
 _atom_site_label
 _atom_site_symmetry_multiplicity
 _atom_site_fract_x
 _atom_site_fract_y
 _atom_site_fract_z
 _atom_site_occupancy
  Al  Al0  1  0.10944000  0.49988000  0.50117000  1.0
  Al  Al1  1  0.60558000  0.50112000  0.49930000  1.0
  Al  Al2  1  0.69718000  0.00168000  0.99981000  1.0
  Al  Al3  1  0.19816000  0.99757000  0.99813000  1.0
  H  H4  1  0.59236000  0.63449000  0.40900000  1.0
  H  H5  1  0.21146000  0.85443000  0.71155000  1.0
  H  H6  1  0.18911000  0.94358000  0.88550000  1.0
  H  H7  1  0.83441000  0.32531000  0.24018000  1.0
  H  H8  1  0.09691000  0.38643000  0.43742000  1.0
  H  H9  1  0.70685000  0.10968000  0.16221000  1.0
  H  H10  1  0.70269000  0.05868000  0.10648000  1.0
  H  H11  1  0.15369000  0.17413000  0.11450000  1.0
  H  H12  1  0.65262000  0.42014000  0.61745000  1.0
  H  H13  1  0.11617000  0.30217000  0.66174000  1.0
  H  H14  1  0.31909000  0.58256000  0.40438000  1.0
  H  H15  1  0.56387000  0.60909000  0.77204000  1.0
  H  H16  1  0.98907000  0.63258000  0.50197000  1.0
  H  H17  1  0.43405000  0.59771000  0.66862000  1.0
  H  H18  1  0.89746000  0.15545000  0.23629000  1.0
  H  H19  1  0.01521000  0.17869000  0.36703000  1.0
  H  H20  1  0.83014000  0.28970000  0.13820000  1.0
  H  H21  1  0.57404000  0.50743000  0.37914000  1.0
  H  H22  1  0.06053000  0.37690000  0.55195000  1.0
  H  H23  1  0.06998000  0.10050000  0.93853000  1.0
  H  H24  1  0.54454000  0.90683000  0.06624000  1.0
  H  H25  1  0.59340000  0.82053000  0.22323000  1.0
  H  H26  1  0.35384000  0.56223000  0.50687000  1.0
  H  H27  1  0.85898000  0.44011000  0.49475000  1.0
  H  H28  1  0.46250000  0.94117000  0.98833000  1.0
  H  H29  1  0.95658000  0.05641000  0.01175000  1.0
  C  C30  1  0.36539000  0.45165000  0.44676000  1.0
  C  C31  1  0.35772000  0.43590000  0.56256000  1.0
  C  C32  1  0.84368000  0.55150000  0.55243000  1.0
  C  C33  1  0.86375000  0.56518000  0.43743000  1.0
  C  C34  1  0.03895000  0.60555000  0.37037000  1.0
  C  C35  1  0.04284000  0.64109000  0.33245000  1.0
  C  C36  1  0.89165000  0.67605000  0.32258000  1.0
  C  C37  1  0.73076000  0.67379000  0.35090000  1.0
  C  C38  1  0.71822000  0.63677000  0.38736000  1.0
  C  C39  1  0.87265000  0.60333000  0.39716000  1.0
  C  C40  1  0.92208000  0.78326000  0.21637000  1.0
  C  C41  1  0.90345000  0.71510000  0.28352000  1.0
  C  C42  1  0.10780000  0.83854000  0.15782000  1.0
  C  C43  1  0.10968000  0.88353000  0.12849000  1.0
  C  C44  1  0.93736000  0.89897000  0.10481000  1.0
  C  C45  1  0.75874000  0.87725000  0.11994000  1.0
  C  C46  1  0.75510000  0.84727000  0.16194000  1.0
  C  C47  1  0.92838000  0.82272000  0.17756000  1.0
  C  C48  1  0.87785000  0.64945000  0.71958000  1.0
  C  C49  1  0.09775000  0.70390000  0.67371000  1.0
  C  C50  1  0.07267000  0.74065000  0.70086000  1.0
  C  C51  1  0.94026000  0.73046000  0.73653000  1.0
  C  C52  1  0.84146000  0.68537000  0.74725000  1.0
  C  C53  1  0.17289000  0.78481000  0.69314000  1.0
  C  C54  1  0.13759000  0.81951000  0.71904000  1.0
  C  C55  1  0.01104000  0.80944000  0.75385000  1.0
  C  C56  1  0.91296000  0.76427000  0.76371000  1.0
  C  C57  1  0.77775000  0.75503000  0.79848000  1.0
  C  C58  1  0.68340000  0.71028000  0.80851000  1.0
  C  C59  1  0.72328000  0.67398000  0.78390000  1.0
  C  C60  1  0.97381000  0.84642000  0.78044000  1.0
  C  C61  1  0.73649000  0.79613000  0.82037000  1.0
  C  C62  1  0.82142000  0.83861000  0.89711000  1.0
  C  C63  1  0.81537000  0.86997000  0.92655000  1.0
  C  C64  1  0.93926000  0.91036000  0.92051000  1.0
  C  C65  1  0.07709000  0.91595000  0.88732000  1.0
  C  C66  1  0.07769000  0.88670000  0.85687000  1.0
  C  C67  1  0.92970000  0.85109000  0.85761000  1.0
  C  C68  1  0.97125000  0.66073000  0.59953000  1.0
  C  C69  1  0.96245000  0.62691000  0.57273000  1.0
  C  C70  1  0.84140000  0.58579000  0.58279000  1.0
  C  C71  1  0.71863000  0.58133000  0.61885000  1.0
  C  C72  1  0.73363000  0.61362000  0.64753000  1.0
  C  C73  1  0.88666000  0.64899000  0.64162000  1.0
  C  C74  1  0.58192000  0.20718000  0.17317000  1.0
  C  C75  1  0.27494000  0.16588000  0.20459000  1.0
  C  C76  1  0.26901000  0.19735000  0.23676000  1.0
  C  C77  1  0.41844000  0.23197000  0.23637000  1.0
  C  C78  1  0.57019000  0.23855000  0.20504000  1.0
  C  C79  1  0.12226000  0.19184000  0.26855000  1.0
  C  C80  1  0.13263000  0.21716000  0.30307000  1.0
  C  C81  1  0.27868000  0.25141000  0.30253000  1.0
  C  C82  1  0.41764000  0.26034000  0.26858000  1.0
  C  C83  1  0.56847000  0.29408000  0.26939000  1.0
  C  C84  1  0.71676000  0.29980000  0.23870000  1.0
  C  C85  1  0.71637000  0.27293000  0.20569000  1.0
  C  C86  1  0.30553000  0.27638000  0.33903000  1.0
  C  C87  1  0.57437000  0.32206000  0.30414000  1.0
  C  C88  1  0.47590000  0.40376000  0.34562000  1.0
  C  C89  1  0.49194000  0.43191000  0.37713000  1.0
  C  C90  1  0.36040000  0.42322000  0.41223000  1.0
  C  C91  1  0.21338000  0.38917000  0.41346000  1.0
  C  C92  1  0.21079000  0.35823000  0.38432000  1.0
  C  C93  1  0.36328000  0.35996000  0.35291000  1.0
  C  C94  1  0.58517000  0.11228000  0.13995000  1.0
  C  C95  1  0.58225000  0.08383000  0.10899000  1.0
  C  C96  1  0.42554000  0.08593000  0.08028000  1.0
  C  C97  1  0.27009000  0.11891000  0.08269000  1.0
  C  C98  1  0.27353000  0.14846000  0.11309000  1.0
  C  C99  1  0.42953000  0.14459000  0.14156000  1.0
  C  C100  1  0.53548000  0.39421000  0.62733000  1.0
  C  C101  1  0.55159000  0.35938000  0.66535000  1.0
  C  C102  1  0.40017000  0.32577000  0.67819000  1.0
  C  C103  1  0.23381000  0.32827000  0.65257000  1.0
  C  C104  1  0.21592000  0.36261000  0.61411000  1.0
  C  C105  1  0.36882000  0.39622000  0.60184000  1.0
  C  C106  1  0.42485000  0.21814000  0.78399000  1.0
  C  C107  1  0.41225000  0.28695000  0.71726000  1.0
  C  C108  1  0.60610000  0.16672000  0.84563000  1.0
  C  C109  1  0.61578000  0.12091000  0.87424000  1.0
  C  C110  1  0.44122000  0.10262000  0.89534000  1.0
  C  C111  1  0.25999000  0.12367000  0.87955000  1.0
  C  C112  1  0.26401000  0.15181000  0.83699000  1.0
  C  C113  1  0.43123000  0.17861000  0.82261000  1.0
  C  C114  1  0.44430000  0.06292000  0.93519000  1.0
  C  C115  1  0.43639000  0.05264000  0.04927000  1.0
  C  C116  1  0.94588000  0.93688000  0.06359000  1.0
  C  C117  1  0.94374000  0.94563000  0.94980000  1.0
  C  C118  1  0.21272000  0.57151000  0.38187000  1.0
  C  C119  1  0.63990000  0.62342000  0.79743000  1.0
  C  C120  1  0.07736000  0.63421000  0.53099000  1.0
  C  C121  1  0.56324000  0.61843000  0.67510000  1.0
  C  C122  1  0.94572000  0.16123000  0.26794000  1.0
  C  C123  1  0.98037000  0.20813000  0.33906000  1.0
  C  C124  1  0.87601000  0.28301000  0.17229000  1.0
  C  C125  1  0.63589000  0.47291000  0.37254000  1.0
  C  C126  1  0.04568000  0.35849000  0.58623000  1.0
  C  C127  1  0.10702000  0.13144000  0.91256000  1.0
  C  C128  1  0.59655000  0.87387000  0.08819000  1.0
  C  C129  1  0.61364000  0.85286000  0.19703000  1.0
  N  N130  1  0.77255000  0.71412000  0.25224000  1.0
  N  N131  1  0.78286000  0.74912000  0.21739000  1.0
  N  N132  1  0.04927000  0.78485000  0.24842000  1.0
  N  N133  1  0.04046000  0.74954000  0.28296000  1.0
  N  N134  1  0.92873000  0.67275000  0.67475000  1.0
  N  N135  1  0.90951000  0.82554000  0.82396000  1.0
  N  N136  1  0.42605000  0.17490000  0.17316000  1.0
  N  N137  1  0.39093000  0.32448000  0.32735000  1.0
  N  N138  1  0.26355000  0.28470000  0.74594000  1.0
  N  N139  1  0.27174000  0.24964000  0.78074000  1.0
  N  N140  1  0.56926000  0.21920000  0.75435000  1.0
  N  N141  1  0.56446000  0.25510000  0.72024000  1.0
  Cl  Cl142  1  0.51579000  0.69840000  0.84982000  1.0
  Cl  Cl143  1  0.72044000  0.78209000  0.91347000  1.0
  Cl  Cl144  1  0.67254000  0.85504000  0.97228000  1.0
  Cl  Cl145  1  0.28149000  0.89183000  0.82405000  1.0
  Cl  Cl146  1  0.05367000  0.71806000  0.57693000  1.0
  Cl  Cl147  1  0.55509000  0.53408000  0.63110000  1.0
  Cl  Cl148  1  0.23613000  0.64221000  0.29681000  1.0
  Cl  Cl149  1  0.55994000  0.42973000  0.29478000  1.0
  Cl  Cl150  1  0.00114000  0.32501000  0.38543000  1.0
  Cl  Cl151  1  0.54987000  0.71810000  0.34169000  1.0
  Cl  Cl152  1  0.07342000  0.12782000  0.04780000  1.0
  Cl  Cl153  1  0.75444000  0.35943000  0.69699000  1.0
  Cl  Cl154  1  0.78600000  0.20884000  0.83969000  1.0
  Cl  Cl155  1  0.82383000  0.08576000  0.87821000  1.0
  Cl  Cl156  1  0.08339000  0.14958000  0.80046000  1.0
  Cl  Cl157  1  0.31111000  0.80250000  0.16978000  1.0
  Cl  Cl158  1  0.30506000  0.92099000  0.12610000  1.0
  Cl  Cl159  1  0.33650000  0.80100000  0.65135000  1.0
  O  O160  1  0.51978000  0.44896000  0.54383000  1.0
  O  O161  1  0.20354000  0.45781000  0.46557000  1.0
  O  O162  1  0.02936000  0.54753000  0.45149000  1.0
  O  O163  1  0.18831000  0.45362000  0.55137000  1.0
  O  O164  1  0.01256000  0.54197000  0.53828000  1.0
  O  O165  1  0.53188000  0.46713000  0.45598000  1.0
  O  O166  1  0.35496000  0.53111000  0.49788000  1.0
  O  O167  1  0.68043000  0.53687000  0.54179000  1.0
  O  O168  1  0.69672000  0.55444000  0.45460000  1.0
  O  O169  1  0.85842000  0.47184000  0.50245000  1.0
  O  O170  1  0.89644000  0.60569000  0.73226000  1.0
  O  O171  1  0.24413000  0.69836000  0.65291000  1.0
  O  O172  1  0.98878000  0.89007000  0.76678000  1.0
  O  O173  1  0.57414000  0.80735000  0.83134000  1.0
  O  O174  1  0.72218000  0.20813000  0.14815000  1.0
  O  O175  1  0.16097000  0.13221000  0.20484000  1.0
  O  O176  1  0.26737000  0.25676000  0.37600000  1.0
  O  O177  1  0.72338000  0.34127000  0.31276000  1.0
  O  O178  1  0.27664000  0.03851000  0.03582000  1.0
  O  O179  1  0.60686000  0.05233000  0.95411000  1.0
  O  O180  1  0.78042000  0.96151000  0.96115000  1.0
  O  O181  1  0.60799000  0.04020000  0.03910000  1.0
  O  O182  1  0.78165000  0.95492000  0.04941000  1.0
  O  O183  1  0.28054000  0.04308000  0.94726000  1.0
  O  O184  1  0.45181000  0.96901000  0.00220000  1.0
  O  O185  1  0.11163000  0.94745000  0.04591000  1.0
  O  O186  1  0.11291000  0.95759000  0.96029000  1.0
  O  O187  1  0.94971000  0.02975000  0.99641000  1.0
  O  O188  1  0.24152000  0.53589000  0.36612000  1.0
  O  O189  1  0.65563000  0.60046000  0.83414000  1.0
  O  O190  1  0.25350000  0.64113000  0.52839000  1.0
  O  O191  1  0.54953000  0.64559000  0.70101000  1.0
  O  O192  1  0.85380000  0.14510000  0.30108000  1.0
  O  O193  1  0.83379000  0.23382000  0.33766000  1.0
  O  O194  1  0.04741000  0.28648000  0.18234000  1.0
  O  O195  1  0.80763000  0.46892000  0.36252000  1.0
  O  O196  1  0.89897000  0.33500000  0.59907000  1.0
  O  O197  1  0.05269000  0.17315000  0.91263000  1.0
  O  O198  1  0.54538000  0.83303000  0.08517000  1.0
  O  O199  1  0.55070000  0.89289000  0.20042000  1.0
