# generated using pymatgen
data_ZnH14C18N2O5
_symmetry_space_group_name_H-M   'P 1'
_cell_length_a   5.77719000
_cell_length_b   8.36125000
_cell_length_c   16.90378407
_cell_angle_alpha   89.57752591
_cell_angle_beta   80.18406131
_cell_angle_gamma   89.99410000
_symmetry_Int_Tables_number   1
_chemical_formula_structural   ZnH14C18N2O5
_chemical_formula_sum   'Zn2 H28 C36 N4 O10'
_cell_volume   804.55334651
_cell_formula_units_Z   2
loop_
 _symmetry_equiv_pos_site_id
 _symmetry_equiv_pos_as_xyz
  1  'x, y, z'
loop_
 _atom_site_type_symbol
 _atom_site_label
 _atom_site_symmetry_multiplicity
 _atom_site_fract_x
 _atom_site_fract_y
 _atom_site_fract_z
 _atom_site_occupancy
  Zn  Zn0  1  0.73874000  0.85691000  0.68856000  1.0
  Zn  Zn1  1  0.57268000  0.35697000  0.68855000  1.0
  H  H2  1  0.10919000  0.65709000  0.36752000  1.0
  H  H3  1  0.52269000  0.15710000  0.36757000  1.0
  H  H4  1  0.20385000  0.81202000  0.94613000  1.0
  H  H5  1  0.85048000  0.31174000  0.94615000  1.0
  H  H6  1  0.87487000  0.97053000  0.43195000  1.0
  H  H7  1  0.69295000  0.47083000  0.43178000  1.0
  H  H8  1  0.97963000  0.05330000  0.28836000  1.0
  H  H9  1  0.73116000  0.55333000  0.28816000  1.0
  H  H10  1  0.73718000  0.96951000  0.18813000  1.0
  H  H11  1  0.07389000  0.46938000  0.18806000  1.0
  H  H12  1  0.37636000  0.80301000  0.22933000  1.0
  H  H13  1  0.39377000  0.30307000  0.22930000  1.0
  H  H14  1  0.10770000  0.64235000  0.51511000  1.0
  H  H15  1  0.37676000  0.14236000  0.51516000  1.0
  H  H16  1  0.16033000  0.77729000  0.80346000  1.0
  H  H17  1  0.03609000  0.27703000  0.80349000  1.0
  H  H18  1  0.97673000  0.71173000  0.10133000  1.0
  H  H19  1  0.92256000  0.21109000  0.10134000  1.0
  H  H20  1  0.63721000  0.54506000  0.16721000  1.0
  H  H21  1  0.19626000  0.04411000  0.16707000  1.0
  H  H22  1  0.37852000  0.40793000  0.08578000  1.0
  H  H23  1  0.53673000  0.90750000  0.08566000  1.0
  H  H24  1  0.44603000  0.43609000  0.93708000  1.0
  H  H25  1  0.61795000  0.93630000  0.93702000  1.0
  H  H26  1  0.05226000  0.07701000  0.66370000  1.0
  H  H27  1  0.28350000  0.57700000  0.66381000  1.0
  H  H28  1  0.17713000  0.90159000  0.66425000  1.0
  H  H29  1  0.15820000  0.40152000  0.66437000  1.0
  C  C30  1  0.56669000  0.83928000  0.41221000  1.0
  C  C31  1  0.02074000  0.33958000  0.41216000  1.0
  C  C32  1  0.76859000  0.93295000  0.38802000  1.0
  C  C33  1  0.84301000  0.43315000  0.38787000  1.0
  C  C34  1  0.82552000  0.97847000  0.30743000  1.0
  C  C35  1  0.86639000  0.47858000  0.30727000  1.0
  C  C36  1  0.68665000  0.93156000  0.25053000  1.0
  C  C37  1  0.06225000  0.43160000  0.25047000  1.0
  C  C38  1  0.48535000  0.83853000  0.27292000  1.0
  C  C39  1  0.24125000  0.33862000  0.27288000  1.0
  C  C40  1  0.42789000  0.79395000  0.35371000  1.0
  C  C41  1  0.21805000  0.29417000  0.35371000  1.0
  C  C42  1  0.24599000  0.70068000  0.47344000  1.0
  C  C43  1  0.28015000  0.20074000  0.47344000  1.0
  C  C44  1  0.44657000  0.77861000  0.48846000  1.0
  C  C45  1  0.06470000  0.27893000  0.48843000  1.0
  C  C46  1  0.51115000  0.79801000  0.56736000  1.0
  C  C47  1  0.92118000  0.29818000  0.56732000  1.0
  C  C48  1  0.76705000  0.55971000  0.78180000  1.0
  C  C49  1  0.45141000  0.05974000  0.78180000  1.0
  C  C50  1  0.84453000  0.62738000  0.85202000  1.0
  C  C51  1  0.30391000  0.12746000  0.85203000  1.0
  C  C52  1  0.03843000  0.72520000  0.85274000  1.0
  C  C53  1  0.10911000  0.22508000  0.85274000  1.0
  C  C54  1  0.89946000  0.66505000  0.98226000  1.0
  C  C55  1  0.11892000  0.16484000  0.98224000  1.0
  C  C56  1  0.86191000  0.65167000  0.06594000  1.0
  C  C57  1  0.07278000  0.15118000  0.06590000  1.0
  C  C58  1  0.67243000  0.55812000  0.10205000  1.0
  C  C59  1  0.22628000  0.05758000  0.10195000  1.0
  C  C60  1  0.52386000  0.48146000  0.05604000  1.0
  C  C61  1  0.42085000  0.98100000  0.05595000  1.0
  C  C62  1  0.56036000  0.49585000  0.97261000  1.0
  C  C63  1  0.46787000  0.99577000  0.97255000  1.0
  C  C64  1  0.75177000  0.58779000  0.93453000  1.0
  C  C65  1  0.31442000  0.08779000  0.93452000  1.0
  N  N66  1  0.23789000  0.70809000  0.39341000  1.0
  N  N67  1  0.36831000  0.20826000  0.39345000  1.0
  N  N68  1  0.07088000  0.74617000  0.93012000  1.0
  N  N69  1  0.99945000  0.24595000  0.93012000  1.0
  O  O70  1  0.71319000  0.85818000  0.57198000  1.0
  O  O71  1  0.71461000  0.35845000  0.57194000  1.0
  O  O72  1  0.36585000  0.75909000  0.63098000  1.0
  O  O73  1  0.00282000  0.25906000  0.63096000  1.0
  O  O74  1  0.79974000  0.62846000  0.71261000  1.0
  O  O75  1  0.48795000  0.12849000  0.71261000  1.0
  O  O76  1  0.04314000  0.96930000  0.69005000  1.0
  O  O77  1  0.26656000  0.46924000  0.69011000  1.0
  O  O78  1  0.66827000  0.42152000  0.79100000  1.0
  O  O79  1  0.54097000  0.92152000  0.79103000  1.0
