# generated using pymatgen
data_V2CdH7C5N5O7
_symmetry_space_group_name_H-M   'P 1'
_cell_length_a   7.57170000
_cell_length_b   7.91506000
_cell_length_c   10.17680000
_cell_angle_alpha   98.28960000
_cell_angle_beta   95.28670000
_cell_angle_gamma   99.39710000
_symmetry_Int_Tables_number   1
_chemical_formula_structural   V2CdH7C5N5O7
_chemical_formula_sum   'V4 Cd2 H14 C10 N10 O14'
_cell_volume   591.23420229
_cell_formula_units_Z   2
loop_
 _symmetry_equiv_pos_site_id
 _symmetry_equiv_pos_as_xyz
  1  'x, y, z'
loop_
 _atom_site_type_symbol
 _atom_site_label
 _atom_site_symmetry_multiplicity
 _atom_site_fract_x
 _atom_site_fract_y
 _atom_site_fract_z
 _atom_site_occupancy
  V  V0  1  0.79464000  0.58981000  0.33034000  1.0
  V  V1  1  0.20536000  0.41019000  0.66966000  1.0
  V  V2  1  0.22631000  0.63791000  0.42256000  1.0
  V  V3  1  0.77369000  0.36209000  0.57745000  1.0
  Cd  Cd4  1  0.50000000  0.50000000  0.00000000  1.0
  Cd  Cd5  1  0.00000000  0.00000000  0.50000000  1.0
  H  H6  1  0.94358000  0.61719000  0.08471000  1.0
  H  H7  1  0.05642000  0.38281000  0.91529000  1.0
  H  H8  1  0.58444000  0.88495000  0.56926000  1.0
  H  H9  1  0.41556000  0.11505000  0.43074000  1.0
  H  H10  1  0.70944000  0.23367000  0.94965000  1.0
  H  H11  1  0.29056000  0.76633000  0.05035000  1.0
  H  H12  1  0.58777000  0.24731000  0.81516000  1.0
  H  H13  1  0.41223000  0.75269000  0.18484000  1.0
  H  H14  1  0.22803000  0.04170000  0.77017000  1.0
  H  H15  1  0.77197000  0.95830000  0.22983000  1.0
  H  H16  1  0.34235000  0.97821000  0.90573000  1.0
  H  H17  1  0.65765000  0.02179000  0.09427000  1.0
  H  H18  1  0.48305000  0.69590000  0.74863000  1.0
  H  H19  1  0.51696000  0.30410000  0.25136000  1.0
  C  C20  1  0.75799000  0.75295000  0.83071000  1.0
  C  C21  1  0.24201000  0.24705000  0.16930000  1.0
  C  C22  1  0.92941000  0.68471000  0.99927000  1.0
  C  C23  1  0.07059000  0.31529000  0.00073000  1.0
  C  C24  1  0.07696000  0.86440000  0.86401000  1.0
  C  C25  1  0.92304000  0.13560000  0.13598000  1.0
  C  C26  1  0.90734000  0.84877000  0.78686000  1.0
  C  C27  1  0.09267000  0.15123000  0.21314000  1.0
  C  C28  1  0.67181000  0.85990000  0.65216000  1.0
  C  C29  1  0.32819000  0.14010000  0.34784000  1.0
  N  N30  1  0.84948000  0.91386000  0.67406000  1.0
  N  N31  1  0.15052000  0.08614000  0.32594000  1.0
  N  N32  1  0.76234000  0.66723000  0.93619000  1.0
  N  N33  1  0.23766000  0.33277000  0.06381000  1.0
  N  N34  1  0.08068000  0.77661000  0.96992000  1.0
  N  N35  1  0.91932000  0.22339000  0.03007000  1.0
  N  N36  1  0.22913000  0.95956000  0.83996000  1.0
  N  N37  1  0.77088000  0.04044000  0.16004000  1.0
  N  N38  1  0.61097000  0.76470000  0.74529000  1.0
  N  N39  1  0.38903000  0.23529000  0.25471000  1.0
  O  O40  1  0.19651000  0.81194000  0.52542000  1.0
  O  O41  1  0.80348000  0.18806000  0.47458000  1.0
  O  O42  1  0.39052000  0.69226000  0.33325000  1.0
  O  O43  1  0.60948000  0.30773000  0.66675000  1.0
  O  O44  1  0.01862000  0.55162000  0.31355000  1.0
  O  O45  1  0.98138000  0.44838000  0.68645000  1.0
  O  O46  1  0.79997000  0.80224000  0.33644000  1.0
  O  O47  1  0.20003000  0.19776000  0.66356000  1.0
  O  O48  1  0.72325000  0.52611000  0.48039000  1.0
  O  O49  1  0.27675000  0.47389000  0.51961000  1.0
  O  O50  1  0.66173000  0.47196000  0.19650000  1.0
  O  O51  1  0.33827000  0.52804000  0.80351000  1.0
  O  O52  1  0.58154000  0.23430000  0.91128000  1.0
  O  O53  1  0.41846000  0.76570000  0.08872000  1.0
