# generated using pymatgen
data_CuH7C7SIN
_symmetry_space_group_name_H-M   'P 1'
_cell_length_a   5.86034000
_cell_length_b   10.55000000
_cell_length_c   15.60030000
_cell_angle_alpha   90.00080000
_cell_angle_beta   90.00010000
_cell_angle_gamma   98.68860000
_symmetry_Int_Tables_number   1
_chemical_formula_structural   CuH7C7SIN
_chemical_formula_sum   'Cu4 H28 C28 S4 I4 N4'
_cell_volume   953.44451493
_cell_formula_units_Z   4
loop_
 _symmetry_equiv_pos_site_id
 _symmetry_equiv_pos_as_xyz
  1  'x, y, z'
loop_
 _atom_site_type_symbol
 _atom_site_label
 _atom_site_symmetry_multiplicity
 _atom_site_fract_x
 _atom_site_fract_y
 _atom_site_fract_z
 _atom_site_occupancy
  Cu  Cu0  1  0.76921000  0.48664000  0.50817000  1.0
  Cu  Cu1  1  0.73068000  0.01335000  0.00822000  1.0
  Cu  Cu2  1  0.23058000  0.51319000  0.49177000  1.0
  Cu  Cu3  1  0.26948000  0.98688000  0.99178000  1.0
  H  H4  1  0.00984000  0.23944000  0.48401000  1.0
  H  H5  1  0.49013000  0.26050000  0.98397000  1.0
  H  H6  1  0.98981000  0.76034000  0.51604000  1.0
  H  H7  1  0.50994000  0.73967000  0.01597000  1.0
  H  H8  1  0.65028000  0.08558000  0.49328000  1.0
  H  H9  1  0.84963000  0.41441000  0.99322000  1.0
  H  H10  1  0.34951000  0.91412000  0.50674000  1.0
  H  H11  1  0.15041000  0.58576000  0.00664000  1.0
  H  H12  1  0.59174000  0.92600000  0.61320000  1.0
  H  H13  1  0.90821000  0.57401000  0.11315000  1.0
  H  H14  1  0.40791000  0.07399000  0.38697000  1.0
  H  H15  1  0.09209000  0.42602000  0.88677000  1.0
  H  H16  1  0.89712000  0.92617000  0.72355000  1.0
  H  H17  1  0.60284000  0.57382000  0.22353000  1.0
  H  H18  1  0.10270000  0.07366000  0.27649000  1.0
  H  H19  1  0.39754000  0.42631000  0.77642000  1.0
  H  H20  1  0.25862000  0.07456000  0.71355000  1.0
  H  H21  1  0.24139000  0.42538000  0.21353000  1.0
  H  H22  1  0.74124000  0.92522000  0.28643000  1.0
  H  H23  1  0.75895000  0.57477000  0.78643000  1.0
  H  H24  1  0.48346000  0.22923000  0.71437000  1.0
  H  H25  1  0.01653000  0.27081000  0.21434000  1.0
  H  H26  1  0.51643000  0.77069000  0.28568000  1.0
  H  H27  1  0.98369000  0.72946000  0.78566000  1.0
  H  H28  1  0.67303000  0.33749000  0.65284000  1.0
  H  H29  1  0.82697000  0.16252000  0.15283000  1.0
  H  H30  1  0.32680000  0.66235000  0.34714000  1.0
  H  H31  1  0.17326000  0.83766000  0.84723000  1.0
  C  C32  1  0.37708000  0.26034000  0.59123000  1.0
  C  C33  1  0.12293000  0.23961000  0.09122000  1.0
  C  C34  1  0.62266000  0.73954000  0.40881000  1.0
  C  C35  1  0.87728000  0.76053000  0.90880000  1.0
  C  C36  1  0.16077000  0.16996000  0.59799000  1.0
  C  C37  1  0.33926000  0.32999000  0.09797000  1.0
  C  C38  1  0.83897000  0.82991000  0.40206000  1.0
  C  C39  1  0.66097000  0.67016000  0.90199000  1.0
  C  C40  1  0.98565000  0.17033000  0.53631000  1.0
  C  C41  1  0.51434000  0.32962000  0.03627000  1.0
  C  C42  1  0.01408000  0.82948000  0.46374000  1.0
  C  C43  1  0.48578000  0.67055000  0.96366000  1.0
  C  C44  1  0.78311000  0.08326000  0.54174000  1.0
  C  C45  1  0.71685000  0.41672000  0.04169000  1.0
  C  C46  1  0.21662000  0.91656000  0.45832000  1.0
  C  C47  1  0.28333000  0.58339000  0.95823000  1.0
  C  C48  1  0.74999000  0.99479000  0.60882000  1.0
  C  C49  1  0.74998000  0.50519000  0.10878000  1.0
  C  C50  1  0.24974000  0.00509000  0.39126000  1.0
  C  C51  1  0.25028000  0.49490000  0.89114000  1.0
  C  C52  1  0.92227000  0.99376000  0.67047000  1.0
  C  C53  1  0.57773000  0.50621000  0.17045000  1.0
  C  C54  1  0.07752000  0.00607000  0.32957000  1.0
  C  C55  1  0.42260000  0.49392000  0.82949000  1.0
  C  C56  1  0.12612000  0.08008000  0.66513000  1.0
  C  C57  1  0.37390000  0.41987000  0.16511000  1.0
  C  C58  1  0.87365000  0.91975000  0.33490000  1.0
  C  C59  1  0.62644000  0.58026000  0.83486000  1.0
  S  S60  1  0.45014000  0.33726000  0.49675000  1.0
  S  S61  1  0.04981000  0.16269000  0.99676000  1.0
  S  S62  1  0.54960000  0.66257000  0.50327000  1.0
  S  S63  1  0.95036000  0.83746000  0.00327000  1.0
  I  I64  1  0.02928000  0.52688000  0.64370000  1.0
  I  I65  1  0.47074000  0.97295000  0.14374000  1.0
  I  I66  1  0.97056000  0.47294000  0.35624000  1.0
  I  I67  1  0.52957000  0.02733000  0.85628000  1.0
  N  N68  1  0.51763000  0.27846000  0.65848000  1.0
  N  N69  1  0.98238000  0.22154000  0.15847000  1.0
  N  N70  1  0.48217000  0.72144000  0.34155000  1.0
  N  N71  1  0.01788000  0.77864000  0.84156000  1.0
