# generated using pymatgen
data_CaH8C8(O2F)4
_symmetry_space_group_name_H-M   'P 1'
_cell_length_a   3.69934000
_cell_length_b   6.65319000
_cell_length_c   22.61620000
_cell_angle_alpha   90.00030000
_cell_angle_beta   90.00020000
_cell_angle_gamma   93.16400000
_symmetry_Int_Tables_number   1
_chemical_formula_structural   CaH8C8(O2F)4
_chemical_formula_sum   'Ca2 H16 C16 O16 F8'
_cell_volume   555.79071174
_cell_formula_units_Z   2
loop_
 _symmetry_equiv_pos_site_id
 _symmetry_equiv_pos_as_xyz
  1  'x, y, z'
loop_
 _atom_site_type_symbol
 _atom_site_label
 _atom_site_symmetry_multiplicity
 _atom_site_fract_x
 _atom_site_fract_y
 _atom_site_fract_z
 _atom_site_occupancy
  Ca  Ca0  1  0.90760000  0.58345000  0.25000000  1.0
  Ca  Ca1  1  0.09240000  0.41655000  0.75000000  1.0
  H  H2  1  0.97559000  0.15650000  0.28433000  1.0
  H  H3  1  0.02442000  0.84350000  0.78432000  1.0
  H  H4  1  0.02442000  0.84350000  0.71568000  1.0
  H  H5  1  0.97558000  0.15650000  0.21568000  1.0
  H  H6  1  0.44258000  0.55177000  0.35455000  1.0
  H  H7  1  0.55742000  0.44824000  0.85455000  1.0
  H  H8  1  0.55742000  0.44823000  0.64545000  1.0
  H  H9  1  0.44258000  0.55177000  0.14545000  1.0
  H  H10  1  0.37273000  0.32601000  0.33441000  1.0
  H  H11  1  0.62727000  0.67399000  0.83441000  1.0
  H  H12  1  0.62727000  0.67399000  0.66559000  1.0
  H  H13  1  0.37272000  0.32601000  0.16559000  1.0
  H  H14  1  0.40356000  0.91822000  0.28468000  1.0
  H  H15  1  0.59645000  0.08178000  0.78468000  1.0
  H  H16  1  0.59645000  0.08178000  0.71532000  1.0
  H  H17  1  0.40355000  0.91822000  0.21532000  1.0
  C  C18  1  0.05836000  0.92928000  0.37231000  1.0
  C  C19  1  0.94163000  0.07071000  0.87231000  1.0
  C  C20  1  0.94165000  0.07073000  0.62769000  1.0
  C  C21  1  0.05836000  0.92928000  0.12769000  1.0
  C  C22  1  0.03101000  0.96715000  0.43801000  1.0
  C  C23  1  0.96898000  0.03285000  0.93801000  1.0
  C  C24  1  0.96899000  0.03285000  0.56199000  1.0
  C  C25  1  0.03100000  0.96715000  0.06199000  1.0
  C  C26  1  0.91044000  0.14726000  0.46048000  1.0
  C  C27  1  0.08956000  0.85274000  0.96047000  1.0
  C  C28  1  0.08956000  0.85274000  0.53952000  1.0
  C  C29  1  0.91044000  0.14726000  0.03952000  1.0
  C  C30  1  0.87829000  0.17911000  0.52104000  1.0
  C  C31  1  0.12171000  0.82090000  0.02105000  1.0
  C  C32  1  0.12172000  0.82090000  0.47895000  1.0
  C  C33  1  0.87828000  0.17910000  0.97895000  1.0
  O  O34  1  0.90923000  0.76929000  0.35241000  1.0
  O  O35  1  0.09077000  0.23072000  0.85240000  1.0
  O  O36  1  0.09077000  0.23071000  0.64759000  1.0
  O  O37  1  0.90922000  0.76928000  0.14759000  1.0
  O  O38  1  0.23911000  0.06244000  0.34173000  1.0
  O  O39  1  0.76089000  0.93756000  0.84172000  1.0
  O  O40  1  0.76089000  0.93755000  0.65828000  1.0
  O  O41  1  0.23910000  0.06244000  0.15827000  1.0
  O  O42  1  0.86395000  0.22106000  0.25000000  1.0
  O  O43  1  0.13605000  0.77894000  0.75000000  1.0
  O  O44  1  0.40294000  0.46624000  0.31975000  1.0
  O  O45  1  0.59708000  0.53376000  0.81975000  1.0
  O  O46  1  0.59707000  0.53376000  0.68025000  1.0
  O  O47  1  0.40293000  0.46624000  0.18025000  1.0
  O  O48  1  0.43198000  0.82769000  0.25000000  1.0
  O  O49  1  0.56802000  0.17231000  0.75000000  1.0
  F  F50  1  0.81281000  0.29369000  0.42315000  1.0
  F  F51  1  0.18719000  0.70631000  0.92315000  1.0
  F  F52  1  0.18720000  0.70631000  0.57685000  1.0
  F  F53  1  0.81280000  0.29369000  0.07685000  1.0
  F  F54  1  0.74458000  0.35336000  0.53976000  1.0
  F  F55  1  0.25543000  0.64664000  0.03976000  1.0
  F  F56  1  0.25542000  0.64664000  0.46024000  1.0
  F  F57  1  0.74457000  0.35336000  0.96024000  1.0
