# generated using pymatgen
data_ZnH12C19NO4
_symmetry_space_group_name_H-M   'P 1'
_cell_length_a   11.87320000
_cell_length_b   12.54340000
_cell_length_c   13.35870000
_cell_angle_alpha   82.25140000
_cell_angle_beta   87.47560000
_cell_angle_gamma   76.26760000
_symmetry_Int_Tables_number   1
_chemical_formula_structural   ZnH12C19NO4
_chemical_formula_sum   'Zn2 H24 C38 N2 O8'
_cell_volume   1914.84854251
_cell_formula_units_Z   2
loop_
 _symmetry_equiv_pos_site_id
 _symmetry_equiv_pos_as_xyz
  1  'x, y, z'
loop_
 _atom_site_type_symbol
 _atom_site_label
 _atom_site_symmetry_multiplicity
 _atom_site_fract_x
 _atom_site_fract_y
 _atom_site_fract_z
 _atom_site_occupancy
  Zn  Zn0  1  0.46894000  0.61839000  0.51586000  1.0
  Zn  Zn1  1  0.53047000  0.38099000  0.47647000  1.0
  H  H2  1  0.42337000  0.26295000  0.78871000  1.0
  H  H3  1  0.51364000  0.56650000  0.82128000  1.0
  H  H4  1  0.52708000  0.76264000  0.20903000  1.0
  H  H5  1  0.52099000  0.68000000  0.90752000  1.0
  H  H6  1  0.55253000  0.80763000  0.02191000  1.0
  H  H7  1  0.37161000  0.43986000  0.24859000  1.0
  H  H8  1  0.72044000  0.20029000  0.16652000  1.0
  H  H9  1  0.59769000  0.30939000  0.18442000  1.0
  H  H10  1  0.73580000  0.33858000  0.15890000  1.0
  H  H11  1  0.68941000  0.34429000  0.34080000  1.0
  H  H12  1  0.80817000  0.23260000  0.32606000  1.0
  H  H13  1  0.30106000  0.13586000  0.67332000  1.0
  H  H14  1  0.16596000  0.73863000  0.56451000  1.0
  H  H15  1  0.11222000  0.69469000  0.68486000  1.0
  H  H16  1  0.10947000  0.83745000  0.64943000  1.0
  H  H17  1  0.32855000  0.64703000  0.68553000  1.0
  H  H18  1  0.27383000  0.74616000  0.76850000  1.0
  H  H19  1  0.26563000  0.94640000  0.71191000  1.0
  H  H20  1  0.55180000  0.80700000  0.45595000  1.0
  H  H21  1  0.65317000  0.90955000  0.38708000  1.0
  H  H22  1  0.75181000  0.04814000  0.29751000  1.0
  H  H23  1  0.40603000  0.26278000  0.57807000  1.0
  H  H24  1  0.33429000  0.31355000  0.13555000  1.0
  H  H25  1  0.36238000  0.24297000  0.97060000  1.0
  C  C26  1  0.47719000  0.58260000  0.30903000  1.0
  C  C27  1  0.37406000  0.38160000  0.10582000  1.0
  C  C28  1  0.39432000  0.45221000  0.16868000  1.0
  C  C29  1  0.71642000  0.50462000  0.49099000  1.0
  C  C30  1  0.48075000  0.49648000  0.85681000  1.0
  C  C31  1  0.42960000  0.32452000  0.83725000  1.0
  C  C32  1  0.47321000  0.61394000  0.19684000  1.0
  C  C33  1  0.32988000  0.91833000  0.65432000  1.0
  C  C34  1  0.65305000  0.18341000  0.37212000  1.0
  C  C35  1  0.68320000  0.07205000  0.35266000  1.0
  C  C36  1  0.62774000  0.99527000  0.40237000  1.0
  C  C37  1  0.47112000  0.41781000  0.79578000  1.0
  C  C38  1  0.53911000  0.02840000  0.47326000  1.0
  C  C39  1  0.51345000  0.14096000  0.49156000  1.0
  C  C40  1  0.47450000  0.95399000  0.52786000  1.0
  C  C41  1  0.49969000  0.43839000  0.68587000  1.0
  C  C42  1  0.38964000  0.99301000  0.60137000  1.0
  C  C43  1  0.36732000  0.10606000  0.61790000  1.0
  C  C44  1  0.42567000  0.17706000  0.56463000  1.0
  C  C45  1  0.48918000  0.84322000  0.51138000  1.0
  C  C46  1  0.34967000  0.81003000  0.63389000  1.0
  C  C47  1  0.28331000  0.48993000  0.49331000  1.0
  C  C48  1  0.50856000  0.70905000  0.15721000  1.0
  C  C49  1  0.83872000  0.50281000  0.49203000  1.0
  C  C50  1  0.94230000  0.50080000  0.49238000  1.0
  C  C51  1  0.05664000  0.49788000  0.49295000  1.0
  C  C52  1  0.16054000  0.49462000  0.49326000  1.0
  C  C53  1  0.39648000  0.31372000  0.93789000  1.0
  C  C54  1  0.71438000  0.26387000  0.31291000  1.0
  C  C55  1  0.69062000  0.27826000  0.19908000  1.0
  C  C56  1  0.28135000  0.73291000  0.68837000  1.0
  C  C57  1  0.15974000  0.75267000  0.64401000  1.0
  C  C58  1  0.52358000  0.73335000  0.05251000  1.0
  C  C59  1  0.50525000  0.66141000  0.98824000  1.0
  C  C60  1  0.46678000  0.56494000  0.02559000  1.0
  C  C61  1  0.44556000  0.54298000  0.13157000  1.0
  C  C62  1  0.45101000  0.48605000  0.96009000  1.0
  C  C63  1  0.40644000  0.39293000  0.00126000  1.0
  N  N64  1  0.42895000  0.77448000  0.56087000  1.0
  N  N65  1  0.57072000  0.21637000  0.44113000  1.0
  O  O66  1  0.44127000  0.65901000  0.36467000  1.0
  O  O67  1  0.52182000  0.48127000  0.33976000  1.0
  O  O68  1  0.64689000  0.59951000  0.48290000  1.0
  O  O69  1  0.69185000  0.41031000  0.49803000  1.0
  O  O70  1  0.51623000  0.53386000  0.65360000  1.0
  O  O71  1  0.50251000  0.36180000  0.63128000  1.0
  O  O72  1  0.31312000  0.56748000  0.52983000  1.0
  O  O73  1  0.34978000  0.40799000  0.45761000  1.0
