# generated using pymatgen
data_CdH18C22(SN6)2
_symmetry_space_group_name_H-M   'P 1'
_cell_length_a   9.66188000
_cell_length_b   9.66188000
_cell_length_c   13.92420000
_cell_angle_alpha   94.61870000
_cell_angle_beta   94.61880000
_cell_angle_gamma   99.32520000
_symmetry_Int_Tables_number   1
_chemical_formula_structural   CdH18C22(SN6)2
_chemical_formula_sum   'Cd2 H36 C44 S4 N24'
_cell_volume   1272.70851020
_cell_formula_units_Z   2
loop_
 _symmetry_equiv_pos_site_id
 _symmetry_equiv_pos_as_xyz
  1  'x, y, z'
loop_
 _atom_site_type_symbol
 _atom_site_label
 _atom_site_symmetry_multiplicity
 _atom_site_fract_x
 _atom_site_fract_y
 _atom_site_fract_z
 _atom_site_occupancy
  Cd  Cd0  1  0.00000000  0.50001000  0.00000000  1.0
  Cd  Cd1  1  0.50000000  0.00000000  0.50000000  1.0
  H  H2  1  0.72009000  0.26984000  0.40342000  1.0
  H  H3  1  0.73016000  0.27991000  0.09658000  1.0
  H  H4  1  0.27991000  0.73017000  0.59658000  1.0
  H  H5  1  0.26983000  0.72009000  0.90342000  1.0
  H  H6  1  0.81534000  0.51071000  0.35843000  1.0
  H  H7  1  0.48929000  0.18467000  0.14158000  1.0
  H  H8  1  0.18467000  0.48929000  0.64158000  1.0
  H  H9  1  0.51071000  0.81533000  0.85843000  1.0
  H  H10  1  0.66290000  0.68963000  0.34212000  1.0
  H  H11  1  0.31038000  0.33710000  0.15788000  1.0
  H  H12  1  0.33710000  0.31038000  0.65788000  1.0
  H  H13  1  0.68962000  0.66290000  0.84212000  1.0
  H  H14  1  0.40636000  0.63747000  0.36193000  1.0
  H  H15  1  0.36254000  0.59364000  0.13807000  1.0
  H  H16  1  0.59364000  0.36253000  0.63807000  1.0
  H  H17  1  0.63746000  0.40636000  0.86193000  1.0
  H  H18  1  0.15914000  0.50642000  0.40887000  1.0
  H  H19  1  0.49358000  0.84087000  0.09113000  1.0
  H  H20  1  0.84086000  0.49357000  0.59113000  1.0
  H  H21  1  0.50642000  0.15913000  0.90887000  1.0
  H  H22  1  0.08274000  0.33556000  0.43934000  1.0
  H  H23  1  0.66444000  0.91726000  0.06066000  1.0
  H  H24  1  0.91726000  0.66444000  0.56066000  1.0
  H  H25  1  0.33556000  0.08273000  0.93934000  1.0
  H  H26  1  0.08047000  0.13044000  0.28044000  1.0
  H  H27  1  0.86956000  0.91953000  0.21956000  1.0
  H  H28  1  0.91953000  0.86956000  0.71956000  1.0
  H  H29  1  0.13044000  0.08047000  0.78043000  1.0
  H  H30  1  0.99947000  0.15929000  0.08706000  1.0
  H  H31  1  0.84071000  0.00053000  0.41294000  1.0
  H  H32  1  0.00053000  0.84071000  0.91294000  1.0
  H  H33  1  0.15929000  0.99947000  0.58706000  1.0
  H  H34  1  0.09155000  0.56317000  0.24142000  1.0
  H  H35  1  0.43683000  0.90846000  0.25858000  1.0
  H  H36  1  0.90845000  0.43682000  0.75858000  1.0
  H  H37  1  0.56318000  0.09155000  0.74142000  1.0
  C  C38  1  0.50811000  0.31868000  0.40457000  1.0
  C  C39  1  0.68132000  0.49189000  0.09543000  1.0
  C  C40  1  0.49189000  0.68132000  0.59543000  1.0
  C  C41  1  0.31868000  0.50811000  0.90457000  1.0
  C  C42  1  0.65267000  0.34839000  0.39317000  1.0
  C  C43  1  0.65161000  0.34732000  0.10683000  1.0
  C  C44  1  0.34732000  0.65161000  0.60683000  1.0
  C  C45  1  0.34839000  0.65267000  0.89317000  1.0
  C  C46  1  0.70393000  0.48213000  0.36875000  1.0
  C  C47  1  0.51787000  0.29607000  0.13125000  1.0
  C  C48  1  0.29607000  0.51787000  0.63125000  1.0
  C  C49  1  0.48213000  0.70393000  0.86875000  1.0
  C  C50  1  0.61580000  0.58471000  0.35812000  1.0
  C  C51  1  0.41529000  0.38421000  0.14188000  1.0
  C  C52  1  0.38420000  0.41530000  0.64188000  1.0
  C  C53  1  0.58471000  0.61579000  0.85812000  1.0
  C  C54  1  0.47253000  0.55675000  0.36871000  1.0
  C  C55  1  0.44325000  0.52747000  0.13129000  1.0
  C  C56  1  0.52747000  0.44325000  0.63129000  1.0
  C  C57  1  0.55675000  0.47252000  0.86872000  1.0
  C  C58  1  0.42021000  0.42034000  0.39078000  1.0
  C  C59  1  0.57966000  0.57979000  0.10922000  1.0
  C  C60  1  0.57979000  0.57966000  0.60922000  1.0
  C  C61  1  0.42034000  0.42021000  0.89078000  1.0
  C  C62  1  0.15213000  0.39256000  0.39129000  1.0
  C  C63  1  0.60744000  0.84787000  0.10871000  1.0
  C  C64  1  0.84786000  0.60744000  0.60871000  1.0
  C  C65  1  0.39256000  0.15213000  0.89129000  1.0
  C  C66  1  0.06667000  0.22208000  0.24308000  1.0
  C  C67  1  0.77793000  0.93333000  0.25692000  1.0
  C  C68  1  0.93333000  0.77792000  0.75691000  1.0
  C  C69  1  0.22208000  0.06667000  0.74308000  1.0
  C  C70  1  0.02807000  0.23875000  0.14814000  1.0
  C  C71  1  0.76125000  0.97193000  0.35186000  1.0
  C  C72  1  0.97193000  0.76125000  0.85186000  1.0
  C  C73  1  0.23876000  0.02807000  0.64814000  1.0
  C  C74  1  0.07619000  0.44972000  0.22402000  1.0
  C  C75  1  0.55029000  0.92382000  0.27598000  1.0
  C  C76  1  0.92381000  0.55028000  0.77598000  1.0
  C  C77  1  0.44972000  0.07618000  0.72402000  1.0
  C  C78  1  0.19239000  0.81300000  0.08980000  1.0
  C  C79  1  0.18700000  0.80761000  0.41020000  1.0
  C  C80  1  0.80761000  0.18701000  0.91020000  1.0
  C  C81  1  0.81300000  0.19239000  0.58980000  1.0
  S  S82  1  0.25380000  0.98033000  0.09930000  1.0
  S  S83  1  0.01967000  0.74620000  0.40071000  1.0
  S  S84  1  0.74619000  0.01967000  0.90071000  1.0
  S  S85  1  0.98033000  0.25380000  0.59929000  1.0
  N  N86  1  0.03410000  0.38061000  0.13758000  1.0
  N  N87  1  0.61940000  0.96591000  0.36242000  1.0
  N  N88  1  0.96590000  0.61939000  0.86242000  1.0
  N  N89  1  0.38061000  0.03410000  0.63758000  1.0
  N  N90  1  0.09636000  0.35683000  0.29044000  1.0
  N  N91  1  0.64318000  0.90365000  0.20956000  1.0
  N  N92  1  0.90364000  0.64317000  0.70956000  1.0
  N  N93  1  0.35683000  0.09636000  0.79044000  1.0
  N  N94  1  0.28937000  0.35227000  0.40770000  1.0
  N  N95  1  0.64773000  0.71063000  0.09230000  1.0
  N  N96  1  0.71062000  0.64773000  0.59230000  1.0
  N  N97  1  0.35226000  0.28937000  0.90769000  1.0
  N  N98  1  0.29540000  0.21907000  0.43027000  1.0
  N  N99  1  0.78093000  0.70460000  0.06973000  1.0
  N  N100  1  0.70460000  0.78093000  0.56972000  1.0
  N  N101  1  0.21907000  0.29540000  0.93027000  1.0
  N  N102  1  0.42534000  0.19902000  0.42924000  1.0
  N  N103  1  0.80098000  0.57466000  0.07076000  1.0
  N  N104  1  0.57466000  0.80098000  0.57076000  1.0
  N  N105  1  0.19902000  0.42534000  0.92924000  1.0
  N  N106  1  0.14940000  0.68980000  0.08368000  1.0
  N  N107  1  0.31020000  0.85061000  0.41632000  1.0
  N  N108  1  0.85060000  0.31019000  0.91632000  1.0
  N  N109  1  0.68980000  0.14940000  0.58368000  1.0
