# generated using pymatgen
data_NiH16C16(NO2)2
_symmetry_space_group_name_H-M   'P 1'
_cell_length_a   4.22462000
_cell_length_b   10.59100000
_cell_length_c   15.38900000
_cell_angle_alpha   96.66310000
_cell_angle_beta   90.00000000
_cell_angle_gamma   89.99970000
_symmetry_Int_Tables_number   1
_chemical_formula_structural   NiH16C16(NO2)2
_chemical_formula_sum   'Ni2 H32 C32 N4 O8'
_cell_volume   683.89851488
_cell_formula_units_Z   2
loop_
 _symmetry_equiv_pos_site_id
 _symmetry_equiv_pos_as_xyz
  1  'x, y, z'
loop_
 _atom_site_type_symbol
 _atom_site_label
 _atom_site_symmetry_multiplicity
 _atom_site_fract_x
 _atom_site_fract_y
 _atom_site_fract_z
 _atom_site_occupancy
  Ni  Ni0  1  0.50000000  0.50000000  0.50000000  1.0
  Ni  Ni1  1  0.00000000  0.50000000  0.00000000  1.0
  H  H2  1  0.25767000  0.56062000  0.23496000  1.0
  H  H3  1  0.75766000  0.43938000  0.26505000  1.0
  H  H4  1  0.74234000  0.43938000  0.76504000  1.0
  H  H5  1  0.24234000  0.56062000  0.73495000  1.0
  H  H6  1  0.57598000  0.94296000  0.24990000  1.0
  H  H7  1  0.07599000  0.05704000  0.25010000  1.0
  H  H8  1  0.42402000  0.05704000  0.75010000  1.0
  H  H9  1  0.92401000  0.94296000  0.74990000  1.0
  H  H10  1  0.62842000  0.82433000  0.37996000  1.0
  H  H11  1  0.12843000  0.17566000  0.12004000  1.0
  H  H12  1  0.37158000  0.17566000  0.62004000  1.0
  H  H13  1  0.87157000  0.82434000  0.87996000  1.0
  H  H14  1  0.74905000  0.83427000  0.03286000  1.0
  H  H15  1  0.24905000  0.16573000  0.46714000  1.0
  H  H16  1  0.25095000  0.16573000  0.96714000  1.0
  H  H17  1  0.75096000  0.83428000  0.53286000  1.0
  H  H18  1  0.07850000  0.92747000  0.07145000  1.0
  H  H19  1  0.57850000  0.07253000  0.42855000  1.0
  H  H20  1  0.92150000  0.07253000  0.92855000  1.0
  H  H21  1  0.42150000  0.92747000  0.57145000  1.0
  H  H22  1  0.69369000  0.97564000  0.10730000  1.0
  H  H23  1  0.19369000  0.02436000  0.39270000  1.0
  H  H24  1  0.30631000  0.02436000  0.89270000  1.0
  H  H25  1  0.80631000  0.97564000  0.60730000  1.0
  H  H26  1  0.42996000  0.61810000  0.09281000  1.0
  H  H27  1  0.92996000  0.38190000  0.40719000  1.0
  H  H28  1  0.57004000  0.38190000  0.90719000  1.0
  H  H29  1  0.07004000  0.61810000  0.59281000  1.0
  H  H30  1  0.23258000  0.72218000  0.04090000  1.0
  H  H31  1  0.73258000  0.27782000  0.45910000  1.0
  H  H32  1  0.76742000  0.27782000  0.95910000  1.0
  H  H33  1  0.26743000  0.72218000  0.54090000  1.0
  C  C34  1  0.95185000  0.68633000  0.31573000  1.0
  C  C35  1  0.45185000  0.31367000  0.18427000  1.0
  C  C36  1  0.04815000  0.31367000  0.68427000  1.0
  C  C37  1  0.54814000  0.68633000  0.81573000  1.0
  C  C38  1  0.10526000  0.64380000  0.23743000  1.0
  C  C39  1  0.60526000  0.35620000  0.26257000  1.0
  C  C40  1  0.89475000  0.35620000  0.76257000  1.0
  C  C41  1  0.39473000  0.64380000  0.73743000  1.0
  C  C42  1  0.06366000  0.70616000  0.16307000  1.0
  C  C43  1  0.56366000  0.29383000  0.33693000  1.0
  C  C44  1  0.93634000  0.29384000  0.83693000  1.0
  C  C45  1  0.43634000  0.70617000  0.66307000  1.0
  C  C46  1  0.87663000  0.81717000  0.16739000  1.0
  C  C47  1  0.37663000  0.18283000  0.33261000  1.0
  C  C48  1  0.12337000  0.18283000  0.83261000  1.0
  C  C49  1  0.62337000  0.81717000  0.66739000  1.0
  C  C50  1  0.72461000  0.85832000  0.24665000  1.0
  C  C51  1  0.22461000  0.14168000  0.25336000  1.0
  C  C52  1  0.27539000  0.14168000  0.75336000  1.0
  C  C53  1  0.77539000  0.85832000  0.74665000  1.0
  C  C54  1  0.75592000  0.79362000  0.31975000  1.0
  C  C55  1  0.25593000  0.20638000  0.18025000  1.0
  C  C56  1  0.24408000  0.20638000  0.68025000  1.0
  C  C57  1  0.74407000  0.79362000  0.81975000  1.0
  C  C58  1  0.98837000  0.61582000  0.39382000  1.0
  C  C59  1  0.48837000  0.38418000  0.10618000  1.0
  C  C60  1  0.01163000  0.38418000  0.60618000  1.0
  C  C61  1  0.51162000  0.61582000  0.89382000  1.0
  C  C62  1  0.84603000  0.89229000  0.09069000  1.0
  C  C63  1  0.34603000  0.10771000  0.40931000  1.0
  C  C64  1  0.15397000  0.10771000  0.90931000  1.0
  C  C65  1  0.65398000  0.89229000  0.59069000  1.0
  N  N66  1  0.21018000  0.65598000  0.08349000  1.0
  N  N67  1  0.71018000  0.34402000  0.41651000  1.0
  N  N68  1  0.78982000  0.34402000  0.91651000  1.0
  N  N69  1  0.28982000  0.65598000  0.58349000  1.0
  O  O70  1  0.79145000  0.64104000  0.45663000  1.0
  O  O71  1  0.29145000  0.35896000  0.04337000  1.0
  O  O72  1  0.20855000  0.35896000  0.54336000  1.0
  O  O73  1  0.70855000  0.64104000  0.95663000  1.0
  O  O74  1  0.21048000  0.53364000  0.39291000  1.0
  O  O75  1  0.71048000  0.46636000  0.10709000  1.0
  O  O76  1  0.78952000  0.46636000  0.60709000  1.0
  O  O77  1  0.28952000  0.53364000  0.89291000  1.0
