# generated using pymatgen
data_AlH27(C11O2)3
_symmetry_space_group_name_H-M   'P 1'
_cell_length_a   3.98911000
_cell_length_b   15.97338442
_cell_length_c   16.09160000
_cell_angle_alpha   60.23776329
_cell_angle_beta   88.92380000
_cell_angle_gamma   87.81553753
_symmetry_Int_Tables_number   1
_chemical_formula_structural   AlH27(C11O2)3
_chemical_formula_sum   'Al1 H27 C33 O6'
_cell_volume   889.45221397
_cell_formula_units_Z   1
loop_
 _symmetry_equiv_pos_site_id
 _symmetry_equiv_pos_as_xyz
  1  'x, y, z'
loop_
 _atom_site_type_symbol
 _atom_site_label
 _atom_site_symmetry_multiplicity
 _atom_site_fract_x
 _atom_site_fract_y
 _atom_site_fract_z
 _atom_site_occupancy
  Al  Al0  1  0.99992000  0.50119000  0.99776000  1.0
  H  H1  1  0.50008000  0.92142000  0.15724000  1.0
  H  H2  1  0.54906000  0.92180000  0.42340000  1.0
  H  H3  1  0.45101000  0.65490000  0.42335000  1.0
  H  H4  1  0.23002000  0.84289000  0.10621000  1.0
  H  H5  1  0.73072000  0.59996000  0.34202000  1.0
  H  H6  1  0.76987000  0.05108000  0.10616000  1.0
  H  H7  1  0.26934000  0.05813000  0.34202000  1.0
  H  H8  1  0.25914000  0.84531000  0.55465000  1.0
  H  H9  1  0.74089000  0.60008000  0.55468000  1.0
  H  H10  1  0.64787000  0.43560000  0.34065000  1.0
  H  H11  1  0.73567000  0.44456000  0.22795000  1.0
  H  H12  1  0.03505000  0.48096000  0.28215000  1.0
  H  H13  1  0.33546000  0.83906000  0.94007000  1.0
  H  H14  1  0.21991000  0.72712000  0.95272000  1.0
  H  H15  1  0.93743000  0.79174000  0.98779000  1.0
  H  H16  1  0.66477000  0.22106000  0.94007000  1.0
  H  H17  1  0.77994000  0.32034000  0.95275000  1.0
  H  H18  1  0.06249000  0.22071000  0.98785000  1.0
  H  H19  1  0.35232000  0.22384000  0.34069000  1.0
  H  H20  1  0.26453000  0.32762000  0.22795000  1.0
  H  H21  1  0.96516000  0.23696000  0.28213000  1.0
  H  H22  1  0.97994000  0.75037000  0.77476000  1.0
  H  H23  1  0.38759000  0.77218000  0.79732000  1.0
  H  H24  1  0.18656000  0.85483000  0.68729000  1.0
  H  H25  1  0.01998000  0.47484000  0.77485000  1.0
  H  H26  1  0.61222000  0.43055000  0.79735000  1.0
  H  H27  1  0.81340000  0.45788000  0.68736000  1.0
  C  C28  1  0.51255000  0.35176000  0.07398000  1.0
  C  C29  1  0.49993000  0.57494000  0.85014000  1.0
  C  C30  1  0.48728000  0.57447000  0.07390000  1.0
  C  C31  1  0.51359000  0.93450000  0.28405000  1.0
  C  C32  1  0.50008000  0.88243000  0.23523000  1.0
  C  C33  1  0.48656000  0.78154000  0.28404000  1.0
  C  C34  1  0.48061000  0.73272000  0.38437000  1.0
  C  C35  1  0.50008000  0.78224000  0.43559000  1.0
  C  C36  1  0.51955000  0.88298000  0.38437000  1.0
  C  C37  1  0.34768000  0.72212000  0.08615000  1.0
  C  C38  1  0.34612000  0.77060000  0.13832000  1.0
  C  C39  1  0.47981000  0.72805000  0.23095000  1.0
  C  C40  1  0.61378000  0.63352000  0.27144000  1.0
  C  C41  1  0.61552000  0.58156000  0.22264000  1.0
  C  C42  1  0.48254000  0.62710000  0.12932000  1.0
  C  C43  1  0.65385000  0.09120000  0.13834000  1.0
  C  C44  1  0.65227000  0.19186000  0.08616000  1.0
  C  C45  1  0.51760000  0.24371000  0.12934000  1.0
  C  C46  1  0.38477000  0.19590000  0.22265000  1.0
  C  C47  1  0.38631000  0.09514000  0.27146000  1.0
  C  C48  1  0.52015000  0.04109000  0.23096000  1.0
  C  C49  1  0.36935000  0.77230000  0.59312000  1.0
  C  C50  1  0.36415000  0.72395000  0.69294000  1.0
  C  C51  1  0.50000000  0.62813000  0.74380000  1.0
  C  C52  1  0.63587000  0.58315000  0.69296000  1.0
  C  C53  1  0.63073000  0.63462000  0.59314000  1.0
  C  C54  1  0.49999000  0.72938000  0.54126000  1.0
  C  C55  1  0.76499000  0.48024000  0.27038000  1.0
  C  C56  1  0.20361000  0.77216000  0.98639000  1.0
  C  C57  1  0.79628000  0.24163000  0.98643000  1.0
  C  C58  1  0.23527000  0.24949000  0.27039000  1.0
  C  C59  1  0.22229000  0.77819000  0.74072000  1.0
  C  C60  1  0.77763000  0.48111000  0.74076000  1.0
  O  O61  1  0.72242000  0.59280000  0.01298000  1.0
  O  O62  1  0.74307000  0.39471000  0.09041000  1.0
  O  O63  1  0.74036000  0.51388000  0.89385000  1.0
  O  O64  1  0.25674000  0.51508000  0.09038000  1.0
  O  O65  1  0.25959000  0.59233000  0.89382000  1.0
  O  O66  1  0.27734000  0.39432000  0.01305000  1.0
