# generated using pymatgen
data_CdH4C3(BrN)2
_symmetry_space_group_name_H-M   'P 1'
_cell_length_a   3.98664000
_cell_length_b   11.30430000
_cell_length_c   15.75660000
_cell_angle_alpha   90.00010000
_cell_angle_beta   90.00000000
_cell_angle_gamma   89.99990000
_symmetry_Int_Tables_number   1
_chemical_formula_structural   CdH4C3(BrN)2
_chemical_formula_sum   'Cd4 H16 C12 Br8 N8'
_cell_volume   710.08968594
_cell_formula_units_Z   4
loop_
 _symmetry_equiv_pos_site_id
 _symmetry_equiv_pos_as_xyz
  1  'x, y, z'
loop_
 _atom_site_type_symbol
 _atom_site_label
 _atom_site_symmetry_multiplicity
 _atom_site_fract_x
 _atom_site_fract_y
 _atom_site_fract_z
 _atom_site_occupancy
  Cd  Cd0  1  0.07413000  0.10773000  0.91112000  1.0
  Cd  Cd1  1  0.57411000  0.89228000  0.08888000  1.0
  Cd  Cd2  1  0.07410000  0.60772000  0.58888000  1.0
  Cd  Cd3  1  0.57412000  0.39228000  0.41112000  1.0
  H  H4  1  0.17982000  0.21544000  0.58381000  1.0
  H  H5  1  0.67981000  0.78456000  0.41619000  1.0
  H  H6  1  0.17981000  0.71544000  0.91619000  1.0
  H  H7  1  0.67983000  0.28455000  0.08381000  1.0
  H  H8  1  0.82503000  0.93732000  0.73775000  1.0
  H  H9  1  0.32503000  0.06269000  0.26225000  1.0
  H  H10  1  0.82502000  0.43732000  0.76225000  1.0
  H  H11  1  0.32503000  0.56268000  0.23775000  1.0
  H  H12  1  0.89681000  0.01485000  0.57158000  1.0
  H  H13  1  0.39680000  0.98515000  0.42843000  1.0
  H  H14  1  0.89681000  0.51486000  0.92843000  1.0
  H  H15  1  0.39682000  0.48514000  0.07157000  1.0
  H  H16  1  0.30758000  0.26992000  0.73901000  1.0
  H  H17  1  0.80758000  0.73008000  0.26099000  1.0
  H  H18  1  0.30758000  0.76992000  0.76099000  1.0
  H  H19  1  0.80758000  0.23008000  0.23900000  1.0
  C  C20  1  0.93754000  0.01765000  0.71360000  1.0
  C  C21  1  0.43754000  0.98235000  0.28640000  1.0
  C  C22  1  0.93754000  0.51765000  0.78640000  1.0
  C  C23  1  0.43753000  0.48234000  0.21360000  1.0
  C  C24  1  0.97025000  0.05499000  0.63105000  1.0
  C  C25  1  0.47024000  0.94501000  0.36895000  1.0
  C  C26  1  0.97025000  0.55499000  0.86895000  1.0
  C  C27  1  0.47026000  0.44501000  0.13105000  1.0
  C  C28  1  0.18511000  0.18991000  0.71733000  1.0
  C  C29  1  0.68511000  0.81009000  0.28267000  1.0
  C  C30  1  0.18511000  0.68991000  0.78267000  1.0
  C  C31  1  0.68511000  0.31009000  0.21733000  1.0
  Br  Br32  1  0.07216000  0.07710000  0.08803000  1.0
  Br  Br33  1  0.57217000  0.92291000  0.91197000  1.0
  Br  Br34  1  0.07216000  0.57709000  0.41197000  1.0
  Br  Br35  1  0.57217000  0.42291000  0.58803000  1.0
  Br  Br36  1  0.57197000  0.27650000  0.92197000  1.0
  Br  Br37  1  0.07194000  0.72351000  0.07803000  1.0
  Br  Br38  1  0.57193000  0.77649000  0.57803000  1.0
  Br  Br39  1  0.07197000  0.22350000  0.42197000  1.0
  N  N40  1  0.07212000  0.10269000  0.76669000  1.0
  N  N41  1  0.57211000  0.89731000  0.23332000  1.0
  N  N42  1  0.07212000  0.60269000  0.73331000  1.0
  N  N43  1  0.57212000  0.39730000  0.26668000  1.0
  N  N44  1  0.12613000  0.16339000  0.63507000  1.0
  N  N45  1  0.62613000  0.83661000  0.36493000  1.0
  N  N46  1  0.12614000  0.66339000  0.86493000  1.0
  N  N47  1  0.62613000  0.33660000  0.13507000  1.0
