# generated using pymatgen
data_ZnPH10C6(NO2)3
_symmetry_space_group_name_H-M   'P 1'
_cell_length_a   5.18019000
_cell_length_b   9.79382509
_cell_length_c   10.72360000
_cell_angle_alpha   89.89798346
_cell_angle_beta   83.91290000
_cell_angle_gamma   74.89903036
_symmetry_Int_Tables_number   1
_chemical_formula_structural   ZnPH10C6(NO2)3
_chemical_formula_sum   'Zn2 P2 H20 C12 N6 O12'
_cell_volume   522.11195464
_cell_formula_units_Z   2
loop_
 _symmetry_equiv_pos_site_id
 _symmetry_equiv_pos_as_xyz
  1  'x, y, z'
loop_
 _atom_site_type_symbol
 _atom_site_label
 _atom_site_symmetry_multiplicity
 _atom_site_fract_x
 _atom_site_fract_y
 _atom_site_fract_z
 _atom_site_occupancy
  Zn  Zn0  1  0.36845000  0.31777000  0.95647000  1.0
  Zn  Zn1  1  0.63155000  0.68224000  0.04352000  1.0
  P  P2  1  0.83910000  0.36531000  0.10959000  1.0
  P  P3  1  0.16089000  0.63470000  0.89041000  1.0
  H  H4  1  0.74788000  0.31192000  0.31317000  1.0
  H  H5  1  0.25211000  0.68809000  0.68683000  1.0
  H  H6  1  0.46047000  0.83586000  0.76356000  1.0
  H  H7  1  0.53953000  0.16414000  0.23644000  1.0
  H  H8  1  0.80207000  0.54563000  0.61845000  1.0
  H  H9  1  0.19793000  0.45437000  0.38156000  1.0
  H  H10  1  0.07729000  0.40527000  0.59755000  1.0
  H  H11  1  0.92270000  0.59473000  0.40246000  1.0
  H  H12  1  0.95066000  0.46342000  0.74310000  1.0
  H  H13  1  0.04933000  0.53658000  0.25691000  1.0
  H  H14  1  0.20925000  0.02750000  0.92232000  1.0
  H  H15  1  0.79075000  0.97250000  0.07769000  1.0
  H  H16  1  0.83211000  0.91276000  0.62377000  1.0
  H  H17  1  0.16789000  0.08724000  0.37623000  1.0
  H  H18  1  0.02643000  0.15638000  0.63864000  1.0
  H  H19  1  0.97356000  0.84362000  0.36136000  1.0
  H  H20  1  0.94145000  0.23445000  0.79195000  1.0
  H  H21  1  0.05855000  0.76555000  0.20804000  1.0
  H  H22  1  0.52951000  0.40298000  0.71748000  1.0
  H  H23  1  0.47048000  0.59702000  0.28252000  1.0
  C  C24  1  0.37223000  0.03570000  0.85292000  1.0
  C  C25  1  0.62778000  0.96430000  0.14708000  1.0
  C  C26  1  0.69624000  0.98005000  0.69611000  1.0
  C  C27  1  0.30376000  0.01995000  0.30389000  1.0
  C  C28  1  0.68328000  0.11324000  0.74247000  1.0
  C  C29  1  0.31673000  0.88676000  0.25753000  1.0
  C  C30  1  0.85746000  0.20986000  0.70726000  1.0
  C  C31  1  0.14256000  0.79013000  0.29274000  1.0
  C  C32  1  0.71196000  0.35266000  0.65565000  1.0
  C  C33  1  0.28804000  0.64734000  0.34435000  1.0
  C  C34  1  0.63713000  0.33687000  0.52253000  1.0
  C  C35  1  0.36287000  0.66313000  0.47747000  1.0
  N  N36  1  0.47824000  0.14627000  0.84114000  1.0
  N  N37  1  0.52176000  0.85373000  0.15886000  1.0
  N  N38  1  0.49809000  0.93465000  0.76633000  1.0
  N  N39  1  0.50192000  0.06535000  0.23368000  1.0
  N  N40  1  0.89486000  0.44829000  0.65387000  1.0
  N  N41  1  0.10513000  0.55171000  0.34613000  1.0
  O  O42  1  0.13474000  0.27870000  0.09901000  1.0
  O  O43  1  0.86525000  0.72131000  0.90098000  1.0
  O  O44  1  0.82095000  0.52261000  0.14182000  1.0
  O  O45  1  0.17904000  0.47740000  0.85818000  1.0
  O  O46  1  0.67756000  0.30808000  0.22377000  1.0
  O  O47  1  0.32245000  0.69192000  0.77623000  1.0
  O  O48  1  0.70856000  0.34853000  0.99136000  1.0
  O  O49  1  0.29144000  0.65148000  0.00863000  1.0
  O  O50  1  0.39519000  0.34436000  0.50749000  1.0
  O  O51  1  0.60481000  0.65565000  0.49251000  1.0
  O  O52  1  0.83258000  0.31514000  0.43540000  1.0
  O  O53  1  0.16742000  0.68486000  0.56461000  1.0
