# generated using pymatgen
data_ZnH13C24(NO2)3
_symmetry_space_group_name_H-M   'P 1'
_cell_length_a   11.77630000
_cell_length_b   13.16650000
_cell_length_c   23.82380000
_cell_angle_alpha   89.61350000
_cell_angle_beta   86.55950000
_cell_angle_gamma   85.20180000
_symmetry_Int_Tables_number   1
_chemical_formula_structural   ZnH13C24(NO2)3
_chemical_formula_sum   'Zn2 H26 C48 N6 O12'
_cell_volume   3674.35799628
_cell_formula_units_Z   2
loop_
 _symmetry_equiv_pos_site_id
 _symmetry_equiv_pos_as_xyz
  1  'x, y, z'
loop_
 _atom_site_type_symbol
 _atom_site_label
 _atom_site_symmetry_multiplicity
 _atom_site_fract_x
 _atom_site_fract_y
 _atom_site_fract_z
 _atom_site_occupancy
  Zn  Zn0  1  0.61651000  0.49961000  0.49463000  1.0
  Zn  Zn1  1  0.38349000  0.50039000  0.50537000  1.0
  H  H2  1  0.49887000  0.75461000  0.94456000  1.0
  H  H3  1  0.49780000  0.24374000  0.94933000  1.0
  H  H4  1  0.67683000  0.43977000  0.21211000  1.0
  H  H5  1  0.32318000  0.56024000  0.78789000  1.0
  H  H6  1  0.66887000  0.44549000  0.31766000  1.0
  H  H7  1  0.33113000  0.55453000  0.68234000  1.0
  H  H8  1  0.32738000  0.56548000  0.21616000  1.0
  H  H9  1  0.67263000  0.43454000  0.78384000  1.0
  H  H10  1  0.35982000  0.18089000  0.49331000  1.0
  H  H11  1  0.64017000  0.81910000  0.50668000  1.0
  H  H12  1  0.72301000  0.17148000  0.50322000  1.0
  H  H13  1  0.50113000  0.24540000  0.05544000  1.0
  H  H14  1  0.27698000  0.82851000  0.49678000  1.0
  H  H15  1  0.26387000  0.01888000  0.49268000  1.0
  H  H16  1  0.73612000  0.98111000  0.50732000  1.0
  H  H17  1  0.29723000  0.57839000  0.36872000  1.0
  H  H18  1  0.23913000  0.62186000  0.30600000  1.0
  H  H19  1  0.70277000  0.42162000  0.63128000  1.0
  H  H20  1  0.76088000  0.37816000  0.69399000  1.0
  H  H21  1  0.81688000  0.39919000  0.54583000  1.0
  H  H22  1  0.18311000  0.60080000  0.45417000  1.0
  H  H23  1  0.77145000  0.63316000  0.43050000  1.0
  H  H24  1  0.22855000  0.36683000  0.56950000  1.0
  H  H25  1  0.01814000  0.34273000  0.57895000  1.0
  H  H26  1  0.98186000  0.65726000  0.42105000  1.0
  H  H27  1  0.50220000  0.75627000  0.05067000  1.0
  C  C28  1  0.46695000  0.69947000  0.50260000  1.0
  C  C29  1  0.60465000  0.45970000  0.70196000  1.0
  C  C30  1  0.40207000  0.53889000  0.23877000  1.0
  C  C31  1  0.59794000  0.46112000  0.76123000  1.0
  C  C32  1  0.50195000  0.50353000  0.20909000  1.0
  C  C33  1  0.49806000  0.49648000  0.79091000  1.0
  C  C34  1  0.53977000  0.18647000  0.49849000  1.0
  C  C35  1  0.46022000  0.81353000  0.50151000  1.0
  C  C36  1  0.34609000  0.97502000  0.49586000  1.0
  C  C37  1  0.65389000  0.02497000  0.50414000  1.0
  C  C38  1  0.35287000  0.87025000  0.49791000  1.0
  C  C39  1  0.53305000  0.30052000  0.49739000  1.0
  C  C40  1  0.64712000  0.12975000  0.50210000  1.0
  C  C41  1  0.55851000  0.86377000  0.50364000  1.0
  C  C42  1  0.44148000  0.13622000  0.49636000  1.0
  C  C43  1  0.49722000  0.50692000  0.38880000  1.0
  C  C44  1  0.50279000  0.49309000  0.61120000  1.0
  C  C45  1  0.55427000  0.97141000  0.50208000  1.0
  C  C46  1  0.44571000  0.02859000  0.49792000  1.0
  C  C47  1  0.05143000  0.40003000  0.55063000  1.0
  C  C48  1  0.94857000  0.59997000  0.44938000  1.0
  C  C49  1  0.16640000  0.41263000  0.54587000  1.0
  C  C50  1  0.59971000  0.46864000  0.23636000  1.0
  C  C51  1  0.83359000  0.58736000  0.45413000  1.0
  C  C52  1  0.14263000  0.54427000  0.48047000  1.0
  C  C53  1  0.85737000  0.45573000  0.51953000  1.0
  C  C54  1  0.02321000  0.53732000  0.48183000  1.0
  C  C55  1  0.97679000  0.46268000  0.51818000  1.0
  C  C56  1  0.49571000  0.40266000  0.87966000  1.0
  C  C57  1  0.50430000  0.59735000  0.12034000  1.0
  C  C58  1  0.49779000  0.59339000  0.87782000  1.0
  C  C59  1  0.50221000  0.40662000  0.12218000  1.0
  C  C60  1  0.49822000  0.59272000  0.94010000  1.0
  C  C61  1  0.40030000  0.53137000  0.76365000  1.0
  C  C62  1  0.50177000  0.40729000  0.05990000  1.0
  C  C63  1  0.49898000  0.49955000  0.97013000  1.0
  C  C64  1  0.50102000  0.50046000  0.02987000  1.0
  C  C65  1  0.49778000  0.40545000  0.94186000  1.0
  C  C66  1  0.50222000  0.59456000  0.05814000  1.0
  C  C67  1  0.49934000  0.68411000  0.96883000  1.0
  C  C68  1  0.50065000  0.31589000  0.03117000  1.0
  C  C69  1  0.50128000  0.68503000  0.02772000  1.0
  C  C70  1  0.49872000  0.31497000  0.97229000  1.0
  C  C71  1  0.59451000  0.47116000  0.29467000  1.0
  C  C72  1  0.40550000  0.52885000  0.70533000  1.0
  C  C73  1  0.49460000  0.50595000  0.32644000  1.0
  C  C74  1  0.50541000  0.49406000  0.67356000  1.0
  C  C75  1  0.39536000  0.54031000  0.29804000  1.0
  N  N76  1  0.49640000  0.49751000  0.85166000  1.0
  N  N77  1  0.50360000  0.50248000  0.14834000  1.0
  N  N78  1  0.78959000  0.51579000  0.48899000  1.0
  N  N79  1  0.21041000  0.48421000  0.51101000  1.0
  N  N80  1  0.29401000  0.57331000  0.32623000  1.0
  N  N81  1  0.70600000  0.42671000  0.67377000  1.0
  O  O82  1  0.56648000  0.65248000  0.50001000  1.0
  O  O83  1  0.50629000  0.67708000  0.14663000  1.0
  O  O84  1  0.49944000  0.67201000  0.84986000  1.0
  O  O85  1  0.50056000  0.32799000  0.15015000  1.0
  O  O86  1  0.43351000  0.34752000  0.49999000  1.0
  O  O87  1  0.37316000  0.65746000  0.50580000  1.0
  O  O88  1  0.62684000  0.34254000  0.49419000  1.0
  O  O89  1  0.59457000  0.49946000  0.40989000  1.0
  O  O90  1  0.40544000  0.50054000  0.59011000  1.0
  O  O91  1  0.40153000  0.51507000  0.41808000  1.0
  O  O92  1  0.59848000  0.48493000  0.58192000  1.0
  O  O93  1  0.49372000  0.32291000  0.85337000  1.0
