# generated using pymatgen
data_ZnH23C25(NO)5
_symmetry_space_group_name_H-M   'P 1'
_cell_length_a   9.90949000
_cell_length_b   14.90080000
_cell_length_c   18.75780000
_cell_angle_alpha   90.00010000
_cell_angle_beta   90.00000000
_cell_angle_gamma   95.77250000
_symmetry_Int_Tables_number   1
_chemical_formula_structural   ZnH23C25(NO)5
_chemical_formula_sum   'Zn4 H92 C100 N20 O20'
_cell_volume   2755.71895064
_cell_formula_units_Z   4
loop_
 _symmetry_equiv_pos_site_id
 _symmetry_equiv_pos_as_xyz
  1  'x, y, z'
loop_
 _atom_site_type_symbol
 _atom_site_label
 _atom_site_symmetry_multiplicity
 _atom_site_fract_x
 _atom_site_fract_y
 _atom_site_fract_z
 _atom_site_occupancy
  Zn  Zn0  1  0.13909000  0.40658000  0.70873000  1.0
  Zn  Zn1  1  0.36091000  0.09342000  0.20873000  1.0
  Zn  Zn2  1  0.86091000  0.59342000  0.29127000  1.0
  Zn  Zn3  1  0.63909000  0.90658000  0.79127000  1.0
  H  H4  1  0.70710000  0.40444000  0.65070000  1.0
  H  H5  1  0.79290000  0.09556000  0.15070000  1.0
  H  H6  1  0.29290000  0.59556000  0.34930000  1.0
  H  H7  1  0.20710000  0.90444000  0.84930000  1.0
  H  H8  1  0.47021000  0.44837000  0.64964000  1.0
  H  H9  1  0.02979000  0.05163000  0.14964000  1.0
  H  H10  1  0.52979000  0.55163000  0.35036000  1.0
  H  H11  1  0.97021000  0.94837000  0.85036000  1.0
  H  H12  1  0.43199000  0.60937000  0.66880000  1.0
  H  H13  1  0.06801000  0.89063000  0.16880000  1.0
  H  H14  1  0.56800000  0.39063000  0.33120000  1.0
  H  H15  1  0.93200000  0.10937000  0.83120000  1.0
  H  H16  1  0.88724000  0.68638000  0.56671000  1.0
  H  H17  1  0.61277000  0.81362000  0.06671000  1.0
  H  H18  1  0.11277000  0.31362000  0.43329000  1.0
  H  H19  1  0.38723000  0.18638000  0.93329000  1.0
  H  H20  1  0.97342000  0.79558000  0.55526000  1.0
  H  H21  1  0.52658000  0.70442000  0.05526000  1.0
  H  H22  1  0.02658000  0.20442000  0.44474000  1.0
  H  H23  1  0.47342000  0.29558000  0.94474000  1.0
  H  H24  1  0.80045000  0.78386000  0.58306000  1.0
  H  H25  1  0.69955000  0.71614000  0.08306000  1.0
  H  H26  1  0.19955000  0.21614000  0.41694000  1.0
  H  H27  1  0.30045000  0.28386000  0.91694000  1.0
  H  H28  1  0.06980000  0.82742000  0.73726000  1.0
  H  H29  1  0.43020000  0.67258000  0.23726000  1.0
  H  H30  1  0.93020000  0.17258000  0.26274000  1.0
  H  H31  1  0.56980000  0.32743000  0.76274000  1.0
  H  H32  1  0.06824000  0.87947000  0.65167000  1.0
  H  H33  1  0.43176000  0.62053000  0.15167000  1.0
  H  H34  1  0.93176000  0.12053000  0.34833000  1.0
  H  H35  1  0.56824000  0.37947000  0.84833000  1.0
  H  H36  1  0.16017000  0.78401000  0.66433000  1.0
  H  H37  1  0.33983000  0.71599000  0.16433000  1.0
  H  H38  1  0.83983000  0.21599000  0.33567000  1.0
  H  H39  1  0.66017000  0.28401000  0.83567000  1.0
  H  H40  1  0.31207000  0.25646000  0.64620000  1.0
  H  H41  1  0.18793000  0.24354000  0.14620000  1.0
  H  H42  1  0.68793000  0.74354000  0.35380000  1.0
  H  H43  1  0.81207000  0.75646000  0.85380000  1.0
  H  H44  1  0.37305000  0.41002000  0.45625000  1.0
  H  H45  1  0.12695000  0.08998000  0.95625000  1.0
  H  H46  1  0.62695000  0.58998000  0.54375000  1.0
  H  H47  1  0.87305000  0.91002000  0.04375000  1.0
  H  H48  1  0.20897000  0.49657000  0.54940000  1.0
  H  H49  1  0.29104000  0.00343000  0.04940000  1.0
  H  H50  1  0.79103000  0.50343000  0.45060000  1.0
  H  H51  1  0.70897000  0.99658000  0.95060000  1.0
  H  H52  1  0.42850000  0.23982000  0.45542000  1.0
  H  H53  1  0.07150000  0.26018000  0.95542000  1.0
  H  H54  1  0.57150000  0.76018000  0.54458000  1.0
  H  H55  1  0.92850000  0.73982000  0.04458000  1.0
  H  H56  1  0.40762000  0.17992000  0.53772000  1.0
  H  H57  1  0.09238000  0.32008000  0.03772000  1.0
  H  H58  1  0.59238000  0.82008000  0.46228000  1.0
  H  H59  1  0.90762000  0.67992000  0.96228000  1.0
  H  H60  1  0.58664000  0.20384000  0.63219000  1.0
  H  H61  1  0.91336000  0.29616000  0.13220000  1.0
  H  H62  1  0.41336000  0.79616000  0.36781000  1.0
  H  H63  1  0.08664000  0.70384000  0.86781000  1.0
  H  H64  1  0.98243000  0.31622000  0.56255000  1.0
  H  H65  1  0.51757000  0.18378000  0.06255000  1.0
  H  H66  1  0.01757000  0.68378000  0.43745000  1.0
  H  H67  1  0.48243000  0.81623000  0.93745000  1.0
  H  H68  1  0.88304000  0.36293000  0.44771000  1.0
  H  H69  1  0.61696000  0.13707000  0.94771000  1.0
  H  H70  1  0.11696000  0.63707000  0.55229000  1.0
  H  H71  1  0.38304000  0.86293000  0.05229000  1.0
  H  H72  1  0.63570000  0.32758000  0.42533000  1.0
  H  H73  1  0.86430000  0.17243000  0.92533000  1.0
  H  H74  1  0.36429000  0.67242000  0.57467000  1.0
  H  H75  1  0.13570000  0.82758000  0.07467000  1.0
  H  H76  1  0.96254000  0.24451000  0.67318000  1.0
  H  H77  1  0.53746000  0.25549000  0.17318000  1.0
  H  H78  1  0.03747000  0.75549000  0.32682000  1.0
  H  H79  1  0.46254000  0.74451000  0.82682000  1.0
  H  H80  1  0.81223000  0.26138000  0.71919000  1.0
  H  H81  1  0.68777000  0.23862000  0.21919000  1.0
  H  H82  1  0.18777000  0.73862000  0.28081000  1.0
  H  H83  1  0.31223000  0.76138000  0.78081000  1.0
  H  H84  1  0.67699000  0.12454000  0.76975000  1.0
  H  H85  1  0.82301000  0.37546000  0.26975000  1.0
  H  H86  1  0.32301000  0.87546000  0.23025000  1.0
  H  H87  1  0.17699000  0.62454000  0.73025000  1.0
  H  H88  1  0.84545000  0.91449000  0.66176000  1.0
  H  H89  1  0.65456000  0.58550000  0.16176000  1.0
  H  H90  1  0.15456000  0.08550000  0.33824000  1.0
  H  H91  1  0.34544000  0.41450000  0.83824000  1.0
  H  H92  1  0.95557000  0.07975000  0.60513000  1.0
  H  H93  1  0.54443000  0.42025000  0.10513000  1.0
  H  H94  1  0.04443000  0.92025000  0.39487000  1.0
  H  H95  1  0.45557000  0.57975000  0.89487000  1.0
  C  C96  1  0.79749000  0.53823000  0.67340000  1.0
  C  C97  1  0.70251000  0.96177000  0.17340000  1.0
  C  C98  1  0.20251000  0.46177000  0.32660000  1.0
  C  C99  1  0.29749000  0.03822000  0.82660000  1.0
  C  C100  1  0.77590000  0.62870000  0.68706000  1.0
  C  C101  1  0.72410000  0.87130000  0.18706000  1.0
  C  C102  1  0.22410000  0.37130000  0.31294000  1.0
  C  C103  1  0.27590000  0.12870000  0.81293000  1.0
  C  C104  1  0.64265000  0.65370000  0.68481000  1.0
  C  C105  1  0.85735000  0.84630000  0.18482000  1.0
  C  C106  1  0.35735000  0.34630000  0.31518000  1.0
  C  C107  1  0.14265000  0.15370000  0.81519000  1.0
  C  C108  1  0.68739000  0.47389000  0.66058000  1.0
  C  C109  1  0.81261000  0.02611000  0.16058000  1.0
  C  C110  1  0.31261000  0.52611000  0.33942000  1.0
  C  C111  1  0.18739000  0.97389000  0.83942000  1.0
  C  C112  1  0.55565000  0.49863000  0.65937000  1.0
  C  C113  1  0.94435000  0.00137000  0.15937000  1.0
  C  C114  1  0.44434000  0.50136000  0.34063000  1.0
  C  C115  1  0.05565000  0.99863000  0.84063000  1.0
  C  C116  1  0.53414000  0.58847000  0.67035000  1.0
  C  C117  1  0.96586000  0.91154000  0.17035000  1.0
  C  C118  1  0.46586000  0.41154000  0.32965000  1.0
  C  C119  1  0.03414000  0.08846000  0.82965000  1.0
  C  C120  1  0.93796000  0.50876000  0.67197000  1.0
  C  C121  1  0.56204000  0.99124000  0.17197000  1.0
  C  C122  1  0.06204000  0.49124000  0.32803000  1.0
  C  C123  1  0.43796000  0.00876000  0.82803000  1.0
  C  C124  1  0.89501000  0.69398000  0.70970000  1.0
  C  C125  1  0.60499000  0.80602000  0.20970000  1.0
  C  C126  1  0.10499000  0.30602000  0.29030000  1.0
  C  C127  1  0.39501000  0.19397000  0.79030000  1.0
  C  C128  1  0.60946000  0.74873000  0.69869000  1.0
  C  C129  1  0.89054000  0.75127000  0.19869000  1.0
  C  C130  1  0.39054000  0.25126000  0.30131000  1.0
  C  C131  1  0.10946000  0.24873000  0.80131000  1.0
  C  C132  1  0.89828000  0.75533000  0.58792000  1.0
  C  C133  1  0.60172000  0.74467000  0.08792000  1.0
  C  C134  1  0.10172000  0.24467000  0.41208000  1.0
  C  C135  1  0.39828000  0.25533000  0.91208000  1.0
  C  C136  1  0.06795000  0.81491000  0.67977000  1.0
  C  C137  1  0.43205000  0.68509000  0.17977000  1.0
  C  C138  1  0.93205000  0.18509000  0.32023000  1.0
  C  C139  1  0.56795000  0.31491000  0.82023000  1.0
  C  C140  1  0.30290000  0.30937000  0.60706000  1.0
  C  C141  1  0.19710000  0.19063000  0.10706000  1.0
  C  C142  1  0.69710000  0.69063000  0.39294000  1.0
  C  C143  1  0.80290000  0.80937000  0.89294000  1.0
  C  C144  1  0.33494000  0.39173000  0.50894000  1.0
  C  C145  1  0.16506000  0.10826000  0.00894000  1.0
  C  C146  1  0.66505000  0.60826000  0.49106000  1.0
  C  C147  1  0.83494000  0.89174000  0.99106000  1.0
  C  C148  1  0.25457000  0.43391000  0.55534000  1.0
  C  C149  1  0.24544000  0.06609000  0.05534000  1.0
  C  C150  1  0.74543000  0.56609000  0.44466000  1.0
  C  C151  1  0.75457000  0.93391000  0.94466000  1.0
  C  C152  1  0.44580000  0.24444000  0.51324000  1.0
  C  C153  1  0.05420000  0.25556000  0.01324000  1.0
  C  C154  1  0.55420000  0.75556000  0.48676000  1.0
  C  C155  1  0.94580000  0.74444000  0.98676000  1.0
  C  C156  1  0.59573000  0.26479000  0.52752000  1.0
  C  C157  1  0.90427000  0.23521000  0.02752000  1.0
  C  C158  1  0.40427000  0.73521000  0.47248000  1.0
  C  C159  1  0.09573000  0.76479000  0.97248000  1.0
  C  C160  1  0.65199000  0.23817000  0.59155000  1.0
  C  C161  1  0.84801000  0.26183000  0.09155000  1.0
  C  C162  1  0.34801000  0.76183000  0.40845000  1.0
  C  C163  1  0.15199000  0.73817000  0.90845000  1.0
  C  C164  1  0.79142000  0.25616000  0.60411000  1.0
  C  C165  1  0.70858000  0.24384000  0.10411000  1.0
  C  C166  1  0.20858000  0.74384000  0.39589000  1.0
  C  C167  1  0.29141000  0.75616000  0.89589000  1.0
  C  C168  1  0.87402000  0.30148000  0.55241000  1.0
  C  C169  1  0.62598000  0.19852000  0.05241000  1.0
  C  C170  1  0.12598000  0.69852000  0.44759000  1.0
  C  C171  1  0.37402000  0.80148000  0.94759000  1.0
  C  C172  1  0.81835000  0.32844000  0.48843000  1.0
  C  C173  1  0.68165000  0.17156000  0.98843000  1.0
  C  C174  1  0.18165000  0.67156000  0.51157000  1.0
  C  C175  1  0.31835000  0.82844000  0.01157000  1.0
  C  C176  1  0.67970000  0.30960000  0.47597000  1.0
  C  C177  1  0.82030000  0.19040000  0.97597000  1.0
  C  C178  1  0.32030000  0.69040000  0.52403000  1.0
  C  C179  1  0.17970000  0.80960000  0.02403000  1.0
  C  C180  1  0.85235000  0.22728000  0.67308000  1.0
  C  C181  1  0.64765000  0.27272000  0.17308000  1.0
  C  C182  1  0.14766000  0.77272000  0.32692000  1.0
  C  C183  1  0.35235000  0.72728000  0.82692000  1.0
  C  C184  1  0.73904000  0.08951000  0.73356000  1.0
  C  C185  1  0.76096000  0.41049000  0.23356000  1.0
  C  C186  1  0.26097000  0.91049000  0.26644000  1.0
  C  C187  1  0.23904000  0.58951000  0.76644000  1.0
  C  C188  1  0.82799000  0.98294000  0.67543000  1.0
  C  C189  1  0.67201000  0.51706000  0.17543000  1.0
  C  C190  1  0.17201000  0.01706000  0.32457000  1.0
  C  C191  1  0.32799000  0.48294000  0.82458000  1.0
  C  C192  1  0.88266000  0.06354000  0.64737000  1.0
  C  C193  1  0.61734000  0.43645000  0.14737000  1.0
  C  C194  1  0.11734000  0.93645000  0.35263000  1.0
  C  C195  1  0.38266000  0.56355000  0.85263000  1.0
  N  N196  1  0.23552000  0.38203000  0.61632000  1.0
  N  N197  1  0.26449000  0.11797000  0.11632000  1.0
  N  N198  1  0.76448000  0.61797000  0.38368000  1.0
  N  N199  1  0.73552000  0.88203000  0.88368000  1.0
  N  N200  1  0.36354000  0.31297000  0.54223000  1.0
  N  N201  1  0.13646000  0.18702000  0.04223000  1.0
  N  N202  1  0.63646000  0.68702000  0.45777000  1.0
  N  N203  1  0.86354000  0.81298000  0.95777000  1.0
  N  N204  1  0.73905000  0.00007000  0.72920000  1.0
  N  N205  1  0.76095000  0.49993000  0.22920000  1.0
  N  N206  1  0.26095000  0.99993000  0.27080000  1.0
  N  N207  1  0.23905000  0.50007000  0.77080000  1.0
  N  N208  1  0.82563000  0.13001000  0.68498000  1.0
  N  N209  1  0.67437000  0.36999000  0.18498000  1.0
  N  N210  1  0.17437000  0.86999000  0.31502000  1.0
  N  N211  1  0.32563000  0.63001000  0.81502000  1.0
  N  N212  1  0.94584000  0.75657000  0.66160000  1.0
  N  N213  1  0.55416000  0.74343000  0.16160000  1.0
  N  N214  1  0.05416000  0.24343000  0.33840000  1.0
  N  N215  1  0.44584000  0.25657000  0.83840000  1.0
  O  O216  1  0.94810000  0.42899000  0.69760000  1.0
  O  O217  1  0.55190000  0.07101000  0.19761000  1.0
  O  O218  1  0.05190000  0.57101000  0.30239000  1.0
  O  O219  1  0.44810000  0.92899000  0.80239000  1.0
  O  O220  1  0.03501000  0.55986000  0.64707000  1.0
  O  O221  1  0.46499000  0.94014000  0.14707000  1.0
  O  O222  1  0.96499000  0.44014000  0.35293000  1.0
  O  O223  1  0.53501000  0.05986000  0.85293000  1.0
  O  O224  1  0.94279000  0.68794000  0.77084000  1.0
  O  O225  1  0.55721000  0.81206000  0.27084000  1.0
  O  O226  1  0.05721000  0.31206000  0.22916000  1.0
  O  O227  1  0.44279000  0.18794000  0.72916000  1.0
  O  O228  1  0.67367000  0.78734000  0.75258000  1.0
  O  O229  1  0.82632000  0.71266000  0.25258000  1.0
  O  O230  1  0.32632000  0.21266000  0.24742000  1.0
  O  O231  1  0.17367000  0.28734000  0.74742000  1.0
  O  O232  1  0.52404000  0.78201000  0.66072000  1.0
  O  O233  1  0.97596000  0.71799000  0.16073000  1.0
  O  O234  1  0.47596000  0.21799000  0.33928000  1.0
  O  O235  1  0.02404000  0.28201000  0.83928000  1.0
