# generated using pymatgen
data_ZnH21C22N2O7
_symmetry_space_group_name_H-M   'P 1'
_cell_length_a   8.07402000
_cell_length_b   12.10630000
_cell_length_c   14.03650000
_cell_angle_alpha   108.83800000
_cell_angle_beta   104.38900000
_cell_angle_gamma   96.19900000
_symmetry_Int_Tables_number   1
_chemical_formula_structural   ZnH21C22N2O7
_chemical_formula_sum   'Zn2 H42 C44 N4 O14'
_cell_volume   1230.99722201
_cell_formula_units_Z   2
loop_
 _symmetry_equiv_pos_site_id
 _symmetry_equiv_pos_as_xyz
  1  'x, y, z'
loop_
 _atom_site_type_symbol
 _atom_site_label
 _atom_site_symmetry_multiplicity
 _atom_site_fract_x
 _atom_site_fract_y
 _atom_site_fract_z
 _atom_site_occupancy
  Zn  Zn0  1  0.95549000  0.25377000  0.43340000  1.0
  Zn  Zn1  1  0.04450000  0.74624000  0.56660000  1.0
  H  H2  1  0.77907000  0.42588000  0.40816000  1.0
  H  H3  1  0.22092000  0.57413000  0.59184000  1.0
  H  H4  1  0.65999000  0.28936000  0.36415000  1.0
  H  H5  1  0.34000000  0.71064000  0.63585000  1.0
  H  H6  1  0.28045000  0.99498000  0.18179000  1.0
  H  H7  1  0.71954000  0.00500000  0.81819000  1.0
  H  H8  1  0.12808000  0.77971000  0.08662000  1.0
  H  H9  1  0.87193000  0.22027000  0.91337000  1.0
  H  H10  1  0.60950000  0.67188000  0.19235000  1.0
  H  H11  1  0.39051000  0.32812000  0.80766000  1.0
  H  H12  1  0.75970000  0.88654000  0.28755000  1.0
  H  H13  1  0.24031000  0.11347000  0.71246000  1.0
  H  H14  1  0.08140000  0.39252000  0.97171000  1.0
  H  H15  1  0.91862000  0.60748000  0.02829000  1.0
  H  H16  1  0.99071000  0.29722000  0.77399000  1.0
  H  H17  1  0.00929000  0.70278000  0.22601000  1.0
  H  H18  1  0.30288000  0.60061000  0.76175000  1.0
  H  H19  1  0.69711000  0.39939000  0.23825000  1.0
  H  H20  1  0.39010000  0.69565000  0.95626000  1.0
  H  H21  1  0.60991000  0.30434000  0.04374000  1.0
  H  H22  1  0.98859000  0.00126000  0.39961000  1.0
  H  H23  1  0.01140000  0.99874000  0.60039000  1.0
  H  H24  1  0.21034000  0.88203000  0.43133000  1.0
  H  H25  1  0.78966000  0.11798000  0.56868000  1.0
  H  H26  1  0.60331000  0.20495000  0.53354000  1.0
  H  H27  1  0.39668000  0.79506000  0.46647000  1.0
  H  H28  1  0.36093000  0.30895000  0.49746000  1.0
  H  H29  1  0.63906000  0.69107000  0.50255000  1.0
  H  H30  1  0.15422000  0.47599000  0.41544000  1.0
  H  H31  1  0.84580000  0.52401000  0.58456000  1.0
  H  H32  1  0.34967000  0.27538000  0.21008000  1.0
  H  H33  1  0.65030000  0.72461000  0.78990000  1.0
  H  H34  1  0.27145000  0.36545000  0.13593000  1.0
  H  H35  1  0.72852000  0.63454000  0.86406000  1.0
  H  H36  1  0.12030000  0.26163000  0.15680000  1.0
  H  H37  1  0.87968000  0.73837000  0.84320000  1.0
  H  H38  1  0.33891000  0.59279000  0.39351000  1.0
  H  H39  1  0.66110000  0.40721000  0.60648000  1.0
  H  H40  1  0.32060000  0.57366000  0.25917000  1.0
  H  H41  1  0.67941000  0.42633000  0.74082000  1.0
  H  H42  1  0.49345000  0.52639000  0.33348000  1.0
  H  H43  1  0.50654000  0.47360000  0.66651000  1.0
  C  C44  1  0.62120000  0.08225000  0.29369000  1.0
  C  C45  1  0.37878000  0.91775000  0.70631000  1.0
  C  C46  1  0.52936000  0.95363000  0.23895000  1.0
  C  C47  1  0.47063000  0.04636000  0.76104000  1.0
  C  C48  1  0.35089000  0.92336000  0.18319000  1.0
  C  C49  1  0.64910000  0.07663000  0.81680000  1.0
  C  C50  1  0.26643000  0.80419000  0.13098000  1.0
  C  C51  1  0.73358000  0.19581000  0.86901000  1.0
  C  C52  1  0.36247000  0.71550000  0.13455000  1.0
  C  C53  1  0.63754000  0.28450000  0.86545000  1.0
  C  C54  1  0.53885000  0.74339000  0.19125000  1.0
  C  C55  1  0.46116000  0.25661000  0.80876000  1.0
  C  C56  1  0.62151000  0.86283000  0.24351000  1.0
  C  C57  1  0.37850000  0.13717000  0.75649000  1.0
  C  C58  1  0.23965000  0.54877000  0.97478000  1.0
  C  C59  1  0.76037000  0.45122000  0.02522000  1.0
  C  C60  1  0.12886000  0.43607000  0.92402000  1.0
  C  C61  1  0.87116000  0.56393000  0.07599000  1.0
  C  C62  1  0.07888000  0.38411000  0.81479000  1.0
  C  C63  1  0.92113000  0.61589000  0.18522000  1.0
  C  C64  1  0.14087000  0.44238000  0.75475000  1.0
  C  C65  1  0.85914000  0.55762000  0.24526000  1.0
  C  C66  1  0.25407000  0.55427000  0.80717000  1.0
  C  C67  1  0.74594000  0.44573000  0.19283000  1.0
  C  C68  1  0.30352000  0.60825000  0.91657000  1.0
  C  C69  1  0.69649000  0.39175000  0.08343000  1.0
  C  C70  1  0.08725000  0.38485000  0.63760000  1.0
  C  C71  1  0.91274000  0.61516000  0.36241000  1.0
  C  C72  1  0.12706000  0.04209000  0.42963000  1.0
  C  C73  1  0.87294000  0.95792000  0.57037000  1.0
  C  C74  1  0.25368000  0.97636000  0.44792000  1.0
  C  C75  1  0.74632000  0.02365000  0.55209000  1.0
  C  C76  1  0.43061000  0.03305000  0.48836000  1.0
  C  C77  1  0.56940000  0.96695000  0.51164000  1.0
  C  C78  1  0.46924000  0.15503000  0.50516000  1.0
  C  C79  1  0.53075000  0.84498000  0.49485000  1.0
  C  C80  1  0.33438000  0.21412000  0.48428000  1.0
  C  C81  1  0.66562000  0.78589000  0.51572000  1.0
  C  C82  1  0.14273000  0.39863000  0.34450000  1.0
  C  C83  1  0.85727000  0.60138000  0.65550000  1.0
  C  C84  1  0.24656000  0.32443000  0.19158000  1.0
  C  C85  1  0.75342000  0.67556000  0.80841000  1.0
  C  C86  1  0.35596000  0.53457000  0.32006000  1.0
  C  C87  1  0.64404000  0.46542000  0.67994000  1.0
  N  N88  1  0.16507000  0.15959000  0.44845000  1.0
  N  N89  1  0.83493000  0.84042000  0.55155000  1.0
  N  N90  1  0.24297000  0.41839000  0.28682000  1.0
  N  N91  1  0.75703000  0.58160000  0.71317000  1.0
  O  O92  1  0.77892000  0.09976000  0.35229000  1.0
  O  O93  1  0.22106000  0.90025000  0.64771000  1.0
  O  O94  1  0.54074000  0.16263000  0.28009000  1.0
  O  O95  1  0.45926000  0.83737000  0.71990000  1.0
  O  O96  1  0.28112000  0.59526000  0.08306000  1.0
  O  O97  1  0.71890000  0.40474000  0.91695000  1.0
  O  O98  1  0.15415000  0.43261000  0.58314000  1.0
  O  O99  1  0.84584000  0.56739000  0.41686000  1.0
  O  O100  1  0.97392000  0.28670000  0.59353000  1.0
  O  O101  1  0.02607000  0.71330000  0.40647000  1.0
  O  O102  1  0.04299000  0.30010000  0.32106000  1.0
  O  O103  1  0.95701000  0.69991000  0.67895000  1.0
  O  O104  1  0.75326000  0.35350000  0.42555000  1.0
  O  O105  1  0.24673000  0.64651000  0.57445000  1.0
