# generated using pymatgen
data_ZnH8C15S2NO4
_symmetry_space_group_name_H-M   'P 1'
_cell_length_a   13.93010000
_cell_length_b   14.18830000
_cell_length_c   14.18830000
_cell_angle_alpha   103.70300000
_cell_angle_beta   105.81100000
_cell_angle_gamma   105.81200000
_symmetry_Int_Tables_number   1
_chemical_formula_structural   ZnH8C15S2NO4
_chemical_formula_sum   'Zn4 H32 C60 S8 N4 O16'
_cell_volume   2445.04199440
_cell_formula_units_Z   4
loop_
 _symmetry_equiv_pos_site_id
 _symmetry_equiv_pos_as_xyz
  1  'x, y, z'
loop_
 _atom_site_type_symbol
 _atom_site_label
 _atom_site_symmetry_multiplicity
 _atom_site_fract_x
 _atom_site_fract_y
 _atom_site_fract_z
 _atom_site_occupancy
  Zn  Zn0  1  0.36132000  0.37529000  0.66233000  1.0
  Zn  Zn1  1  0.13868000  0.33767000  0.62471000  1.0
  Zn  Zn2  1  0.63868000  0.62471000  0.33767000  1.0
  Zn  Zn3  1  0.86132000  0.66233000  0.37529000  1.0
  H  H4  1  0.65373000  0.40207000  0.50753000  1.0
  H  H5  1  0.84627000  0.49247000  0.59793000  1.0
  H  H6  1  0.34627000  0.59793000  0.49247000  1.0
  H  H7  1  0.15373000  0.50753000  0.40207000  1.0
  H  H8  1  0.48448000  0.41334000  0.02228000  1.0
  H  H9  1  0.01552000  0.97772000  0.58665000  1.0
  H  H10  1  0.51552000  0.58665000  0.97772000  1.0
  H  H11  1  0.98448000  0.02228000  0.41335000  1.0
  H  H12  1  0.48212000  0.41146000  0.52439000  1.0
  H  H13  1  0.01788000  0.47561000  0.58854000  1.0
  H  H14  1  0.51788000  0.58854000  0.47561000  1.0
  H  H15  1  0.98211000  0.52439000  0.41146000  1.0
  H  H16  1  0.47916000  0.73746000  0.70808000  1.0
  H  H17  1  0.02083000  0.29192000  0.26254000  1.0
  H  H18  1  0.52083000  0.26254000  0.29192000  1.0
  H  H19  1  0.97917000  0.70809000  0.73746000  1.0
  H  H20  1  0.44160000  0.90726000  0.69413000  1.0
  H  H21  1  0.05840000  0.30587000  0.09274000  1.0
  H  H22  1  0.55840000  0.09274000  0.30587000  1.0
  H  H23  1  0.94160000  0.69413000  0.90726000  1.0
  H  H24  1  0.71728000  0.32398000  0.78958000  1.0
  H  H25  1  0.78272000  0.21042000  0.67601000  1.0
  H  H26  1  0.28272000  0.67601000  0.21042000  1.0
  H  H27  1  0.21728000  0.78958000  0.32398000  1.0
  H  H28  1  0.44728000  0.39011000  0.18834000  1.0
  H  H29  1  0.05272000  0.81166000  0.60989000  1.0
  H  H30  1  0.55272000  0.60989000  0.81166000  1.0
  H  H31  1  0.94728000  0.18834000  0.39011000  1.0
  H  H32  1  0.54381000  0.34035000  0.79577000  1.0
  H  H33  1  0.95619000  0.20423000  0.65965000  1.0
  H  H34  1  0.45619000  0.65965000  0.20423000  1.0
  H  H35  1  0.04382000  0.79577000  0.34035000  1.0
  C  C36  1  0.31033000  0.66441000  0.67953000  1.0
  C  C37  1  0.18967000  0.32046000  0.33559000  1.0
  C  C38  1  0.68967000  0.33559000  0.32047000  1.0
  C  C39  1  0.81033000  0.67954000  0.66441000  1.0
  C  C40  1  0.30087000  0.37893000  0.84069000  1.0
  C  C41  1  0.19913000  0.15931000  0.62107000  1.0
  C  C42  1  0.69913000  0.62107000  0.15931000  1.0
  C  C43  1  0.80087000  0.84069000  0.37893000  1.0
  C  C44  1  0.69948000  0.36101000  0.64705000  1.0
  C  C45  1  0.80052000  0.35295000  0.63899000  1.0
  C  C46  1  0.30052000  0.63899000  0.35295000  1.0
  C  C47  1  0.19948000  0.64705000  0.36101000  1.0
  C  C48  1  0.29637000  0.55603000  0.67253000  1.0
  C  C49  1  0.20363000  0.32748000  0.44397000  1.0
  C  C50  1  0.70363000  0.44397000  0.32748000  1.0
  C  C51  1  0.79637000  0.67252000  0.55603000  1.0
  C  C52  1  0.27667000  0.35146000  0.10228000  1.0
  C  C53  1  0.22334000  0.89772000  0.64854000  1.0
  C  C54  1  0.72333000  0.64854000  0.89772000  1.0
  C  C55  1  0.77667000  0.10228000  0.35146000  1.0
  C  C56  1  0.31378000  0.37489000  0.94606000  1.0
  C  C57  1  0.18622000  0.05394000  0.62511000  1.0
  C  C58  1  0.68623000  0.62511000  0.05394000  1.0
  C  C59  1  0.81378000  0.94607000  0.37489000  1.0
  C  C60  1  0.27384000  0.82402000  0.66582000  1.0
  C  C61  1  0.22616000  0.33418000  0.17598000  1.0
  C  C62  1  0.72616000  0.17598000  0.33418000  1.0
  C  C63  1  0.77384000  0.66582000  0.82402000  1.0
  C  C64  1  0.63305000  0.38797000  0.57291000  1.0
  C  C65  1  0.86694000  0.42709000  0.61203000  1.0
  C  C66  1  0.36694000  0.61203000  0.42709000  1.0
  C  C67  1  0.13306000  0.57291000  0.38797000  1.0
  C  C68  1  0.40535000  0.39133000  0.02717000  1.0
  C  C69  1  0.09466000  0.97283000  0.60867000  1.0
  C  C70  1  0.59466000  0.60867000  0.97283000  1.0
  C  C71  1  0.90534000  0.02717000  0.39133000  1.0
  C  C72  1  0.53793000  0.39385000  0.58175000  1.0
  C  C73  1  0.96207000  0.41825000  0.60615000  1.0
  C  C74  1  0.46207000  0.60615000  0.41825000  1.0
  C  C75  1  0.03793000  0.58175000  0.39385000  1.0
  C  C76  1  0.40133000  0.74524000  0.69404000  1.0
  C  C77  1  0.09866000  0.30596000  0.25476000  1.0
  C  C78  1  0.59866000  0.25476000  0.30596000  1.0
  C  C79  1  0.90134000  0.69404000  0.74524000  1.0
  C  C80  1  0.38100000  0.83562000  0.68642000  1.0
  C  C81  1  0.11900000  0.31358000  0.16438000  1.0
  C  C82  1  0.61900000  0.16438000  0.31358000  1.0
  C  C83  1  0.88100000  0.68642000  0.83562000  1.0
  C  C84  1  0.66730000  0.34294000  0.72872000  1.0
  C  C85  1  0.83270000  0.27128000  0.65706000  1.0
  C  C86  1  0.33270000  0.65706000  0.27128000  1.0
  C  C87  1  0.16730000  0.72872000  0.34294000  1.0
  C  C88  1  0.38478000  0.37841000  0.11609000  1.0
  C  C89  1  0.11522000  0.88391000  0.62159000  1.0
  C  C90  1  0.61522000  0.62159000  0.88391000  1.0
  C  C91  1  0.88478000  0.11609000  0.37841000  1.0
  C  C92  1  0.57177000  0.35217000  0.73323000  1.0
  C  C93  1  0.92823000  0.26677000  0.64783000  1.0
  C  C94  1  0.42823000  0.64783000  0.26677000  1.0
  C  C95  1  0.07177000  0.73323000  0.35217000  1.0
  S  S96  1  0.20173000  0.34314000  0.97922000  1.0
  S  S97  1  0.29827000  0.02078000  0.65686000  1.0
  S  S98  1  0.79827000  0.65686000  0.02078000  1.0
  S  S99  1  0.70173000  0.97922000  0.34314000  1.0
  S  S100  1  0.19999000  0.70112000  0.65858000  1.0
  S  S101  1  0.30001000  0.34142000  0.29888000  1.0
  S  S102  1  0.80001000  0.29888000  0.34142000  1.0
  S  S103  1  0.69999000  0.65858000  0.70112000  1.0
  N  N104  1  0.50787000  0.37641000  0.66040000  1.0
  N  N105  1  0.99213000  0.33960000  0.62359000  1.0
  N  N106  1  0.49213000  0.62359000  0.33960000  1.0
  N  N107  1  0.00787000  0.66040000  0.37641000  1.0
  O  O108  1  0.38398000  0.39710000  0.81602000  1.0
  O  O109  1  0.11602000  0.18398000  0.60290000  1.0
  O  O110  1  0.61602000  0.60290000  0.18398000  1.0
  O  O111  1  0.88398000  0.81602000  0.39710000  1.0
  O  O112  1  0.37843000  0.52995000  0.68396000  1.0
  O  O113  1  0.12157000  0.31604000  0.47004000  1.0
  O  O114  1  0.62157000  0.47004000  0.31604000  1.0
  O  O115  1  0.87843000  0.68396000  0.52996000  1.0
  O  O116  1  0.20619000  0.36303000  0.78237000  1.0
  O  O117  1  0.29381000  0.21763000  0.63697000  1.0
  O  O118  1  0.79381000  0.63696000  0.21763000  1.0
  O  O119  1  0.70619000  0.78237000  0.36303000  1.0
  O  O120  1  0.20108000  0.49601000  0.65242000  1.0
  O  O121  1  0.29892000  0.34758000  0.50399000  1.0
  O  O122  1  0.79892000  0.50399000  0.34758000  1.0
  O  O123  1  0.70108000  0.65242000  0.49601000  1.0
