# generated using pymatgen
data_UCuH15C18S2(NO7)2
_symmetry_space_group_name_H-M   'P 1'
_cell_length_a   9.08059000
_cell_length_b   11.24940000
_cell_length_c   13.35830000
_cell_angle_alpha   72.87300000
_cell_angle_beta   78.87180000
_cell_angle_gamma   67.32930000
_symmetry_Int_Tables_number   1
_chemical_formula_structural   UCuH15C18S2(NO7)2
_chemical_formula_sum   'U2 Cu2 H30 C36 S4 N4 O28'
_cell_volume   1198.39647060
_cell_formula_units_Z   2
loop_
 _symmetry_equiv_pos_site_id
 _symmetry_equiv_pos_as_xyz
  1  'x, y, z'
loop_
 _atom_site_type_symbol
 _atom_site_label
 _atom_site_symmetry_multiplicity
 _atom_site_fract_x
 _atom_site_fract_y
 _atom_site_fract_z
 _atom_site_occupancy
  U  U0  1  0.37644000  0.65211000  0.69005000  1.0
  U  U1  1  0.62357000  0.34788000  0.30993000  1.0
  Cu  Cu2  1  0.81268000  0.85881000  0.61201000  1.0
  Cu  Cu3  1  0.18729000  0.14122000  0.38798000  1.0
  H  H4  1  0.74069000  0.58497000  0.66151000  1.0
  H  H5  1  0.25934000  0.41502000  0.33848000  1.0
  H  H6  1  0.69722000  0.55949000  0.56312000  1.0
  H  H7  1  0.30280000  0.44053000  0.43687000  1.0
  H  H8  1  0.69794000  0.91374000  0.41644000  1.0
  H  H9  1  0.30206000  0.08618000  0.58356000  1.0
  H  H10  1  0.56570000  0.87995000  0.50516000  1.0
  H  H11  1  0.43421000  0.12009000  0.49484000  1.0
  H  H12  1  0.09436000  0.90469000  0.00376000  1.0
  H  H13  1  0.90557000  0.09535000  0.99627000  1.0
  H  H14  1  0.26093000  0.79155000  0.15175000  1.0
  H  H15  1  0.73904000  0.20848000  0.84826000  1.0
  H  H16  1  0.56039000  0.70509000  0.11811000  1.0
  H  H17  1  0.43956000  0.29492000  0.88190000  1.0
  H  H18  1  0.68546000  0.74684000  0.93429000  1.0
  H  H19  1  0.31449000  0.25317000  0.06572000  1.0
  H  H20  1  0.31164000  0.15095000  0.83723000  1.0
  H  H21  1  0.68837000  0.84902000  0.16277000  1.0
  H  H22  1  0.13267000  0.13841000  0.00475000  1.0
  H  H23  1  0.86730000  0.86159000  0.99525000  1.0
  H  H24  1  0.88767000  0.33394000  0.02679000  1.0
  H  H25  1  0.11232000  0.66608000  0.97320000  1.0
  H  H26  1  0.82604000  0.54047000  0.88378000  1.0
  H  H27  1  0.17399000  0.45955000  0.11620000  1.0
  H  H28  1  0.02818000  0.66528000  0.46419000  1.0
  H  H29  1  0.97190000  0.33471000  0.53579000  1.0
  H  H30  1  0.25237000  0.68418000  0.32248000  1.0
  H  H31  1  0.74773000  0.31585000  0.67751000  1.0
  H  H32  1  0.32313000  0.89433000  0.28039000  1.0
  H  H33  1  0.67692000  0.10571000  0.71962000  1.0
  C  C34  1  0.54633000  0.84137000  0.75721000  1.0
  C  C35  1  0.45357000  0.15865000  0.24282000  1.0
  C  C36  1  0.46113000  0.83637000  0.86493000  1.0
  C  C37  1  0.53883000  0.16362000  0.13507000  1.0
  C  C38  1  0.29294000  0.87934000  0.88515000  1.0
  C  C39  1  0.70702000  0.12067000  0.11487000  1.0
  C  C40  1  0.22371000  0.86642000  0.98846000  1.0
  C  C41  1  0.77625000  0.13360000  0.01156000  1.0
  C  C42  1  0.31935000  0.80326000  0.07225000  1.0
  C  C43  1  0.68061000  0.19675000  0.92778000  1.0
  C  C44  1  0.48536000  0.75716000  0.05317000  1.0
  C  C45  1  0.51460000  0.24284000  0.94685000  1.0
  C  C46  1  0.55556000  0.77800000  0.95002000  1.0
  C  C47  1  0.44439000  0.22200000  0.04999000  1.0
  C  C48  1  0.00824000  0.59828000  0.70915000  1.0
  C  C49  1  0.99180000  0.40170000  0.29086000  1.0
  C  C50  1  0.03919000  0.46516000  0.78396000  1.0
  C  C51  1  0.96085000  0.53487000  0.21602000  1.0
  C  C52  1  0.17667000  0.35477000  0.77150000  1.0
  C  C53  1  0.82335000  0.64524000  0.22850000  1.0
  C  C54  1  0.20777000  0.23671000  0.84992000  1.0
  C  C55  1  0.79223000  0.76328000  0.15008000  1.0
  C  C56  1  0.10601000  0.22992000  0.94266000  1.0
  C  C57  1  0.89397000  0.77008000  0.05734000  1.0
  C  C58  1  0.96889000  0.33903000  0.95527000  1.0
  C  C59  1  0.03111000  0.66098000  0.04472000  1.0
  C  C60  1  0.93388000  0.45529000  0.87513000  1.0
  C  C61  1  0.06615000  0.54473000  0.12485000  1.0
  C  C62  1  0.04019000  0.94937000  0.47059000  1.0
  C  C63  1  0.95985000  0.05063000  0.52942000  1.0
  C  C64  1  0.06724000  0.75048000  0.44209000  1.0
  C  C65  1  0.93282000  0.24950000  0.55791000  1.0
  C  C66  1  0.18897000  0.76300000  0.36321000  1.0
  C  C67  1  0.81110000  0.23701000  0.63679000  1.0
  C  C68  1  0.22955000  0.87652000  0.34060000  1.0
  C  C69  1  0.77049000  0.12350000  0.65942000  1.0
  S  S70  1  0.15918000  0.95448000  0.78346000  1.0
  S  S71  1  0.84078000  0.04553000  0.21654000  1.0
  S  S72  1  0.31604000  0.36023000  0.65667000  1.0
  S  S73  1  0.68398000  0.63976000  0.34332000  1.0
  N  N74  1  0.99357000  0.84496000  0.49578000  1.0
  N  N75  1  0.00647000  0.15501000  0.50423000  1.0
  N  N76  1  0.15406000  0.96922000  0.39525000  1.0
  N  N77  1  0.84596000  0.03079000  0.60477000  1.0
  O  O78  1  0.39548000  0.57877000  0.82875000  1.0
  O  O79  1  0.60453000  0.42120000  0.17125000  1.0
  O  O80  1  0.36501000  0.72645000  0.55103000  1.0
  O  O81  1  0.63501000  0.27357000  0.44894000  1.0
  O  O82  1  0.50802000  0.79699000  0.69254000  1.0
  O  O83  1  0.49194000  0.20300000  0.30748000  1.0
  O  O84  1  0.66148000  0.88560000  0.73694000  1.0
  O  O85  1  0.33842000  0.11445000  0.26307000  1.0
  O  O86  1  0.18097000  0.84618000  0.73169000  1.0
  O  O87  1  0.81902000  0.15381000  0.26831000  1.0
  O  O88  1  0.99808000  0.99824000  0.83455000  1.0
  O  O89  1  0.00188000  0.00176000  0.16544000  1.0
  O  O90  1  0.20936000  0.05964000  0.70961000  1.0
  O  O91  1  0.79063000  0.94036000  0.29041000  1.0
  O  O92  1  0.11406000  0.65105000  0.68991000  1.0
  O  O93  1  0.88596000  0.34894000  0.31006000  1.0
  O  O94  1  0.87089000  0.65796000  0.67233000  1.0
  O  O95  1  0.12913000  0.34203000  0.32768000  1.0
  O  O96  1  0.40818000  0.43998000  0.67028000  1.0
  O  O97  1  0.59185000  0.56001000  0.32968000  1.0
  O  O98  1  0.42035000  0.22498000  0.65814000  1.0
  O  O99  1  0.57967000  0.77500000  0.34184000  1.0
  O  O100  1  0.21957000  0.43073000  0.56617000  1.0
  O  O101  1  0.78043000  0.56925000  0.43382000  1.0
  O  O102  1  0.66871000  0.55002000  0.64041000  1.0
  O  O103  1  0.33131000  0.44998000  0.35958000  1.0
  O  O104  1  0.65951000  0.90605000  0.49185000  1.0
  O  O105  1  0.34056000  0.09377000  0.50816000  1.0
