# generated using pymatgen
data_Al2H11C20S2N2ClO10
_symmetry_space_group_name_H-M   'P 1'
_cell_length_a   6.64218000
_cell_length_b   11.01468316
_cell_length_c   12.73130000
_cell_angle_alpha   90.15630037
_cell_angle_beta   104.68320000
_cell_angle_gamma   106.03230393
_symmetry_Int_Tables_number   1
_chemical_formula_structural   Al2H11C20S2N2ClO10
_chemical_formula_sum   'Al2 H11 C20 S2 N2 Cl1 O10'
_cell_volume   863.32401737
_cell_formula_units_Z   1
loop_
 _symmetry_equiv_pos_site_id
 _symmetry_equiv_pos_as_xyz
  1  'x, y, z'
loop_
 _atom_site_type_symbol
 _atom_site_label
 _atom_site_symmetry_multiplicity
 _atom_site_fract_x
 _atom_site_fract_y
 _atom_site_fract_z
 _atom_site_occupancy
  Al  Al0  1  0.00545000  0.49841000  0.50581000  1.0
  Al  Al1  1  0.50577000  0.49851000  0.50710000  1.0
  H  H2  1  0.35723000  0.65533000  0.55578000  1.0
  H  H3  1  0.64784000  0.34635000  0.43713000  1.0
  H  H4  1  0.75310000  0.41753000  0.15042000  1.0
  H  H5  1  0.53282000  0.76083000  0.35347000  1.0
  H  H6  1  0.30017000  0.87576000  0.23994000  1.0
  H  H7  1  0.78242000  0.23035000  0.36265000  1.0
  H  H8  1  0.42672000  0.11253000  0.24436000  1.0
  H  H9  1  0.48149000  0.21646000  0.60901000  1.0
  H  H10  1  0.53000000  0.07410000  0.62242000  1.0
  H  H11  1  0.21361000  0.78023000  0.63881000  1.0
  H  H12  1  0.36735000  0.92483000  0.69711000  1.0
  C  C13  1  0.86172000  0.72442000  0.49533000  1.0
  C  C14  1  0.84821000  0.50592000  0.70249000  1.0
  C  C15  1  0.14398000  0.27146000  0.51212000  1.0
  C  C16  1  0.16498000  0.49399000  0.31023000  1.0
  C  C17  1  0.12007000  0.55117000  0.89330000  1.0
  C  C18  1  0.89695000  0.45723000  0.12180000  1.0
  C  C19  1  0.91416000  0.50597000  0.82145000  1.0
  C  C20  1  0.10359000  0.49879000  0.19142000  1.0
  C  C21  1  0.90343000  0.47385000  0.01260000  1.0
  C  C22  1  0.11466000  0.53103000  0.00230000  1.0
  C  C23  1  0.93109000  0.86456000  0.49515000  1.0
  C  C24  1  0.79013000  0.92948000  0.43017000  1.0
  C  C25  1  0.13701000  0.92984000  0.55928000  1.0
  C  C26  1  0.58648000  0.86390000  0.35836000  1.0
  C  C27  1  0.45596000  0.92839000  0.29426000  1.0
  C  C28  1  0.07212000  0.13095000  0.50279000  1.0
  C  C29  1  0.21368000  0.06542000  0.55860000  1.0
  C  C30  1  0.86045000  0.06514000  0.43528000  1.0
  C  C31  1  0.72497000  0.12812000  0.36560000  1.0
  C  C32  1  0.52671000  0.06162000  0.29729000  1.0
  S  S33  1  0.71433000  0.44256000  0.88790000  1.0
  S  S34  1  0.30655000  0.55959000  0.12590000  1.0
  N  N35  1  0.42191000  0.12403000  0.62239000  1.0
  N  N36  1  0.27829000  0.87224000  0.62628000  1.0
  Cl  Cl37  1  0.35397000  0.62774000  0.85995000  1.0
  O  O38  1  0.99444667  0.66666667  0.47868000  1.0
  O  O39  1  0.64414000  0.48026000  0.65767000  1.0
  O  O40  1  0.33190000  0.32676000  0.49906000  1.0
  O  O41  1  0.01132000  0.46763000  0.35703000  1.0
  O  O42  1  0.01560000  0.32978000  0.53266000  1.0
  O  O43  1  0.36755000  0.51524000  0.35612000  1.0
  O  O44  1  0.68041000  0.67029000  0.51493000  1.0
  O  O45  1  0.99850000  0.53152000  0.65355000  1.0
  O  O46  1  0.30752000  0.56324000  0.55150000  1.0
  O  O47  1  0.70376000  0.43609000  0.46035000  1.0
