# generated using pymatgen
data_AlH7C11N2O5F
_symmetry_space_group_name_H-M   'P 1'
_cell_length_a   6.67167000
_cell_length_b   11.15540000
_cell_length_c   16.87950000
_cell_angle_alpha   78.32570000
_cell_angle_beta   83.72440000
_cell_angle_gamma   73.15160000
_symmetry_Int_Tables_number   1
_chemical_formula_structural   AlH7C11N2O5F
_chemical_formula_sum   'Al2 H14 C22 N4 O10 F2'
_cell_volume   1175.74111093
_cell_formula_units_Z   2
loop_
 _symmetry_equiv_pos_site_id
 _symmetry_equiv_pos_as_xyz
  1  'x, y, z'
loop_
 _atom_site_type_symbol
 _atom_site_label
 _atom_site_symmetry_multiplicity
 _atom_site_fract_x
 _atom_site_fract_y
 _atom_site_fract_z
 _atom_site_occupancy
  Al  Al0  1  0.49624000  0.50206000  0.49989000  1.0
  Al  Al1  1  0.99480000  0.50510000  0.50063000  1.0
  H  H2  1  0.19021000  0.65467000  0.43949000  1.0
  H  H3  1  0.81088000  0.34786000  0.55133000  1.0
  H  H4  1  0.84972000  0.57160000  0.72777000  1.0
  H  H5  1  0.78158000  0.57455000  0.87704000  1.0
  H  H6  1  0.44708000  0.45193000  0.90549000  1.0
  H  H7  1  0.61080000  0.44917000  0.10467000  1.0
  H  H8  1  0.16578000  0.56941000  0.10912000  1.0
  H  H9  1  0.08963000  0.57137000  0.25834000  1.0
  H  H10  1  0.24248000  0.87100000  0.52903000  1.0
  H  H11  1  0.74196000  0.13570000  0.47005000  1.0
  H  H12  1  0.59128000  0.44548000  0.69147000  1.0
  H  H13  1  0.67980000  0.42059000  0.78916000  1.0
  H  H14  1  0.45488000  0.45599000  0.31737000  1.0
  H  H15  1  0.39719000  0.42387000  0.22672000  1.0
  C  C16  1  0.63367000  0.73087000  0.49762000  1.0
  C  C17  1  0.78596000  0.51044000  0.35394000  1.0
  C  C18  1  0.35402000  0.27572000  0.50242000  1.0
  C  C19  1  0.20592000  0.49927000  0.64568000  1.0
  C  C20  1  0.18343000  0.50516000  0.73259000  1.0
  C  C21  1  0.97860000  0.54275000  0.76819000  1.0
  C  C22  1  0.93962000  0.54461000  0.84995000  1.0
  C  C23  1  0.11345000  0.50851000  0.89913000  1.0
  C  C24  1  0.31754000  0.47636000  0.86556000  1.0
  C  C25  1  0.35934000  0.47269000  0.78186000  1.0
  C  C26  1  0.71638000  0.47368000  0.13982000  1.0
  C  C27  1  0.89322000  0.50510000  0.10002000  1.0
  C  C28  1  0.03273000  0.54063000  0.14205000  1.0
  C  C29  1  0.98956000  0.54163000  0.22382000  1.0
  C  C30  1  0.81427000  0.50757000  0.26641000  1.0
  C  C31  1  0.67230000  0.47286000  0.22380000  1.0
  C  C32  1  0.42009000  0.13593000  0.50173000  1.0
  C  C33  1  0.56465000  0.87085000  0.49760000  1.0
  C  C34  1  0.28357000  0.05772000  0.51801000  1.0
  C  C35  1  0.70103000  0.94916000  0.48102000  1.0
  C  C36  1  0.35285000  0.92862000  0.51601000  1.0
  C  C37  1  0.63166000  0.07815000  0.48309000  1.0
  N  N38  1  0.09541000  0.50508000  0.98385000  1.0
  N  N39  1  0.91550000  0.50282000  0.01594000  1.0
  N  N40  1  0.56131000  0.43618000  0.75244000  1.0
  N  N41  1  0.50250000  0.43621000  0.26101000  1.0
  O  O42  1  0.48979000  0.67577000  0.50041000  1.0
  O  O43  1  0.94394000  0.51188000  0.38980000  1.0
  O  O44  1  0.15907000  0.33127000  0.50611000  1.0
  O  O45  1  0.38979000  0.48641000  0.61010000  1.0
  O  O46  1  0.50088000  0.32878000  0.49860000  1.0
  O  O47  1  0.04256000  0.50488000  0.61041000  1.0
  O  O48  1  0.82923000  0.67729000  0.49547000  1.0
  O  O49  1  0.60403000  0.51275000  0.38912000  1.0
  O  O50  1  0.22771000  0.56432000  0.46176000  1.0
  O  O51  1  0.76573000  0.44025000  0.53838000  1.0
  F  F52  1  0.07650000  0.10611000  0.53778000  1.0
  F  F53  1  0.90789000  0.90133000  0.46090000  1.0
