# generated using pymatgen
data_CoH14C18N2O7
_symmetry_space_group_name_H-M   'P 1'
_cell_length_a   7.24492000
_cell_length_b   10.63130000
_cell_length_c   10.75580000
_cell_angle_alpha   97.69620000
_cell_angle_beta   103.85700000
_cell_angle_gamma   94.39950000
_symmetry_Int_Tables_number   1
_chemical_formula_structural   CoH14C18N2O7
_chemical_formula_sum   'Co2 H28 C36 N4 O14'
_cell_volume   791.97602772
_cell_formula_units_Z   2
loop_
 _symmetry_equiv_pos_site_id
 _symmetry_equiv_pos_as_xyz
  1  'x, y, z'
loop_
 _atom_site_type_symbol
 _atom_site_label
 _atom_site_symmetry_multiplicity
 _atom_site_fract_x
 _atom_site_fract_y
 _atom_site_fract_z
 _atom_site_occupancy
  Co  Co0  1  0.68286000  0.64044000  0.86937000  1.0
  Co  Co1  1  0.31714000  0.35956000  0.13063000  1.0
  H  H2  1  0.69109000  0.45213000  0.02489000  1.0
  H  H3  1  0.30891000  0.54787000  0.97511000  1.0
  H  H4  1  0.80355000  0.43265000  0.90954000  1.0
  H  H5  1  0.19645000  0.56735000  0.09046000  1.0
  H  H6  1  0.45688000  0.57002000  0.38062000  1.0
  H  H7  1  0.54311000  0.42999000  0.61938000  1.0
  H  H8  1  0.69616000  0.75653000  0.61047000  1.0
  H  H9  1  0.30384000  0.24347000  0.38953000  1.0
  H  H10  1  0.75220000  0.97797000  0.55884000  1.0
  H  H11  1  0.24780000  0.02203000  0.44116000  1.0
  H  H12  1  0.80586000  0.16537000  0.73560000  1.0
  H  H13  1  0.19414000  0.83463000  0.26440000  1.0
  H  H14  1  0.83018000  0.24523000  0.97437000  1.0
  H  H15  1  0.16981000  0.75476000  0.02563000  1.0
  H  H16  1  0.80474000  0.19827000  0.18736000  1.0
  H  H17  1  0.19525000  0.80173000  0.81264000  1.0
  H  H18  1  0.73943000  0.03455000  0.32963000  1.0
  H  H19  1  0.26056000  0.96545000  0.67036000  1.0
  H  H20  1  0.67128000  0.80184000  0.34597000  1.0
  H  H21  1  0.32872000  0.19816000  0.65403000  1.0
  H  H22  1  0.65221000  0.63675000  0.15465000  1.0
  H  H23  1  0.34780000  0.36325000  0.84535000  1.0
  H  H24  1  0.08420000  0.65878000  0.63328000  1.0
  H  H25  1  0.91580000  0.34122000  0.36673000  1.0
  H  H26  1  0.25467000  0.47296000  0.45983000  1.0
  H  H27  1  0.74533000  0.52705000  0.54017000  1.0
  H  H28  1  0.07377000  0.36962000  0.62731000  1.0
  H  H29  1  0.92623000  0.63038000  0.37269000  1.0
  C  C30  1  0.71861000  0.84002000  0.68523000  1.0
  C  C31  1  0.28140000  0.15998000  0.31476000  1.0
  C  C32  1  0.75104000  0.96409000  0.65714000  1.0
  C  C33  1  0.24896000  0.03591000  0.34286000  1.0
  C  C34  1  0.77892000  0.06824000  0.75438000  1.0
  C  C35  1  0.22108000  0.93176000  0.24563000  1.0
  C  C36  1  0.79846000  0.14720000  0.98832000  1.0
  C  C37  1  0.20154000  0.85280000  0.01168000  1.0
  C  C38  1  0.78520000  0.12067000  0.10696000  1.0
  C  C39  1  0.21479000  0.87933000  0.89304000  1.0
  C  C40  1  0.72835000  0.95923000  0.24758000  1.0
  C  C41  1  0.27165000  0.04077000  0.75242000  1.0
  C  C42  1  0.69328000  0.83156000  0.25714000  1.0
  C  C43  1  0.30672000  0.16844000  0.74285000  1.0
  C  C44  1  0.68034000  0.73754000  0.14940000  1.0
  C  C45  1  0.31966000  0.26246000  0.85059000  1.0
  C  C46  1  0.74704000  0.99232000  0.12802000  1.0
  C  C47  1  0.25296000  0.00768000  0.87198000  1.0
  C  C48  1  0.72712000  0.89145000  0.02366000  1.0
  C  C49  1  0.27288000  0.10855000  0.97633000  1.0
  C  C50  1  0.77241000  0.04735000  0.88022000  1.0
  C  C51  1  0.22759000  0.95265000  0.11978000  1.0
  C  C52  1  0.73690000  0.91915000  0.89897000  1.0
  C  C53  1  0.26310000  0.08085000  0.10103000  1.0
  C  C54  1  0.33777000  0.58179000  0.71543000  1.0
  C  C55  1  0.66223000  0.41821000  0.28458000  1.0
  C  C56  1  0.14730000  0.56932000  0.61381000  1.0
  C  C57  1  0.85270000  0.43068000  0.38619000  1.0
  C  C58  1  0.17972000  0.55712000  0.47724000  1.0
  C  C59  1  0.82028000  0.44288000  0.52276000  1.0
  C  C60  1  0.00927000  0.45998000  0.63103000  1.0
  C  C61  1  0.99073000  0.54002000  0.36898000  1.0
  C  C62  1  0.95335000  0.48670000  0.76065000  1.0
  C  C63  1  0.04665000  0.51330000  0.23935000  1.0
  C  C64  1  0.30154000  0.67764000  0.46716000  1.0
  C  C65  1  0.69846000  0.32236000  0.53285000  1.0
  N  N66  1  0.71103000  0.81749000  0.80308000  1.0
  N  N67  1  0.28897000  0.18250000  0.19692000  1.0
  N  N68  1  0.69728000  0.76606000  0.03523000  1.0
  N  N69  1  0.30272000  0.23394000  0.96476000  1.0
  O  O70  1  0.34657000  0.60693000  0.83504000  1.0
  O  O71  1  0.65343000  0.39308000  0.16496000  1.0
  O  O72  1  0.49282000  0.57190000  0.67778000  1.0
  O  O73  1  0.50718000  0.42810000  0.32222000  1.0
  O  O74  1  0.69194000  0.47017000  0.93755000  1.0
  O  O75  1  0.30805000  0.52983000  0.06244000  1.0
  O  O76  1  0.94655000  0.39577000  0.82459000  1.0
  O  O77  1  0.05345000  0.60422000  0.17541000  1.0
  O  O78  1  0.90291000  0.59817000  0.78690000  1.0
  O  O79  1  0.09710000  0.40183000  0.21311000  1.0
  O  O80  1  0.27009000  0.78487000  0.50837000  1.0
  O  O81  1  0.72991000  0.21513000  0.49164000  1.0
  O  O82  1  0.44347000  0.66237000  0.40797000  1.0
  O  O83  1  0.55653000  0.33763000  0.59203000  1.0
