# generated using pymatgen
data_Cu2H7C10N6Cl
_symmetry_space_group_name_H-M   'P 1'
_cell_length_a   9.26292000
_cell_length_b   10.47230000
_cell_length_c   11.26850000
_cell_angle_alpha   90.00000000
_cell_angle_beta   105.10300000
_cell_angle_gamma   90.00000000
_symmetry_Int_Tables_number   1
_chemical_formula_structural   Cu2H7C10N6Cl
_chemical_formula_sum   'Cu8 H28 C40 N24 Cl4'
_cell_volume   1055.33399459
_cell_formula_units_Z   4
loop_
 _symmetry_equiv_pos_site_id
 _symmetry_equiv_pos_as_xyz
  1  'x, y, z'
loop_
 _atom_site_type_symbol
 _atom_site_label
 _atom_site_symmetry_multiplicity
 _atom_site_fract_x
 _atom_site_fract_y
 _atom_site_fract_z
 _atom_site_occupancy
  Cu  Cu0  1  0.09441000  0.41675000  0.40133000  1.0
  Cu  Cu1  1  0.40559000  0.91675000  0.59867000  1.0
  Cu  Cu2  1  0.90559000  0.58325000  0.59867000  1.0
  Cu  Cu3  1  0.59441000  0.08325000  0.40133000  1.0
  Cu  Cu4  1  0.29657000  0.28987000  0.20580000  1.0
  Cu  Cu5  1  0.20343000  0.78987000  0.79420000  1.0
  Cu  Cu6  1  0.70343000  0.71013000  0.79420000  1.0
  Cu  Cu7  1  0.79657000  0.21013000  0.20580000  1.0
  H  H8  1  0.39473000  0.45230000  0.41034000  1.0
  H  H9  1  0.10527000  0.95230000  0.58966000  1.0
  H  H10  1  0.60527000  0.54769000  0.58966000  1.0
  H  H11  1  0.89473000  0.04770000  0.41034000  1.0
  H  H12  1  0.53685000  0.43530000  0.25476000  1.0
  H  H13  1  0.96315000  0.93530000  0.74524000  1.0
  H  H14  1  0.46315000  0.56470000  0.74524000  1.0
  H  H15  1  0.03685000  0.06470000  0.25476000  1.0
  H  H16  1  0.34976000  0.85812000  0.34868000  1.0
  H  H17  1  0.15024000  0.35812000  0.65132000  1.0
  H  H18  1  0.65024000  0.14188000  0.65132000  1.0
  H  H19  1  0.84976000  0.64188000  0.34868000  1.0
  H  H20  1  0.49338000  0.84357000  0.19439000  1.0
  H  H21  1  0.00663000  0.34357000  0.80561000  1.0
  H  H22  1  0.50662000  0.15643000  0.80561000  1.0
  H  H23  1  0.99337000  0.65643000  0.19439000  1.0
  H  H24  1  0.51873000  0.78827000  0.99942000  1.0
  H  H25  1  0.98127000  0.28827000  0.00058000  1.0
  H  H26  1  0.48127000  0.21173000  0.00058000  1.0
  H  H27  1  0.01873000  0.71173000  0.99942000  1.0
  H  H28  1  0.72580000  0.45199000  0.17880000  1.0
  H  H29  1  0.77420000  0.95199000  0.82121000  1.0
  H  H30  1  0.27420000  0.54801000  0.82121000  1.0
  H  H31  1  0.22580000  0.04801000  0.17879000  1.0
  H  H32  1  0.81551000  0.49258000  0.96726000  1.0
  H  H33  1  0.68449000  0.99258000  0.03274000  1.0
  H  H34  1  0.18449000  0.50742000  0.03274000  1.0
  H  H35  1  0.31550000  0.00742000  0.96726000  1.0
  C  C36  1  0.41485000  0.53760000  0.36196000  1.0
  C  C37  1  0.08515000  0.03761000  0.63804000  1.0
  C  C38  1  0.58515000  0.46239000  0.63804000  1.0
  C  C39  1  0.91485000  0.96240000  0.36196000  1.0
  C  C40  1  0.27348000  0.66197000  0.48054000  1.0
  C  C41  1  0.22652000  0.16197000  0.51946000  1.0
  C  C42  1  0.72653000  0.33803000  0.51947000  1.0
  C  C43  1  0.77348000  0.83804000  0.48054000  1.0
  C  C44  1  0.35904000  0.65562000  0.38870000  1.0
  C  C45  1  0.14095000  0.15562000  0.61130000  1.0
  C  C46  1  0.64096000  0.34438000  0.61130000  1.0
  C  C47  1  0.85904000  0.84438000  0.38870000  1.0
  C  C48  1  0.49640000  0.52835000  0.27500000  1.0
  C  C49  1  0.00360000  0.02835000  0.72500000  1.0
  C  C50  1  0.50360000  0.47165000  0.72500000  1.0
  C  C51  1  0.99640000  0.97165000  0.27500000  1.0
  C  C52  1  0.38908000  0.76494000  0.32729000  1.0
  C  C53  1  0.11092000  0.26494000  0.67271000  1.0
  C  C54  1  0.61092000  0.23506000  0.67271000  1.0
  C  C55  1  0.88908000  0.73506000  0.32730000  1.0
  C  C56  1  0.52071000  0.63753000  0.21110000  1.0
  C  C57  1  0.97929000  0.13753000  0.78890000  1.0
  C  C58  1  0.47929000  0.36247000  0.78890000  1.0
  C  C59  1  0.02071000  0.86247000  0.21110000  1.0
  C  C60  1  0.46919000  0.75646000  0.23874000  1.0
  C  C61  1  0.03081000  0.25646000  0.76127000  1.0
  C  C62  1  0.53081000  0.24354000  0.76126000  1.0
  C  C63  1  0.96919000  0.74354000  0.23874000  1.0
  C  C64  1  0.58892000  0.70406000  0.01986000  1.0
  C  C65  1  0.91108000  0.20406000  0.98014000  1.0
  C  C66  1  0.41108000  0.29594000  0.98014000  1.0
  C  C67  1  0.08892000  0.79594000  0.01986000  1.0
  C  C68  1  0.69301000  0.52520000  0.10925000  1.0
  C  C69  1  0.80699000  0.02520000  0.89075000  1.0
  C  C70  1  0.30698000  0.47480000  0.89075000  1.0
  C  C71  1  0.19301000  0.97480000  0.10925000  1.0
  C  C72  1  0.73865000  0.54659000  0.00531000  1.0
  C  C73  1  0.76135000  0.04659000  0.99469000  1.0
  C  C74  1  0.26135000  0.45341000  0.99469000  1.0
  C  C75  1  0.23865000  0.95341000  0.00531000  1.0
  N  N76  1  0.17143000  0.57413000  0.49400000  1.0
  N  N77  1  0.32857000  0.07413000  0.50600000  1.0
  N  N78  1  0.82857000  0.42587000  0.50600000  1.0
  N  N79  1  0.67143000  0.92587000  0.49400000  1.0
  N  N80  1  0.59799000  0.62514000  0.11824000  1.0
  N  N81  1  0.90201000  0.12514000  0.88176000  1.0
  N  N82  1  0.40201000  0.37486000  0.88176000  1.0
  N  N83  1  0.09799000  0.87486000  0.11824000  1.0
  N  N84  1  0.28756000  0.75376000  0.56667000  1.0
  N  N85  1  0.21244000  0.25376000  0.43333000  1.0
  N  N86  1  0.71244000  0.24624000  0.43333000  1.0
  N  N87  1  0.78756000  0.74624000  0.56667000  1.0
  N  N88  1  0.12062000  0.61375000  0.58942000  1.0
  N  N89  1  0.37938000  0.11375000  0.41058000  1.0
  N  N90  1  0.87938000  0.38625000  0.41058000  1.0
  N  N91  1  0.62062000  0.88625000  0.58942000  1.0
  N  N92  1  0.19298000  0.72050000  0.63506000  1.0
  N  N93  1  0.30702000  0.22050000  0.36494000  1.0
  N  N94  1  0.80702000  0.27950000  0.36494000  1.0
  N  N95  1  0.69298000  0.77950000  0.63506000  1.0
  N  N96  1  0.67297000  0.65820000  0.94958000  1.0
  N  N97  1  0.82703000  0.15820000  0.05042000  1.0
  N  N98  1  0.32703000  0.34180000  0.05042000  1.0
  N  N99  1  0.17297000  0.84180000  0.94958000  1.0
  Cl  Cl100  1  0.06586000  0.42375000  0.19037000  1.0
  Cl  Cl101  1  0.43414000  0.92375000  0.80963000  1.0
  Cl  Cl102  1  0.93414000  0.57625000  0.80963000  1.0
  Cl  Cl103  1  0.56586000  0.07625000  0.19037000  1.0
