# generated using pymatgen
data_CuH7CN3O5
_symmetry_space_group_name_H-M   'P 1'
_cell_length_a   7.06837000
_cell_length_b   7.48234000
_cell_length_c   12.31680000
_cell_angle_alpha   90.00000000
_cell_angle_beta   90.00000000
_cell_angle_gamma   90.00000000
_symmetry_Int_Tables_number   1
_chemical_formula_structural   CuH7CN3O5
_chemical_formula_sum   'Cu4 H28 C4 N12 O20'
_cell_volume   651.41027282
_cell_formula_units_Z   4
loop_
 _symmetry_equiv_pos_site_id
 _symmetry_equiv_pos_as_xyz
  1  'x, y, z'
loop_
 _atom_site_type_symbol
 _atom_site_label
 _atom_site_symmetry_multiplicity
 _atom_site_fract_x
 _atom_site_fract_y
 _atom_site_fract_z
 _atom_site_occupancy
  Cu  Cu0  1  0.75000000  0.31336000  0.37489000  1.0
  Cu  Cu1  1  0.25000000  0.18664000  0.87489000  1.0
  Cu  Cu2  1  0.25000000  0.68664000  0.62510000  1.0
  Cu  Cu3  1  0.75000000  0.81336000  0.12511000  1.0
  H  H4  1  0.75000000  0.82702000  0.36388000  1.0
  H  H5  1  0.25001000  0.67298000  0.86386000  1.0
  H  H6  1  0.25000000  0.17298000  0.63612000  1.0
  H  H7  1  0.75000000  0.32702000  0.13614000  1.0
  H  H8  1  0.42211000  0.39167000  0.30958000  1.0
  H  H9  1  0.57789000  0.10833000  0.80958000  1.0
  H  H10  1  0.92211000  0.60833000  0.69042000  1.0
  H  H11  1  0.07789000  0.89167000  0.19042000  1.0
  H  H12  1  0.57789000  0.60833000  0.69042000  1.0
  H  H13  1  0.42211000  0.89167000  0.19042000  1.0
  H  H14  1  0.07789000  0.39167000  0.30957000  1.0
  H  H15  1  0.92211000  0.10833000  0.80958000  1.0
  H  H16  1  0.41597000  0.36267000  0.44275000  1.0
  H  H17  1  0.58403000  0.13734000  0.94276000  1.0
  H  H18  1  0.91597000  0.63733000  0.55725000  1.0
  H  H19  1  0.08403000  0.86267000  0.05724000  1.0
  H  H20  1  0.58403000  0.63733000  0.55725000  1.0
  H  H21  1  0.41597000  0.86267000  0.05724000  1.0
  H  H22  1  0.08403000  0.36267000  0.44275000  1.0
  H  H23  1  0.91598000  0.13733000  0.94276000  1.0
  H  H24  1  0.41997000  0.18776000  0.36017000  1.0
  H  H25  1  0.58004000  0.31224000  0.86017000  1.0
  H  H26  1  0.91997000  0.81224000  0.63983000  1.0
  H  H27  1  0.08004000  0.68776000  0.13983000  1.0
  H  H28  1  0.58003000  0.81223000  0.63983000  1.0
  H  H29  1  0.41996000  0.68776000  0.13983000  1.0
  H  H30  1  0.08003000  0.18776000  0.36017000  1.0
  H  H31  1  0.91997000  0.31224000  0.86017000  1.0
  C  C32  1  0.75000000  0.68148000  0.34755000  1.0
  C  C33  1  0.25000000  0.81852000  0.84754000  1.0
  C  C34  1  0.25000000  0.31852000  0.65245000  1.0
  C  C35  1  0.75000000  0.18148000  0.15246000  1.0
  N  N36  1  0.75000000  0.13357000  0.59576000  1.0
  N  N37  1  0.25000000  0.36643000  0.09575000  1.0
  N  N38  1  0.25000000  0.86643000  0.40424000  1.0
  N  N39  1  0.75000000  0.63357000  0.90425000  1.0
  N  N40  1  0.47337000  0.31428000  0.37194000  1.0
  N  N41  1  0.52664000  0.18572000  0.87194000  1.0
  N  N42  1  0.97337000  0.68572000  0.62806000  1.0
  N  N43  1  0.02664000  0.81428000  0.12806000  1.0
  N  N44  1  0.52664000  0.68572000  0.62806000  1.0
  N  N45  1  0.47336000  0.81428000  0.12806000  1.0
  N  N46  1  0.02663000  0.31428000  0.37194000  1.0
  N  N47  1  0.97336000  0.18572000  0.87194000  1.0
  O  O48  1  0.75000000  0.02232000  0.67531000  1.0
  O  O49  1  0.25000000  0.47768000  0.17530000  1.0
  O  O50  1  0.25000000  0.97768000  0.32469000  1.0
  O  O51  1  0.75000000  0.52232000  0.82470000  1.0
  O  O52  1  0.75000000  0.57833000  0.43013000  1.0
  O  O53  1  0.25000000  0.92166000  0.93012000  1.0
  O  O54  1  0.25000000  0.42167000  0.56987000  1.0
  O  O55  1  0.75000000  0.07834000  0.06988000  1.0
  O  O56  1  0.75000000  0.07207000  0.49933000  1.0
  O  O57  1  0.25001000  0.42792000  0.99932000  1.0
  O  O58  1  0.25000000  0.92793000  0.50067000  1.0
  O  O59  1  0.75000000  0.57208000  0.00068000  1.0
  O  O60  1  0.75000000  0.62472000  0.25071000  1.0
  O  O61  1  0.25000000  0.87529000  0.75069000  1.0
  O  O62  1  0.25000000  0.37528000  0.74929000  1.0
  O  O63  1  0.75000000  0.12471000  0.24931000  1.0
  O  O64  1  0.75000000  0.29843000  0.61351000  1.0
  O  O65  1  0.25000000  0.20157000  0.11351000  1.0
  O  O66  1  0.25000000  0.70157000  0.38649000  1.0
  O  O67  1  0.75000000  0.79843000  0.88649000  1.0
