# generated using pymatgen
data_ZnH6C9NO3
_symmetry_space_group_name_H-M   'P 1'
_cell_length_a   6.63391000
_cell_length_b   12.34670000
_cell_length_c   14.26920000
_cell_angle_alpha   113.35300000
_cell_angle_beta   89.99910000
_cell_angle_gamma   89.99960000
_symmetry_Int_Tables_number   1
_chemical_formula_structural   ZnH6C9NO3
_chemical_formula_sum   'Zn4 H24 C36 N4 O12'
_cell_volume   1073.00234136
_cell_formula_units_Z   4
loop_
 _symmetry_equiv_pos_site_id
 _symmetry_equiv_pos_as_xyz
  1  'x, y, z'
loop_
 _atom_site_type_symbol
 _atom_site_label
 _atom_site_symmetry_multiplicity
 _atom_site_fract_x
 _atom_site_fract_y
 _atom_site_fract_z
 _atom_site_occupancy
  Zn  Zn0  1  0.25001000  0.81413000  0.01992000  1.0
  Zn  Zn1  1  0.75000000  0.18587000  0.98008000  1.0
  Zn  Zn2  1  0.25000000  0.12842000  0.02218000  1.0
  Zn  Zn3  1  0.75001000  0.87157000  0.97782000  1.0
  H  H4  1  0.94171000  0.17454000  0.11994000  1.0
  H  H5  1  0.44175000  0.82543000  0.88005000  1.0
  H  H6  1  0.05828000  0.82546000  0.88006000  1.0
  H  H7  1  0.55825000  0.17458000  0.11996000  1.0
  H  H8  1  0.25002000  0.54073000  0.88066000  1.0
  H  H9  1  0.75000000  0.45927000  0.11934000  1.0
  H  H10  1  0.25001000  0.34799000  0.90661000  1.0
  H  H11  1  0.75001000  0.65201000  0.09340000  1.0
  H  H12  1  0.25002000  0.35965000  0.08540000  1.0
  H  H13  1  0.75000000  0.64035000  0.91460000  1.0
  H  H14  1  0.25001000  0.55514000  0.22993000  1.0
  H  H15  1  0.75000000  0.44486000  0.77007000  1.0
  H  H16  1  0.24999000  0.72856000  0.34220000  1.0
  H  H17  1  0.74999000  0.27144000  0.65781000  1.0
  H  H18  1  0.25001000  0.09922000  0.39358000  1.0
  H  H19  1  0.74999000  0.90078000  0.60642000  1.0
  H  H20  1  0.24998000  0.13864000  0.54098000  1.0
  H  H21  1  0.74998000  0.86136000  0.45903000  1.0
  H  H22  1  0.24998000  0.18915000  0.72656000  1.0
  H  H23  1  0.74999000  0.81085000  0.27344000  1.0
  H  H24  1  0.25000000  0.82247000  0.67334000  1.0
  H  H25  1  0.75001000  0.17752000  0.32665000  1.0
  H  H26  1  0.25000000  0.76850000  0.48760000  1.0
  H  H27  1  0.75000000  0.23151000  0.51240000  1.0
  C  C28  1  0.25000000  0.53893000  0.95658000  1.0
  C  C29  1  0.75001000  0.46107000  0.04341000  1.0
  C  C30  1  0.25001000  0.43357000  0.97080000  1.0
  C  C31  1  0.75001000  0.56643000  0.02920000  1.0
  C  C32  1  0.25000000  0.43957000  0.07057000  1.0
  C  C33  1  0.75001000  0.56042000  0.92942000  1.0
  C  C34  1  0.25000000  0.54962000  0.15182000  1.0
  C  C35  1  0.75000000  0.45037000  0.84818000  1.0
  C  C36  1  0.24999000  0.65134000  0.13132000  1.0
  C  C37  1  0.75000000  0.34866000  0.86867000  1.0
  C  C38  1  0.24999000  0.77286000  0.21149000  1.0
  C  C39  1  0.75000000  0.22715000  0.78852000  1.0
  C  C40  1  0.25000000  0.80014000  0.31612000  1.0
  C  C41  1  0.74999000  0.19987000  0.68388000  1.0
  C  C42  1  0.24999000  0.91833000  0.38705000  1.0
  C  C43  1  0.74999000  0.08167000  0.61295000  1.0
  C  C44  1  0.25000000  0.00518000  0.34667000  1.0
  C  C45  1  0.74999000  0.99483000  0.65333000  1.0
  C  C46  1  0.25001000  0.97192000  0.24145000  1.0
  C  C47  1  0.74999000  0.02808000  0.75855000  1.0
  C  C48  1  0.25002000  0.06179000  0.19372000  1.0
  C  C49  1  0.74999000  0.93823000  0.80629000  1.0
  C  C50  1  0.25000000  0.94927000  0.49849000  1.0
  C  C51  1  0.74999000  0.05072000  0.50150000  1.0
  C  C52  1  0.24999000  0.06792000  0.56837000  1.0
  C  C53  1  0.74999000  0.93207000  0.43163000  1.0
  C  C54  1  0.24999000  0.09724000  0.67289000  1.0
  C  C55  1  0.74999000  0.90276000  0.32711000  1.0
  C  C56  1  0.24999000  0.00914000  0.71148000  1.0
  C  C57  1  0.75000000  0.99086000  0.28852000  1.0
  C  C58  1  0.25000000  0.89077000  0.64309000  1.0
  C  C59  1  0.75000000  0.10924000  0.35691000  1.0
  C  C60  1  0.25000000  0.86163000  0.53842000  1.0
  C  C61  1  0.75000000  0.13837000  0.46157000  1.0
  C  C62  1  0.24999000  0.04150000  0.82412000  1.0
  C  C63  1  0.75001000  0.95850000  0.17588000  1.0
  N  N64  1  0.25001000  0.64469000  0.03463000  1.0
  N  N65  1  0.75001000  0.35531000  0.96537000  1.0
  N  N66  1  0.25001000  0.85878000  0.17607000  1.0
  N  N67  1  0.74999000  0.14122000  0.82393000  1.0
  O  O68  1  0.25001000  0.01425000  0.09439000  1.0
  O  O69  1  0.74999000  0.98575000  0.90561000  1.0
  O  O70  1  0.25005000  0.16852000  0.24932000  1.0
  O  O71  1  0.74997000  0.83146000  0.75068000  1.0
  O  O72  1  0.24999000  0.96183000  0.85931000  1.0
  O  O73  1  0.75002000  0.03816000  0.14069000  1.0
  O  O74  1  0.24999000  0.15161000  0.88251000  1.0
  O  O75  1  0.75001000  0.84838000  0.11749000  1.0
  O  O76  1  0.98535000  0.20286000  0.06825000  1.0
  O  O77  1  0.48537000  0.79712000  0.93175000  1.0
  O  O78  1  0.01465000  0.79713000  0.93175000  1.0
  O  O79  1  0.51463000  0.20288000  0.06825000  1.0
