# generated using pymatgen
data_Na2PH19C8(S2O)2
_symmetry_space_group_name_H-M   'P 1'
_cell_length_a   10.78470000
_cell_length_b   11.69330000
_cell_length_c   13.55100000
_cell_angle_alpha   89.65900000
_cell_angle_beta   82.80560000
_cell_angle_gamma   83.55140000
_symmetry_Int_Tables_number   1
_chemical_formula_structural   Na2PH19C8(S2O)2
_chemical_formula_sum   'Na8 P4 H76 C32 S16 O8'
_cell_volume   1684.66105095
_cell_formula_units_Z   4
loop_
 _symmetry_equiv_pos_site_id
 _symmetry_equiv_pos_as_xyz
  1  'x, y, z'
loop_
 _atom_site_type_symbol
 _atom_site_label
 _atom_site_symmetry_multiplicity
 _atom_site_fract_x
 _atom_site_fract_y
 _atom_site_fract_z
 _atom_site_occupancy
  Na  Na0  1  0.63700000  0.90339000  0.52121000  1.0
  Na  Na1  1  0.36300000  0.09661000  0.47879000  1.0
  Na  Na2  1  0.51265000  0.77248000  0.21610000  1.0
  Na  Na3  1  0.48735000  0.22752000  0.78390000  1.0
  Na  Na4  1  0.49259000  0.27574000  0.28214000  1.0
  Na  Na5  1  0.50741000  0.72426000  0.71786000  1.0
  Na  Na6  1  0.64101000  0.56564000  0.02281000  1.0
  Na  Na7  1  0.35899000  0.43436000  0.97719000  1.0
  P  P8  1  0.60837000  0.01221000  0.30212000  1.0
  P  P9  1  0.39163000  0.98779000  0.69788000  1.0
  P  P10  1  0.39413000  0.53528000  0.19569000  1.0
  P  P11  1  0.60587000  0.46472000  0.80431000  1.0
  H  H12  1  0.02035000  0.04918000  0.18180000  1.0
  H  H13  1  0.97965000  0.95082000  0.81820000  1.0
  H  H14  1  0.91963000  0.95145000  0.14480000  1.0
  H  H15  1  0.08037000  0.04855000  0.85520000  1.0
  H  H16  1  0.89842000  0.00246000  0.26916000  1.0
  H  H17  1  0.10158000  0.99754000  0.73084000  1.0
  H  H18  1  0.93688000  0.25768000  0.22274000  1.0
  H  H19  1  0.06312000  0.74232000  0.77726000  1.0
  H  H20  1  0.81242000  0.21249000  0.30860000  1.0
  H  H21  1  0.18758000  0.78751000  0.69140000  1.0
  H  H22  1  0.77705000  0.30768000  0.21059000  1.0
  H  H23  1  0.22295000  0.69232000  0.78941000  1.0
  H  H24  1  0.96608000  0.18606000  0.04316000  1.0
  H  H25  1  0.03392000  0.81394000  0.95684000  1.0
  H  H26  1  0.80585000  0.23189000  0.02941000  1.0
  H  H27  1  0.19415000  0.76811000  0.97059000  1.0
  H  H28  1  0.86860000  0.08613000  0.00428000  1.0
  H  H29  1  0.13140000  0.91387000  0.99572000  1.0
  H  H30  1  0.97917000  0.66094000  0.30693000  1.0
  H  H31  1  0.02083000  0.33906000  0.69307000  1.0
  H  H32  1  0.07546000  0.54222000  0.35083000  1.0
  H  H33  1  0.92454000  0.45778000  0.64917000  1.0
  H  H34  1  0.10255000  0.58389000  0.22481000  1.0
  H  H35  1  0.89745000  0.41611000  0.77519000  1.0
  H  H36  1  0.06475000  0.84741000  0.26348000  1.0
  H  H37  1  0.93525000  0.15259000  0.73652000  1.0
  H  H38  1  0.19004000  0.77498000  0.18018000  1.0
  H  H39  1  0.80996000  0.22502000  0.81982000  1.0
  H  H40  1  0.22430000  0.86524000  0.27607000  1.0
  H  H41  1  0.77570000  0.13476000  0.72393000  1.0
  H  H42  1  0.03236000  0.78894000  0.44427000  1.0
  H  H43  1  0.96764000  0.21106000  0.55573000  1.0
  H  H44  1  0.19326000  0.80001000  0.45861000  1.0
  H  H45  1  0.80674000  0.19999000  0.54139000  1.0
  H  H46  1  0.12796000  0.66908000  0.48747000  1.0
  H  H47  1  0.87204000  0.33092000  0.51253000  1.0
  H  H48  1  0.59391000  0.53830000  0.51956000  1.0
  H  H49  1  0.40609000  0.46170000  0.48044000  1.0
  H  H50  1  0.62845000  0.63105000  0.41535000  1.0
  H  H51  1  0.37155000  0.36895000  0.58465000  1.0
  H  H52  1  0.48812000  0.66466000  0.49993000  1.0
  H  H53  1  0.51188000  0.33534000  0.50007000  1.0
  H  H54  1  0.82233000  0.64947000  0.47245000  1.0
  H  H55  1  0.17767000  0.35053000  0.52755000  1.0
  H  H56  1  0.78964000  0.56957000  0.58485000  1.0
  H  H57  1  0.21036000  0.43043000  0.41515000  1.0
  H  H58  1  0.79725000  0.75014000  0.68396000  1.0
  H  H59  1  0.20275000  0.24986000  0.31605000  1.0
  H  H60  1  0.94286000  0.69986000  0.61125000  1.0
  H  H61  1  0.05714000  0.30014000  0.38875000  1.0
  H  H62  1  0.00432000  0.89598000  0.60672000  1.0
  H  H63  1  0.99568000  0.10402000  0.39328000  1.0
  H  H64  1  0.85841000  0.94096000  0.68292000  1.0
  H  H65  1  0.14159000  0.05904000  0.31708000  1.0
  H  H66  1  0.89443000  0.00692000  0.56479000  1.0
  H  H67  1  0.10557000  0.99308000  0.43521000  1.0
  H  H68  1  0.60061000  0.94144000  0.01361000  1.0
  H  H69  1  0.39939000  0.05856000  0.98639000  1.0
  H  H70  1  0.62536000  0.83837000  0.91264000  1.0
  H  H71  1  0.37464000  0.16163000  0.08736000  1.0
  H  H72  1  0.48974000  0.83905000  0.00314000  1.0
  H  H73  1  0.51026000  0.16095000  0.99686000  1.0
  H  H74  1  0.82275000  0.77477000  0.96204000  1.0
  H  H75  1  0.17725000  0.22523000  0.03796000  1.0
  H  H76  1  0.79990000  0.86934000  0.06852000  1.0
  H  H77  1  0.20010000  0.13066000  0.93147000  1.0
  H  H78  1  0.81145000  0.69642000  0.17962000  1.0
  H  H79  1  0.18855000  0.30358000  0.82038000  1.0
  H  H80  1  0.95300000  0.70808000  0.09804000  1.0
  H  H81  1  0.04700000  0.29192000  0.90196000  1.0
  H  H82  1  0.01030000  0.49785000  0.10539000  1.0
  H  H83  1  0.98970000  0.50215000  0.89461000  1.0
  H  H84  1  0.86891000  0.49091000  0.19057000  1.0
  H  H85  1  0.13109000  0.50909000  0.80943000  1.0
  H  H86  1  0.89398000  0.41001000  0.07654000  1.0
  H  H87  1  0.10602000  0.58999000  0.92345000  1.0
  C  C88  1  0.83590000  0.13011000  0.16275000  1.0
  C  C89  1  0.16410000  0.86989000  0.83725000  1.0
  C  C90  1  0.92303000  0.02700000  0.19152000  1.0
  C  C91  1  0.07697000  0.97299000  0.80849000  1.0
  C  C92  1  0.84031000  0.23327000  0.23042000  1.0
  C  C93  1  0.15969000  0.76673000  0.76958000  1.0
  C  C94  1  0.87027000  0.16036000  0.05327000  1.0
  C  C95  1  0.12973000  0.83964000  0.94673000  1.0
  C  C96  1  0.16346000  0.70146000  0.32834000  1.0
  C  C97  1  0.83654000  0.29854000  0.67166000  1.0
  C  C98  1  0.07551000  0.61658000  0.30101000  1.0
  C  C99  1  0.92449000  0.38342000  0.69899000  1.0
  C  C100  1  0.16111000  0.80344000  0.25746000  1.0
  C  C101  1  0.83889000  0.19656000  0.74254000  1.0
  C  C102  1  0.12762000  0.74239000  0.43626000  1.0
  C  C103  1  0.87238000  0.25761000  0.56374000  1.0
  C  C104  1  0.58683000  0.62788000  0.49368000  1.0
  C  C105  1  0.41318000  0.37212000  0.50632000  1.0
  C  C106  1  0.78009000  0.65562000  0.55114000  1.0
  C  C107  1  0.21991000  0.34437000  0.44886000  1.0
  C  C108  1  0.84489000  0.73727000  0.60721000  1.0
  C  C109  1  0.15511000  0.26273000  0.39279000  1.0
  C  C110  1  0.90383000  0.92614000  0.60588000  1.0
  C  C111  1  0.09617000  0.07385000  0.39412000  1.0
  C  C112  1  0.58921000  0.85312000  0.99173000  1.0
  C  C113  1  0.41079000  0.14688000  0.00827000  1.0
  C  C114  1  0.78585000  0.78337000  0.04188000  1.0
  C  C115  1  0.21415000  0.21663000  0.95812000  1.0
  C  C116  1  0.85350000  0.69214000  0.10094000  1.0
  C  C117  1  0.14650000  0.30786000  0.89906000  1.0
  C  C118  1  0.90868000  0.49082000  0.11148000  1.0
  C  C119  1  0.09132000  0.50918000  0.88852000  1.0
  S  S120  1  0.69913000  0.85381000  0.31486000  1.0
  S  S121  1  0.30087000  0.14619000  0.68514000  1.0
  S  S122  1  0.62556000  0.11614000  0.41823000  1.0
  S  S123  1  0.37444000  0.88386000  0.58177000  1.0
  S  S124  1  0.42719000  0.01222000  0.27485000  1.0
  S  S125  1  0.57281000  0.98778000  0.72515000  1.0
  S  S126  1  0.67072000  0.09495000  0.16587000  1.0
  S  S127  1  0.32928000  0.90505000  0.83413000  1.0
  S  S128  1  0.57412000  0.49878000  0.22670000  1.0
  S  S129  1  0.42588000  0.50121000  0.77330000  1.0
  S  S130  1  0.38015000  0.64178000  0.07766000  1.0
  S  S131  1  0.61985000  0.35823000  0.92234000  1.0
  S  S132  1  0.30436000  0.39505000  0.18334000  1.0
  S  S133  1  0.69564000  0.60495000  0.81666000  1.0
  S  S134  1  0.32761000  0.63137000  0.32961000  1.0
  S  S135  1  0.67239000  0.36863000  0.67039000  1.0
  O  O136  1  0.64880000  0.69707000  0.55556000  1.0
  O  O137  1  0.35120000  0.30293000  0.44444000  1.0
  O  O138  1  0.84336000  0.84503000  0.55626000  1.0
  O  O139  1  0.15664000  0.15497000  0.44374000  1.0
  O  O140  1  0.65369000  0.77168000  0.05340000  1.0
  O  O141  1  0.34631000  0.22832000  0.94660000  1.0
  O  O142  1  0.84542000  0.58154000  0.05933000  1.0
  O  O143  1  0.15458000  0.41845000  0.94067000  1.0
