# generated using pymatgen
data_ZnH6C3(NO)4
_symmetry_space_group_name_H-M   'P 1'
_cell_length_a   8.18100000
_cell_length_b   9.44410000
_cell_length_c   9.57306898
_cell_angle_alpha   89.55642102
_cell_angle_beta   64.73320478
_cell_angle_gamma   88.95880000
_symmetry_Int_Tables_number   1
_chemical_formula_structural   ZnH6C3(NO)4
_chemical_formula_sum   'Zn4 H24 C12 N16 O16'
_cell_volume   668.76481236
_cell_formula_units_Z   4
loop_
 _symmetry_equiv_pos_site_id
 _symmetry_equiv_pos_as_xyz
  1  'x, y, z'
loop_
 _atom_site_type_symbol
 _atom_site_label
 _atom_site_symmetry_multiplicity
 _atom_site_fract_x
 _atom_site_fract_y
 _atom_site_fract_z
 _atom_site_occupancy
  Zn  Zn0  1  0.32784000  0.68307000  0.76564000  1.0
  Zn  Zn1  1  0.09353000  0.18305000  0.23432000  1.0
  Zn  Zn2  1  0.61174000  0.55385000  0.20510000  1.0
  Zn  Zn3  1  0.81660000  0.05372000  0.79482000  1.0
  H  H4  1  0.69268000  0.61729000  0.69118000  1.0
  H  H5  1  0.38383000  0.11735000  0.30873000  1.0
  H  H6  1  0.62099000  0.70959000  0.84806000  1.0
  H  H7  1  0.46914000  0.20968000  0.15184000  1.0
  H  H8  1  0.26227000  0.46693000  0.26518000  1.0
  H  H9  1  0.52705000  0.96698000  0.73497000  1.0
  H  H10  1  0.30683000  0.61009000  0.16515000  1.0
  H  H11  1  0.47161000  0.11015000  0.83502000  1.0
  H  H12  1  0.85760000  0.55797000  0.32843000  1.0
  H  H13  1  0.18563000  0.05790000  0.67138000  1.0
  H  H14  1  0.97243000  0.53487000  0.14949000  1.0
  H  H15  1  0.12178000  0.03467000  0.85032000  1.0
  H  H16  1  0.44974000  0.23660000  0.58810000  1.0
  H  H17  1  0.03818000  0.73649000  0.41166000  1.0
  H  H18  1  0.62472000  0.31734000  0.61414000  1.0
  H  H19  1  0.23886000  0.81747000  0.38613000  1.0
  H  H20  1  0.74152000  0.94818000  0.39548000  1.0
  H  H21  1  0.13743000  0.44768000  0.60496000  1.0
  H  H22  1  0.66821000  0.76950000  0.42184000  1.0
  H  H23  1  0.09012000  0.26914000  0.57851000  1.0
  H  H24  1  0.98460000  0.63417000  0.80596000  1.0
  H  H25  1  0.79053000  0.13412000  0.19400000  1.0
  H  H26  1  0.03483000  0.77672000  0.70196000  1.0
  H  H27  1  0.73702000  0.27670000  0.29801000  1.0
  C  C28  1  0.36248000  0.35833000  0.79199000  1.0
  C  C29  1  0.15482000  0.85837000  0.20792000  1.0
  C  C30  1  0.48600000  0.33584000  0.62641000  1.0
  C  C31  1  0.11255000  0.83582000  0.37356000  1.0
  C  C32  1  0.49625000  0.44966000  0.51102000  1.0
  C  C33  1  0.00711000  0.94953000  0.48890000  1.0
  C  C34  1  0.66349000  0.87514000  0.22642000  1.0
  C  C35  1  0.89006000  0.37494000  0.77370000  1.0
  C  C36  1  0.64198000  0.87531000  0.38808000  1.0
  C  C37  1  0.03038000  0.37501000  0.61217000  1.0
  C  C38  1  0.45926000  0.92958000  0.50974000  1.0
  C  C39  1  0.96946000  0.42941000  0.49037000  1.0
  N  N40  1  0.26269000  0.47401000  0.86083000  1.0
  N  N41  1  0.12371000  0.97399000  0.13904000  1.0
  N  N42  1  0.16410000  0.43831000  0.00913000  1.0
  N  N43  1  0.17343000  0.93826000  0.99072000  1.0
  N  N44  1  0.20548000  0.30655000  0.02834000  1.0
  N  N45  1  0.23419000  0.80654000  0.97155000  1.0
  N  N46  1  0.32939000  0.25387000  0.89548000  1.0
  N  N47  1  0.22535000  0.75393000  0.10444000  1.0
  N  N48  1  0.72362000  0.98419000  0.12884000  1.0
  N  N49  1  0.85265000  0.48408000  0.87119000  1.0
  N  N50  1  0.72378000  0.93964000  0.99647000  1.0
  N  N51  1  0.72027000  0.43971000  0.00347000  1.0
  N  N52  1  0.66612000  0.80908000  0.00959000  1.0
  N  N53  1  0.67559000  0.30917000  0.99038000  1.0
  N  N54  1  0.62735000  0.76604000  0.15398000  1.0
  N  N55  1  0.78129000  0.26597000  0.84609000  1.0
  O  O56  1  0.08225000  0.70287000  0.74932000  1.0
  O  O57  1  0.83171000  0.20284000  0.25055000  1.0
  O  O58  1  0.56401000  0.40541000  0.37032000  1.0
  O  O59  1  0.93369000  0.90519000  0.62954000  1.0
  O  O60  1  0.58465000  0.66014000  0.77572000  1.0
  O  O61  1  0.36055000  0.16010000  0.22398000  1.0
  O  O62  1  0.44639000  0.57640000  0.54648000  1.0
  O  O63  1  0.99294000  0.07634000  0.45344000  1.0
  O  O64  1  0.37278000  0.02669000  0.47706000  1.0
  O  O65  1  0.85048000  0.52666000  0.52302000  1.0
  O  O66  1  0.34956000  0.54458000  0.22642000  1.0
  O  O67  1  0.57550000  0.04453000  0.77396000  1.0
  O  O68  1  0.40829000  0.87900000  0.64569000  1.0
  O  O69  1  0.05427000  0.37886000  0.35442000  1.0
  O  O70  1  0.86320000  0.58581000  0.22630000  1.0
  O  O71  1  0.08905000  0.08546000  0.77357000  1.0
