# generated using pymatgen
data_AlH24C45(O2F)3
_symmetry_space_group_name_H-M   'P 1'
_cell_length_a   3.95101000
_cell_length_b   23.61619468
_cell_length_c   23.62310000
_cell_angle_alpha   60.09204069
_cell_angle_beta   88.10460000
_cell_angle_gamma   89.60872552
_symmetry_Int_Tables_number   1
_chemical_formula_structural   AlH24C45(O2F)3
_chemical_formula_sum   'Al1 H24 C45 O6 F3'
_cell_volume   1909.51433711
_cell_formula_units_Z   1
loop_
 _symmetry_equiv_pos_site_id
 _symmetry_equiv_pos_as_xyz
  1  'x, y, z'
loop_
 _atom_site_type_symbol
 _atom_site_label
 _atom_site_symmetry_multiplicity
 _atom_site_fract_x
 _atom_site_fract_y
 _atom_site_fract_z
 _atom_site_occupancy
  Al  Al0  1  0.97314000  0.49964000  0.00073000  1.0
  H  H1  1  0.23492000  0.32613000  0.99672000  1.0
  H  H2  1  0.24962000  0.26117000  0.94172000  1.0
  H  H3  1  0.16905000  0.16257000  0.82161000  1.0
  H  H4  1  0.78467000  0.68390000  0.97863000  1.0
  H  H5  1  0.78565000  0.80349000  0.91660000  1.0
  H  H6  1  0.68397000  0.89366000  0.87991000  1.0
  H  H7  1  0.70209000  0.01159000  0.82351000  1.0
  H  H8  1  0.48378000  0.10373000  0.78801000  1.0
  H  H9  1  0.18078000  0.67738000  0.83436000  1.0
  H  H10  1  0.18495000  0.79713000  0.77008000  1.0
  H  H11  1  0.27152000  0.01555000  0.65570000  1.0
  H  H12  1  0.75464000  0.33771000  0.18219000  1.0
  H  H13  1  0.74414000  0.27892000  0.30141000  1.0
  H  H14  1  0.72435000  0.23230000  0.39144000  1.0
  H  H15  1  0.75099000  0.17056000  0.50895000  1.0
  H  H16  1  0.48416000  0.10899000  0.60328000  1.0
  H  H17  1  0.14134000  0.48861000  0.18144000  1.0
  H  H18  1  0.14394000  0.43294000  0.30117000  1.0
  H  H19  1  0.18532000  0.32155000  0.52103000  1.0
  H  H20  1  0.73778000  0.48536000  0.83010000  1.0
  H  H21  1  0.71340000  0.42521000  0.77058000  1.0
  H  H22  1  0.80234000  0.37031000  0.73464000  1.0
  H  H23  1  0.80398000  0.31507000  0.67143000  1.0
  H  H24  1  0.48483000  0.28783000  0.60926000  1.0
  C  C25  1  0.48368000  0.44748000  0.95213000  1.0
  C  C26  1  0.45571000  0.45169000  0.10139000  1.0
  C  C27  1  0.47952000  0.60031000  0.94849000  1.0
  C  C28  1  0.34573000  0.34683000  0.94745000  1.0
  C  C29  1  0.35103000  0.31057000  0.91578000  1.0
  C  C30  1  0.31510000  0.24055000  0.83636000  1.0
  C  C31  1  0.31678000  0.20767000  0.80148000  1.0
  C  C32  1  0.64885000  0.70936000  0.93332000  1.0
  C  C33  1  0.64628000  0.77712000  0.89782000  1.0
  C  C34  1  0.59529000  0.91990000  0.83021000  1.0
  C  C35  1  0.60084000  0.98761000  0.79839000  1.0
  C  C36  1  0.48602000  0.40980000  0.91721000  1.0
  C  C37  1  0.48071000  0.33732000  0.85097000  1.0
  C  C38  1  0.48054000  0.30092000  0.81491000  1.0
  C  C39  1  0.48650000  0.23399000  0.74053000  1.0
  C  C40  1  0.48625000  0.19951000  0.70284000  1.0
  C  C41  1  0.48476000  0.13107000  0.73480000  1.0
  C  C42  1  0.31598000  0.70572000  0.85150000  1.0
  C  C43  1  0.31940000  0.77354000  0.81531000  1.0
  C  C44  1  0.37571000  0.92303000  0.73697000  1.0
  C  C45  1  0.37236000  0.99069000  0.70452000  1.0
  C  C46  1  0.61574000  0.35749000  0.20894000  1.0
  C  C47  1  0.60795000  0.32469000  0.27667000  1.0
  C  C48  1  0.60233000  0.25267000  0.41914000  1.0
  C  C49  1  0.61515000  0.21660000  0.48665000  1.0
  C  C50  1  0.48143000  0.67277000  0.91068000  1.0
  C  C51  1  0.48266000  0.81132000  0.83772000  1.0
  C  C52  1  0.48279000  0.88365000  0.80140000  1.0
  C  C53  1  0.48662000  0.02516000  0.73438000  1.0
  C  C54  1  0.48587000  0.09736000  0.69990000  1.0
  C  C55  1  0.48457000  0.13405000  0.63145000  1.0
  C  C56  1  0.27686000  0.44289000  0.20845000  1.0
  C  C57  1  0.27813000  0.41096000  0.27633000  1.0
  C  C58  1  0.30577000  0.33609000  0.42636000  1.0
  C  C59  1  0.31371000  0.30098000  0.49398000  1.0
  C  C60  1  0.62573000  0.43648000  0.85369000  1.0
  C  C61  1  0.61448000  0.40154000  0.82082000  1.0
  C  C62  1  0.65381000  0.32549000  0.75366000  1.0
  C  C63  1  0.65562000  0.29410000  0.71725000  1.0
  C  C64  1  0.44793000  0.41696000  0.17388000  1.0
  C  C65  1  0.44215000  0.35051000  0.31262000  1.0
  C  C66  1  0.44670000  0.31441000  0.38499000  1.0
  C  C67  1  0.47006000  0.24001000  0.52606000  1.0
  C  C68  1  0.48090000  0.20252000  0.59804000  1.0
  C  C69  1  0.48475000  0.23460000  0.63446000  1.0
  O  O70  1  0.70840000  0.57231000  0.99035000  1.0
  O  O71  1  0.72138000  0.48921000  0.93820000  1.0
  O  O72  1  0.69572000  0.43790000  0.07281000  1.0
  O  O73  1  0.24862000  0.57035000  0.93668000  1.0
  O  O74  1  0.22331000  0.49301000  0.07208000  1.0
  O  O75  1  0.24274000  0.43549000  0.99416000  1.0
  F  F76  1  0.14427000  0.39482000  0.40123000  1.0
  F  F77  1  0.12964000  0.21077000  0.89405000  1.0
  F  F78  1  0.26456000  0.89560000  0.70167000  1.0
