# generated using pymatgen
data_ZnH7C2N11
_symmetry_space_group_name_H-M   'P 1'
_cell_length_a   7.05209000
_cell_length_b   10.23340000
_cell_length_c   23.60570000
_cell_angle_alpha   89.99990000
_cell_angle_beta   90.00000000
_cell_angle_gamma   89.99990000
_symmetry_Int_Tables_number   1
_chemical_formula_structural   ZnH7C2N11
_chemical_formula_sum   'Zn8 H56 C16 N88'
_cell_volume   1703.54919531
_cell_formula_units_Z   8
loop_
 _symmetry_equiv_pos_site_id
 _symmetry_equiv_pos_as_xyz
  1  'x, y, z'
loop_
 _atom_site_type_symbol
 _atom_site_label
 _atom_site_symmetry_multiplicity
 _atom_site_fract_x
 _atom_site_fract_y
 _atom_site_fract_z
 _atom_site_occupancy
  Zn  Zn0  1  0.00000000  0.57061000  0.83267000  1.0
  Zn  Zn1  1  0.00000000  0.42939000  0.16733000  1.0
  Zn  Zn2  1  0.00000000  0.07061000  0.66733000  1.0
  Zn  Zn3  1  0.00000000  0.92939000  0.33267000  1.0
  Zn  Zn4  1  0.50000000  0.64121000  0.56352000  1.0
  Zn  Zn5  1  0.50000000  0.35880000  0.43648000  1.0
  Zn  Zn6  1  0.50000000  0.14121000  0.93648000  1.0
  Zn  Zn7  1  0.50000000  0.85879000  0.06352000  1.0
  H  H8  1  0.00000000  0.01397000  0.80911000  1.0
  H  H9  1  0.00000000  0.98603000  0.19090000  1.0
  H  H10  1  0.00000000  0.51397000  0.69089000  1.0
  H  H11  1  0.00000000  0.48603000  0.30911000  1.0
  H  H12  1  0.32517000  0.44008000  0.84269000  1.0
  H  H13  1  0.32517000  0.55992000  0.15731000  1.0
  H  H14  1  0.67482000  0.94008000  0.65731000  1.0
  H  H15  1  0.67483000  0.05992000  0.34269000  1.0
  H  H16  1  0.67483000  0.55992000  0.15731000  1.0
  H  H17  1  0.67482000  0.44008000  0.84269000  1.0
  H  H18  1  0.32518000  0.05992000  0.34269000  1.0
  H  H19  1  0.32517000  0.94008000  0.65731000  1.0
  H  H20  1  0.25501000  0.48896000  0.90646000  1.0
  H  H21  1  0.25501000  0.51103000  0.09354000  1.0
  H  H22  1  0.74499000  0.98897000  0.59354000  1.0
  H  H23  1  0.74499000  0.01103000  0.40646000  1.0
  H  H24  1  0.74499000  0.51103000  0.09354000  1.0
  H  H25  1  0.74499000  0.48897000  0.90646000  1.0
  H  H26  1  0.25501000  0.01103000  0.40646000  1.0
  H  H27  1  0.25501000  0.98896000  0.59354000  1.0
  H  H28  1  0.34832000  0.59517000  0.86310000  1.0
  H  H29  1  0.34832000  0.40483000  0.13690000  1.0
  H  H30  1  0.65167000  0.09516000  0.63690000  1.0
  H  H31  1  0.65167000  0.90483000  0.36310000  1.0
  H  H32  1  0.65167000  0.40483000  0.13690000  1.0
  H  H33  1  0.65167000  0.59517000  0.86310000  1.0
  H  H34  1  0.34833000  0.90483000  0.36310000  1.0
  H  H35  1  0.34832000  0.09516000  0.63690000  1.0
  H  H36  1  0.50000000  0.34812000  0.70909000  1.0
  H  H37  1  0.50000000  0.65188000  0.29091000  1.0
  H  H38  1  0.50000000  0.84812000  0.79091000  1.0
  H  H39  1  0.50000000  0.15188000  0.20909000  1.0
  H  H40  1  0.18543000  0.75789000  0.52770000  1.0
  H  H41  1  0.18543000  0.24211000  0.47230000  1.0
  H  H42  1  0.81457000  0.25789000  0.97230000  1.0
  H  H43  1  0.81457000  0.74211000  0.02770000  1.0
  H  H44  1  0.81458000  0.24211000  0.47230000  1.0
  H  H45  1  0.81457000  0.75789000  0.52770000  1.0
  H  H46  1  0.18543000  0.74211000  0.02770000  1.0
  H  H47  1  0.18543000  0.25789000  0.97230000  1.0
  H  H48  1  0.18600000  0.75641000  0.59888000  1.0
  H  H49  1  0.18600000  0.24359000  0.40112000  1.0
  H  H50  1  0.81400000  0.25641000  0.90112000  1.0
  H  H51  1  0.81400000  0.74358000  0.09888000  1.0
  H  H52  1  0.81400000  0.24358000  0.40112000  1.0
  H  H53  1  0.81400000  0.75641000  0.59888000  1.0
  H  H54  1  0.18600000  0.74358000  0.09888000  1.0
  H  H55  1  0.18600000  0.25641000  0.90112000  1.0
  H  H56  1  0.14749000  0.62240000  0.56308000  1.0
  H  H57  1  0.14749000  0.37760000  0.43692000  1.0
  H  H58  1  0.85251000  0.12240000  0.93692000  1.0
  H  H59  1  0.85251000  0.87760000  0.06308000  1.0
  H  H60  1  0.85251000  0.37760000  0.43692000  1.0
  H  H61  1  0.85251000  0.62240000  0.56308000  1.0
  H  H62  1  0.14749000  0.87760000  0.06308000  1.0
  H  H63  1  0.14749000  0.12240000  0.93692000  1.0
  C  C64  1  0.00000000  0.83568000  0.76941000  1.0
  C  C65  1  0.00000000  0.16432000  0.23059000  1.0
  C  C66  1  0.00000000  0.33568000  0.73059000  1.0
  C  C67  1  0.00000000  0.66432000  0.26941000  1.0
  C  C68  1  0.00000000  0.86887000  0.87088000  1.0
  C  C69  1  0.00000000  0.13113000  0.12912000  1.0
  C  C70  1  0.00000000  0.36887000  0.62912000  1.0
  C  C71  1  0.00000000  0.63113000  0.37088000  1.0
  C  C72  1  0.50000000  0.37389000  0.62271000  1.0
  C  C73  1  0.50000000  0.62611000  0.37729000  1.0
  C  C74  1  0.50000000  0.87389000  0.87729000  1.0
  C  C75  1  0.50000000  0.12611000  0.12271000  1.0
  C  C76  1  0.50000000  0.54960000  0.69190000  1.0
  C  C77  1  0.50000000  0.45041000  0.30810000  1.0
  C  C78  1  0.50000000  0.04961000  0.80809000  1.0
  C  C79  1  0.50000000  0.95039000  0.19190000  1.0
  N  N80  1  0.00000000  0.70356000  0.76736000  1.0
  N  N81  1  0.00000000  0.29643000  0.23264000  1.0
  N  N82  1  0.00000000  0.20357000  0.73264000  1.0
  N  N83  1  0.00000000  0.79643000  0.26736000  1.0
  N  N84  1  0.00000000  0.67358000  0.71144000  1.0
  N  N85  1  0.00000000  0.32642000  0.28856000  1.0
  N  N86  1  0.00000000  0.17358000  0.78856000  1.0
  N  N87  1  0.00000000  0.82642000  0.21144000  1.0
  N  N88  1  0.00000000  0.78012000  0.68146000  1.0
  N  N89  1  0.00000000  0.21988000  0.31854000  1.0
  N  N90  1  0.00000000  0.28012000  0.81854000  1.0
  N  N91  1  0.00000000  0.71988000  0.18146000  1.0
  N  N92  1  0.00000000  0.88486000  0.71640000  1.0
  N  N93  1  0.00000000  0.11514000  0.28360000  1.0
  N  N94  1  0.99999000  0.38486000  0.78359000  1.0
  N  N95  1  0.00000000  0.61514000  0.21641000  1.0
  N  N96  1  0.00000000  0.91256000  0.81613000  1.0
  N  N97  1  0.00000000  0.08744000  0.18387000  1.0
  N  N98  1  0.99999000  0.41257000  0.68387000  1.0
  N  N99  1  0.00000000  0.58744000  0.31614000  1.0
  N  N100  1  0.00000000  0.74307000  0.88709000  1.0
  N  N101  1  0.00000000  0.25692000  0.11291000  1.0
  N  N102  1  0.00000000  0.24308000  0.61291000  1.0
  N  N103  1  0.00000000  0.75693000  0.38709000  1.0
  N  N104  1  0.00000000  0.74721000  0.94480000  1.0
  N  N105  1  0.00000000  0.25279000  0.05520000  1.0
  N  N106  1  0.00000000  0.24720000  0.55520000  1.0
  N  N107  1  0.00000000  0.75280000  0.44480000  1.0
  N  N108  1  0.00000000  0.86971000  0.96117000  1.0
  N  N109  1  0.00000000  0.13029000  0.03883000  1.0
  N  N110  1  0.00000000  0.36970000  0.53883000  1.0
  N  N111  1  0.00000000  0.63030000  0.46117000  1.0
  N  N112  1  0.00000000  0.95023000  0.91583000  1.0
  N  N113  1  0.00000000  0.04977000  0.08417000  1.0
  N  N114  1  0.00000000  0.45023000  0.58417000  1.0
  N  N115  1  0.00000000  0.54977000  0.41583000  1.0
  N  N116  1  0.26020000  0.51443000  0.86463000  1.0
  N  N117  1  0.26020000  0.48557000  0.13536000  1.0
  N  N118  1  0.73979000  0.01443000  0.63536000  1.0
  N  N119  1  0.73979000  0.98557000  0.36464000  1.0
  N  N120  1  0.73980000  0.48557000  0.13536000  1.0
  N  N121  1  0.73979000  0.51443000  0.86463000  1.0
  N  N122  1  0.26021000  0.98557000  0.36464000  1.0
  N  N123  1  0.26020000  0.01442000  0.63536000  1.0
  N  N124  1  0.50000000  0.44346000  0.57402000  1.0
  N  N125  1  0.50000000  0.55654000  0.42598000  1.0
  N  N126  1  0.50000000  0.94346000  0.92598000  1.0
  N  N127  1  0.50000000  0.05654000  0.07402000  1.0
  N  N128  1  0.50000000  0.35252000  0.53206000  1.0
  N  N129  1  0.50000000  0.64748000  0.46794000  1.0
  N  N130  1  0.50000000  0.85252000  0.96794000  1.0
  N  N131  1  0.50000000  0.14748000  0.03206000  1.0
  N  N132  1  0.50000000  0.23554000  0.55402000  1.0
  N  N133  1  0.50000000  0.76446000  0.44599000  1.0
  N  N134  1  0.50000000  0.73555000  0.94598000  1.0
  N  N135  1  0.50000000  0.26445000  0.05402000  1.0
  N  N136  1  0.50000000  0.24461000  0.61097000  1.0
  N  N137  1  0.50000000  0.75539000  0.38903000  1.0
  N  N138  1  0.50000000  0.74461000  0.88903000  1.0
  N  N139  1  0.50000000  0.25539000  0.11097000  1.0
  N  N140  1  0.50000000  0.41995000  0.67693000  1.0
  N  N141  1  0.50000000  0.58005000  0.32307000  1.0
  N  N142  1  0.50000000  0.91996000  0.82307000  1.0
  N  N143  1  0.50000000  0.08004000  0.17693000  1.0
  N  N144  1  0.50000000  0.64959000  0.65486000  1.0
  N  N145  1  0.50000000  0.35041000  0.34514000  1.0
  N  N146  1  0.50000000  0.14959000  0.84514000  1.0
  N  N147  1  0.50000000  0.85041000  0.15486000  1.0
  N  N148  1  0.50000000  0.75942000  0.68678000  1.0
  N  N149  1  0.50000000  0.24059000  0.31322000  1.0
  N  N150  1  0.50000000  0.25942000  0.81321000  1.0
  N  N151  1  0.50000000  0.74058000  0.18678000  1.0
  N  N152  1  0.50000000  0.72451000  0.74042000  1.0
  N  N153  1  0.50000000  0.27549000  0.25958000  1.0
  N  N154  1  0.50000000  0.22451000  0.75958000  1.0
  N  N155  1  0.50000000  0.77549000  0.24042000  1.0
  N  N156  1  0.50000000  0.59322000  0.74587000  1.0
  N  N157  1  0.50000000  0.40678000  0.25413000  1.0
  N  N158  1  0.50000000  0.09323000  0.75413000  1.0
  N  N159  1  0.50000000  0.90677000  0.24587000  1.0
  N  N160  1  0.22686000  0.70743000  0.56305000  1.0
  N  N161  1  0.22686000  0.29257000  0.43695000  1.0
  N  N162  1  0.77314000  0.20743000  0.93695000  1.0
  N  N163  1  0.77314000  0.79257000  0.06305000  1.0
  N  N164  1  0.77314000  0.29257000  0.43695000  1.0
  N  N165  1  0.77314000  0.70743000  0.56305000  1.0
  N  N166  1  0.22686000  0.79257000  0.06305000  1.0
  N  N167  1  0.22687000  0.20743000  0.93695000  1.0
