# generated using pymatgen
data_CuPH13C16S(NO3)2
_symmetry_space_group_name_H-M   'P 1'
_cell_length_a   9.48277000
_cell_length_b   9.48271000
_cell_length_c   10.43420000
_cell_angle_alpha   75.30620000
_cell_angle_beta   75.30620000
_cell_angle_gamma   71.31660000
_symmetry_Int_Tables_number   1
_chemical_formula_structural   CuPH13C16S(NO3)2
_chemical_formula_sum   'Cu2 P2 H26 C32 S2 N4 O12'
_cell_volume   844.40167287
_cell_formula_units_Z   2
loop_
 _symmetry_equiv_pos_site_id
 _symmetry_equiv_pos_as_xyz
  1  'x, y, z'
loop_
 _atom_site_type_symbol
 _atom_site_label
 _atom_site_symmetry_multiplicity
 _atom_site_fract_x
 _atom_site_fract_y
 _atom_site_fract_z
 _atom_site_occupancy
  Cu  Cu0  1  0.23826000  0.76174000  0.50000000  1.0
  Cu  Cu1  1  0.29130000  0.70870000  0.00000000  1.0
  P  P2  1  0.38369000  0.88086000  0.68702000  1.0
  P  P3  1  0.11914000  0.61632000  0.31298000  1.0
  H  H4  1  0.60736000  0.78237000  0.73918000  1.0
  H  H5  1  0.21763000  0.39265000  0.26082000  1.0
  H  H6  1  0.00816000  0.38339000  0.67934000  1.0
  H  H7  1  0.61660000  0.99184000  0.32067000  1.0
  H  H8  1  0.12909000  0.13223000  0.60965000  1.0
  H  H9  1  0.86776000  0.87091000  0.39036000  1.0
  H  H10  1  0.46444000  0.03638000  0.85527000  1.0
  H  H11  1  0.96362000  0.53557000  0.14473000  1.0
  H  H12  1  0.34406000  0.28414000  0.92432000  1.0
  H  H13  1  0.71586000  0.65595000  0.07568000  1.0
  H  H14  1  0.17656000  0.07203000  0.34917000  1.0
  H  H15  1  0.92797000  0.82345000  0.65084000  1.0
  H  H16  1  0.95586000  0.30654000  0.34420000  1.0
  H  H17  1  0.69345000  0.04415000  0.65581000  1.0
  H  H18  1  0.79576000  0.49293000  0.47899000  1.0
  H  H19  1  0.50708000  0.20422000  0.52101000  1.0
  H  H20  1  0.56479000  0.71128000  0.47881000  1.0
  H  H21  1  0.28872000  0.43519000  0.52118000  1.0
  H  H22  1  0.02070000  0.81185000  0.87859000  1.0
  H  H23  1  0.18815000  0.97931000  0.12140000  1.0
  H  H24  1  0.78439000  0.02702000  0.88434000  1.0
  H  H25  1  0.97298000  0.21561000  0.11566000  1.0
  H  H26  1  0.71366000  0.30080000  0.20336000  1.0
  H  H27  1  0.69919000  0.28634000  0.79663000  1.0
  H  H28  1  0.48852000  0.52816000  0.19365000  1.0
  H  H29  1  0.47184000  0.51149000  0.80634000  1.0
  C  C30  1  0.17050000  0.34894000  0.80438000  1.0
  C  C31  1  0.65106000  0.82950000  0.19562000  1.0
  C  C32  1  0.10859000  0.30639000  0.71657000  1.0
  C  C33  1  0.69360000  0.89141000  0.28344000  1.0
  C  C34  1  0.17635000  0.16621000  0.67784000  1.0
  C  C35  1  0.83378000  0.82366000  0.32216000  1.0
  C  C36  1  0.30604000  0.06808000  0.72611000  1.0
  C  C37  1  0.93192000  0.69397000  0.27389000  1.0
  C  C38  1  0.36758000  0.11308000  0.81275000  1.0
  C  C39  1  0.88692000  0.63243000  0.18725000  1.0
  C  C40  1  0.29952000  0.25288000  0.85245000  1.0
  C  C41  1  0.74712000  0.70048000  0.14756000  1.0
  C  C42  1  0.06683000  0.07377000  0.41544000  1.0
  C  C43  1  0.92623000  0.93318000  0.58456000  1.0
  C  C44  1  0.94346000  0.20186000  0.41310000  1.0
  C  C45  1  0.79814000  0.05656000  0.58691000  1.0
  C  C46  1  0.80531000  0.19470000  0.50000000  1.0
  C  C47  1  0.67181000  0.32819000  0.50000000  1.0
  C  C48  1  0.68614000  0.47390000  0.48764000  1.0
  C  C49  1  0.52611000  0.31385000  0.51235000  1.0
  C  C50  1  0.55796000  0.59691000  0.48790000  1.0
  C  C51  1  0.40309000  0.44202000  0.51208000  1.0
  C  C52  1  0.00229000  0.90204000  0.93311000  1.0
  C  C53  1  0.09796000  0.99771000  0.06688000  1.0
  C  C54  1  0.87390000  0.02447000  0.93338000  1.0
  C  C55  1  0.97553000  0.12610000  0.06661000  1.0
  C  C56  1  0.85912000  0.14088000  0.00000000  1.0
  C  C57  1  0.72616000  0.27385000  0.00000000  1.0
  C  C58  1  0.66517000  0.34426000  0.11232000  1.0
  C  C59  1  0.65574000  0.33482000  0.88768000  1.0
  C  C60  1  0.53981000  0.46971000  0.10879000  1.0
  C  C61  1  0.53029000  0.46019000  0.89121000  1.0
  S  S62  1  0.08088000  0.52726000  0.85599000  1.0
  S  S63  1  0.47274000  0.91912000  0.14401000  1.0
  N  N64  1  0.05774000  0.94227000  0.50001000  1.0
  N  N65  1  0.41857000  0.58141000  0.50000000  1.0
  N  N66  1  0.11135000  0.88865000  0.00000000  1.0
  N  N67  1  0.47326000  0.52674000  0.00000000  1.0
  O  O68  1  0.10834000  0.64258000  0.73509000  1.0
  O  O69  1  0.35741000  0.89166000  0.26491000  1.0
  O  O70  1  0.15687000  0.52498000  0.96394000  1.0
  O  O71  1  0.47502000  0.84312000  0.03607000  1.0
  O  O72  1  0.92006000  0.53265000  0.90142000  1.0
  O  O73  1  0.46735000  0.07995000  0.09858000  1.0
  O  O74  1  0.56675000  0.85179000  0.66214000  1.0
  O  O75  1  0.14821000  0.43325000  0.33786000  1.0
  O  O76  1  0.34195000  0.75915000  0.80276000  1.0
  O  O77  1  0.24085000  0.65806000  0.19723000  1.0
  O  O78  1  0.34404000  0.88449000  0.55392000  1.0
  O  O79  1  0.11550000  0.65597000  0.44608000  1.0
