# generated using pymatgen
data_FeH5C5O4
_symmetry_space_group_name_H-M   'P 1'
_cell_length_a   6.71670000
_cell_length_b   15.29742486
_cell_length_c   15.41710000
_cell_angle_alpha   117.89268076
_cell_angle_beta   98.40530000
_cell_angle_gamma   97.82921035
_symmetry_Int_Tables_number   1
_chemical_formula_structural   FeH5C5O4
_chemical_formula_sum   'Fe6 H30 C30 O24'
_cell_volume   1346.55509216
_cell_formula_units_Z   6
loop_
 _symmetry_equiv_pos_site_id
 _symmetry_equiv_pos_as_xyz
  1  'x, y, z'
loop_
 _atom_site_type_symbol
 _atom_site_label
 _atom_site_symmetry_multiplicity
 _atom_site_fract_x
 _atom_site_fract_y
 _atom_site_fract_z
 _atom_site_occupancy
  Fe  Fe0  1  0.71110000  0.72410000  0.31772000  1.0
  Fe  Fe1  1  0.37667000  0.67537000  0.40557000  1.0
  Fe  Fe2  1  0.94943000  0.60293000  0.27323000  1.0
  Fe  Fe3  1  0.29225000  0.26574000  0.67602000  1.0
  Fe  Fe4  1  0.64992000  0.32439000  0.59981000  1.0
  Fe  Fe5  1  0.01527000  0.39851000  0.72129000  1.0
  H  H6  1  0.85061000  0.97111000  0.53945000  1.0
  H  H7  1  0.31258000  0.45714000  0.43486000  1.0
  H  H8  1  0.86288000  0.56541000  0.01406000  1.0
  H  H9  1  0.15284000  0.02332000  0.45513000  1.0
  H  H10  1  0.70015000  0.54895000  0.56787000  1.0
  H  H11  1  0.12197000  0.43612000  0.97790000  1.0
  H  H12  1  0.38620000  0.79253000  0.26558000  1.0
  H  H13  1  0.11891000  0.73999000  0.52234000  1.0
  H  H14  1  0.58304000  0.49016000  0.22251000  1.0
  H  H15  1  0.61634000  0.21012000  0.73495000  1.0
  H  H16  1  0.90724000  0.26257000  0.48573000  1.0
  H  H17  1  0.40186000  0.52443000  0.79109000  1.0
  H  H18  1  0.48748000  0.88980000  0.18589000  1.0
  H  H19  1  0.29814000  0.82027000  0.69988000  1.0
  H  H20  1  0.58703000  0.31046000  0.12891000  1.0
  H  H21  1  0.52820000  0.11058000  0.81473000  1.0
  H  H22  1  0.72186000  0.18023000  0.30815000  1.0
  H  H23  1  0.38201000  0.70032000  0.88436000  1.0
  H  H24  1  0.62821000  0.94275000  0.31520000  1.0
  H  H25  1  0.28323000  0.68568000  0.62819000  1.0
  H  H26  1  0.64996000  0.37933000  0.06455000  1.0
  H  H27  1  0.40161000  0.05002000  0.68243000  1.0
  H  H28  1  0.72662000  0.31379000  0.37956000  1.0
  H  H29  1  0.30359000  0.62417000  0.93960000  1.0
  H  H30  1  0.73794000  0.86718000  0.21396000  1.0
  H  H31  1  0.51222000  0.77536000  0.65029000  1.0
  H  H32  1  0.85230000  0.35762000  0.13619000  1.0
  H  H33  1  0.26825000  0.11772000  0.77633000  1.0
  H  H34  1  0.50576000  0.22041000  0.35892000  1.0
  H  H35  1  0.11286000  0.64654000  0.86329000  1.0
  C  C36  1  0.85578000  0.16503000  0.61649000  1.0
  C  C37  1  0.24537000  0.38497000  0.55641000  1.0
  C  C38  1  0.67407000  0.43878000  0.82433000  1.0
  C  C39  1  0.14696000  0.82874000  0.38229000  1.0
  C  C40  1  0.76538000  0.61983000  0.44768000  1.0
  C  C41  1  0.31315000  0.55913000  0.16950000  1.0
  C  C42  1  0.67176000  0.08161000  0.55492000  1.0
  C  C43  1  0.12068000  0.44661000  0.53131000  1.0
  C  C44  1  0.57479000  0.46762000  0.90958000  1.0
  C  C45  1  0.33125000  0.91286000  0.44090000  1.0
  C  C46  1  0.89205000  0.55953000  0.47167000  1.0
  C  C47  1  0.41054000  0.53309000  0.08241000  1.0
  C  C48  1  0.53223000  0.89632000  0.46531000  1.0
  C  C49  1  0.06792000  0.53297000  0.43126000  1.0
  C  C50  1  0.62530000  0.57199000  0.09354000  1.0
  C  C51  1  0.47069000  0.09862000  0.53031000  1.0
  C  C52  1  0.94406000  0.47357000  0.57076000  1.0
  C  C53  1  0.36005000  0.42858000  0.89756000  1.0
  C  C54  1  0.69663000  0.98221000  0.52112000  1.0
  C  C55  1  0.17699000  0.47727000  0.46354000  1.0
  C  C56  1  0.69954000  0.53741000  0.00606000  1.0
  C  C57  1  0.30697000  0.01243000  0.47358000  1.0
  C  C58  1  0.83566000  0.52915000  0.53905000  1.0
  C  C59  1  0.28522000  0.46408000  0.98562000  1.0
  C  C60  1  0.59338000  0.87714000  0.23827000  1.0
  C  C61  1  0.34315000  0.76041000  0.63637000  1.0
  C  C62  1  0.69739000  0.37276000  0.13224000  1.0
  C  C63  1  0.41944000  0.11602000  0.75768000  1.0
  C  C64  1  0.67464000  0.23860000  0.37184000  1.0
  C  C65  1  0.26958000  0.63438000  0.87338000  1.0
  O  O66  1  0.03755000  0.14943000  0.62069000  1.0
  O  O67  1  0.42186000  0.38049000  0.53836000  1.0
  O  O68  1  0.86873000  0.46360000  0.83895000  1.0
  O  O69  1  0.96644000  0.84443000  0.37158000  1.0
  O  O70  1  0.58736000  0.62229000  0.46602000  1.0
  O  O71  1  0.11931000  0.54099000  0.15624000  1.0
  O  O72  1  0.82476000  0.25601000  0.66800000  1.0
  O  O73  1  0.15780000  0.33270000  0.59435000  1.0
  O  O74  1  0.55246000  0.38906000  0.73336000  1.0
  O  O75  1  0.17704000  0.73644000  0.33973000  1.0
  O  O76  1  0.84602000  0.67210000  0.40910000  1.0
  O  O77  1  0.44021000  0.59710000  0.25865000  1.0
  O  O78  1  0.57257000  0.80482000  0.43878000  1.0
  O  O79  1  0.13085000  0.55701000  0.36439000  1.0
  O  O80  1  0.76191000  0.63917000  0.18110000  1.0
  O  O81  1  0.43085000  0.19040000  0.55685000  1.0
  O  O82  1  0.87361000  0.45023000  0.63640000  1.0
  O  O83  1  0.22875000  0.36111000  0.80867000  1.0
  O  O84  1  0.50569000  0.78425000  0.23554000  1.0
  O  O85  1  0.27045000  0.76210000  0.54461000  1.0
  O  O86  1  0.71261000  0.46664000  0.22326000  1.0
  O  O87  1  0.48910000  0.21018000  0.75923000  1.0
  O  O88  1  0.75539000  0.23836000  0.46360000  1.0
  O  O89  1  0.27155000  0.54428000  0.78203000  1.0
