# generated using pymatgen
data_CdH10C15N3O7
_symmetry_space_group_name_H-M   'P 1'
_cell_length_a   8.03071000
_cell_length_b   9.57957000
_cell_length_c   10.69210000
_cell_angle_alpha   96.93450000
_cell_angle_beta   102.43500000
_cell_angle_gamma   101.07300000
_symmetry_Int_Tables_number   1
_chemical_formula_structural   CdH10C15N3O7
_chemical_formula_sum   'Cd2 H20 C30 N6 O14'
_cell_volume   776.94402780
_cell_formula_units_Z   2
loop_
 _symmetry_equiv_pos_site_id
 _symmetry_equiv_pos_as_xyz
  1  'x, y, z'
loop_
 _atom_site_type_symbol
 _atom_site_label
 _atom_site_symmetry_multiplicity
 _atom_site_fract_x
 _atom_site_fract_y
 _atom_site_fract_z
 _atom_site_occupancy
  Cd  Cd0  1  0.01865000  0.07322000  0.85270000  1.0
  Cd  Cd1  1  0.98135000  0.92678000  0.14730000  1.0
  H  H2  1  0.28479000  0.38917000  0.91386000  1.0
  H  H3  1  0.71520000  0.61082000  0.08614000  1.0
  H  H4  1  0.38398000  0.58791000  0.79819000  1.0
  H  H5  1  0.61602000  0.41209000  0.20181000  1.0
  H  H6  1  0.26100000  0.55472000  0.55505000  1.0
  H  H7  1  0.73900000  0.44528000  0.44495000  1.0
  H  H8  1  0.03262000  0.33559000  0.44509000  1.0
  H  H9  1  0.96738000  0.66442000  0.55491000  1.0
  H  H10  1  0.80686000  0.18037000  0.37498000  1.0
  H  H11  1  0.19314000  0.81963000  0.62502000  1.0
  H  H12  1  0.57138000  0.96000000  0.28925000  1.0
  H  H13  1  0.42862000  0.04000000  0.71075000  1.0
  H  H14  1  0.52721000  0.77137000  0.43126000  1.0
  H  H15  1  0.47279000  0.22863000  0.56874000  1.0
  H  H16  1  0.72171000  0.81725000  0.65657000  1.0
  H  H17  1  0.27829000  0.18275000  0.34343000  1.0
  H  H18  1  0.40600000  0.13467000  0.92733000  1.0
  H  H19  1  0.59400000  0.86533000  0.07267000  1.0
  H  H20  1  0.32129000  0.01222000  0.00203000  1.0
  H  H21  1  0.67870000  0.98778000  0.99797000  1.0
  C  C22  1  0.99706000  0.62190000  0.93731000  1.0
  C  C23  1  0.00294000  0.37810000  0.06268000  1.0
  C  C24  1  0.86655000  0.37121000  0.95330000  1.0
  C  C25  1  0.13345000  0.62879000  0.04670000  1.0
  C  C26  1  0.86989000  0.49305000  0.89291000  1.0
  C  C27  1  0.13011000  0.50694000  0.10708000  1.0
  C  C28  1  0.99431000  0.74856000  0.86486000  1.0
  C  C29  1  0.00569000  0.25144000  0.13514000  1.0
  C  C30  1  0.71031000  0.24236000  0.91648000  1.0
  C  C31  1  0.28969000  0.75764000  0.08352000  1.0
  C  C32  1  0.22793000  0.38353000  0.81069000  1.0
  C  C33  1  0.77207000  0.61647000  0.18931000  1.0
  C  C34  1  0.28554000  0.49285000  0.74505000  1.0
  C  C35  1  0.71446000  0.50715000  0.25495000  1.0
  C  C36  1  0.21498000  0.47468000  0.61160000  1.0
  C  C37  1  0.78502000  0.52533000  0.38840000  1.0
  C  C38  1  0.08562000  0.35229000  0.54976000  1.0
  C  C39  1  0.91438000  0.64771000  0.45024000  1.0
  C  C40  1  0.02826000  0.24961000  0.62309000  1.0
  C  C41  1  0.97174000  0.75039000  0.37691000  1.0
  C  C42  1  0.88675000  0.11853000  0.56392000  1.0
  C  C43  1  0.11325000  0.88148000  0.43608000  1.0
  C  C44  1  0.78380000  0.10018000  0.43676000  1.0
  C  C45  1  0.21620000  0.89983000  0.56324000  1.0
  C  C46  1  0.65274000  0.97513000  0.38781000  1.0
  C  C47  1  0.34726000  0.02487000  0.61219000  1.0
  C  C48  1  0.62762000  0.87060000  0.46612000  1.0
  C  C49  1  0.37238000  0.12940000  0.53388000  1.0
  C  C50  1  0.73463000  0.89579000  0.59140000  1.0
  C  C51  1  0.26537000  0.10422000  0.40860000  1.0
  N  N52  1  0.73948000  0.48393000  0.77069000  1.0
  N  N53  1  0.26052000  0.51607000  0.22931000  1.0
  N  N54  1  0.10236000  0.26615000  0.75161000  1.0
  N  N55  1  0.89764000  0.73385000  0.24838000  1.0
  N  N56  1  0.86013000  0.01619000  0.63846000  1.0
  N  N57  1  0.13987000  0.98381000  0.36154000  1.0
  O  O58  1  0.94344000  0.85485000  0.92006000  1.0
  O  O59  1  0.05656000  0.14515000  0.07994000  1.0
  O  O60  1  0.04003000  0.74205000  0.76114000  1.0
  O  O61  1  0.95997000  0.25795000  0.23886000  1.0
  O  O62  1  0.73682000  0.11739000  0.88636000  1.0
  O  O63  1  0.26318000  0.88261000  0.11364000  1.0
  O  O64  1  0.56721000  0.27272000  0.92639000  1.0
  O  O65  1  0.43279000  0.72728000  0.07361000  1.0
  O  O66  1  0.71196000  0.37335000  0.68880000  1.0
  O  O67  1  0.28804000  0.62665000  0.31120000  1.0
  O  O68  1  0.67086000  0.58766000  0.75485000  1.0
  O  O69  1  0.32914000  0.41234000  0.24516000  1.0
  O  O70  1  0.30530000  0.05101000  0.92004000  1.0
  O  O71  1  0.69470000  0.94899000  0.07996000  1.0
