# generated using pymatgen
data_ZnH16C11(NO)4
_symmetry_space_group_name_H-M   'P 1'
_cell_length_a   10.25630000
_cell_length_b   17.11130000
_cell_length_c   17.11110000
_cell_angle_alpha   116.12300000
_cell_angle_beta   101.51600000
_cell_angle_gamma   101.51600000
_symmetry_Int_Tables_number   1
_chemical_formula_structural   ZnH16C11(NO)4
_chemical_formula_sum   'Zn6 H96 C66 N24 O24'
_cell_volume   2496.85169873
_cell_formula_units_Z   6
loop_
 _symmetry_equiv_pos_site_id
 _symmetry_equiv_pos_as_xyz
  1  'x, y, z'
loop_
 _atom_site_type_symbol
 _atom_site_label
 _atom_site_symmetry_multiplicity
 _atom_site_fract_x
 _atom_site_fract_y
 _atom_site_fract_z
 _atom_site_occupancy
  Zn  Zn0  1  0.83832000  0.68216000  0.30540000  1.0
  Zn  Zn1  1  0.53293000  0.69477000  0.37698000  1.0
  Zn  Zn2  1  0.15601000  0.62294000  0.31781000  1.0
  Zn  Zn3  1  0.65600000  0.31781000  0.62293000  1.0
  Zn  Zn4  1  0.33832000  0.30540000  0.68217000  1.0
  Zn  Zn5  1  0.03293000  0.37697000  0.69477000  1.0
  H  H6  1  0.47293000  0.34212000  0.88481000  1.0
  H  H7  1  0.58823000  0.11519000  0.45698000  1.0
  H  H8  1  0.13050000  0.54282000  0.65798000  1.0
  H  H9  1  0.63051000  0.65797000  0.54282000  1.0
  H  H10  1  0.97291000  0.88480000  0.34212000  1.0
  H  H11  1  0.08824000  0.45698000  0.11519000  1.0
  H  H12  1  0.61687000  0.38758000  0.02836000  1.0
  H  H13  1  0.58870000  0.97162000  0.35923000  1.0
  H  H14  1  0.22905000  0.64111000  0.61253000  1.0
  H  H15  1  0.72905000  0.61252000  0.64111000  1.0
  H  H16  1  0.11687000  0.02836000  0.38759000  1.0
  H  H17  1  0.08870000  0.35923000  0.97162000  1.0
  H  H18  1  0.88190000  0.37597000  0.12436000  1.0
  H  H19  1  0.75766000  0.87534000  0.25165000  1.0
  H  H20  1  0.50568000  0.74842000  0.62376000  1.0
  H  H21  1  0.00568000  0.62375000  0.74842000  1.0
  H  H22  1  0.38189000  0.12435000  0.37596000  1.0
  H  H23  1  0.25768000  0.25165000  0.87535000  1.0
  H  H24  1  0.72685000  0.36805000  0.15550000  1.0
  H  H25  1  0.57147000  0.84429000  0.21251000  1.0
  H  H26  1  0.35879000  0.78774000  0.63182000  1.0
  H  H27  1  0.85878000  0.63181000  0.78774000  1.0
  H  H28  1  0.22684000  0.15550000  0.36805000  1.0
  H  H29  1  0.07149000  0.21251000  0.84429000  1.0
  H  H30  1  0.85611000  0.35638000  0.81318000  1.0
  H  H31  1  0.04301000  0.18670000  0.54323000  1.0
  H  H32  1  0.49971000  0.45722000  0.64368000  1.0
  H  H33  1  0.99973000  0.64369000  0.45723000  1.0
  H  H34  1  0.35611000  0.81318000  0.35638000  1.0
  H  H35  1  0.54301000  0.54323000  0.18670000  1.0
  H  H36  1  0.11645000  0.80814000  0.61562000  1.0
  H  H37  1  0.50100000  0.38431000  0.19264000  1.0
  H  H38  1  0.30841000  0.80735000  0.19191000  1.0
  H  H39  1  0.80842000  0.19191000  0.80735000  1.0
  H  H40  1  0.61643000  0.61562000  0.80814000  1.0
  H  H41  1  0.00100000  0.19265000  0.38431000  1.0
  H  H42  1  0.91695000  0.94511000  0.69118000  1.0
  H  H43  1  0.22599000  0.30900000  0.25417000  1.0
  H  H44  1  0.97196000  0.74574000  0.05496000  1.0
  H  H45  1  0.47198000  0.05497000  0.74574000  1.0
  H  H46  1  0.41695000  0.69118000  0.94512000  1.0
  H  H47  1  0.72600000  0.25417000  0.30900000  1.0
  H  H48  1  0.92098000  0.83522000  0.61297000  1.0
  H  H49  1  0.30821000  0.38704000  0.22232000  1.0
  H  H50  1  0.08585000  0.77742000  0.16483000  1.0
  H  H51  1  0.58586000  0.16484000  0.77741000  1.0
  H  H52  1  0.42097000  0.61297000  0.83522000  1.0
  H  H53  1  0.80821000  0.22233000  0.38705000  1.0
  H  H54  1  0.80265000  0.90317000  0.52714000  1.0
  H  H55  1  0.27571000  0.47307000  0.37608000  1.0
  H  H56  1  0.89985000  0.62353000  0.09675000  1.0
  H  H57  1  0.39985000  0.09675000  0.62352000  1.0
  H  H58  1  0.30263000  0.52715000  0.90317000  1.0
  H  H59  1  0.77570000  0.37609000  0.47307000  1.0
  H  H60  1  0.95576000  0.00157000  0.58104000  1.0
  H  H61  1  0.37504000  0.41933000  0.42074000  1.0
  H  H62  1  0.95468000  0.57916000  0.99837000  1.0
  H  H63  1  0.45468000  0.99837000  0.57916000  1.0
  H  H64  1  0.45574000  0.58104000  0.00157000  1.0
  H  H65  1  0.87504000  0.42074000  0.41932000  1.0
  H  H66  1  0.96149000  0.89195000  0.50366000  1.0
  H  H67  1  0.45800000  0.49655000  0.38831000  1.0
  H  H68  1  0.06997000  0.61138000  0.10796000  1.0
  H  H69  1  0.56997000  0.10796000  0.61137000  1.0
  H  H70  1  0.46147000  0.50366000  0.89195000  1.0
  H  H71  1  0.95800000  0.38832000  0.49655000  1.0
  H  H72  1  0.11288000  0.07550000  0.73391000  1.0
  H  H73  1  0.37864000  0.26599000  0.34154000  1.0
  H  H74  1  0.03739000  0.65843000  0.92463000  1.0
  H  H75  1  0.53741000  0.92464000  0.65843000  1.0
  H  H76  1  0.61288000  0.73391000  0.07551000  1.0
  H  H77  1  0.87864000  0.34154000  0.26599000  1.0
  H  H78  1  0.27056000  0.05972000  0.71294000  1.0
  H  H79  1  0.55735000  0.28687000  0.34695000  1.0
  H  H80  1  0.21068000  0.65300000  0.94014000  1.0
  H  H81  1  0.71070000  0.94014000  0.65300000  1.0
  H  H82  1  0.77055000  0.71293000  0.05972000  1.0
  H  H83  1  0.05736000  0.34695000  0.28687000  1.0
  H  H84  1  0.31780000  0.13940000  0.88143000  1.0
  H  H85  1  0.43626000  0.11846000  0.25796000  1.0
  H  H86  1  0.17844000  0.74192000  0.86062000  1.0
  H  H87  1  0.67844000  0.86063000  0.74192000  1.0
  H  H88  1  0.81781000  0.88143000  0.13940000  1.0
  H  H89  1  0.93625000  0.25795000  0.11845000  1.0
  H  H90  1  0.17067000  0.05505000  0.86981000  1.0
  H  H91  1  0.30081000  0.13009000  0.18521000  1.0
  H  H92  1  0.11584000  0.81475000  0.94505000  1.0
  H  H93  1  0.61586000  0.94507000  0.81475000  1.0
  H  H94  1  0.67068000  0.86981000  0.05506000  1.0
  H  H95  1  0.80081000  0.18521000  0.13009000  1.0
  H  H96  1  0.32160000  0.02582000  0.84572000  1.0
  H  H97  1  0.47585000  0.15420000  0.18014000  1.0
  H  H98  1  0.29592000  0.81976000  0.97415000  1.0
  H  H99  1  0.79593000  0.97416000  0.81976000  1.0
  H  H100  1  0.82159000  0.84572000  0.02582000  1.0
  H  H101  1  0.97585000  0.18014000  0.15420000  1.0
  C  C102  1  0.85374000  0.50486000  0.20254000  1.0
  C  C103  1  0.65115000  0.79747000  0.30255000  1.0
  C  C104  1  0.34832000  0.69750000  0.49497000  1.0
  C  C105  1  0.84832000  0.49496000  0.69749000  1.0
  C  C106  1  0.35375000  0.20254000  0.50486000  1.0
  C  C107  1  0.15116000  0.30255000  0.79748000  1.0
  C  C108  1  0.55318000  0.34179000  0.85163000  1.0
  C  C109  1  0.70163000  0.14835000  0.48990000  1.0
  C  C110  1  0.21119000  0.51005000  0.65833000  1.0
  C  C111  1  0.71120000  0.65833000  0.51006000  1.0
  C  C112  1  0.05317000  0.85162000  0.34179000  1.0
  C  C113  1  0.20163000  0.48990000  0.14835000  1.0
  C  C114  1  0.79461000  0.40355000  0.12988000  1.0
  C  C115  1  0.66481000  0.86995000  0.27368000  1.0
  C  C116  1  0.39082000  0.72647000  0.59635000  1.0
  C  C117  1  0.89082000  0.59634000  0.72647000  1.0
  C  C118  1  0.29461000  0.12987000  0.40355000  1.0
  C  C119  1  0.16482000  0.27368000  0.86996000  1.0
  C  C120  1  0.69718000  0.35584000  0.88636000  1.0
  C  C121  1  0.81093000  0.11359000  0.46928000  1.0
  C  C122  1  0.34115000  0.53085000  0.64431000  1.0
  C  C123  1  0.84117000  0.64432000  0.53086000  1.0
  C  C124  1  0.19717000  0.88636000  0.35584000  1.0
  C  C125  1  0.31094000  0.46928000  0.11360000  1.0
  C  C126  1  0.74903000  0.34880000  0.81449000  1.0
  C  C127  1  0.93459000  0.18540000  0.53422000  1.0
  C  C128  1  0.40017000  0.46605000  0.65129000  1.0
  C  C129  1  0.90018000  0.65130000  0.46605000  1.0
  C  C130  1  0.24903000  0.81449000  0.34880000  1.0
  C  C131  1  0.43459000  0.53422000  0.18541000  1.0
  C  C132  1  0.78197000  0.37280000  0.97570000  1.0
  C  C133  1  0.80638000  0.02425000  0.39688000  1.0
  C  C134  1  0.40899000  0.60331000  0.62748000  1.0
  C  C135  1  0.90901000  0.62749000  0.60332000  1.0
  C  C136  1  0.28196000  0.97569000  0.37280000  1.0
  C  C137  1  0.30638000  0.39687000  0.02425000  1.0
  C  C138  1  0.18527000  0.88109000  0.66047000  1.0
  C  C139  1  0.52491000  0.33943000  0.22071000  1.0
  C  C140  1  0.30433000  0.77928000  0.11896000  1.0
  C  C141  1  0.80435000  0.11897000  0.77927000  1.0
  C  C142  1  0.68525000  0.66047000  0.88108000  1.0
  C  C143  1  0.02492000  0.22072000  0.33943000  1.0
  C  C144  1  0.96057000  0.90928000  0.63721000  1.0
  C  C145  1  0.32357000  0.36290000  0.27221000  1.0
  C  C146  1  0.05148000  0.72764000  0.09076000  1.0
  C  C147  1  0.55149000  0.09077000  0.72764000  1.0
  C  C148  1  0.46056000  0.63721000  0.90928000  1.0
  C  C149  1  0.82357000  0.27222000  0.36290000  1.0
  C  C150  1  0.91783000  0.92766000  0.55777000  1.0
  C  C151  1  0.36030000  0.44245000  0.36999000  1.0
  C  C152  1  0.99056000  0.62977000  0.07229000  1.0
  C  C153  1  0.49057000  0.07229000  0.62976000  1.0
  C  C154  1  0.41781000  0.55777000  0.92767000  1.0
  C  C155  1  0.86030000  0.37000000  0.44245000  1.0
  C  C156  1  0.18888000  0.03997000  0.73984000  1.0
  C  C157  1  0.44889000  0.26006000  0.30019000  1.0
  C  C158  1  0.14896000  0.69978000  0.96006000  1.0
  C  C159  1  0.64898000  0.96007000  0.69978000  1.0
  C  C160  1  0.68888000  0.73984000  0.03997000  1.0
  C  C161  1  0.94889000  0.30019000  0.26007000  1.0
  C  C162  1  0.25333000  0.06625000  0.84015000  1.0
  C  C163  1  0.41308000  0.15976000  0.22611000  1.0
  C  C164  1  0.18719000  0.77381000  0.93379000  1.0
  C  C165  1  0.68720000  0.93380000  0.77381000  1.0
  C  C166  1  0.75333000  0.84015000  0.06625000  1.0
  C  C167  1  0.91308000  0.22611000  0.15976000  1.0
  N  N168  1  0.64350000  0.33159000  0.74224000  1.0
  N  N169  1  0.90125000  0.25765000  0.58927000  1.0
  N  N170  1  0.31191000  0.41091000  0.66844000  1.0
  N  N171  1  0.81192000  0.66845000  0.41091000  1.0
  N  N172  1  0.14349000  0.74224000  0.33159000  1.0
  N  N173  1  0.40125000  0.58927000  0.25765000  1.0
  N  N174  1  0.52252000  0.32713000  0.76515000  1.0
  N  N175  1  0.75739000  0.23479000  0.56178000  1.0
  N  N176  1  0.19532000  0.43820000  0.67292000  1.0
  N  N177  1  0.69533000  0.67292000  0.43821000  1.0
  N  N178  1  0.02252000  0.76515000  0.32713000  1.0
  N  N179  1  0.25739000  0.56178000  0.23480000  1.0
  N  N180  1  0.71744000  0.38508000  0.04001000  1.0
  N  N181  1  0.67754000  0.95993000  0.34495000  1.0
  N  N182  1  0.33216000  0.65530000  0.61513000  1.0
  N  N183  1  0.83217000  0.61513000  0.65531000  1.0
  N  N184  1  0.21744000  0.04001000  0.38508000  1.0
  N  N185  1  0.17754000  0.34495000  0.95994000  1.0
  N  N186  1  0.11332000  0.94082000  0.67992000  1.0
  N  N187  1  0.43352000  0.32007000  0.26103000  1.0
  N  N188  1  0.17268000  0.73898000  0.05923000  1.0
  N  N189  1  0.67269000  0.05923000  0.73897000  1.0
  N  N190  1  0.61331000  0.67992000  0.94082000  1.0
  N  N191  1  0.93352000  0.26103000  0.32007000  1.0
  O  O192  1  0.78464000  0.55739000  0.19662000  1.0
  O  O193  1  0.58784000  0.80356000  0.36097000  1.0
  O  O194  1  0.22672000  0.63896000  0.44263000  1.0
  O  O195  1  0.72671000  0.44263000  0.63896000  1.0
  O  O196  1  0.28466000  0.19662000  0.55739000  1.0
  O  O197  1  0.08784000  0.36097000  0.80357000  1.0
  O  O198  1  0.96632000  0.53032000  0.26787000  1.0
  O  O199  1  0.69832000  0.73202000  0.26279000  1.0
  O  O200  1  0.43515000  0.73725000  0.46924000  1.0
  O  O201  1  0.93514000  0.46923000  0.73725000  1.0
  O  O202  1  0.46633000  0.26787000  0.53031000  1.0
  O  O203  1  0.19832000  0.26279000  0.73202000  1.0
  O  O204  1  0.90786000  0.37458000  0.99052000  1.0
  O  O205  1  0.91738000  0.00939000  0.38372000  1.0
  O  O206  1  0.53317000  0.61643000  0.62581000  1.0
  O  O207  1  0.03319000  0.62582000  0.61645000  1.0
  O  O208  1  0.40785000  0.99051000  0.37458000  1.0
  O  O209  1  0.41739000  0.38372000  0.00940000  1.0
  O  O210  1  0.31604000  0.90293000  0.68929000  1.0
  O  O211  1  0.62681000  0.31055000  0.21366000  1.0
  O  O212  1  0.41331000  0.78632000  0.09716000  1.0
  O  O213  1  0.91332000  0.09717000  0.78631000  1.0
  O  O214  1  0.81602000  0.68928000  0.90292000  1.0
  O  O215  1  0.12681000  0.21366000  0.31055000  1.0
