# generated using pymatgen
data_MnH24C50(BrN2)4
_symmetry_space_group_name_H-M   'P 1'
_cell_length_a   9.44816000
_cell_length_b   10.85050000
_cell_length_c   22.31100000
_cell_angle_alpha   89.99840000
_cell_angle_beta   93.80340000
_cell_angle_gamma   89.99910000
_symmetry_Int_Tables_number   1
_chemical_formula_structural   MnH24C50(BrN2)4
_chemical_formula_sum   'Mn2 H48 C100 Br8 N16'
_cell_volume   2282.22496977
_cell_formula_units_Z   2
loop_
 _symmetry_equiv_pos_site_id
 _symmetry_equiv_pos_as_xyz
  1  'x, y, z'
loop_
 _atom_site_type_symbol
 _atom_site_label
 _atom_site_symmetry_multiplicity
 _atom_site_fract_x
 _atom_site_fract_y
 _atom_site_fract_z
 _atom_site_occupancy
  Mn  Mn0  1  0.50000000  0.99999000  0.00000000  1.0
  Mn  Mn1  1  0.00000000  0.50000000  0.50000000  1.0
  H  H2  1  0.25020000  0.71622000  0.83391000  1.0
  H  H3  1  0.24979000  0.21621000  0.66609000  1.0
  H  H4  1  0.74979000  0.28379000  0.16609000  1.0
  H  H5  1  0.75019000  0.78379000  0.33391000  1.0
  H  H6  1  0.54075000  0.79509000  0.77974000  1.0
  H  H7  1  0.95927000  0.29507000  0.72027000  1.0
  H  H8  1  0.45926000  0.20493000  0.22026000  1.0
  H  H9  1  0.04073000  0.70493000  0.27974000  1.0
  H  H10  1  0.49493000  0.50755000  0.05680000  1.0
  H  H11  1  0.00509000  0.00755000  0.44320000  1.0
  H  H12  1  0.50508000  0.49246000  0.94319000  1.0
  H  H13  1  0.99491000  0.99246000  0.55681000  1.0
  H  H14  1  0.22882000  0.59166000  0.93840000  1.0
  H  H15  1  0.27118000  0.09165000  0.56161000  1.0
  H  H16  1  0.77116000  0.40836000  0.06160000  1.0
  H  H17  1  0.72881000  0.90836000  0.43839000  1.0
  H  H18  1  0.11945000  0.98662000  0.67089000  1.0
  H  H19  1  0.38053000  0.48662000  0.82912000  1.0
  H  H20  1  0.88056000  0.01339000  0.32912000  1.0
  H  H21  1  0.61945000  0.51338000  0.17088000  1.0
  H  H22  1  0.40432000  0.30877000  0.09437000  1.0
  H  H23  1  0.09569000  0.80878000  0.40562000  1.0
  H  H24  1  0.59569000  0.69123000  0.90562000  1.0
  H  H25  1  0.90429000  0.19122000  0.59439000  1.0
  H  H26  1  0.48639000  0.74855000  0.67186000  1.0
  H  H27  1  0.01363000  0.24854000  0.82814000  1.0
  H  H28  1  0.51364000  0.25147000  0.32814000  1.0
  H  H29  1  0.98637000  0.75145000  0.17186000  1.0
  H  H30  1  0.62879000  0.31679000  0.83408000  1.0
  H  H31  1  0.87123000  0.81680000  0.66592000  1.0
  H  H32  1  0.37121000  0.68322000  0.16593000  1.0
  H  H33  1  0.12879000  0.18321000  0.33409000  1.0
  H  H34  1  0.07786000  0.66642000  0.06196000  1.0
  H  H35  1  0.42212000  0.16641000  0.43803000  1.0
  H  H36  1  0.92213000  0.33358000  0.93803000  1.0
  H  H37  1  0.57788000  0.83358000  0.56196000  1.0
  H  H38  1  0.17486000  0.03256000  0.77934000  1.0
  H  H39  1  0.32513000  0.53256000  0.72067000  1.0
  H  H40  1  0.82515000  0.96745000  0.22067000  1.0
  H  H41  1  0.67487000  0.46744000  0.27934000  1.0
  H  H42  1  0.49035000  0.13265000  0.77339000  1.0
  H  H43  1  0.00966000  0.63265000  0.72661000  1.0
  H  H44  1  0.50965000  0.86736000  0.22662000  1.0
  H  H45  1  0.99034000  0.36735000  0.27339000  1.0
  H  H46  1  0.98855000  0.47038000  0.10188000  1.0
  H  H47  1  0.51142000  0.97040000  0.39810000  1.0
  H  H48  1  0.01145000  0.52961000  0.89811000  1.0
  H  H49  1  0.48856000  0.02960000  0.60189000  1.0
  C  C50  1  0.18025000  0.06715000  0.99624000  1.0
  C  C51  1  0.31979000  0.56718000  0.50375000  1.0
  C  C52  1  0.81974000  0.93281000  0.00376000  1.0
  C  C53  1  0.68023000  0.43283000  0.49625000  1.0
  C  C54  1  0.36172000  0.91698000  0.78659000  1.0
  C  C55  1  0.13828000  0.41698000  0.71341000  1.0
  C  C56  1  0.63828000  0.08303000  0.21341000  1.0
  C  C57  1  0.86172000  0.58302000  0.28659000  1.0
  C  C58  1  0.04249000  0.03163000  0.97927000  1.0
  C  C59  1  0.45752000  0.53169000  0.52072000  1.0
  C  C60  1  0.95752000  0.96830000  0.02072000  1.0
  C  C61  1  0.54247000  0.46833000  0.47928000  1.0
  C  C62  1  0.29301000  0.60091000  0.05737000  1.0
  C  C63  1  0.20699000  0.10091000  0.44264000  1.0
  C  C64  1  0.70699000  0.39909000  0.94263000  1.0
  C  C65  1  0.79302000  0.89909000  0.55736000  1.0
  C  C66  1  0.28844000  0.74353000  0.87887000  1.0
  C  C67  1  0.21156000  0.24353000  0.62114000  1.0
  C  C68  1  0.71157000  0.25648000  0.12114000  1.0
  C  C69  1  0.78843000  0.75649000  0.37887000  1.0
  C  C70  1  0.44812000  0.83688000  0.75593000  1.0
  C  C71  1  0.05189000  0.33686000  0.74408000  1.0
  C  C72  1  0.55189000  0.16313000  0.24407000  1.0
  C  C73  1  0.94811000  0.66313000  0.25592000  1.0
  C  C74  1  0.39864000  0.94406000  0.85120000  1.0
  C  C75  1  0.10138000  0.44406000  0.64880000  1.0
  C  C76  1  0.60136000  0.05595000  0.14880000  1.0
  C  C77  1  0.89865000  0.55595000  0.35120000  1.0
  C  C78  1  0.34211000  0.75563000  0.97881000  1.0
  C  C79  1  0.15790000  0.25564000  0.52119000  1.0
  C  C80  1  0.65789000  0.24436000  0.02119000  1.0
  C  C81  1  0.84209000  0.74437000  0.47881000  1.0
  C  C82  1  0.35093000  0.72247000  0.03940000  1.0
  C  C83  1  0.14907000  0.22247000  0.46061000  1.0
  C  C84  1  0.64907000  0.27754000  0.96060000  1.0
  C  C85  1  0.85096000  0.77754000  0.53939000  1.0
  C  C86  1  0.36242000  0.85665000  0.89357000  1.0
  C  C87  1  0.13758000  0.35664000  0.60643000  1.0
  C  C88  1  0.63759000  0.14335000  0.10643000  1.0
  C  C89  1  0.86241000  0.64335000  0.39358000  1.0
  C  C90  1  0.38348000  0.49903000  0.06613000  1.0
  C  C91  1  0.11653000  0.99905000  0.43387000  1.0
  C  C92  1  0.61653000  0.50096000  0.93386000  1.0
  C  C93  1  0.88347000  0.00096000  0.56614000  1.0
  C  C94  1  0.27680000  0.68091000  0.93150000  1.0
  C  C95  1  0.22319000  0.18091000  0.56850000  1.0
  C  C96  1  0.72319000  0.31909000  0.06850000  1.0
  C  C97  1  0.77680000  0.81908000  0.43150000  1.0
  C  C98  1  0.30057000  0.86631000  0.66538000  1.0
  C  C99  1  0.19943000  0.36629000  0.83463000  1.0
  C  C100  1  0.69944000  0.13370000  0.33462000  1.0
  C  C101  1  0.80057000  0.63369000  0.16537000  1.0
  C  C102  1  0.47281000  0.05267000  0.86535000  1.0
  C  C103  1  0.02719000  0.55268000  0.63465000  1.0
  C  C104  1  0.52719000  0.94733000  0.13465000  1.0
  C  C105  1  0.97281000  0.44734000  0.36535000  1.0
  C  C106  1  0.21187000  0.94545000  0.69486000  1.0
  C  C107  1  0.28812000  0.44545000  0.80515000  1.0
  C  C108  1  0.78813000  0.05455000  0.30514000  1.0
  C  C109  1  0.71187000  0.55454000  0.19486000  1.0
  C  C110  1  0.33362000  0.38754000  0.08778000  1.0
  C  C111  1  0.16637000  0.88756000  0.41220000  1.0
  C  C112  1  0.66638000  0.61246000  0.91220000  1.0
  C  C113  1  0.83361000  0.11245000  0.58781000  1.0
  C  C114  1  0.41862000  0.81126000  0.69515000  1.0
  C  C115  1  0.08140000  0.31125000  0.80486000  1.0
  C  C116  1  0.58140000  0.18875000  0.30485000  1.0
  C  C117  1  0.91860000  0.68874000  0.19514000  1.0
  C  C118  1  0.58240000  0.23448000  0.85217000  1.0
  C  C119  1  0.91760000  0.73448000  0.64783000  1.0
  C  C120  1  0.41760000  0.76553000  0.14784000  1.0
  C  C121  1  0.08241000  0.26553000  0.35218000  1.0
  C  C122  1  0.19193000  0.37932000  0.10156000  1.0
  C  C123  1  0.30807000  0.87933000  0.39842000  1.0
  C  C124  1  0.80808000  0.62067000  0.89843000  1.0
  C  C125  1  0.69191000  0.12068000  0.60158000  1.0
  C  C126  1  0.14989000  0.58843000  0.06895000  1.0
  C  C127  1  0.35009000  0.08844000  0.43105000  1.0
  C  C128  1  0.85011000  0.41156000  0.93105000  1.0
  C  C129  1  0.64990000  0.91156000  0.56895000  1.0
  C  C130  1  0.98726000  0.05871000  0.92056000  1.0
  C  C131  1  0.51273000  0.55875000  0.57943000  1.0
  C  C132  1  0.01276000  0.94126000  0.07943000  1.0
  C  C133  1  0.48727000  0.44127000  0.42057000  1.0
  C  C134  1  0.24340000  0.97088000  0.75568000  1.0
  C  C135  1  0.25658000  0.47087000  0.74433000  1.0
  C  C136  1  0.75660000  0.02913000  0.24432000  1.0
  C  C137  1  0.74342000  0.52913000  0.25568000  1.0
  C  C138  1  0.51249000  0.14137000  0.82153000  1.0
  C  C139  1  0.98753000  0.64137000  0.67846000  1.0
  C  C140  1  0.48752000  0.85863000  0.17847000  1.0
  C  C141  1  0.01247000  0.35863000  0.32154000  1.0
  C  C142  1  0.41326000  0.79658000  0.08507000  1.0
  C  C143  1  0.08672000  0.29659000  0.41494000  1.0
  C  C144  1  0.58674000  0.20341000  0.91493000  1.0
  C  C145  1  0.91328000  0.70342000  0.58507000  1.0
  C  C146  1  0.09898000  0.47807000  0.09136000  1.0
  C  C147  1  0.40099000  0.97807000  0.40861000  1.0
  C  C148  1  0.90102000  0.52193000  0.90862000  1.0
  C  C149  1  0.59898000  0.02192000  0.59138000  1.0
  Br  Br150  1  0.25978000  0.83109000  0.58225000  1.0
  Br  Br151  1  0.24021000  0.33109000  0.91776000  1.0
  Br  Br152  1  0.74021000  0.16890000  0.41776000  1.0
  Br  Br153  1  0.75979000  0.66890000  0.08224000  1.0
  Br  Br154  1  0.12578000  0.23162000  0.13651000  1.0
  Br  Br155  1  0.37419000  0.73165000  0.36344000  1.0
  Br  Br156  1  0.87421000  0.76837000  0.86347000  1.0
  Br  Br157  1  0.62578000  0.26836000  0.63654000  1.0
  N  N158  1  0.29717000  0.09711000  0.01138000  1.0
  N  N159  1  0.20286000  0.59711000  0.48863000  1.0
  N  N160  1  0.70283000  0.90286000  0.98862000  1.0
  N  N161  1  0.79716000  0.40290000  0.51137000  1.0
  N  N162  1  0.52032000  0.09129000  0.92229000  1.0
  N  N163  1  0.97969000  0.59129000  0.57771000  1.0
  N  N164  1  0.47969000  0.90870000  0.07771000  1.0
  N  N165  1  0.02030000  0.40871000  0.42229000  1.0
  N  N166  1  0.39371000  0.86305000  0.95492000  1.0
  N  N167  1  0.10630000  0.36305000  0.54509000  1.0
  N  N168  1  0.60631000  0.13694000  0.04508000  1.0
  N  N169  1  0.89368000  0.63695000  0.45492000  1.0
  N  N170  1  0.93869000  0.07948000  0.87185000  1.0
  N  N171  1  0.56135000  0.57952000  0.62813000  1.0
  N  N172  1  0.06133000  0.92048000  0.12813000  1.0
  N  N173  1  0.43865000  0.42049000  0.37186000  1.0
