# generated using pymatgen
data_CdH10C12(N3Cl)2
_symmetry_space_group_name_H-M   'P 1'
_cell_length_a   3.81074000
_cell_length_b   11.60950000
_cell_length_c   16.57360000
_cell_angle_alpha   101.14900000
_cell_angle_beta   90.01650000
_cell_angle_gamma   99.42640000
_symmetry_Int_Tables_number   1
_chemical_formula_structural   CdH10C12(N3Cl)2
_chemical_formula_sum   'Cd2 H20 C24 N12 Cl4'
_cell_volume   709.29032730
_cell_formula_units_Z   2
loop_
 _symmetry_equiv_pos_site_id
 _symmetry_equiv_pos_as_xyz
  1  'x, y, z'
loop_
 _atom_site_type_symbol
 _atom_site_label
 _atom_site_symmetry_multiplicity
 _atom_site_fract_x
 _atom_site_fract_y
 _atom_site_fract_z
 _atom_site_occupancy
  Cd  Cd0  1  0.88904000  0.00014000  0.75005000  1.0
  Cd  Cd1  1  0.11096000  0.99985000  0.24995000  1.0
  H  H2  1  0.55856000  0.89687000  0.03895000  1.0
  H  H3  1  0.66275000  0.10313000  0.46095000  1.0
  H  H4  1  0.44144000  0.10313000  0.96105000  1.0
  H  H5  1  0.33726000  0.89687000  0.53905000  1.0
  H  H6  1  0.66282000  0.64730000  0.03708000  1.0
  H  H7  1  0.01728000  0.35256000  0.46272000  1.0
  H  H8  1  0.33718000  0.35270000  0.96292000  1.0
  H  H9  1  0.98273000  0.64744000  0.53728000  1.0
  H  H10  1  0.84420000  0.47716000  0.93670000  1.0
  H  H11  1  0.36787000  0.52272000  0.56315000  1.0
  H  H12  1  0.15580000  0.52284000  0.06330000  1.0
  H  H13  1  0.63213000  0.47728000  0.43684000  1.0
  H  H14  1  0.02001000  0.49867000  0.79720000  1.0
  H  H15  1  0.52084000  0.50145000  0.70282000  1.0
  H  H16  1  0.97999000  0.50133000  0.20281000  1.0
  H  H17  1  0.47916000  0.49855000  0.29718000  1.0
  H  H18  1  0.02545000  0.69076000  0.74897000  1.0
  H  H19  1  0.33397000  0.30940000  0.75109000  1.0
  H  H20  1  0.97455000  0.30923000  0.25103000  1.0
  H  H21  1  0.66603000  0.69060000  0.24891000  1.0
  C  C22  1  0.83501000  0.77421000  0.86576000  1.0
  C  C23  1  0.06071000  0.22590000  0.63422000  1.0
  C  C24  1  0.16499000  0.22579000  0.13423000  1.0
  C  C25  1  0.93929000  0.77410000  0.36578000  1.0
  C  C26  1  0.73469000  0.76085000  0.94619000  1.0
  C  C27  1  0.97450000  0.23915000  0.55371000  1.0
  C  C28  1  0.26531000  0.23915000  0.05381000  1.0
  C  C29  1  0.02551000  0.76085000  0.44629000  1.0
  C  C30  1  0.73702000  0.65495000  0.97468000  1.0
  C  C31  1  0.08317000  0.34497000  0.52519000  1.0
  C  C32  1  0.26297000  0.34506000  0.02532000  1.0
  C  C33  1  0.91684000  0.65503000  0.47481000  1.0
  C  C34  1  0.83887000  0.56222000  0.91861000  1.0
  C  C35  1  0.27708000  0.43774000  0.58131000  1.0
  C  C36  1  0.16113000  0.43778000  0.08139000  1.0
  C  C37  1  0.72292000  0.56226000  0.41869000  1.0
  C  C38  1  0.93975000  0.57447000  0.83812000  1.0
  C  C39  1  0.36494000  0.42562000  0.66189000  1.0
  C  C40  1  0.06026000  0.42553000  0.16188000  1.0
  C  C41  1  0.63506000  0.57438000  0.33811000  1.0
  C  C42  1  0.94196000  0.67975000  0.81025000  1.0
  C  C43  1  0.26186000  0.32036000  0.68976000  1.0
  C  C44  1  0.05803000  0.32025000  0.18975000  1.0
  C  C45  1  0.73814000  0.67964000  0.31024000  1.0
  N  N46  1  0.64439000  0.86784000  0.98064000  1.0
  N  N47  1  0.77730000  0.13218000  0.51928000  1.0
  N  N48  1  0.35562000  0.13217000  0.01936000  1.0
  N  N49  1  0.22271000  0.86781000  0.48072000  1.0
  N  N50  1  0.68385000  0.94249000  0.92783000  1.0
  N  N51  1  0.74172000  0.05758000  0.57213000  1.0
  N  N52  1  0.31615000  0.05751000  0.07217000  1.0
  N  N53  1  0.25828000  0.94242000  0.42787000  1.0
  N  N54  1  0.79885000  0.88817000  0.85856000  1.0
  N  N55  1  0.91074000  0.11195000  0.64144000  1.0
  N  N56  1  0.20115000  0.11183000  0.14144000  1.0
  N  N57  1  0.08926000  0.88805000  0.35856000  1.0
  Cl  Cl58  1  0.31561000  0.85814000  0.67277000  1.0
  Cl  Cl59  1  0.45762000  0.14215000  0.82737000  1.0
  Cl  Cl60  1  0.68438000  0.14186000  0.32723000  1.0
  Cl  Cl61  1  0.54238000  0.85785000  0.17264000  1.0
