# generated using pymatgen
data_CdH9C10N6ClO
_symmetry_space_group_name_H-M   'P 1'
_cell_length_a   6.86693000
_cell_length_b   13.13640000
_cell_length_c   13.27000000
_cell_angle_alpha   90.00000000
_cell_angle_beta   100.64400000
_cell_angle_gamma   90.00000000
_symmetry_Int_Tables_number   1
_chemical_formula_structural   CdH9C10N6ClO
_chemical_formula_sum   'Cd4 H36 C40 N24 Cl4 O4'
_cell_volume   1176.44685502
_cell_formula_units_Z   4
loop_
 _symmetry_equiv_pos_site_id
 _symmetry_equiv_pos_as_xyz
  1  'x, y, z'
loop_
 _atom_site_type_symbol
 _atom_site_label
 _atom_site_symmetry_multiplicity
 _atom_site_fract_x
 _atom_site_fract_y
 _atom_site_fract_z
 _atom_site_occupancy
  Cd  Cd0  1  0.19415000  0.68389000  0.22621000  1.0
  Cd  Cd1  1  0.30585000  0.18389000  0.77379000  1.0
  Cd  Cd2  1  0.80585000  0.31611000  0.77379000  1.0
  Cd  Cd3  1  0.69415000  0.81611000  0.22621000  1.0
  H  H4  1  0.84193000  0.72900000  0.06625000  1.0
  H  H5  1  0.65807000  0.22900000  0.93375000  1.0
  H  H6  1  0.15807000  0.27100000  0.93375000  1.0
  H  H7  1  0.34193000  0.77100000  0.06625000  1.0
  H  H8  1  0.80100000  0.61577000  0.10721000  1.0
  H  H9  1  0.69900000  0.11577000  0.89279000  1.0
  H  H10  1  0.19900000  0.38423000  0.89279000  1.0
  H  H11  1  0.30100000  0.88423000  0.10721000  1.0
  H  H12  1  0.12655000  0.43362000  0.17359000  1.0
  H  H13  1  0.37344000  0.93362000  0.82641000  1.0
  H  H14  1  0.87344000  0.56638000  0.82641000  1.0
  H  H15  1  0.62655000  0.06638000  0.17359000  1.0
  H  H16  1  0.15101000  0.57582000  0.45946000  1.0
  H  H17  1  0.34899000  0.07582000  0.54054000  1.0
  H  H18  1  0.84900000  0.42418000  0.54054000  1.0
  H  H19  1  0.65101000  0.92418000  0.45946000  1.0
  H  H20  1  0.15678000  0.36717000  0.49030000  1.0
  H  H21  1  0.34323000  0.86717000  0.50970000  1.0
  H  H22  1  0.84323000  0.63283000  0.50970000  1.0
  H  H23  1  0.65678000  0.13283000  0.49030000  1.0
  H  H24  1  0.08219000  0.21193000  0.45062000  1.0
  H  H25  1  0.41781000  0.71194000  0.54938000  1.0
  H  H26  1  0.91781000  0.78807000  0.54938000  1.0
  H  H27  1  0.58219000  0.28807000  0.45062000  1.0
  H  H28  1  0.08150000  0.02875000  0.40557000  1.0
  H  H29  1  0.41850000  0.52875000  0.59443000  1.0
  H  H30  1  0.91850000  0.97125000  0.59443000  1.0
  H  H31  1  0.58150000  0.47125000  0.40557000  1.0
  H  H32  1  0.13093000  0.97340000  0.23520000  1.0
  H  H33  1  0.36907000  0.47340000  0.76480000  1.0
  H  H34  1  0.86907000  0.02660000  0.76480000  1.0
  H  H35  1  0.63093000  0.52660000  0.23519000  1.0
  H  H36  1  0.18853000  0.28594000  0.14751000  1.0
  H  H37  1  0.31147000  0.78594000  0.85249000  1.0
  H  H38  1  0.81146000  0.71406000  0.85249000  1.0
  H  H39  1  0.68853000  0.21406000  0.14751000  1.0
  C  C40  1  0.12912000  0.44370000  0.25498000  1.0
  C  C41  1  0.37088000  0.94370000  0.74502000  1.0
  C  C42  1  0.87088000  0.55630000  0.74502000  1.0
  C  C43  1  0.62911000  0.05630000  0.25499000  1.0
  C  C44  1  0.14417000  0.51449000  0.40455000  1.0
  C  C45  1  0.35583000  0.01449000  0.59545000  1.0
  C  C46  1  0.85584000  0.48551000  0.59545000  1.0
  C  C47  1  0.64417000  0.98551000  0.40455000  1.0
  C  C48  1  0.14364000  0.41135000  0.42049000  1.0
  C  C49  1  0.35635000  0.91135000  0.57951000  1.0
  C  C50  1  0.85635000  0.58865000  0.57951000  1.0
  C  C51  1  0.64364000  0.08865000  0.42049000  1.0
  C  C52  1  0.13398000  0.26122000  0.30151000  1.0
  C  C53  1  0.36602000  0.76122000  0.69849000  1.0
  C  C54  1  0.86602000  0.73878000  0.69849000  1.0
  C  C55  1  0.63398000  0.23878000  0.30151000  1.0
  C  C56  1  0.10707000  0.18890000  0.37509000  1.0
  C  C57  1  0.39293000  0.68890000  0.62491000  1.0
  C  C58  1  0.89293000  0.81109000  0.62490000  1.0
  C  C59  1  0.60707000  0.31110000  0.37509000  1.0
  C  C60  1  0.10692000  0.08574000  0.34982000  1.0
  C  C61  1  0.39308000  0.58574000  0.65018000  1.0
  C  C62  1  0.89307000  0.91426000  0.65018000  1.0
  C  C63  1  0.60692000  0.41426000  0.34982000  1.0
  C  C64  1  0.13343000  0.05419000  0.25331000  1.0
  C  C65  1  0.36657000  0.55419000  0.74669000  1.0
  C  C66  1  0.86657000  0.94581000  0.74669000  1.0
  C  C67  1  0.63343000  0.44581000  0.25331000  1.0
  C  C68  1  0.16188000  0.12689000  0.17997000  1.0
  C  C69  1  0.33812000  0.62689000  0.82003000  1.0
  C  C70  1  0.83812000  0.87311000  0.82003000  1.0
  C  C71  1  0.66188000  0.37311000  0.17997000  1.0
  C  C72  1  0.16164000  0.23056000  0.20437000  1.0
  C  C73  1  0.33836000  0.73056000  0.79563000  1.0
  C  C74  1  0.83836000  0.76944000  0.79563000  1.0
  C  C75  1  0.66165000  0.26944000  0.20437000  1.0
  C  C76  1  0.19742000  0.09541000  0.07948000  1.0
  C  C77  1  0.30258000  0.59541000  0.92052000  1.0
  C  C78  1  0.80258000  0.90459000  0.92052000  1.0
  C  C79  1  0.69742000  0.40459000  0.07948000  1.0
  N  N80  1  0.13514000  0.53328000  0.30144000  1.0
  N  N81  1  0.36486000  0.03328000  0.69857000  1.0
  N  N82  1  0.86486000  0.46672000  0.69857000  1.0
  N  N83  1  0.63514000  0.96672000  0.30144000  1.0
  N  N84  1  0.13345000  0.36684000  0.32460000  1.0
  N  N85  1  0.36655000  0.86684000  0.67540000  1.0
  N  N86  1  0.86655000  0.63316000  0.67540000  1.0
  N  N87  1  0.63345000  0.13316000  0.32460000  1.0
  N  N88  1  0.19749000  0.15831000  0.99960000  1.0
  N  N89  1  0.30251000  0.65832000  0.00040000  1.0
  N  N90  1  0.80251000  0.84169000  0.00040000  1.0
  N  N91  1  0.69749000  0.34169000  0.99960000  1.0
  N  N92  1  0.24004000  0.09874000  0.92423000  1.0
  N  N93  1  0.25997000  0.59874000  0.07577000  1.0
  N  N94  1  0.75997000  0.90126000  0.07577000  1.0
  N  N95  1  0.74003000  0.40126000  0.92423000  1.0
  N  N96  1  0.26585000  0.00356000  0.95615000  1.0
  N  N97  1  0.23415000  0.50357000  0.04385000  1.0
  N  N98  1  0.73415000  0.99643000  0.04385000  1.0
  N  N99  1  0.76585000  0.49643000  0.95615000  1.0
  N  N100  1  0.23990000  0.99936000  0.05339000  1.0
  N  N101  1  0.26010000  0.49936000  0.94661000  1.0
  N  N102  1  0.76010000  0.00064000  0.94661000  1.0
  N  N103  1  0.73990000  0.50064000  0.05339000  1.0
  Cl  Cl104  1  0.05112000  0.80615000  0.34526000  1.0
  Cl  Cl105  1  0.44889000  0.30616000  0.65474000  1.0
  Cl  Cl106  1  0.94889000  0.19385000  0.65474000  1.0
  Cl  Cl107  1  0.55112000  0.69385000  0.34526000  1.0
  O  O108  1  0.85140000  0.68666000  0.13032000  1.0
  O  O109  1  0.64860000  0.18666000  0.86968000  1.0
  O  O110  1  0.14860000  0.31334000  0.86968000  1.0
  O  O111  1  0.35140000  0.81334000  0.13032000  1.0
