# generated using pymatgen
data_CoH28C24(NO3)2
_symmetry_space_group_name_H-M   'P 1'
_cell_length_a   8.10262000
_cell_length_b   9.03763000
_cell_length_c   9.04021496
_cell_angle_alpha   103.68312714
_cell_angle_beta   116.62061485
_cell_angle_gamma   90.01480000
_symmetry_Int_Tables_number   1
_chemical_formula_structural   CoH28C24(NO3)2
_chemical_formula_sum   'Co1 H28 C24 N2 O6'
_cell_volume   570.70952902
_cell_formula_units_Z   1
loop_
 _symmetry_equiv_pos_site_id
 _symmetry_equiv_pos_as_xyz
  1  'x, y, z'
loop_
 _atom_site_type_symbol
 _atom_site_label
 _atom_site_symmetry_multiplicity
 _atom_site_fract_x
 _atom_site_fract_y
 _atom_site_fract_z
 _atom_site_occupancy
  Co  Co0  1  0.22518000  0.99999000  0.99994000  1.0
  H  H1  1  0.54749000  0.13428000  0.42041000  1.0
  H  H2  1  0.12731000  0.86572000  0.57982000  1.0
  H  H3  1  0.74059000  0.19455000  0.39617000  1.0
  H  H4  1  0.34461000  0.80535000  0.60409000  1.0
  H  H5  1  0.65184000  0.18652000  0.08186000  1.0
  H  H6  1  0.57011000  0.81312000  0.91839000  1.0
  H  H7  1  0.63444000  0.36956000  0.19713000  1.0
  H  H8  1  0.43689000  0.63027000  0.80310000  1.0
  H  H9  1  0.30230000  0.35258000  0.99436000  1.0
  H  H10  1  0.30738000  0.64763000  0.00569000  1.0
  H  H11  1  0.43891000  0.33738000  0.88268000  1.0
  H  H12  1  0.55561000  0.66261000  0.11769000  1.0
  H  H13  1  0.51245000  0.04281000  0.83730000  1.0
  H  H14  1  0.67490000  0.95719000  0.16283000  1.0
  H  H15  1  0.36210000  0.09081000  0.64662000  1.0
  H  H16  1  0.71506000  0.90912000  0.35342000  1.0
  H  H17  1  0.02456000  0.21369000  0.81145000  1.0
  H  H18  1  0.21262000  0.78640000  0.18854000  1.0
  H  H19  1  0.00200000  0.04823000  0.65081000  1.0
  H  H20  1  0.35078000  0.95185000  0.34923000  1.0
  H  H21  1  0.03221000  0.46301000  0.76785000  1.0
  H  H22  1  0.26391000  0.53699000  0.23200000  1.0
  H  H23  1  0.98442000  0.62055000  0.56669000  1.0
  H  H24  1  0.41742000  0.37941000  0.43303000  1.0
  H  H25  1  0.99552000  0.50772000  0.28932000  1.0
  H  H26  1  0.70595000  0.49221000  0.71030000  1.0
  H  H27  1  0.09887000  0.07951000  0.41655000  1.0
  H  H28  1  0.68192000  0.92057000  0.58332000  1.0
  C  C29  1  0.07448000  0.22575000  0.17986000  1.0
  C  C30  1  0.89434000  0.77422000  0.81988000  1.0
  C  C31  1  0.60378000  0.12549000  0.32881000  1.0
  C  C32  1  0.27522000  0.87452000  0.67140000  1.0
  C  C33  1  0.55479000  0.25789000  0.11195000  1.0
  C  C34  1  0.44279000  0.74200000  0.88833000  1.0
  C  C35  1  0.39081000  0.27963000  0.95368000  1.0
  C  C36  1  0.43677000  0.72047000  0.04657000  1.0
  C  C37  1  0.36517000  0.03982000  0.74726000  1.0
  C  C38  1  0.61762000  0.96020000  0.25285000  1.0
  C  C39  1  0.08328000  0.16075000  0.72587000  1.0
  C  C40  1  0.35695000  0.83933000  0.27415000  1.0
  C  C41  1  0.07206000  0.25983000  0.60942000  1.0
  C  C42  1  0.46220000  0.74024000  0.39050000  1.0
  C  C43  1  0.04115000  0.41364000  0.64943000  1.0
  C  C44  1  0.39124000  0.58642000  0.35046000  1.0
  C  C45  1  0.01257000  0.50266000  0.53488000  1.0
  C  C46  1  0.47728000  0.49732000  0.46486000  1.0
  C  C47  1  0.01836000  0.44068000  0.38103000  1.0
  C  C48  1  0.63701000  0.55924000  0.61862000  1.0
  C  C49  1  0.05519000  0.28888000  0.34112000  1.0
  C  C50  1  0.71376000  0.71109000  0.65862000  1.0
  C  C51  1  0.07945000  0.19943000  0.45473000  1.0
  C  C52  1  0.62440000  0.80061000  0.54509000  1.0
  N  N53  1  0.27459000  0.13152000  0.84259000  1.0
  N  N54  1  0.43164000  0.86858000  0.15750000  1.0
  O  O55  1  0.02969000  0.30010000  0.06971000  1.0
  O  O56  1  0.95948000  0.69997000  0.93014000  1.0
  O  O57  1  0.14485000  0.09724000  0.17426000  1.0
  O  O58  1  0.97053000  0.90266000  0.82549000  1.0
  O  O59  1  0.47545000  0.18752000  0.19540000  1.0
  O  O60  1  0.28028000  0.81266000  0.80494000  1.0
