# generated using pymatgen
data_CoH30C26(NO2)4
_symmetry_space_group_name_H-M   'P 1'
_cell_length_a   7.30819000
_cell_length_b   9.33841000
_cell_length_c   9.91021000
_cell_angle_alpha   112.88400000
_cell_angle_beta   92.80290000
_cell_angle_gamma   97.44080000
_symmetry_Int_Tables_number   1
_chemical_formula_structural   CoH30C26(NO2)4
_chemical_formula_sum   'Co1 H30 C26 N4 O8'
_cell_volume   614.20375834
_cell_formula_units_Z   1
loop_
 _symmetry_equiv_pos_site_id
 _symmetry_equiv_pos_as_xyz
  1  'x, y, z'
loop_
 _atom_site_type_symbol
 _atom_site_label
 _atom_site_symmetry_multiplicity
 _atom_site_fract_x
 _atom_site_fract_y
 _atom_site_fract_z
 _atom_site_occupancy
  Co  Co0  1  0.50000000  0.50000000  0.00000000  1.0
  H  H1  1  0.89516000  0.54428000  0.07783000  1.0
  H  H2  1  0.10484000  0.45572000  0.92217000  1.0
  H  H3  1  0.37117000  0.66503000  0.27290000  1.0
  H  H4  1  0.62884000  0.33498000  0.72711000  1.0
  H  H5  1  0.41379000  0.75599000  0.16693000  1.0
  H  H6  1  0.58621000  0.24402000  0.83307000  1.0
  H  H7  1  0.48838000  0.08753000  0.25465000  1.0
  H  H8  1  0.51163000  0.91247000  0.74535000  1.0
  H  H9  1  0.10674000  0.48668000  0.24843000  1.0
  H  H10  1  0.89326000  0.51331000  0.75156000  1.0
  H  H11  1  0.96720000  0.36330000  0.41330000  1.0
  H  H12  1  0.03280000  0.63669000  0.58669000  1.0
  H  H13  1  0.42832000  0.36887000  0.22055000  1.0
  H  H14  1  0.57169000  0.63114000  0.77945000  1.0
  H  H15  1  0.41670000  0.11456000  0.54865000  1.0
  H  H16  1  0.58330000  0.88545000  0.45136000  1.0
  H  H17  1  0.32239000  0.96242000  0.37638000  1.0
  H  H18  1  0.67762000  0.03758000  0.62363000  1.0
  H  H19  1  0.09746000  0.13099000  0.34585000  1.0
  H  H20  1  0.90254000  0.86901000  0.65415000  1.0
  H  H21  1  0.19873000  0.28501000  0.51454000  1.0
  H  H22  1  0.80127000  0.71499000  0.48546000  1.0
  H  H23  1  0.10561000  0.11249000  0.64953000  1.0
  H  H24  1  0.89439000  0.88751000  0.35047000  1.0
  H  H25  1  0.91655000  0.15338000  0.56191000  1.0
  H  H26  1  0.08345000  0.84662000  0.43808000  1.0
  H  H27  1  0.05506000  0.77987000  0.07075000  1.0
  H  H28  1  0.94493000  0.22012000  0.92925000  1.0
  H  H29  1  0.31671000  0.93185000  0.00952000  1.0
  H  H30  1  0.68328000  0.06814000  0.99047000  1.0
  C  C31  1  0.84094000  0.49054000  0.15012000  1.0
  C  C32  1  0.15906000  0.50946000  0.84988000  1.0
  C  C33  1  0.95732000  0.45817000  0.24612000  1.0
  C  C34  1  0.04268000  0.54182000  0.75387000  1.0
  C  C35  1  0.88007000  0.39013000  0.33697000  1.0
  C  C36  1  0.11994000  0.60986000  0.66303000  1.0
  C  C37  1  0.68697000  0.35546000  0.32728000  1.0
  C  C38  1  0.31303000  0.64454000  0.67272000  1.0
  C  C39  1  0.57886000  0.39071000  0.22808000  1.0
  C  C40  1  0.42114000  0.60930000  0.77192000  1.0
  C  C41  1  0.59228000  0.29261000  0.42805000  1.0
  C  C42  1  0.40772000  0.70739000  0.57195000  1.0
  C  C43  1  0.34803000  0.09038000  0.43917000  1.0
  C  C44  1  0.65197000  0.90962000  0.56084000  1.0
  C  C45  1  0.16562000  0.15613000  0.45609000  1.0
  C  C46  1  0.83438000  0.84387000  0.54391000  1.0
  C  C47  1  0.03482000  0.08858000  0.54027000  1.0
  C  C48  1  0.96519000  0.91142000  0.45973000  1.0
  C  C49  1  0.68833000  0.81860000  0.06324000  1.0
  C  C50  1  0.31166000  0.18140000  0.93676000  1.0
  C  C51  1  0.85120000  0.91359000  0.03422000  1.0
  C  C52  1  0.14879000  0.08641000  0.96577000  1.0
  C  C53  1  0.03027000  0.87567000  0.03902000  1.0
  C  C54  1  0.96972000  0.12433000  0.96098000  1.0
  C  C55  1  0.17763000  0.96105000  0.00444000  1.0
  C  C56  1  0.82236000  0.03895000  0.99555000  1.0
  N  N57  1  0.65358000  0.45775000  0.14042000  1.0
  N  N58  1  0.34642000  0.54226000  0.85958000  1.0
  N  N59  1  0.47286000  0.15734000  0.36121000  1.0
  N  N60  1  0.52714000  0.84266000  0.63879000  1.0
  O  O61  1  0.69360000  0.66986000  0.01555000  1.0
  O  O62  1  0.30640000  0.33014000  0.98446000  1.0
  O  O63  1  0.33807000  0.66218000  0.17366000  1.0
  O  O64  1  0.66193000  0.33782000  0.82634000  1.0
  O  O65  1  0.55697000  0.88520000  0.12581000  1.0
  O  O66  1  0.44303000  0.11480000  0.87419000  1.0
  O  O67  1  0.62198000  0.36878000  0.56469000  1.0
  O  O68  1  0.37803000  0.63123000  0.43532000  1.0
