# generated using pymatgen
data_Zn4H18C30O13
_symmetry_space_group_name_H-M   'P 1'
_cell_length_a   18.18053778
_cell_length_b   18.22600000
_cell_length_c   18.23120000
_cell_angle_alpha   60.50400000
_cell_angle_beta   60.17079160
_cell_angle_gamma   60.37495861
_symmetry_Int_Tables_number   1
_chemical_formula_structural   Zn4H18C30O13
_chemical_formula_sum   'Zn8 H36 C60 O26'
_cell_volume   4305.41693585
_cell_formula_units_Z   2
loop_
 _symmetry_equiv_pos_site_id
 _symmetry_equiv_pos_as_xyz
  1  'x, y, z'
loop_
 _atom_site_type_symbol
 _atom_site_label
 _atom_site_symmetry_multiplicity
 _atom_site_fract_x
 _atom_site_fract_y
 _atom_site_fract_z
 _atom_site_occupancy
  Zn  Zn0  1  0.03889000  0.04874000  0.05944000  1.0
  Zn  Zn1  1  0.86161000  0.05062000  0.05710000  1.0
  Zn  Zn2  1  0.03797000  0.87579000  0.05612000  1.0
  Zn  Zn3  1  0.03637000  0.05183000  0.88255000  1.0
  Zn  Zn4  1  0.44946000  0.46206000  0.47023000  1.0
  Zn  Zn5  1  0.62589000  0.46334000  0.47087000  1.0
  Zn  Zn6  1  0.45004000  0.46418000  0.64524000  1.0
  Zn  Zn7  1  0.44979000  0.63794000  0.46884000  1.0
  H  H8  1  0.88422000  0.29015000  0.16912000  1.0
  H  H9  1  0.70703000  0.41338000  0.17870000  1.0
  H  H10  1  0.66418000  0.28524000  0.17345000  1.0
  H  H11  1  0.60497000  0.21856000  0.36353000  1.0
  H  H12  1  0.78217000  0.09526000  0.35399000  1.0
  H  H13  1  0.82512000  0.22341000  0.35921000  1.0
  H  H14  1  0.15040000  0.89444000  0.29842000  1.0
  H  H15  1  0.15405000  0.72020000  0.42439000  1.0
  H  H16  1  0.14446000  0.67674000  0.29966000  1.0
  H  H17  1  0.33512000  0.61299000  0.23116000  1.0
  H  H18  1  0.33148000  0.78721000  0.10519000  1.0
  H  H19  1  0.34107000  0.83059000  0.23005000  1.0
  H  H20  1  0.28084000  0.16257000  0.90471000  1.0
  H  H21  1  0.40524000  0.16934000  0.72768000  1.0
  H  H22  1  0.27800000  0.15917000  0.68801000  1.0
  H  H23  1  0.20854000  0.34883000  0.62710000  1.0
  H  H24  1  0.08420000  0.34194000  0.80423000  1.0
  H  H25  1  0.21138000  0.35219000  0.84385000  1.0
  H  H26  1  0.66409000  0.89461000  0.16268000  1.0
  H  H27  1  0.70834000  0.71727000  0.17163000  1.0
  H  H28  1  0.88467000  0.67752000  0.16241000  1.0
  H  H29  1  0.82437000  0.61884000  0.35246000  1.0
  H  H30  1  0.78013000  0.79627000  0.34352000  1.0
  H  H31  1  0.60366000  0.83608000  0.35277000  1.0
  H  H32  1  0.66306000  0.29464000  0.90589000  1.0
  H  H33  1  0.70699000  0.42081000  0.73148000  1.0
  H  H34  1  0.88350000  0.29628000  0.68685000  1.0
  H  H35  1  0.82285000  0.22892000  0.62333000  1.0
  H  H36  1  0.77896000  0.10260000  0.79776000  1.0
  H  H37  1  0.60248000  0.22727000  0.84235000  1.0
  H  H38  1  0.14729000  0.68019000  0.90252000  1.0
  H  H39  1  0.15345000  0.71945000  0.72806000  1.0
  H  H40  1  0.14422000  0.89696000  0.68330000  1.0
  H  H41  1  0.33514000  0.83869000  0.62019000  1.0
  H  H42  1  0.32895000  0.79922000  0.79482000  1.0
  H  H43  1  0.33820000  0.62163000  0.83937000  1.0
  C  C44  1  0.85428000  0.14710000  0.15330000  1.0
  C  C45  1  0.79694000  0.20555000  0.20991000  1.0
  C  C46  1  0.82185000  0.27475000  0.21282000  1.0
  C  C47  1  0.72451000  0.34194000  0.21670000  1.0
  C  C48  1  0.69917000  0.27221000  0.21521000  1.0
  C  C49  1  0.66739000  0.23388000  0.31985000  1.0
  C  C50  1  0.76471000  0.16669000  0.31599000  1.0
  C  C51  1  0.79004000  0.23647000  0.31750000  1.0
  C  C52  1  0.69229000  0.30307000  0.32277000  1.0
  C  C53  1  0.63466000  0.36173000  0.37914000  1.0
  C  C54  1  0.12989000  0.86453000  0.15824000  1.0
  C  C55  1  0.18628000  0.80666000  0.21643000  1.0
  C  C56  1  0.19186000  0.83157000  0.28397000  1.0
  C  C57  1  0.19267000  0.73585000  0.35277000  1.0
  C  C58  1  0.18858000  0.71037000  0.28467000  1.0
  C  C59  1  0.29368000  0.67584000  0.24564000  1.0
  C  C60  1  0.29287000  0.77158000  0.17681000  1.0
  C  C61  1  0.29692000  0.79706000  0.24492000  1.0
  C  C62  1  0.29924000  0.70080000  0.31319000  1.0
  C  C63  1  0.35603000  0.64399000  0.37105000  1.0
  C  C64  1  0.13896000  0.14135000  0.87678000  1.0
  C  C65  1  0.19665000  0.19869000  0.81927000  1.0
  C  C66  1  0.26543000  0.20436000  0.84261000  1.0
  C  C67  1  0.33318000  0.20674000  0.74562000  1.0
  C  C68  1  0.26378000  0.20258000  0.72191000  1.0
  C  C69  1  0.22398000  0.30699000  0.68919000  1.0
  C  C70  1  0.15626000  0.30458000  0.78620000  1.0
  C  C71  1  0.22568000  0.30881000  0.80985000  1.0
  C  C72  1  0.29281000  0.31262000  0.71245000  1.0
  C  C73  1  0.35066000  0.36976000  0.65430000  1.0
  C  C74  1  0.85342000  0.86742000  0.14452000  1.0
  C  C75  1  0.79626000  0.80964000  0.20040000  1.0
  C  C76  1  0.69896000  0.83296000  0.20537000  1.0
  C  C77  1  0.72499000  0.73572000  0.20893000  1.0
  C  C78  1  0.82193000  0.71210000  0.20523000  1.0
  C  C79  1  0.78943000  0.68056000  0.30987000  1.0
  C  C80  1  0.76332000  0.77773000  0.30643000  1.0
  C  C81  1  0.66645000  0.80152000  0.31000000  1.0
  C  C82  1  0.69203000  0.70394000  0.31498000  1.0
  C  C83  1  0.63457000  0.64642000  0.37323000  1.0
  C  C84  1  0.85275000  0.15422000  0.87428000  1.0
  C  C85  1  0.79538000  0.21305000  0.81714000  1.0
  C  C86  1  0.69800000  0.28050000  0.84278000  1.0
  C  C87  1  0.72375000  0.34940000  0.74695000  1.0
  C  C88  1  0.82071000  0.28142000  0.72086000  1.0
  C  C89  1  0.78802000  0.24291000  0.68651000  1.0
  C  C90  1  0.76221000  0.17401000  0.78232000  1.0
  C  C91  1  0.66531000  0.24200000  0.80846000  1.0
  C  C92  1  0.69062000  0.31032000  0.71214000  1.0
  C  C93  1  0.63340000  0.36808000  0.65474000  1.0
  C  C94  1  0.12855000  0.86944000  0.87135000  1.0
  C  C95  1  0.18455000  0.81225000  0.81355000  1.0
  C  C96  1  0.18961000  0.71461000  0.83942000  1.0
  C  C97  1  0.19151000  0.73814000  0.74359000  1.0
  C  C98  1  0.18781000  0.83543000  0.71731000  1.0
  C  C99  1  0.29292000  0.80413000  0.68328000  1.0
  C  C100  1  0.29101000  0.78054000  0.77914000  1.0
  C  C101  1  0.29466000  0.68329000  0.80543000  1.0
  C  C102  1  0.29801000  0.70655000  0.70908000  1.0
  C  C103  1  0.35540000  0.64843000  0.65217000  1.0
  O  O104  1  0.99363000  0.00697000  0.01401000  1.0
  O  O105  1  0.81364000  0.12208000  0.13386000  1.0
  O  O106  1  0.93918000  0.12536000  0.13083000  1.0
  O  O107  1  0.67499000  0.38548000  0.40027000  1.0
  O  O108  1  0.54986000  0.38502000  0.39959000  1.0
  O  O109  1  0.10868000  0.82490000  0.13375000  1.0
  O  O110  1  0.10934000  0.94880000  0.13595000  1.0
  O  O111  1  0.37581000  0.68503000  0.39531000  1.0
  O  O112  1  0.37854000  0.55948000  0.39308000  1.0
  O  O113  1  0.11522000  0.12049000  0.83625000  1.0
  O  O114  1  0.11652000  0.11965000  0.96134000  1.0
  O  O115  1  0.37553000  0.39041000  0.69399000  1.0
  O  O116  1  0.37220000  0.39143000  0.56986000  1.0
  O  O117  1  0.93820000  0.82758000  0.12441000  1.0
  O  O118  1  0.81274000  0.95173000  0.12399000  1.0
  O  O119  1  0.54975000  0.68625000  0.39383000  1.0
  O  O120  1  0.67508000  0.56210000  0.39609000  1.0
  O  O121  1  0.93761000  0.13152000  0.83377000  1.0
  O  O122  1  0.81230000  0.12960000  0.95873000  1.0
  O  O123  1  0.54848000  0.39078000  0.69492000  1.0
  O  O124  1  0.67410000  0.39153000  0.57026000  1.0
  O  O125  1  0.10386000  0.95384000  0.83207000  1.0
  O  O126  1  0.11216000  0.82896000  0.95543000  1.0
  O  O127  1  0.37570000  0.56427000  0.69292000  1.0
  O  O128  1  0.37787000  0.68768000  0.56756000  1.0
  O  O129  1  0.49386000  0.50670000  0.51375000  1.0
