# generated using pymatgen
data_CuH22C20N4O9
_symmetry_space_group_name_H-M   'P 1'
_cell_length_a   6.11415000
_cell_length_b   6.78605000
_cell_length_c   24.73190000
_cell_angle_alpha   90.00100000
_cell_angle_beta   89.99980000
_cell_angle_gamma   89.99910000
_symmetry_Int_Tables_number   1
_chemical_formula_structural   CuH22C20N4O9
_chemical_formula_sum   'Cu2 H44 C40 N8 O18'
_cell_volume   1026.14947221
_cell_formula_units_Z   2
loop_
 _symmetry_equiv_pos_site_id
 _symmetry_equiv_pos_as_xyz
  1  'x, y, z'
loop_
 _atom_site_type_symbol
 _atom_site_label
 _atom_site_symmetry_multiplicity
 _atom_site_fract_x
 _atom_site_fract_y
 _atom_site_fract_z
 _atom_site_occupancy
  Cu  Cu0  1  0.20819000  0.25000000  0.75000000  1.0
  Cu  Cu1  1  0.79184000  0.75000000  0.25000000  1.0
  H  H2  1  0.49647000  0.92468000  0.70231000  1.0
  H  H3  1  0.50356000  0.42468000  0.20231000  1.0
  H  H4  1  0.49648000  0.92468000  0.79769000  1.0
  H  H5  1  0.49647000  0.57531000  0.70231000  1.0
  H  H6  1  0.50357000  0.07532000  0.29770000  1.0
  H  H7  1  0.49647000  0.57531000  0.79769000  1.0
  H  H8  1  0.50355000  0.07532000  0.20231000  1.0
  H  H9  1  0.50357000  0.42469000  0.29770000  1.0
  H  H10  1  0.24838000  0.92051000  0.66562000  1.0
  H  H11  1  0.75163000  0.42050000  0.16563000  1.0
  H  H12  1  0.24841000  0.92052000  0.83438000  1.0
  H  H13  1  0.24839000  0.57948000  0.66562000  1.0
  H  H14  1  0.75165000  0.07950000  0.33437000  1.0
  H  H15  1  0.24839000  0.57950000  0.83438000  1.0
  H  H16  1  0.75162000  0.07949000  0.16563000  1.0
  H  H17  1  0.75163000  0.42051000  0.33437000  1.0
  H  H18  1  0.40959000  0.25003000  0.59622000  1.0
  H  H19  1  0.59037000  0.74999000  0.09622000  1.0
  H  H20  1  0.40962000  0.24995000  0.90378000  1.0
  H  H21  1  0.59036000  0.74999000  0.40378000  1.0
  H  H22  1  0.73013000  0.24992000  0.55537000  1.0
  H  H23  1  0.26985000  0.74999000  0.05537000  1.0
  H  H24  1  0.73016000  0.25007000  0.94463000  1.0
  H  H25  1  0.26984000  0.75005000  0.44463000  1.0
  H  H26  1  0.90361000  0.92207000  0.71398000  1.0
  H  H27  1  0.09642000  0.42204000  0.21397000  1.0
  H  H28  1  0.90363000  0.92206000  0.78603000  1.0
  H  H29  1  0.90362000  0.57795000  0.71397000  1.0
  H  H30  1  0.09642000  0.07794000  0.28602000  1.0
  H  H31  1  0.90362000  0.57795000  0.78603000  1.0
  H  H32  1  0.09642000  0.07794000  0.21397000  1.0
  H  H33  1  0.09642000  0.42204000  0.28602000  1.0
  H  H34  1  0.82457000  0.24995000  0.45504000  1.0
  H  H35  1  0.17543000  0.75001000  0.95504000  1.0
  H  H36  1  0.82457000  0.25006000  0.04495000  1.0
  H  H37  1  0.17541000  0.75004000  0.54496000  1.0
  H  H38  1  0.50477000  0.25004000  0.49636000  1.0
  H  H39  1  0.49521000  0.75000000  0.99636000  1.0
  H  H40  1  0.50477000  0.24993000  0.00364000  1.0
  H  H41  1  0.49521000  0.74997000  0.50364000  1.0
  H  H42  1  0.67851000  0.25000000  0.71729000  1.0
  H  H43  1  0.32148000  0.75000000  0.21729000  1.0
  H  H44  1  0.67851000  0.25000000  0.78271000  1.0
  H  H45  1  0.32148000  0.75000000  0.28271000  1.0
  C  C46  1  0.33058000  0.86408000  0.70158000  1.0
  C  C47  1  0.66941000  0.36408000  0.20158000  1.0
  C  C48  1  0.33059000  0.86410000  0.79842000  1.0
  C  C49  1  0.33058000  0.63590000  0.70158000  1.0
  C  C50  1  0.66942000  0.13592000  0.29842000  1.0
  C  C51  1  0.33058000  0.63591000  0.79842000  1.0
  C  C52  1  0.66940000  0.13591000  0.20158000  1.0
  C  C53  1  0.66941000  0.36408000  0.29843000  1.0
  C  C54  1  0.06281000  0.25003000  0.58073000  1.0
  C  C55  1  0.93716000  0.75000000  0.08074000  1.0
  C  C56  1  0.06282000  0.24998000  0.91926000  1.0
  C  C57  1  0.93716000  0.74996000  0.41926000  1.0
  C  C58  1  0.28332000  0.25003000  0.56504000  1.0
  C  C59  1  0.71666000  0.75001000  0.06505000  1.0
  C  C60  1  0.28333000  0.24998000  0.93495000  1.0
  C  C61  1  0.71665000  0.74998000  0.43495000  1.0
  C  C62  1  0.00156000  0.25001000  0.64009000  1.0
  C  C63  1  0.99838000  0.75001000  0.14009000  1.0
  C  C64  1  0.00156000  0.25001000  0.85991000  1.0
  C  C65  1  0.99840000  0.75001000  0.35991000  1.0
  C  C66  1  0.89854000  0.25000000  0.54130000  1.0
  C  C67  1  0.10146000  0.75001000  0.04131000  1.0
  C  C68  1  0.89854000  0.25001000  0.95870000  1.0
  C  C69  1  0.10144000  0.75001000  0.45869000  1.0
  C  C70  1  0.98625000  0.86445000  0.75000000  1.0
  C  C71  1  0.01381000  0.36443000  0.25000000  1.0
  C  C72  1  0.98625000  0.63557000  0.75000000  1.0
  C  C73  1  0.01380000  0.13555000  0.25000000  1.0
  C  C74  1  0.94941000  0.24999000  0.48646000  1.0
  C  C75  1  0.05057000  0.75000000  0.98647000  1.0
  C  C76  1  0.94940000  0.25001000  0.01353000  1.0
  C  C77  1  0.05056000  0.75001000  0.51354000  1.0
  C  C78  1  0.16984000  0.25004000  0.47200000  1.0
  C  C79  1  0.83014000  0.75001000  0.97199000  1.0
  C  C80  1  0.16986000  0.25000000  0.02799000  1.0
  C  C81  1  0.83013000  0.74998000  0.52801000  1.0
  C  C82  1  0.33672000  0.25003000  0.51042000  1.0
  C  C83  1  0.66330000  0.75002000  0.01042000  1.0
  C  C84  1  0.33671000  0.24997000  0.98957000  1.0
  C  C85  1  0.66328000  0.74996000  0.48958000  1.0
  N  N86  1  0.21418000  0.93973000  0.75000000  1.0
  N  N87  1  0.78584000  0.43976000  0.25000000  1.0
  N  N88  1  0.21418000  0.56027000  0.75000000  1.0
  N  N89  1  0.78583000  0.06023000  0.25000000  1.0
  N  N90  1  0.23126000  0.25002000  0.41469000  1.0
  N  N91  1  0.76875000  0.75001000  0.91468000  1.0
  N  N92  1  0.23124000  0.24999000  0.08531000  1.0
  N  N93  1  0.76872000  0.74998000  0.58532000  1.0
  O  O94  1  0.16893000  0.24999000  0.67143000  1.0
  O  O95  1  0.83101000  0.74999000  0.17143000  1.0
  O  O96  1  0.16895000  0.25002000  0.82857000  1.0
  O  O97  1  0.83105000  0.75001000  0.32857000  1.0
  O  O98  1  0.58439000  0.25001000  0.75000000  1.0
  O  O99  1  0.41556000  0.75000000  0.25000000  1.0
  O  O100  1  0.80311000  0.24998000  0.65318000  1.0
  O  O101  1  0.19685000  0.74999000  0.15317000  1.0
  O  O102  1  0.80314000  0.25000000  0.84682000  1.0
  O  O103  1  0.19686000  0.75002000  0.34683000  1.0
  O  O104  1  0.42913000  0.25002000  0.40322000  1.0
  O  O105  1  0.57091000  0.75001000  0.90323000  1.0
  O  O106  1  0.42911000  0.24999000  0.09677000  1.0
  O  O107  1  0.57087000  0.74999000  0.59678000  1.0
  O  O108  1  0.08230000  0.24999000  0.38052000  1.0
  O  O109  1  0.91777000  0.75002000  0.88052000  1.0
  O  O110  1  0.08227000  0.25000000  0.11948000  1.0
  O  O111  1  0.91775000  0.75000000  0.61948000  1.0
