# generated using pymatgen
data_MnH7C8S2N3O
_symmetry_space_group_name_H-M   'P 1'
_cell_length_a   7.78095000
_cell_length_b   7.85721000
_cell_length_c   18.42930000
_cell_angle_alpha   85.25970000
_cell_angle_beta   89.99970000
_cell_angle_gamma   89.99990000
_symmetry_Int_Tables_number   1
_chemical_formula_structural   MnH7C8S2N3O
_chemical_formula_sum   'Mn4 H28 C32 S8 N12 O4'
_cell_volume   1122.85008848
_cell_formula_units_Z   4
loop_
 _symmetry_equiv_pos_site_id
 _symmetry_equiv_pos_as_xyz
  1  'x, y, z'
loop_
 _atom_site_type_symbol
 _atom_site_label
 _atom_site_symmetry_multiplicity
 _atom_site_fract_x
 _atom_site_fract_y
 _atom_site_fract_z
 _atom_site_occupancy
  Mn  Mn0  1  0.33877000  0.66178000  0.99983000  1.0
  Mn  Mn1  1  0.83877000  0.33823000  0.50018000  1.0
  Mn  Mn2  1  0.66124000  0.33823000  0.00018000  1.0
  Mn  Mn3  1  0.16124000  0.66177000  0.49982000  1.0
  H  H4  1  0.21896000  0.22190000  0.02668000  1.0
  H  H5  1  0.71896000  0.77810000  0.47332000  1.0
  H  H6  1  0.78104000  0.77809000  0.97332000  1.0
  H  H7  1  0.28105000  0.22190000  0.52668000  1.0
  H  H8  1  0.63849000  0.44691000  0.17357000  1.0
  H  H9  1  0.13850000  0.55309000  0.32643000  1.0
  H  H10  1  0.36150000  0.55309000  0.82643000  1.0
  H  H11  1  0.86151000  0.44691000  0.67357000  1.0
  H  H12  1  0.53052000  0.46716000  0.25833000  1.0
  H  H13  1  0.03052000  0.53284000  0.24167000  1.0
  H  H14  1  0.46947000  0.53284000  0.74167000  1.0
  H  H15  1  0.96948000  0.46716000  0.75833000  1.0
  H  H16  1  0.47466000  0.60004000  0.17757000  1.0
  H  H17  1  0.97466000  0.39996000  0.32243000  1.0
  H  H18  1  0.52533000  0.39996000  0.82243000  1.0
  H  H19  1  0.02534000  0.60004000  0.67757000  1.0
  H  H20  1  0.04920000  0.02483000  0.11500000  1.0
  H  H21  1  0.54920000  0.97517000  0.38500000  1.0
  H  H22  1  0.95080000  0.97517000  0.88500000  1.0
  H  H23  1  0.45080000  0.02483000  0.61500000  1.0
  H  H24  1  0.10712000  0.03505000  0.24985000  1.0
  H  H25  1  0.60712000  0.96495000  0.25015000  1.0
  H  H26  1  0.89288000  0.96495000  0.75015000  1.0
  H  H27  1  0.39288000  0.03505000  0.74985000  1.0
  H  H28  1  0.32480000  0.24230000  0.28894000  1.0
  H  H29  1  0.82481000  0.75770000  0.21106000  1.0
  H  H30  1  0.67519000  0.75770000  0.71106000  1.0
  H  H31  1  0.17519000  0.24230000  0.78894000  1.0
  C  C32  1  0.57204000  0.92964000  0.07827000  1.0
  C  C33  1  0.07204000  0.07037000  0.42173000  1.0
  C  C34  1  0.42797000  0.07037000  0.92173000  1.0
  C  C35  1  0.92796000  0.92963000  0.57827000  1.0
  C  C36  1  0.94554000  0.55593000  0.07846000  1.0
  C  C37  1  0.44553000  0.44407000  0.42154000  1.0
  C  C38  1  0.05448000  0.44407000  0.92154000  1.0
  C  C39  1  0.55446000  0.55593000  0.57846000  1.0
  C  C40  1  0.23307000  0.21864000  0.08538000  1.0
  C  C41  1  0.73307000  0.78137000  0.41462000  1.0
  C  C42  1  0.76693000  0.78136000  0.91462000  1.0
  C  C43  1  0.26693000  0.21864000  0.58538000  1.0
  C  C44  1  0.51425000  0.47132000  0.19921000  1.0
  C  C45  1  0.01425000  0.52868000  0.30079000  1.0
  C  C46  1  0.48575000  0.52868000  0.80079000  1.0
  C  C47  1  0.98575000  0.47132000  0.69921000  1.0
  C  C48  1  0.38492000  0.34288000  0.18087000  1.0
  C  C49  1  0.88492000  0.65712000  0.31913000  1.0
  C  C50  1  0.61508000  0.65712000  0.81913000  1.0
  C  C51  1  0.11508000  0.34288000  0.68087000  1.0
  C  C52  1  0.14289000  0.11229000  0.13512000  1.0
  C  C53  1  0.64289000  0.88771000  0.36488000  1.0
  C  C54  1  0.85711000  0.88771000  0.86488000  1.0
  C  C55  1  0.35711000  0.11229000  0.63512000  1.0
  C  C56  1  0.17467000  0.11909000  0.20932000  1.0
  C  C57  1  0.67468000  0.88091000  0.29068000  1.0
  C  C58  1  0.82532000  0.88091000  0.79068000  1.0
  C  C59  1  0.32532000  0.11909000  0.70932000  1.0
  C  C60  1  0.29592000  0.23470000  0.23145000  1.0
  C  C61  1  0.79593000  0.76531000  0.26855000  1.0
  C  C62  1  0.70408000  0.76530000  0.76855000  1.0
  C  C63  1  0.20408000  0.23469000  0.73145000  1.0
  S  S64  1  0.70362000  0.07485000  0.10268000  1.0
  S  S65  1  0.20362000  0.92516000  0.39732000  1.0
  S  S66  1  0.29638000  0.92516000  0.89732000  1.0
  S  S67  1  0.79638000  0.07485000  0.60269000  1.0
  S  S68  1  0.09350000  0.68654000  0.10189000  1.0
  S  S69  1  0.59350000  0.31346000  0.39811000  1.0
  S  S70  1  0.90652000  0.31347000  0.89812000  1.0
  S  S71  1  0.40650000  0.68654000  0.60188000  1.0
  N  N72  1  0.47685000  0.82322000  0.06011000  1.0
  N  N73  1  0.97684000  0.17679000  0.43989000  1.0
  N  N74  1  0.52316000  0.17679000  0.93989000  1.0
  N  N75  1  0.02316000  0.82321000  0.56011000  1.0
  N  N76  1  0.83720000  0.46132000  0.06102000  1.0
  N  N77  1  0.33720000  0.53868000  0.43898000  1.0
  N  N78  1  0.16281000  0.53869000  0.93898000  1.0
  N  N79  1  0.66280000  0.46132000  0.56102000  1.0
  N  N80  1  0.35048000  0.32954000  0.10870000  1.0
  N  N81  1  0.85049000  0.67046000  0.39130000  1.0
  N  N82  1  0.64952000  0.67046000  0.89130000  1.0
  N  N83  1  0.14952000  0.32954000  0.60870000  1.0
  O  O84  1  0.43814000  0.42895000  0.05902000  1.0
  O  O85  1  0.93814000  0.57105000  0.44098000  1.0
  O  O86  1  0.56186000  0.57104000  0.94098000  1.0
  O  O87  1  0.06186000  0.42895000  0.55902000  1.0
