# generated using pymatgen
data_CuH10C5N2O5
_symmetry_space_group_name_H-M   'P 1'
_cell_length_a   6.35591000
_cell_length_b   9.06171000
_cell_length_c   13.56800000
_cell_angle_alpha   89.99700000
_cell_angle_beta   81.74450000
_cell_angle_gamma   89.99820000
_symmetry_Int_Tables_number   1
_chemical_formula_structural   CuH10C5N2O5
_chemical_formula_sum   'Cu4 H40 C20 N8 O20'
_cell_volume   773.35682651
_cell_formula_units_Z   4
loop_
 _symmetry_equiv_pos_site_id
 _symmetry_equiv_pos_as_xyz
  1  'x, y, z'
loop_
 _atom_site_type_symbol
 _atom_site_label
 _atom_site_symmetry_multiplicity
 _atom_site_fract_x
 _atom_site_fract_y
 _atom_site_fract_z
 _atom_site_occupancy
  Cu  Cu0  1  0.74670000  0.60117000  0.64329000  1.0
  Cu  Cu1  1  0.25330000  0.10121000  0.85673000  1.0
  Cu  Cu2  1  0.25331000  0.39884000  0.35671000  1.0
  Cu  Cu3  1  0.74673000  0.89881000  0.14327000  1.0
  H  H4  1  0.42238000  0.78468000  0.60590000  1.0
  H  H5  1  0.57753000  0.28468000  0.89407000  1.0
  H  H6  1  0.57762000  0.21535000  0.39408000  1.0
  H  H7  1  0.42245000  0.71533000  0.10596000  1.0
  H  H8  1  0.43195000  0.45263000  0.59012000  1.0
  H  H9  1  0.56819000  0.95263000  0.90982000  1.0
  H  H10  1  0.56808000  0.54738000  0.40988000  1.0
  H  H11  1  0.43181000  0.04735000  0.09019000  1.0
  H  H12  1  0.57971000  0.35840000  0.65738000  1.0
  H  H13  1  0.42032000  0.85844000  0.84260000  1.0
  H  H14  1  0.42033000  0.64162000  0.34260000  1.0
  H  H15  1  0.57964000  0.14157000  0.15741000  1.0
  H  H16  1  0.85738000  0.44619000  0.77987000  1.0
  H  H17  1  0.14266000  0.94630000  0.72015000  1.0
  H  H18  1  0.14264000  0.55381000  0.22010000  1.0
  H  H19  1  0.85738000  0.05372000  0.27988000  1.0
  H  H20  1  0.90155000  0.62427000  0.80207000  1.0
  H  H21  1  0.09852000  0.12435000  0.69792000  1.0
  H  H22  1  0.09845000  0.37573000  0.19793000  1.0
  H  H23  1  0.90149000  0.87566000  0.30210000  1.0
  H  H24  1  0.28125000  0.59293000  0.73973000  1.0
  H  H25  1  0.71883000  0.09291000  0.76016000  1.0
  H  H26  1  0.71876000  0.40705000  0.26027000  1.0
  H  H27  1  0.28114000  0.90709000  0.23985000  1.0
  H  H28  1  0.20886000  0.40335000  0.73502000  1.0
  H  H29  1  0.79115000  0.90333000  0.76491000  1.0
  H  H30  1  0.79115000  0.59664000  0.26497000  1.0
  H  H31  1  0.20883000  0.09668000  0.23510000  1.0
  H  H32  1  0.70899000  0.96678000  0.60168000  1.0
  H  H33  1  0.29099000  0.46680000  0.89825000  1.0
  H  H34  1  0.29102000  0.03324000  0.39833000  1.0
  H  H35  1  0.70899000  0.53323000  0.10176000  1.0
  H  H36  1  0.53994000  0.66723000  0.86549000  1.0
  H  H37  1  0.46020000  0.16725000  0.63446000  1.0
  H  H38  1  0.46007000  0.33276000  0.13450000  1.0
  H  H39  1  0.53980000  0.83277000  0.36555000  1.0
  H  H40  1  0.64533000  0.52613000  0.93306000  1.0
  H  H41  1  0.35462000  0.02623000  0.56692000  1.0
  H  H42  1  0.35469000  0.47386000  0.06692000  1.0
  H  H43  1  0.64535000  0.97379000  0.43309000  1.0
  C  C44  1  0.34149000  0.47957000  0.74055000  1.0
  C  C45  1  0.65855000  0.97957000  0.75939000  1.0
  C  C46  1  0.65853000  0.52042000  0.25944000  1.0
  C  C47  1  0.34144000  0.02044000  0.24062000  1.0
  C  C48  1  0.57436000  0.95042000  0.66201000  1.0
  C  C49  1  0.42561000  0.45041000  0.83794000  1.0
  C  C50  1  0.42563000  0.04959000  0.33800000  1.0
  C  C51  1  0.57440000  0.54959000  0.16205000  1.0
  C  C52  1  0.60173000  0.55460000  0.85970000  1.0
  C  C53  1  0.39827000  0.05465000  0.64028000  1.0
  C  C54  1  0.39831000  0.44538000  0.14029000  1.0
  C  C55  1  0.60173000  0.94536000  0.35973000  1.0
  C  C56  1  0.10300000  0.72555000  0.53732000  1.0
  C  C57  1  0.89691000  0.22561000  0.96269000  1.0
  C  C58  1  0.89700000  0.27447000  0.46267000  1.0
  C  C59  1  0.10305000  0.77437000  0.03731000  1.0
  C  C60  1  0.96226000  0.68072000  0.45776000  1.0
  C  C61  1  0.03770000  0.18072000  0.04227000  1.0
  C  C62  1  0.03778000  0.31926000  0.54223000  1.0
  C  C63  1  0.96225000  0.81925000  0.95772000  1.0
  N  N64  1  0.50594000  0.45847000  0.65285000  1.0
  N  N65  1  0.49413000  0.95850000  0.84711000  1.0
  N  N66  1  0.49406000  0.54153000  0.34715000  1.0
  N  N67  1  0.50587000  0.04149000  0.15290000  1.0
  N  N68  1  0.79127000  0.54985000  0.78330000  1.0
  N  N69  1  0.20878000  0.04995000  0.71669000  1.0
  N  N70  1  0.20873000  0.45014000  0.21669000  1.0
  N  N71  1  0.79124000  0.95007000  0.28333000  1.0
  O  O72  1  0.50304000  0.79996000  0.66400000  1.0
  O  O73  1  0.49691000  0.29996000  0.83598000  1.0
  O  O74  1  0.49696000  0.20005000  0.33599000  1.0
  O  O75  1  0.50303000  0.70002000  0.16404000  1.0
  O  O76  1  0.01218000  0.72000000  0.62821000  1.0
  O  O77  1  0.98787000  0.22006000  0.87180000  1.0
  O  O78  1  0.98781000  0.28004000  0.37179000  1.0
  O  O79  1  0.01209000  0.77989000  0.12819000  1.0
  O  O80  1  0.29136000  0.76506000  0.51040000  1.0
  O  O81  1  0.70857000  0.26510000  0.98961000  1.0
  O  O82  1  0.70863000  0.23497000  0.48961000  1.0
  O  O83  1  0.29146000  0.73491000  0.01036000  1.0
  O  O84  1  0.78703000  0.61510000  0.49322000  1.0
  O  O85  1  0.21288000  0.11506000  0.00680000  1.0
  O  O86  1  0.21299000  0.38490000  0.50678000  1.0
  O  O87  1  0.78712000  0.88495000  0.99320000  1.0
  O  O88  1  0.02222000  0.70982000  0.36822000  1.0
  O  O89  1  0.97770000  0.20986000  0.13181000  1.0
  O  O90  1  0.97782000  0.29011000  0.63178000  1.0
  O  O91  1  0.02226000  0.79005000  0.86818000  1.0
