# generated using pymatgen
data_ZnH27C33N3O4
_symmetry_space_group_name_H-M   'P 1'
_cell_length_a   14.23870000
_cell_length_b   14.23880000
_cell_length_c   20.84000000
_cell_angle_alpha   108.31500000
_cell_angle_beta   105.96100000
_cell_angle_gamma   97.90720000
_symmetry_Int_Tables_number   1
_chemical_formula_structural   ZnH27C33N3O4
_chemical_formula_sum   'Zn4 H108 C132 N12 O16'
_cell_volume   3738.56377161
_cell_formula_units_Z   4
loop_
 _symmetry_equiv_pos_site_id
 _symmetry_equiv_pos_as_xyz
  1  'x, y, z'
loop_
 _atom_site_type_symbol
 _atom_site_label
 _atom_site_symmetry_multiplicity
 _atom_site_fract_x
 _atom_site_fract_y
 _atom_site_fract_z
 _atom_site_occupancy
  Zn  Zn0  1  0.81658000  0.53388000  0.01584000  1.0
  Zn  Zn1  1  0.51805000  0.30079000  0.48412000  1.0
  Zn  Zn2  1  0.18342000  0.46612000  0.98416000  1.0
  Zn  Zn3  1  0.48195000  0.69921000  0.51588000  1.0
  H  H4  1  0.67461000  0.35794000  0.00405000  1.0
  H  H5  1  0.35391000  0.17061000  0.49595000  1.0
  H  H6  1  0.32539000  0.64206000  0.99595000  1.0
  H  H7  1  0.64609000  0.82939000  0.50405000  1.0
  H  H8  1  0.52401000  0.31728000  0.03828000  1.0
  H  H9  1  0.27900000  0.98578000  0.46172000  1.0
  H  H10  1  0.47599000  0.68272000  0.96172000  1.0
  H  H11  1  0.72099000  0.01422000  0.53828000  1.0
  H  H12  1  0.54944000  0.64050000  0.12920000  1.0
  H  H13  1  0.51132000  0.92028000  0.37082000  1.0
  H  H14  1  0.45056000  0.35950000  0.87080000  1.0
  H  H15  1  0.48868000  0.07972000  0.62918000  1.0
  H  H16  1  0.69825000  0.66800000  0.08796000  1.0
  H  H17  1  0.58009000  0.11033000  0.41206000  1.0
  H  H18  1  0.30175000  0.33200000  0.91204000  1.0
  H  H19  1  0.41991000  0.88967000  0.58794000  1.0
  H  H20  1  0.40355000  0.52130000  0.12303000  1.0
  H  H21  1  0.39827000  0.78055000  0.37697000  1.0
  H  H22  1  0.59645000  0.47870000  0.87697000  1.0
  H  H23  1  0.60173000  0.21945000  0.62303000  1.0
  H  H24  1  0.37494000  0.39202000  0.06495000  1.0
  H  H25  1  0.32707000  0.81003000  0.43504000  1.0
  H  H26  1  0.62506000  0.60798000  0.93505000  1.0
  H  H27  1  0.67293000  0.18997000  0.56496000  1.0
  H  H28  1  0.49442000  0.35258000  0.15951000  1.0
  H  H29  1  0.19305000  0.83492000  0.34048000  1.0
  H  H30  1  0.50558000  0.64742000  0.84049000  1.0
  H  H31  1  0.80695000  0.16508000  0.65952000  1.0
  H  H32  1  0.52765000  0.48066000  0.21832000  1.0
  H  H33  1  0.26232000  0.80936000  0.28167000  1.0
  H  H34  1  0.47235000  0.51934000  0.78168000  1.0
  H  H35  1  0.73768000  0.19064000  0.71833000  1.0
  H  H36  1  0.31718000  0.33632000  0.15858000  1.0
  H  H37  1  0.17774000  0.65858000  0.34139000  1.0
  H  H38  1  0.68282000  0.66368000  0.84142000  1.0
  H  H39  1  0.82226000  0.34142000  0.65861000  1.0
  H  H40  1  0.34564000  0.46716000  0.21242000  1.0
  H  H41  1  0.25475000  0.63323000  0.28754000  1.0
  H  H42  1  0.65436000  0.53284000  0.78758000  1.0
  H  H43  1  0.74525000  0.36677000  0.71246000  1.0
  H  H44  1  0.47133000  0.24904000  0.22070000  1.0
  H  H45  1  0.02830000  0.75061000  0.27928000  1.0
  H  H46  1  0.52868000  0.75096000  0.77930000  1.0
  H  H47  1  0.97170000  0.24939000  0.72072000  1.0
  H  H48  1  0.53133000  0.21831000  0.33493000  1.0
  H  H49  1  0.88333000  0.69637000  0.16506000  1.0
  H  H50  1  0.46867000  0.78168000  0.66507000  1.0
  H  H51  1  0.11667000  0.30363000  0.83494000  1.0
  H  H52  1  0.36038000  0.49508000  0.33417000  1.0
  H  H53  1  0.16089000  0.52623000  0.16579000  1.0
  H  H54  1  0.63962000  0.50492000  0.66583000  1.0
  H  H55  1  0.83911000  0.47377000  0.83421000  1.0
  H  H56  1  0.41690000  0.44844000  0.44093000  1.0
  H  H57  1  0.00749000  0.47596000  0.05905000  1.0
  H  H58  1  0.58310000  0.55156000  0.55907000  1.0
  H  H59  1  0.99251000  0.52404000  0.94095000  1.0
  H  H60  1  0.97083000  0.10013000  0.92323000  1.0
  H  H61  1  0.17693000  0.54763000  0.57679000  1.0
  H  H62  1  0.02917000  0.89987000  0.07677000  1.0
  H  H63  1  0.82308000  0.45237000  0.42321000  1.0
  H  H64  1  0.68643000  0.99809000  0.75054000  1.0
  H  H65  1  0.24756000  0.43586000  0.74945000  1.0
  H  H66  1  0.31357000  0.00191000  0.24946000  1.0
  H  H67  1  0.75244000  0.56414000  0.25055000  1.0
  H  H68  1  0.93737000  0.27243000  0.96869000  1.0
  H  H69  1  0.30379000  0.46877000  0.53133000  1.0
  H  H70  1  0.06263000  0.72757000  0.03131000  1.0
  H  H71  1  0.69621000  0.53123000  0.46867000  1.0
  H  H72  1  0.65231000  0.17130000  0.79863000  1.0
  H  H73  1  0.37273000  0.35372000  0.70138000  1.0
  H  H74  1  0.34769000  0.82870000  0.20137000  1.0
  H  H75  1  0.62727000  0.64628000  0.29862000  1.0
  H  H76  1  0.93127000  0.78035000  0.80520000  1.0
  H  H77  1  0.97516000  0.62605000  0.69481000  1.0
  H  H78  1  0.06873000  0.21965000  0.19480000  1.0
  H  H79  1  0.02484000  0.37395000  0.30519000  1.0
  H  H80  1  0.77133000  0.97287000  0.91597000  1.0
  H  H81  1  0.05690000  0.35537000  0.58403000  1.0
  H  H82  1  0.22867000  0.02713000  0.08403000  1.0
  H  H83  1  0.94310000  0.64463000  0.41597000  1.0
  H  H84  1  0.77003000  0.86978000  0.99239000  1.0
  H  H85  1  0.87739000  0.27766000  0.50761000  1.0
  H  H86  1  0.22997000  0.13022000  0.00761000  1.0
  H  H87  1  0.12261000  0.72234000  0.49239000  1.0
  H  H88  1  0.92378000  0.67556000  0.87932000  1.0
  H  H89  1  0.79624000  0.54449000  0.62070000  1.0
  H  H90  1  0.07622000  0.32444000  0.12068000  1.0
  H  H91  1  0.20376000  0.45551000  0.37930000  1.0
  H  H92  1  0.75584000  0.75036000  0.71054000  1.0
  H  H93  1  0.03985000  0.54529000  0.78948000  1.0
  H  H94  1  0.24416000  0.24964000  0.28946000  1.0
  H  H95  1  0.96015000  0.45471000  0.21052000  1.0
  H  H96  1  0.93821000  0.04370000  0.74996000  1.0
  H  H97  1  0.29375000  0.68825000  0.75003000  1.0
  H  H98  1  0.06179000  0.95630000  0.25004000  1.0
  H  H99  1  0.70625000  0.31175000  0.24997000  1.0
  H  H100  1  0.93995000  0.98086000  0.62483000  1.0
  H  H101  1  0.35606000  0.81514000  0.87517000  1.0
  H  H102  1  0.06005000  0.01915000  0.37517000  1.0
  H  H103  1  0.64394000  0.18486000  0.12483000  1.0
  H  H104  1  0.75599000  0.68837000  0.58502000  1.0
  H  H105  1  0.10339000  0.67097000  0.91500000  1.0
  H  H106  1  0.24401000  0.31163000  0.41498000  1.0
  H  H107  1  0.89661000  0.32903000  0.08500000  1.0
  H  H108  1  0.84953000  0.80149000  0.54195000  1.0
  H  H109  1  0.25958000  0.80757000  0.95805000  1.0
  H  H110  1  0.15047000  0.19851000  0.45805000  1.0
  H  H111  1  0.74042000  0.19243000  0.04195000  1.0
  C  C112  1  0.64442000  0.41810000  0.03193000  1.0
  C  C113  1  0.38618000  0.11254000  0.46806000  1.0
  C  C114  1  0.35558000  0.58190000  0.96807000  1.0
  C  C115  1  0.61382000  0.88746000  0.53194000  1.0
  C  C116  1  0.56089000  0.39657000  0.05143000  1.0
  C  C117  1  0.34514000  0.00951000  0.44856000  1.0
  C  C118  1  0.43911000  0.60343000  0.94856000  1.0
  C  C119  1  0.65486000  0.99049000  0.55144000  1.0
  C  C120  1  0.52369000  0.47604000  0.08700000  1.0
  C  C121  1  0.38904000  0.93676000  0.41299000  1.0
  C  C122  1  0.47631000  0.52396000  0.91300000  1.0
  C  C123  1  0.61096000  0.06324000  0.58701000  1.0
  C  C124  1  0.57540000  0.57574000  0.10192000  1.0
  C  C125  1  0.47385000  0.97353000  0.39810000  1.0
  C  C126  1  0.42460000  0.42426000  0.89808000  1.0
  C  C127  1  0.52615000  0.02647000  0.60190000  1.0
  C  C128  1  0.65812000  0.59206000  0.08010000  1.0
  C  C129  1  0.51199000  0.07807000  0.41990000  1.0
  C  C130  1  0.34188000  0.40794000  0.91990000  1.0
  C  C131  1  0.48801000  0.92193000  0.58010000  1.0
  C  C132  1  0.43470000  0.45400000  0.10973000  1.0
  C  C133  1  0.34427000  0.82500000  0.39026000  1.0
  C  C134  1  0.56530000  0.54600000  0.89027000  1.0
  C  C135  1  0.65573000  0.17500000  0.60974000  1.0
  C  C136  1  0.46520000  0.42111000  0.17431000  1.0
  C  C137  1  0.24679000  0.79091000  0.32568000  1.0
  C  C138  1  0.53480000  0.57889000  0.82569000  1.0
  C  C139  1  0.75321000  0.20909000  0.67432000  1.0
  C  C140  1  0.37758000  0.40022000  0.20109000  1.0
  C  C141  1  0.19913000  0.67649000  0.29888000  1.0
  C  C142  1  0.62242000  0.59978000  0.79891000  1.0
  C  C143  1  0.80087000  0.32351000  0.70112000  1.0
  C  C144  1  0.41002000  0.37520000  0.26723000  1.0
  C  C145  1  0.10797000  0.64282000  0.23275000  1.0
  C  C146  1  0.58998000  0.62480000  0.73277000  1.0
  C  C147  1  0.89203000  0.35718000  0.76725000  1.0
  C  C148  1  0.45839000  0.29589000  0.26852000  1.0
  C  C149  1  0.02734000  0.68988000  0.23145000  1.0
  C  C150  1  0.54161000  0.70411000  0.73148000  1.0
  C  C151  1  0.97266000  0.31012000  0.76855000  1.0
  C  C152  1  0.49090000  0.27722000  0.33137000  1.0
  C  C153  1  0.94580000  0.65950000  0.16859000  1.0
  C  C154  1  0.50910000  0.72278000  0.66863000  1.0
  C  C155  1  0.05420000  0.34050000  0.83141000  1.0
  C  C156  1  0.39570000  0.43129000  0.33066000  1.0
  C  C157  1  0.10061000  0.56505000  0.16933000  1.0
  C  C158  1  0.60430000  0.56871000  0.66934000  1.0
  C  C159  1  0.89939000  0.43494000  0.83067000  1.0
  C  C160  1  0.42856000  0.40698000  0.39126000  1.0
  C  C161  1  0.01567000  0.53728000  0.10872000  1.0
  C  C162  1  0.57144000  0.59302000  0.60874000  1.0
  C  C163  1  0.98433000  0.46272000  0.89128000  1.0
  C  C164  1  0.83011000  0.03938000  0.83455000  1.0
  C  C165  1  0.20482000  0.49555000  0.66545000  1.0
  C  C166  1  0.16989000  0.96062000  0.16546000  1.0
  C  C167  1  0.79518000  0.50445000  0.33455000  1.0
  C  C168  1  0.90130000  0.11609000  0.89590000  1.0
  C  C169  1  0.22020000  0.50541000  0.60410000  1.0
  C  C170  1  0.09870000  0.88391000  0.10410000  1.0
  C  C171  1  0.77980000  0.49459000  0.39590000  1.0
  C  C172  1  0.74066000  0.05873000  0.79850000  1.0
  C  C173  1  0.26025000  0.44217000  0.70150000  1.0
  C  C174  1  0.25934000  0.94127000  0.20150000  1.0
  C  C175  1  0.73975000  0.55783000  0.29850000  1.0
  C  C176  1  0.88230000  0.21164000  0.92148000  1.0
  C  C177  1  0.29020000  0.46086000  0.57853000  1.0
  C  C178  1  0.11770000  0.78836000  0.07852000  1.0
  C  C179  1  0.70980000  0.53914000  0.42147000  1.0
  C  C180  1  0.72192000  0.15431000  0.82475000  1.0
  C  C181  1  0.32963000  0.39723000  0.67528000  1.0
  C  C182  1  0.27808000  0.84569000  0.17524000  1.0
  C  C183  1  0.67037000  0.60277000  0.32472000  1.0
  C  C184  1  0.79232000  0.23138000  0.88641000  1.0
  C  C185  1  0.34501000  0.40595000  0.61361000  1.0
  C  C186  1  0.20768000  0.76862000  0.11359000  1.0
  C  C187  1  0.65499000  0.59405000  0.38639000  1.0
  C  C188  1  0.77045000  0.33375000  0.91434000  1.0
  C  C189  1  0.41949000  0.35618000  0.58568000  1.0
  C  C190  1  0.22955000  0.66625000  0.08566000  1.0
  C  C191  1  0.58051000  0.64382000  0.41432000  1.0
  C  C192  1  0.84866000  0.88228000  0.85345000  1.0
  C  C193  1  0.02883000  0.49520000  0.64657000  1.0
  C  C194  1  0.15134000  0.11772000  0.14655000  1.0
  C  C195  1  0.97117000  0.50480000  0.35343000  1.0
  C  C196  1  0.89395000  0.79909000  0.84507000  1.0
  C  C197  1  0.95401000  0.54885000  0.65495000  1.0
  C  C198  1  0.10605000  0.20091000  0.15493000  1.0
  C  C199  1  0.04599000  0.45115000  0.34505000  1.0
  C  C200  1  0.80529000  0.90801000  0.90803000  1.0
  C  C201  1  0.99999000  0.39727000  0.59198000  1.0
  C  C202  1  0.19471000  0.09199000  0.09197000  1.0
  C  C203  1  0.00001000  0.60273000  0.40802000  1.0
  C  C204  1  0.80476000  0.85081000  0.95093000  1.0
  C  C205  1  0.89987000  0.35384000  0.54907000  1.0
  C  C206  1  0.19524000  0.14919000  0.04906000  1.0
  C  C207  1  0.10013000  0.64616000  0.45093000  1.0
  C  C208  1  0.89076000  0.74110000  0.88726000  1.0
  C  C209  1  0.85383000  0.50352000  0.61272000  1.0
  C  C210  1  0.10924000  0.25890000  0.11274000  1.0
  C  C211  1  0.14617000  0.49648000  0.38728000  1.0
  C  C212  1  0.84516000  0.76500000  0.94027000  1.0
  C  C213  1  0.82471000  0.40491000  0.55971000  1.0
  C  C214  1  0.15484000  0.23500000  0.05973000  1.0
  C  C215  1  0.17529000  0.59509000  0.44029000  1.0
  C  C216  1  0.83128000  0.69736000  0.98042000  1.0
  C  C217  1  0.71694000  0.35090000  0.51957000  1.0
  C  C218  1  0.16872000  0.30264000  0.01958000  1.0
  C  C219  1  0.28306000  0.64910000  0.48043000  1.0
  C  C220  1  0.84843000  0.90068000  0.73874000  1.0
  C  C221  1  0.16194000  0.60967000  0.76126000  1.0
  C  C222  1  0.15157000  0.09932000  0.26126000  1.0
  C  C223  1  0.83806000  0.39033000  0.23874000  1.0
  C  C224  1  0.79729000  0.80024000  0.69190000  1.0
  C  C225  1  0.10836000  0.60539000  0.80812000  1.0
  C  C226  1  0.20271000  0.19976000  0.30810000  1.0
  C  C227  1  0.89164000  0.39461000  0.19188000  1.0
  C  C228  1  0.89916000  0.96552000  0.71366000  1.0
  C  C229  1  0.25186000  0.68551000  0.78634000  1.0
  C  C230  1  0.10084000  0.03448000  0.28634000  1.0
  C  C231  1  0.74814000  0.31449000  0.21366000  1.0
  C  C232  1  0.89947000  0.92985000  0.64331000  1.0
  C  C233  1  0.28657000  0.75617000  0.85669000  1.0
  C  C234  1  0.10053000  0.07015000  0.35669000  1.0
  C  C235  1  0.71343000  0.24383000  0.14331000  1.0
  C  C236  1  0.79812000  0.76541000  0.62168000  1.0
  C  C237  1  0.14376000  0.67644000  0.87833000  1.0
  C  C238  1  0.20188000  0.23459000  0.37832000  1.0
  C  C239  1  0.85624000  0.32356000  0.12167000  1.0
  C  C240  1  0.84943000  0.82963000  0.59700000  1.0
  C  C241  1  0.23264000  0.75242000  0.90299000  1.0
  C  C242  1  0.15057000  0.17037000  0.40300000  1.0
  C  C243  1  0.76736000  0.24758000  0.09701000  1.0
  N  N244  1  0.69233000  0.51443000  0.04548000  1.0
  N  N245  1  0.46897000  0.14690000  0.45452000  1.0
  N  N246  1  0.30767000  0.48558000  0.95452000  1.0
  N  N247  1  0.53103000  0.85310000  0.54548000  1.0
  N  N248  1  0.47567000  0.33133000  0.39184000  1.0
  N  N249  1  0.93943000  0.58380000  0.10813000  1.0
  N  N250  1  0.52433000  0.66867000  0.60816000  1.0
  N  N251  1  0.06057000  0.41620000  0.89187000  1.0
  N  N252  1  0.84694000  0.93973000  0.80984000  1.0
  N  N253  1  0.12989000  0.53709000  0.69016000  1.0
  N  N254  1  0.15306000  0.06027000  0.19016000  1.0
  N  N255  1  0.87011000  0.46291000  0.30984000  1.0
  O  O256  1  0.69390000  0.35389000  0.88031000  1.0
  O  O257  1  0.47363000  0.31363000  0.61971000  1.0
  O  O258  1  0.30610000  0.64611000  0.11969000  1.0
  O  O259  1  0.52637000  0.68637000  0.38029000  1.0
  O  O260  1  0.83625000  0.39560000  0.97576000  1.0
  O  O261  1  0.41996000  0.36060000  0.52428000  1.0
  O  O262  1  0.16375000  0.60440000  0.02424000  1.0
  O  O263  1  0.58004000  0.63940000  0.47572000  1.0
  O  O264  1  0.80002000  0.72427000  0.03277000  1.0
  O  O265  1  0.69151000  0.26732000  0.46719000  1.0
  O  O266  1  0.19998000  0.27573000  0.96723000  1.0
  O  O267  1  0.30849000  0.73268000  0.53281000  1.0
  O  O268  1  0.84904000  0.60785000  0.95596000  1.0
  O  O269  1  0.65189000  0.39312000  0.54403000  1.0
  O  O270  1  0.15096000  0.39215000  0.04404000  1.0
  O  O271  1  0.34811000  0.60688000  0.45597000  1.0
