# generated using pymatgen
data_Li4H18C14S2O19
_symmetry_space_group_name_H-M   'P 1'
_cell_length_a   8.32573000
_cell_length_b   10.65493578
_cell_length_c   14.06300000
_cell_angle_alpha   88.45232506
_cell_angle_beta   86.17730000
_cell_angle_gamma   67.05710761
_symmetry_Int_Tables_number   1
_chemical_formula_structural   Li4H18C14S2O19
_chemical_formula_sum   'Li8 H36 C28 S4 O38'
_cell_volume   1146.28633193
_cell_formula_units_Z   2
loop_
 _symmetry_equiv_pos_site_id
 _symmetry_equiv_pos_as_xyz
  1  'x, y, z'
loop_
 _atom_site_type_symbol
 _atom_site_label
 _atom_site_symmetry_multiplicity
 _atom_site_fract_x
 _atom_site_fract_y
 _atom_site_fract_z
 _atom_site_occupancy
  Li  Li0  1  0.46847000  0.77910000  0.88340000  1.0
  Li  Li1  1  0.75137000  0.77925000  0.61678000  1.0
  Li  Li2  1  0.53151000  0.22091000  0.11660000  1.0
  Li  Li3  1  0.24861000  0.22076000  0.38322000  1.0
  Li  Li4  1  0.93315000  0.97961000  0.64327000  1.0
  Li  Li5  1  0.08659000  0.97998000  0.85674000  1.0
  Li  Li6  1  0.06685000  0.02039000  0.35674000  1.0
  Li  Li7  1  0.91341000  0.02004000  0.14325000  1.0
  H  H8  1  0.27521000  0.74028000  0.01686000  1.0
  H  H9  1  0.98434000  0.74062000  0.48344000  1.0
  H  H10  1  0.72478000  0.25973000  0.98315000  1.0
  H  H11  1  0.01567000  0.25936000  0.51655000  1.0
  H  H12  1  0.24872000  0.89288000  0.03503000  1.0
  H  H13  1  0.85885000  0.89311000  0.46490000  1.0
  H  H14  1  0.75129000  0.10712000  0.96497000  1.0
  H  H15  1  0.14116000  0.10688000  0.53509000  1.0
  H  H16  1  0.98938000  0.18140000  0.72037000  1.0
  H  H17  1  0.82798000  0.18016000  0.78001000  1.0
  H  H18  1  0.01057000  0.81863000  0.27962000  1.0
  H  H19  1  0.17199000  0.81983000  0.21999000  1.0
  H  H20  1  0.64003000  0.16757000  0.59767000  1.0
  H  H21  1  0.19371000  0.16718000  0.90223000  1.0
  H  H22  1  0.35997000  0.83242000  0.40233000  1.0
  H  H23  1  0.80630000  0.83282000  0.09778000  1.0
  H  H24  1  0.76249000  0.10459000  0.50574000  1.0
  H  H25  1  0.13430000  0.10420000  0.99432000  1.0
  H  H26  1  0.23752000  0.89540000  0.49426000  1.0
  H  H27  1  0.86571000  0.89581000  0.00568000  1.0
  H  H28  1  0.59007000  0.52712000  0.84778000  1.0
  H  H29  1  0.88208000  0.52719000  0.65231000  1.0
  H  H30  1  0.40995000  0.47287000  0.15222000  1.0
  H  H31  1  0.11794000  0.47283000  0.34768000  1.0
  H  H32  1  0.36231000  0.28437000  0.55772000  1.0
  H  H33  1  0.35391000  0.28503000  0.94203000  1.0
  H  H34  1  0.63769000  0.71563000  0.44228000  1.0
  H  H35  1  0.64607000  0.71497000  0.05797000  1.0
  H  H36  1  0.54636000  0.36046000  0.76267000  1.0
  H  H37  1  0.09245000  0.36069000  0.73758000  1.0
  H  H38  1  0.45368000  0.63953000  0.23732000  1.0
  H  H39  1  0.90753000  0.63932000  0.26242000  1.0
  H  H40  1  0.21669000  0.72334000  0.53919000  1.0
  H  H41  1  0.05882000  0.72359000  0.96090000  1.0
  H  H42  1  0.78332000  0.27666000  0.46080000  1.0
  H  H43  1  0.94116000  0.27640000  0.03913000  1.0
  C  C44  1  0.36356000  0.67811000  0.66440000  1.0
  C  C45  1  0.95693000  0.67813000  0.83587000  1.0
  C  C46  1  0.63645000  0.32189000  0.33559000  1.0
  C  C47  1  0.04305000  0.32188000  0.16414000  1.0
  C  C48  1  0.45876000  0.57435000  0.72863000  1.0
  C  C49  1  0.96582000  0.57443000  0.77158000  1.0
  C  C50  1  0.54128000  0.42564000  0.27136000  1.0
  C  C51  1  0.03417000  0.42559000  0.22843000  1.0
  C  C52  1  0.47888000  0.44032000  0.71241000  1.0
  C  C53  1  0.08014000  0.44055000  0.78776000  1.0
  C  C54  1  0.52115000  0.55968000  0.28758000  1.0
  C  C55  1  0.91985000  0.55946000  0.21225000  1.0
  C  C56  1  0.40504000  0.40779000  0.63534000  1.0
  C  C57  1  0.18687000  0.40819000  0.86469000  1.0
  C  C58  1  0.59499000  0.59220000  0.36465000  1.0
  C  C59  1  0.81312000  0.59181000  0.13532000  1.0
  C  C60  1  0.30633000  0.51162000  0.57210000  1.0
  C  C61  1  0.18152000  0.51200000  0.92794000  1.0
  C  C62  1  0.69369000  0.48838000  0.42789000  1.0
  C  C63  1  0.81846000  0.48800000  0.07207000  1.0
  C  C64  1  0.28953000  0.64460000  0.58840000  1.0
  C  C65  1  0.06475000  0.64480000  0.91177000  1.0
  C  C66  1  0.71049000  0.35539000  0.41159000  1.0
  C  C67  1  0.93522000  0.35520000  0.08824000  1.0
  C  C68  1  0.22955000  0.47647000  0.49004000  1.0
  C  C69  1  0.29399000  0.47690000  0.00980000  1.0
  C  C70  1  0.77046000  0.52353000  0.50995000  1.0
  C  C71  1  0.70600000  0.52309000  0.99021000  1.0
  S  S72  1  0.33798000  0.84948000  0.67763000  1.0
  S  S73  1  0.81136000  0.84946000  0.82245000  1.0
  S  S74  1  0.66203000  0.15051000  0.32237000  1.0
  S  S75  1  0.18863000  0.15055000  0.17757000  1.0
  O  O76  1  0.18902000  0.93162000  0.61906000  1.0
  O  O77  1  0.87864000  0.93162000  0.88068000  1.0
  O  O78  1  0.81098000  0.06837000  0.38094000  1.0
  O  O79  1  0.12137000  0.06838000  0.11933000  1.0
  O  O80  1  0.26318000  0.82731000  0.98463000  1.0
  O  O81  1  0.90923000  0.82754000  0.51550000  1.0
  O  O82  1  0.73681000  0.17269000  0.01537000  1.0
  O  O83  1  0.09077000  0.17244000  0.48449000  1.0
  O  O84  1  0.29252000  0.88090000  0.77975000  1.0
  O  O85  1  0.82519000  0.88092000  0.72026000  1.0
  O  O86  1  0.70747000  0.11908000  0.22025000  1.0
  O  O87  1  0.17479000  0.11909000  0.27975000  1.0
  O  O88  1  0.93958000  0.12014000  0.75024000  1.0
  O  O89  1  0.06041000  0.87987000  0.24976000  1.0
  O  O90  1  0.49692000  0.86641000  0.64337000  1.0
  O  O91  1  0.63556000  0.86643000  0.85684000  1.0
  O  O92  1  0.50307000  0.13361000  0.35664000  1.0
  O  O93  1  0.36443000  0.13359000  0.14318000  1.0
  O  O94  1  0.76265000  0.11442000  0.57499000  1.0
  O  O95  1  0.12452000  0.11377000  0.92504000  1.0
  O  O96  1  0.23736000  0.88556000  0.42501000  1.0
  O  O97  1  0.87550000  0.88623000  0.07497000  1.0
  O  O98  1  0.52541000  0.60732000  0.80416000  1.0
  O  O99  1  0.86615000  0.60733000  0.69606000  1.0
  O  O100  1  0.47464000  0.39267000  0.19583000  1.0
  O  O101  1  0.13385000  0.39269000  0.30393000  1.0
  O  O102  1  0.42598000  0.27722000  0.62224000  1.0
  O  O103  1  0.29730000  0.27783000  0.87755000  1.0
  O  O104  1  0.57404000  0.72278000  0.37776000  1.0
  O  O105  1  0.70268000  0.72218000  0.12245000  1.0
  O  O106  1  0.26831000  0.34808000  0.47815000  1.0
  O  O107  1  0.38420000  0.34859000  0.02156000  1.0
  O  O108  1  0.73167000  0.65192000  0.52186000  1.0
  O  O109  1  0.61578000  0.65141000  0.97844000  1.0
  O  O110  1  0.13298000  0.56665000  0.43399000  1.0
  O  O111  1  0.30032000  0.56703000  0.06586000  1.0
  O  O112  1  0.86707000  0.43334000  0.56600000  1.0
  O  O113  1  0.69966000  0.43297000  0.93414000  1.0
