# generated using pymatgen
data_Na2CoH12(C5O4)2
_symmetry_space_group_name_H-M   'P 1'
_cell_length_a   7.65938000
_cell_length_b   9.63134000
_cell_length_c   10.42170000
_cell_angle_alpha   108.89000000
_cell_angle_beta   89.99960000
_cell_angle_gamma   113.43200000
_symmetry_Int_Tables_number   1
_chemical_formula_structural   Na2CoH12(C5O4)2
_chemical_formula_sum   'Na4 Co2 H24 C20 O16'
_cell_volume   660.03672056
_cell_formula_units_Z   2
loop_
 _symmetry_equiv_pos_site_id
 _symmetry_equiv_pos_as_xyz
  1  'x, y, z'
loop_
 _atom_site_type_symbol
 _atom_site_label
 _atom_site_symmetry_multiplicity
 _atom_site_fract_x
 _atom_site_fract_y
 _atom_site_fract_z
 _atom_site_occupancy
  Na  Na0  1  0.50000000  0.00000000  0.50000000  1.0
  Na  Na1  1  0.50000000  0.00000000  0.00000000  1.0
  Na  Na2  1  0.18080000  0.99996000  0.74998000  1.0
  Na  Na3  1  0.81920000  0.00003000  0.25002000  1.0
  Co  Co4  1  0.74468000  0.99999000  0.74998000  1.0
  Co  Co5  1  0.25532000  0.00002000  0.25002000  1.0
  H  H6  1  0.02355000  0.73611000  0.43409000  1.0
  H  H7  1  0.28740000  0.26390000  0.06589000  1.0
  H  H8  1  0.97645000  0.26388000  0.56591000  1.0
  H  H9  1  0.71260000  0.73610000  0.93411000  1.0
  H  H10  1  0.86602000  0.70219000  0.29051000  1.0
  H  H11  1  0.16379000  0.29777000  0.20945000  1.0
  H  H12  1  0.13397000  0.29781000  0.70949000  1.0
  H  H13  1  0.83621000  0.70223000  0.79055000  1.0
  H  H14  1  0.75558000  0.54488000  0.51026000  1.0
  H  H15  1  0.21063000  0.45514000  0.98975000  1.0
  H  H16  1  0.24442000  0.45512000  0.48974000  1.0
  H  H17  1  0.78937000  0.54486000  0.01025000  1.0
  H  H18  1  0.58852000  0.51803000  0.37723000  1.0
  H  H19  1  0.07043000  0.48197000  0.12279000  1.0
  H  H20  1  0.41148000  0.48197000  0.62277000  1.0
  H  H21  1  0.92957000  0.51803000  0.87721000  1.0
  H  H22  1  0.77046000  0.40510000  0.20191000  1.0
  H  H23  1  0.36535000  0.59490000  0.29809000  1.0
  H  H24  1  0.22954000  0.59491000  0.79809000  1.0
  H  H25  1  0.63465000  0.40510000  0.70191000  1.0
  H  H26  1  0.92460000  0.41828000  0.33823000  1.0
  H  H27  1  0.50628000  0.58169000  0.16176000  1.0
  H  H28  1  0.07540000  0.58172000  0.66177000  1.0
  H  H29  1  0.49372000  0.41832000  0.83824000  1.0
  C  C30  1  0.81522000  0.83566000  0.48347000  1.0
  C  C31  1  0.97954000  0.16429000  0.01651000  1.0
  C  C32  1  0.18479000  0.16434000  0.51652000  1.0
  C  C33  1  0.02047000  0.83571000  0.98349000  1.0
  C  C34  1  0.87416000  0.70637000  0.39707000  1.0
  C  C35  1  0.16772000  0.29361000  0.10290000  1.0
  C  C36  1  0.12584000  0.29363000  0.60293000  1.0
  C  C37  1  0.83228000  0.70639000  0.89711000  1.0
  C  C38  1  0.73910000  0.54172000  0.40429000  1.0
  C  C39  1  0.19731000  0.45829000  0.09572000  1.0
  C  C40  1  0.26090000  0.45828000  0.59571000  1.0
  C  C41  1  0.80269000  0.54171000  0.90428000  1.0
  C  C42  1  0.77963000  0.40366000  0.30667000  1.0
  C  C43  1  0.37596000  0.59635000  0.19334000  1.0
  C  C44  1  0.22037000  0.59634000  0.69333000  1.0
  C  C45  1  0.62403000  0.40364000  0.80666000  1.0
  C  C46  1  0.63395000  0.24183000  0.30672000  1.0
  C  C47  1  0.39215000  0.75819000  0.19330000  1.0
  C  C48  1  0.36604000  0.75817000  0.69328000  1.0
  C  C49  1  0.60786000  0.24181000  0.80670000  1.0
  O  O50  1  0.86302000  0.88291000  0.61513000  1.0
  O  O51  1  0.98007000  0.11711000  0.88484000  1.0
  O  O52  1  0.13698000  0.11709000  0.38487000  1.0
  O  O53  1  0.01993000  0.88289000  0.11516000  1.0
  O  O54  1  0.71977000  0.88762000  0.42900000  1.0
  O  O55  1  0.83216000  0.11228000  0.07099000  1.0
  O  O56  1  0.28024000  0.11238000  0.57100000  1.0
  O  O57  1  0.16784000  0.88772000  0.92901000  1.0
  O  O58  1  0.66861000  0.17679000  0.38459000  1.0
  O  O59  1  0.49190000  0.82319000  0.11540000  1.0
  O  O60  1  0.33139000  0.82321000  0.61541000  1.0
  O  O61  1  0.50810000  0.17681000  0.88460000  1.0
  O  O62  1  0.47301000  0.17892000  0.22440000  1.0
  O  O63  1  0.29414000  0.82112000  0.27562000  1.0
  O  O64  1  0.52699000  0.82108000  0.77561000  1.0
  O  O65  1  0.70585000  0.17887000  0.72438000  1.0
