# generated using pymatgen
data_ZnH12C16(NO2)2
_symmetry_space_group_name_H-M   'P 1'
_cell_length_a   11.04840000
_cell_length_b   12.38640000
_cell_length_c   21.26349170
_cell_angle_alpha   74.44780755
_cell_angle_beta   75.19184901
_cell_angle_gamma   63.55800000
_symmetry_Int_Tables_number   1
_chemical_formula_structural   ZnH12C16(NO2)2
_chemical_formula_sum   'Zn4 H48 C64 N8 O16'
_cell_volume   2478.60930790
_cell_formula_units_Z   4
loop_
 _symmetry_equiv_pos_site_id
 _symmetry_equiv_pos_as_xyz
  1  'x, y, z'
loop_
 _atom_site_type_symbol
 _atom_site_label
 _atom_site_symmetry_multiplicity
 _atom_site_fract_x
 _atom_site_fract_y
 _atom_site_fract_z
 _atom_site_occupancy
  Zn  Zn0  1  0.37051000  0.86725000  0.27342000  1.0
  Zn  Zn1  1  0.51081000  0.63282000  0.22638000  1.0
  Zn  Zn2  1  0.62948000  0.13275000  0.72658000  1.0
  Zn  Zn3  1  0.48919000  0.36718000  0.77362000  1.0
  H  H4  1  0.39203000  0.72782000  0.47885000  1.0
  H  H5  1  0.59839000  0.77220000  0.02127000  1.0
  H  H6  1  0.60797000  0.27218000  0.52115000  1.0
  H  H7  1  0.40161000  0.22780000  0.97873000  1.0
  H  H8  1  0.56104000  0.39005000  0.40662000  1.0
  H  H9  1  0.35786000  0.11025000  0.09308000  1.0
  H  H10  1  0.43896000  0.60995000  0.59338000  1.0
  H  H11  1  0.64214000  0.88975000  0.90692000  1.0
  H  H12  1  0.72385000  0.92683000  0.27849000  1.0
  H  H13  1  0.92860000  0.57286000  0.22156000  1.0
  H  H14  1  0.27614000  0.07317000  0.72151000  1.0
  H  H15  1  0.07139000  0.42715000  0.77844000  1.0
  H  H16  1  0.95091000  0.92551000  0.28030000  1.0
  H  H17  1  0.15605000  0.57444000  0.21964000  1.0
  H  H18  1  0.04908000  0.07449000  0.71970000  1.0
  H  H19  1  0.84395000  0.42557000  0.78036000  1.0
  H  H20  1  0.47287000  0.07466000  0.19851000  1.0
  H  H21  1  0.74644000  0.42483000  0.30203000  1.0
  H  H22  1  0.52713000  0.92533000  0.80149000  1.0
  H  H23  1  0.25357000  0.57517000  0.69797000  1.0
  H  H24  1  0.50791000  0.26861000  0.17640000  1.0
  H  H25  1  0.95335000  0.23101000  0.32421000  1.0
  H  H26  1  0.49209000  0.73139000  0.82360000  1.0
  H  H27  1  0.04665000  0.76899000  0.67579000  1.0
  H  H28  1  0.38161000  0.42192000  0.25046000  1.0
  H  H29  1  0.05405000  0.07809000  0.24985000  1.0
  H  H30  1  0.61840000  0.57807000  0.74954000  1.0
  H  H31  1  0.94596000  0.92190000  0.75015000  1.0
  H  H32  1  0.21660000  0.38758000  0.34916000  1.0
  H  H33  1  0.95286000  0.11287000  0.15072000  1.0
  H  H34  1  0.78341000  0.61242000  0.65084000  1.0
  H  H35  1  0.04715000  0.88713000  0.84928000  1.0
  H  H36  1  0.01981000  0.02893000  0.42863000  1.0
  H  H37  1  0.47625000  0.47164000  0.07069000  1.0
  H  H38  1  0.98019000  0.97108000  0.57137000  1.0
  H  H39  1  0.52375000  0.52835000  0.92931000  1.0
  H  H40  1  0.18104000  0.91372000  0.44890000  1.0
  H  H41  1  0.54272000  0.58655000  0.05085000  1.0
  H  H42  1  0.81896000  0.08628000  0.55110000  1.0
  H  H43  1  0.45729000  0.41345000  0.94915000  1.0
  H  H44  1  0.12187000  0.91280000  0.37903000  1.0
  H  H45  1  0.41344000  0.58756000  0.12042000  1.0
  H  H46  1  0.87812000  0.08720000  0.62098000  1.0
  H  H47  1  0.58657000  0.41244000  0.87958000  1.0
  H  H48  1  0.10934000  0.20001000  0.41655000  1.0
  H  H49  1  0.72521000  0.30037000  0.08300000  1.0
  H  H50  1  0.89067000  0.79999000  0.58345000  1.0
  H  H51  1  0.27479000  0.69962000  0.91700000  1.0
  C  C52  1  0.44873000  0.63414000  0.36916000  1.0
  C  C53  1  0.45166000  0.86604000  0.13064000  1.0
  C  C54  1  0.55127000  0.36587000  0.63084000  1.0
  C  C55  1  0.54833000  0.13396000  0.86936000  1.0
  C  C56  1  0.47335000  0.56485000  0.43709000  1.0
  C  C57  1  0.47515000  0.93526000  0.06282000  1.0
  C  C58  1  0.52665000  0.43516000  0.56291000  1.0
  C  C59  1  0.52484000  0.06473000  0.93718000  1.0
  C  C60  1  0.43853000  0.62801000  0.48912000  1.0
  C  C61  1  0.55541000  0.87201000  0.01093000  1.0
  C  C62  1  0.56146000  0.37199000  0.51088000  1.0
  C  C63  1  0.44459000  0.12799000  0.98907000  1.0
  C  C64  1  0.53507000  0.43658000  0.44807000  1.0
  C  C65  1  0.41977000  0.06354000  0.05178000  1.0
  C  C66  1  0.46493000  0.56342000  0.55193000  1.0
  C  C67  1  0.58023000  0.93645000  0.94822000  1.0
  C  C68  1  0.67742000  0.74982000  0.25007000  1.0
  C  C69  1  0.32257000  0.25019000  0.74993000  1.0
  C  C70  1  0.81331000  0.74985000  0.25004000  1.0
  C  C71  1  0.18669000  0.25015000  0.74996000  1.0
  C  C72  1  0.81932000  0.84965000  0.26632000  1.0
  C  C73  1  0.93497000  0.65006000  0.23375000  1.0
  C  C74  1  0.18067000  0.15036000  0.73368000  1.0
  C  C75  1  0.06503000  0.34995000  0.76625000  1.0
  C  C76  1  0.94522000  0.84903000  0.26702000  1.0
  C  C77  1  0.06090000  0.65087000  0.23292000  1.0
  C  C78  1  0.05478000  0.15097000  0.73298000  1.0
  C  C79  1  0.93910000  0.34913000  0.76708000  1.0
  C  C80  1  0.20284000  0.75016000  0.24981000  1.0
  C  C81  1  0.79716000  0.24985000  0.75019000  1.0
  C  C82  1  0.06704000  0.74999000  0.24993000  1.0
  C  C83  1  0.93296000  0.25001000  0.75007000  1.0
  C  C84  1  0.25404000  0.21104000  0.32838000  1.0
  C  C85  1  0.79300000  0.28910000  0.17160000  1.0
  C  C86  1  0.74597000  0.78896000  0.67162000  1.0
  C  C87  1  0.20700000  0.71090000  0.82840000  1.0
  C  C88  1  0.32422000  0.12380000  0.28597000  1.0
  C  C89  1  0.73378000  0.37608000  0.21419000  1.0
  C  C90  1  0.67579000  0.87619000  0.71403000  1.0
  C  C91  1  0.26622000  0.62392000  0.78581000  1.0
  C  C92  1  0.41699000  0.14309000  0.23033000  1.0
  C  C93  1  0.79057000  0.35660000  0.27005000  1.0
  C  C94  1  0.58301000  0.85690000  0.76967000  1.0
  C  C95  1  0.20943000  0.64340000  0.72995000  1.0
  C  C96  1  0.43525000  0.25135000  0.21896000  1.0
  C  C97  1  0.90578000  0.24837000  0.28147000  1.0
  C  C98  1  0.56475000  0.74865000  0.78104000  1.0
  C  C99  1  0.09422000  0.75163000  0.71853000  1.0
  C  C100  1  0.36410000  0.33844000  0.26111000  1.0
  C  C101  1  0.96366000  0.16156000  0.23913000  1.0
  C  C102  1  0.63590000  0.66156000  0.73889000  1.0
  C  C103  1  0.03635000  0.83844000  0.76087000  1.0
  C  C104  1  0.27163000  0.31990000  0.31680000  1.0
  C  C105  1  0.90799000  0.18034000  0.18322000  1.0
  C  C106  1  0.72837000  0.68010000  0.68320000  1.0
  C  C107  1  0.09202000  0.81965000  0.81678000  1.0
  C  C108  1  0.19435000  0.05125000  0.36508000  1.0
  C  C109  1  0.61008000  0.44882000  0.13471000  1.0
  C  C110  1  0.80566000  0.94875000  0.63492000  1.0
  C  C111  1  0.38993000  0.55117000  0.86529000  1.0
  C  C112  1  0.12472000  0.97266000  0.40792000  1.0
  C  C113  1  0.50457000  0.52762000  0.09165000  1.0
  C  C114  1  0.87528000  0.02734000  0.59208000  1.0
  C  C115  1  0.49544000  0.47238000  0.90835000  1.0
  N  N116  1  0.17380000  0.16143000  0.37772000  1.0
  N  N117  1  0.71225000  0.33879000  0.12203000  1.0
  N  N118  1  0.82620000  0.83857000  0.62228000  1.0
  N  N119  1  0.28776000  0.66121000  0.87797000  1.0
  N  N120  1  0.28393000  0.02656000  0.31019000  1.0
  N  N121  1  0.62032000  0.47330000  0.18983000  1.0
  N  N122  1  0.71607000  0.97344000  0.68981000  1.0
  N  N123  1  0.37968000  0.52670000  0.81017000  1.0
  O  O124  1  0.40713000  0.74998000  0.36085000  1.0
  O  O125  1  0.51712000  0.75011000  0.13898000  1.0
  O  O126  1  0.59287000  0.25002000  0.63915000  1.0
  O  O127  1  0.48287000  0.24988000  0.86102000  1.0
  O  O128  1  0.47307000  0.57169000  0.32514000  1.0
  O  O129  1  0.36978000  0.92858000  0.17452000  1.0
  O  O130  1  0.52693000  0.42831000  0.67486000  1.0
  O  O131  1  0.63021000  0.07142000  0.82548000  1.0
  O  O132  1  0.57234000  0.84965000  0.25582000  1.0
  O  O133  1  0.67774000  0.64995000  0.24434000  1.0
  O  O134  1  0.42766000  0.15035000  0.74417000  1.0
  O  O135  1  0.32226000  0.35005000  0.75566000  1.0
  O  O136  1  0.20179000  0.82977000  0.27780000  1.0
  O  O137  1  0.30882000  0.67076000  0.22170000  1.0
  O  O138  1  0.79821000  0.17023000  0.72220000  1.0
  O  O139  1  0.69117000  0.32924000  0.77831000  1.0
