# generated using pymatgen
data_HgH10C14S2(BrN2)2
_symmetry_space_group_name_H-M   'P 1'
_cell_length_a   9.61993000
_cell_length_b   10.28320000
_cell_length_c   10.28320000
_cell_angle_alpha   74.52790000
_cell_angle_beta   68.81350000
_cell_angle_gamma   68.81340000
_symmetry_Int_Tables_number   1
_chemical_formula_structural   HgH10C14S2(BrN2)2
_chemical_formula_sum   'Hg2 H20 C28 S4 Br4 N8'
_cell_volume   873.47149044
_cell_formula_units_Z   2
loop_
 _symmetry_equiv_pos_site_id
 _symmetry_equiv_pos_as_xyz
  1  'x, y, z'
loop_
 _atom_site_type_symbol
 _atom_site_label
 _atom_site_symmetry_multiplicity
 _atom_site_fract_x
 _atom_site_fract_y
 _atom_site_fract_z
 _atom_site_occupancy
  Hg  Hg0  1  0.25000000  0.74611000  0.25389000  1.0
  Hg  Hg1  1  0.75000000  0.25389000  0.74611000  1.0
  H  H2  1  0.04775000  0.60935000  0.89235000  1.0
  H  H3  1  0.45225000  0.10765000  0.39065000  1.0
  H  H4  1  0.95225000  0.39065000  0.10765000  1.0
  H  H5  1  0.54775000  0.89235000  0.60935000  1.0
  H  H6  1  0.08549000  0.80576000  0.68794000  1.0
  H  H7  1  0.41451000  0.31206000  0.19424000  1.0
  H  H8  1  0.91451000  0.19424000  0.31206000  1.0
  H  H9  1  0.58549000  0.68794000  0.80576000  1.0
  H  H10  1  0.19711000  0.98454000  0.70744000  1.0
  H  H11  1  0.30289000  0.29256000  0.01546000  1.0
  H  H12  1  0.80289000  0.01546000  0.29256000  1.0
  H  H13  1  0.69711000  0.70744000  0.98454000  1.0
  H  H14  1  0.27339000  0.95593000  0.92097000  1.0
  H  H15  1  0.22661000  0.07903000  0.04407000  1.0
  H  H16  1  0.72661000  0.04407000  0.07903000  1.0
  H  H17  1  0.77339000  0.92097000  0.95593000  1.0
  H  H18  1  0.89214000  0.45943000  0.42552000  1.0
  H  H19  1  0.60786000  0.57448000  0.54057000  1.0
  H  H20  1  0.10786000  0.54057000  0.57447000  1.0
  H  H21  1  0.39214000  0.42552000  0.45943000  1.0
  C  C22  1  0.13264000  0.68680000  0.01510000  1.0
  C  C23  1  0.36736000  0.98490000  0.31321000  1.0
  C  C24  1  0.86736000  0.31321000  0.98490000  1.0
  C  C25  1  0.63264000  0.01510000  0.68680000  1.0
  C  C26  1  0.09584000  0.68931000  0.89495000  1.0
  C  C27  1  0.40416000  0.10505000  0.31069000  1.0
  C  C28  1  0.90416000  0.31069000  0.10505000  1.0
  C  C29  1  0.59584000  0.89495000  0.68932000  1.0
  C  C30  1  0.11728000  0.79813000  0.78208000  1.0
  C  C31  1  0.38272000  0.21792000  0.20187000  1.0
  C  C32  1  0.88272000  0.20187000  0.21792000  1.0
  C  C33  1  0.61728000  0.78208000  0.79813000  1.0
  C  C34  1  0.17969000  0.89683000  0.79211000  1.0
  C  C35  1  0.32031000  0.20789000  0.10318000  1.0
  C  C36  1  0.82031000  0.10318000  0.20789000  1.0
  C  C37  1  0.67969000  0.79211000  0.89683000  1.0
  C  C38  1  0.21905000  0.88302000  0.91370000  1.0
  C  C39  1  0.28095000  0.08630000  0.11698000  1.0
  C  C40  1  0.78095000  0.11698000  0.08630000  1.0
  C  C41  1  0.71905000  0.91370000  0.88302000  1.0
  C  C42  1  0.89980000  0.63186000  0.24657000  1.0
  C  C43  1  0.60020000  0.75343000  0.36814000  1.0
  C  C44  1  0.10020000  0.36814000  0.75343000  1.0
  C  C45  1  0.39980000  0.24657000  0.63186000  1.0
  C  C46  1  0.82756000  0.56040000  0.37690000  1.0
  C  C47  1  0.67244000  0.62310000  0.43960000  1.0
  C  C48  1  0.17244000  0.43960000  0.62310000  1.0
  C  C49  1  0.32756000  0.37689000  0.56040000  1.0
  S  S50  1  0.09961000  0.55438000  0.16473000  1.0
  S  S51  1  0.40039000  0.83527000  0.44561000  1.0
  S  S52  1  0.90039000  0.44561000  0.83527000  1.0
  S  S53  1  0.59961000  0.16473000  0.55439000  1.0
  Br  Br54  1  0.99328000  0.80546000  0.45493000  1.0
  Br  Br55  1  0.50672000  0.54507000  0.19454000  1.0
  Br  Br56  1  0.00672000  0.19454000  0.54507000  1.0
  Br  Br57  1  0.49328000  0.45493000  0.80546000  1.0
  N  N58  1  0.19384000  0.78110000  0.02477000  1.0
  N  N59  1  0.30616000  0.97523000  0.21890000  1.0
  N  N60  1  0.80616000  0.21890000  0.97523000  1.0
  N  N61  1  0.69384000  0.02477000  0.78110000  1.0
  N  N62  1  0.82541000  0.75506000  0.18342000  1.0
  N  N63  1  0.67459000  0.81658000  0.24494000  1.0
  N  N64  1  0.17459000  0.24494000  0.81658000  1.0
  N  N65  1  0.32541000  0.18342000  0.75506000  1.0
