# generated using pymatgen
data_NiH20(C14N3)2
_symmetry_space_group_name_H-M   'P 1'
_cell_length_a   9.07710000
_cell_length_b   9.62156000
_cell_length_c   15.08620000
_cell_angle_alpha   77.75260000
_cell_angle_beta   72.52750000
_cell_angle_gamma   61.85700000
_symmetry_Int_Tables_number   1
_chemical_formula_structural   NiH20(C14N3)2
_chemical_formula_sum   'Ni2 H40 C56 N12'
_cell_volume   1104.28931622
_cell_formula_units_Z   2
loop_
 _symmetry_equiv_pos_site_id
 _symmetry_equiv_pos_as_xyz
  1  'x, y, z'
loop_
 _atom_site_type_symbol
 _atom_site_label
 _atom_site_symmetry_multiplicity
 _atom_site_fract_x
 _atom_site_fract_y
 _atom_site_fract_z
 _atom_site_occupancy
  Ni  Ni0  1  0.50976000  0.24991000  0.74998000  1.0
  Ni  Ni1  1  0.49024000  0.75009000  0.25002000  1.0
  H  H2  1  0.25469000  0.24960000  0.95140000  1.0
  H  H3  1  0.45561000  0.25042000  0.54856000  1.0
  H  H4  1  0.74530000  0.75041000  0.04859000  1.0
  H  H5  1  0.54440000  0.74957000  0.45144000  1.0
  H  H6  1  0.10307000  0.48913000  0.06464000  1.0
  H  H7  1  0.65622000  0.01089000  0.43533000  1.0
  H  H8  1  0.89693000  0.51087000  0.93536000  1.0
  H  H9  1  0.34378000  0.98911000  0.56468000  1.0
  H  H10  1  0.22266000  0.70491000  0.97620000  1.0
  H  H11  1  0.90354000  0.79510000  0.52361000  1.0
  H  H12  1  0.77733000  0.29510000  0.02380000  1.0
  H  H13  1  0.09646000  0.20489000  0.47639000  1.0
  H  H14  1  0.65420000  0.73647000  0.64157000  1.0
  H  H15  1  0.03280000  0.76359000  0.85827000  1.0
  H  H16  1  0.34581000  0.26353000  0.35843000  1.0
  H  H17  1  0.96720000  0.23640000  0.14173000  1.0
  H  H18  1  0.86027000  0.52639000  0.51253000  1.0
  H  H19  1  0.89948000  0.97334000  0.98757000  1.0
  H  H20  1  0.13973000  0.47361000  0.48748000  1.0
  H  H21  1  0.10052000  0.02667000  0.01243000  1.0
  H  H22  1  0.80192000  0.26377000  0.57569000  1.0
  H  H23  1  0.64142000  0.23589000  0.92447000  1.0
  H  H24  1  0.19808000  0.73623000  0.42432000  1.0
  H  H25  1  0.35858000  0.76411000  0.07552000  1.0
  H  H26  1  0.27148000  0.88084000  0.70344000  1.0
  H  H27  1  0.85584000  0.61936000  0.79639000  1.0
  H  H28  1  0.72852000  0.11916000  0.29656000  1.0
  H  H29  1  0.14416000  0.38063000  0.20361000  1.0
  H  H30  1  0.25992000  0.14457000  0.70506000  1.0
  H  H31  1  0.10954000  0.35551000  0.79484000  1.0
  H  H32  1  0.74008000  0.85544000  0.29494000  1.0
  H  H33  1  0.89046000  0.64448000  0.20515000  1.0
  H  H34  1  0.52332000  0.97835000  0.91557000  1.0
  H  H35  1  0.41702000  0.52141000  0.58429000  1.0
  H  H36  1  0.47668000  0.02165000  0.08443000  1.0
  H  H37  1  0.58298000  0.47859000  0.41571000  1.0
  H  H38  1  0.55500000  0.70626000  0.91849000  1.0
  H  H39  1  0.17993000  0.79368000  0.58148000  1.0
  H  H40  1  0.44500000  0.29374000  0.08151000  1.0
  H  H41  1  0.82008000  0.20632000  0.41852000  1.0
  C  C42  1  0.27350000  0.35626000  0.93926000  1.0
  C  C43  1  0.56902000  0.14379000  0.56064000  1.0
  C  C44  1  0.72650000  0.64374000  0.06074000  1.0
  C  C45  1  0.43099000  0.85621000  0.43936000  1.0
  C  C46  1  0.19561000  0.48160000  0.99860000  1.0
  C  C47  1  0.67552000  0.01844000  0.50130000  1.0
  C  C48  1  0.80439000  0.51841000  0.00140000  1.0
  C  C49  1  0.32448000  0.98155000  0.49871000  1.0
  C  C50  1  0.25606000  0.59214000  0.95300000  1.0
  C  C51  1  0.80106000  0.90784000  0.54685000  1.0
  C  C52  1  0.74393000  0.40786000  0.04700000  1.0
  C  C53  1  0.19894000  0.09215000  0.45316000  1.0
  C  C54  1  0.37000000  0.53108000  0.86655000  1.0
  C  C55  1  0.76776000  0.96888000  0.63329000  1.0
  C  C56  1  0.62999000  0.46893000  0.13344000  1.0
  C  C57  1  0.23224000  0.03112000  0.36671000  1.0
  C  C58  1  0.45581000  0.60656000  0.79617000  1.0
  C  C59  1  0.85878000  0.89352000  0.70367000  1.0
  C  C60  1  0.54419000  0.39344000  0.20383000  1.0
  C  C61  1  0.14122000  0.10647000  0.29633000  1.0
  C  C62  1  0.57264000  0.54477000  0.71310000  1.0
  C  C63  1  0.83089000  0.95535000  0.78674000  1.0
  C  C64  1  0.42736000  0.45523000  0.28690000  1.0
  C  C65  1  0.16911000  0.04465000  0.21326000  1.0
  C  C66  1  0.66521000  0.61905000  0.64225000  1.0
  C  C67  1  0.92703000  0.88096000  0.85760000  1.0
  C  C68  1  0.33479000  0.38095000  0.35775000  1.0
  C  C69  1  0.07298000  0.11904000  0.14240000  1.0
  C  C70  1  0.77207000  0.51088000  0.57640000  1.0
  C  C71  1  0.85973000  0.98891000  0.92362000  1.0
  C  C72  1  0.22793000  0.48912000  0.42360000  1.0
  C  C73  1  0.14027000  0.01109000  0.07638000  1.0
  C  C74  1  0.74244000  0.37381000  0.60838000  1.0
  C  C75  1  0.72485000  0.12594000  0.89171000  1.0
  C  C76  1  0.25756000  0.62619000  0.39162000  1.0
  C  C77  1  0.27515000  0.87407000  0.10828000  1.0
  C  C78  1  0.42119000  0.76977000  0.80809000  1.0
  C  C79  1  0.99918000  0.73027000  0.69181000  1.0
  C  C80  1  0.57880000  0.23023000  0.19191000  1.0
  C  C81  1  0.00082000  0.26973000  0.30819000  1.0
  C  C82  1  0.33025000  0.89792000  0.75085000  1.0
  C  C83  1  0.97906000  0.60215000  0.74903000  1.0
  C  C84  1  0.66975000  0.10208000  0.24915000  1.0
  C  C85  1  0.02094000  0.39784000  0.25097000  1.0
  C  C86  1  0.32146000  0.04533000  0.75282000  1.0
  C  C87  1  0.11960000  0.45470000  0.74707000  1.0
  C  C88  1  0.67855000  0.95468000  0.24718000  1.0
  C  C89  1  0.88040000  0.54530000  0.25293000  1.0
  C  C90  1  0.46885000  0.95290000  0.86917000  1.0
  C  C91  1  0.29079000  0.54696000  0.63069000  1.0
  C  C92  1  0.53115000  0.04709000  0.13083000  1.0
  C  C93  1  0.70921000  0.45303000  0.36931000  1.0
  C  C94  1  0.48590000  0.80068000  0.87095000  1.0
  C  C95  1  0.15759000  0.69931000  0.62899000  1.0
  C  C96  1  0.51410000  0.19932000  0.12906000  1.0
  C  C97  1  0.84242000  0.30069000  0.37101000  1.0
  N  N98  1  0.37783000  0.38442000  0.86098000  1.0
  N  N99  1  0.62343000  0.11555000  0.63890000  1.0
  N  N100  1  0.62216000  0.61558000  0.13902000  1.0
  N  N101  1  0.37658000  0.88445000  0.36110000  1.0
  N  N102  1  0.62320000  0.39413000  0.68870000  1.0
  N  N103  1  0.70626000  0.10582000  0.81129000  1.0
  N  N104  1  0.37680000  0.60587000  0.31130000  1.0
  N  N105  1  0.29374000  0.89418000  0.18871000  1.0
  N  N106  1  0.39381000  0.07329000  0.80891000  1.0
  N  N107  1  0.27588000  0.42660000  0.69092000  1.0
  N  N108  1  0.60618000  0.92671000  0.19109000  1.0
  N  N109  1  0.72412000  0.57340000  0.30908000  1.0
