# generated using pymatgen
data_CuH11C11N5O3
_symmetry_space_group_name_H-M   'P 1'
_cell_length_a   7.61436000
_cell_length_b   9.03680000
_cell_length_c   9.61811000
_cell_angle_alpha   71.80710000
_cell_angle_beta   70.92930000
_cell_angle_gamma   81.75890000
_symmetry_Int_Tables_number   1
_chemical_formula_structural   CuH11C11N5O3
_chemical_formula_sum   'Cu2 H22 C22 N10 O6'
_cell_volume   593.59602737
_cell_formula_units_Z   2
loop_
 _symmetry_equiv_pos_site_id
 _symmetry_equiv_pos_as_xyz
  1  'x, y, z'
loop_
 _atom_site_type_symbol
 _atom_site_label
 _atom_site_symmetry_multiplicity
 _atom_site_fract_x
 _atom_site_fract_y
 _atom_site_fract_z
 _atom_site_occupancy
  Cu  Cu0  1  0.44997000  0.14775000  0.54825000  1.0
  Cu  Cu1  1  0.55003000  0.85225000  0.45175000  1.0
  H  H2  1  0.36730000  0.48542000  0.46961000  1.0
  H  H3  1  0.63270000  0.51459000  0.53039000  1.0
  H  H4  1  0.11722000  0.66287000  0.57766000  1.0
  H  H5  1  0.88277000  0.33714000  0.42234000  1.0
  H  H6  1  0.82477000  0.54910000  0.77553000  1.0
  H  H7  1  0.17522000  0.45091000  0.22447000  1.0
  H  H8  1  0.06355000  0.09484000  0.73805000  1.0
  H  H9  1  0.93645000  0.90516000  0.26195000  1.0
  H  H10  1  0.97390000  0.35004000  0.05793000  1.0
  H  H11  1  0.02610000  0.64996000  0.94208000  1.0
  H  H12  1  0.98258000  0.14729000  0.07845000  1.0
  H  H13  1  0.01742000  0.85271000  0.92155000  1.0
  H  H14  1  0.83692000  0.22264000  0.23141000  1.0
  H  H15  1  0.16308000  0.77736000  0.76859000  1.0
  H  H16  1  0.31931000  0.36769000  0.04036000  1.0
  H  H17  1  0.68069000  0.63230000  0.95964000  1.0
  H  H18  1  0.36972000  0.16352000  0.08558000  1.0
  H  H19  1  0.63029000  0.83647000  0.91442000  1.0
  H  H20  1  0.57263000  0.41478000  0.80694000  1.0
  H  H21  1  0.42737000  0.58522000  0.19306000  1.0
  H  H22  1  0.77427000  0.10580000  0.91958000  1.0
  H  H23  1  0.22573000  0.89420000  0.08042000  1.0
  C  C24  1  0.23982000  0.43925000  0.55621000  1.0
  C  C25  1  0.76018000  0.56075000  0.44379000  1.0
  C  C26  1  0.09907000  0.53777000  0.61811000  1.0
  C  C27  1  0.90092000  0.46224000  0.38189000  1.0
  C  C28  1  0.93818000  0.47338000  0.72822000  1.0
  C  C29  1  0.06182000  0.52662000  0.27177000  1.0
  C  C30  1  0.92121000  0.31148000  0.77501000  1.0
  C  C31  1  0.07879000  0.68853000  0.22499000  1.0
  C  C32  1  0.06837000  0.22132000  0.70681000  1.0
  C  C33  1  0.93163000  0.77869000  0.29319000  1.0
  C  C34  1  0.75566000  0.23321000  0.90092000  1.0
  C  C35  1  0.24434000  0.76679000  0.09908000  1.0
  C  C36  1  0.89050000  0.24576000  0.10670000  1.0
  C  C37  1  0.10950000  0.75424000  0.89330000  1.0
  C  C38  1  0.55574000  0.28719000  0.12856000  1.0
  C  C39  1  0.44426000  0.71280000  0.87144000  1.0
  C  C40  1  0.43244000  0.27778000  0.03637000  1.0
  C  C41  1  0.56756000  0.72221000  0.96363000  1.0
  C  C42  1  0.56338000  0.29173000  0.87508000  1.0
  C  C43  1  0.43662000  0.70826000  0.12492000  1.0
  C  C44  1  0.50444000  0.20200000  0.78816000  1.0
  C  C45  1  0.49557000  0.79800000  0.21184000  1.0
  N  N46  1  0.32629000  0.99491000  0.50155000  1.0
  N  N47  1  0.67371000  0.00509000  0.49845000  1.0
  N  N48  1  0.22807000  0.03849000  0.41750000  1.0
  N  N49  1  0.77193000  0.96151000  0.58250000  1.0
  N  N50  1  0.13098000  0.07852000  0.34040000  1.0
  N  N51  1  0.86901000  0.92148000  0.65961000  1.0
  N  N52  1  0.22393000  0.28404000  0.60016000  1.0
  N  N53  1  0.77607000  0.71596000  0.39984000  1.0
  N  N54  1  0.73524000  0.26607000  0.04601000  1.0
  N  N55  1  0.26476000  0.73393000  0.95398000  1.0
  O  O56  1  0.57503000  0.25190000  0.63965000  1.0
  O  O57  1  0.42497000  0.74810000  0.36034000  1.0
  O  O58  1  0.39545000  0.09358000  0.85558000  1.0
  O  O59  1  0.60456000  0.90642000  0.14441000  1.0
  O  O60  1  0.50399000  0.30878000  0.25807000  1.0
  O  O61  1  0.49601000  0.69122000  0.74193000  1.0
