# generated using pymatgen
data_NaGdH6(CO2)5
_symmetry_space_group_name_H-M   'P 1'
_cell_length_a   6.20687000
_cell_length_b   9.52780000
_cell_length_c   15.66830000
_cell_angle_alpha   89.99990000
_cell_angle_beta   92.71400000
_cell_angle_gamma   89.99960000
_symmetry_Int_Tables_number   1
_chemical_formula_structural   NaGdH6(CO2)5
_chemical_formula_sum   'Na4 Gd4 H24 C20 O40'
_cell_volume   925.54971957
_cell_formula_units_Z   4
loop_
 _symmetry_equiv_pos_site_id
 _symmetry_equiv_pos_as_xyz
  1  'x, y, z'
loop_
 _atom_site_type_symbol
 _atom_site_label
 _atom_site_symmetry_multiplicity
 _atom_site_fract_x
 _atom_site_fract_y
 _atom_site_fract_z
 _atom_site_occupancy
  Na  Na0  1  0.01906000  0.96876000  0.72682000  1.0
  Na  Na1  1  0.98095000  0.46876000  0.77318000  1.0
  Na  Na2  1  0.98094000  0.03124000  0.27318000  1.0
  Na  Na3  1  0.01905000  0.53124000  0.22682000  1.0
  Gd  Gd4  1  0.56588000  0.97450000  0.87859000  1.0
  Gd  Gd5  1  0.43412000  0.47450000  0.62141000  1.0
  Gd  Gd6  1  0.43410000  0.02550000  0.12141000  1.0
  Gd  Gd7  1  0.56589000  0.52549000  0.37859000  1.0
  H  H8  1  0.33621000  0.47097000  0.92534000  1.0
  H  H9  1  0.66379000  0.97097000  0.57466000  1.0
  H  H10  1  0.66378000  0.52903000  0.07466000  1.0
  H  H11  1  0.33622000  0.02903000  0.42534000  1.0
  H  H12  1  0.61997000  0.47526000  0.91727000  1.0
  H  H13  1  0.38004000  0.97525000  0.58273000  1.0
  H  H14  1  0.38004000  0.52474000  0.08273000  1.0
  H  H15  1  0.61998000  0.02474000  0.41727000  1.0
  H  H16  1  0.93937000  0.71793000  0.64641000  1.0
  H  H17  1  0.06063000  0.21793000  0.85359000  1.0
  H  H18  1  0.06064000  0.28207000  0.35360000  1.0
  H  H19  1  0.93936000  0.78207000  0.14640000  1.0
  H  H20  1  0.14064000  0.77169000  0.59974000  1.0
  H  H21  1  0.85936000  0.27169000  0.90026000  1.0
  H  H22  1  0.85936000  0.22831000  0.40026000  1.0
  H  H23  1  0.14063000  0.72831000  0.09974000  1.0
  H  H24  1  0.93914000  0.21599000  0.63228000  1.0
  H  H25  1  0.06086000  0.71599000  0.86772000  1.0
  H  H26  1  0.06086000  0.78401000  0.36772000  1.0
  H  H27  1  0.93914000  0.28402000  0.13228000  1.0
  H  H28  1  0.12820000  0.16585000  0.57807000  1.0
  H  H29  1  0.87180000  0.66585000  0.92193000  1.0
  H  H30  1  0.87179000  0.83415000  0.42193000  1.0
  H  H31  1  0.12821000  0.33415000  0.07807000  1.0
  C  C32  1  0.37816000  0.21756000  0.75247000  1.0
  C  C33  1  0.62185000  0.71758000  0.74753000  1.0
  C  C34  1  0.62184000  0.78244000  0.24753000  1.0
  C  C35  1  0.37815000  0.28242000  0.25247000  1.0
  C  C36  1  0.61978000  0.21305000  0.73501000  1.0
  C  C37  1  0.38023000  0.71307000  0.76500000  1.0
  C  C38  1  0.38022000  0.78695000  0.26499000  1.0
  C  C39  1  0.61977000  0.28694000  0.23500000  1.0
  C  C40  1  0.06366000  0.99081000  0.95954000  1.0
  C  C41  1  0.93633000  0.49081000  0.54046000  1.0
  C  C42  1  0.93632000  0.00920000  0.04046000  1.0
  C  C43  1  0.06367000  0.50919000  0.45955000  1.0
  C  C44  1  0.49721000  0.29620000  0.98042000  1.0
  C  C45  1  0.50279000  0.79620000  0.51958000  1.0
  C  C46  1  0.50278000  0.70380000  0.01958000  1.0
  C  C47  1  0.49723000  0.20379000  0.48042000  1.0
  C  C48  1  0.49135000  0.45229000  0.96086000  1.0
  C  C49  1  0.50866000  0.95228000  0.53914000  1.0
  C  C50  1  0.50866000  0.54771000  0.03915000  1.0
  C  C51  1  0.49136000  0.04771000  0.46086000  1.0
  O  O52  1  0.30222000  0.11495000  0.79322000  1.0
  O  O53  1  0.69779000  0.61493000  0.70677000  1.0
  O  O54  1  0.69778000  0.88506000  0.20678000  1.0
  O  O55  1  0.30220000  0.38506000  0.29323000  1.0
  O  O56  1  0.27466000  0.32309000  0.72482000  1.0
  O  O57  1  0.72533000  0.82308000  0.77517000  1.0
  O  O58  1  0.72534000  0.67691000  0.27518000  1.0
  O  O59  1  0.27466000  0.17692000  0.22483000  1.0
  O  O60  1  0.72399000  0.10880000  0.76440000  1.0
  O  O61  1  0.27600000  0.60879000  0.73560000  1.0
  O  O62  1  0.27600000  0.89120000  0.23560000  1.0
  O  O63  1  0.72399000  0.39121000  0.26440000  1.0
  O  O64  1  0.69483000  0.31474000  0.69323000  1.0
  O  O65  1  0.30518000  0.81473000  0.80676000  1.0
  O  O66  1  0.30517000  0.68526000  0.30677000  1.0
  O  O67  1  0.69481000  0.18527000  0.19323000  1.0
  O  O68  1  0.26841000  0.99550000  0.97005000  1.0
  O  O69  1  0.73159000  0.49550000  0.52995000  1.0
  O  O70  1  0.73157000  0.00450000  0.02995000  1.0
  O  O71  1  0.26843000  0.50450000  0.47005000  1.0
  O  O72  1  0.95680000  0.97282000  0.89040000  1.0
  O  O73  1  0.04320000  0.47282000  0.60960000  1.0
  O  O74  1  0.04318000  0.02718000  0.10959000  1.0
  O  O75  1  0.95682000  0.52718000  0.39041000  1.0
  O  O76  1  0.58440000  0.21724000  0.92546000  1.0
  O  O77  1  0.41560000  0.71724000  0.57454000  1.0
  O  O78  1  0.41558000  0.78276000  0.07454000  1.0
  O  O79  1  0.58442000  0.28276000  0.42546000  1.0
  O  O80  1  0.41246000  0.25022000  0.04753000  1.0
  O  O81  1  0.58754000  0.75021000  0.45247000  1.0
  O  O82  1  0.58753000  0.74979000  0.95247000  1.0
  O  O83  1  0.41247000  0.24978000  0.54753000  1.0
  O  O84  1  0.99646000  0.79974000  0.61719000  1.0
  O  O85  1  0.00354000  0.29974000  0.88281000  1.0
  O  O86  1  0.00354000  0.20026000  0.38281000  1.0
  O  O87  1  0.99645000  0.70026000  0.11719000  1.0
  O  O88  1  0.00207000  0.13191000  0.60744000  1.0
  O  O89  1  0.99793000  0.63191000  0.89256000  1.0
  O  O90  1  0.99793000  0.86809000  0.39257000  1.0
  O  O91  1  0.00208000  0.36809000  0.10744000  1.0
