# generated using pymatgen
data_CoH20C30(N2O3)2
_symmetry_space_group_name_H-M   'P 1'
_cell_length_a   15.10730000
_cell_length_b   15.10650000
_cell_length_c   16.00170000
_cell_angle_alpha   85.69030000
_cell_angle_beta   85.69740000
_cell_angle_gamma   85.43230000
_symmetry_Int_Tables_number   1
_chemical_formula_structural   CoH20C30(N2O3)2
_chemical_formula_sum   'Co4 H80 C120 N16 O24'
_cell_volume   3621.22468186
_cell_formula_units_Z   4
loop_
 _symmetry_equiv_pos_site_id
 _symmetry_equiv_pos_as_xyz
  1  'x, y, z'
loop_
 _atom_site_type_symbol
 _atom_site_label
 _atom_site_symmetry_multiplicity
 _atom_site_fract_x
 _atom_site_fract_y
 _atom_site_fract_z
 _atom_site_occupancy
  Co  Co0  1  0.22914000  0.20508000  0.24111000  1.0
  Co  Co1  1  0.79499000  0.77081000  0.25889000  1.0
  Co  Co2  1  0.77084000  0.79499000  0.75886000  1.0
  Co  Co3  1  0.20500000  0.22918000  0.74113000  1.0
  H  H4  1  0.92701000  0.48575000  0.42315000  1.0
  H  H5  1  0.51426000  0.07296000  0.07692000  1.0
  H  H6  1  0.07297000  0.51429000  0.57692000  1.0
  H  H7  1  0.48574000  0.92704000  0.92314000  1.0
  H  H8  1  0.58554000  0.38378000  0.57897000  1.0
  H  H9  1  0.61619000  0.41443000  0.92109000  1.0
  H  H10  1  0.41444000  0.61624000  0.42107000  1.0
  H  H11  1  0.38384000  0.58559000  0.07896000  1.0
  H  H12  1  0.06568000  0.11653000  0.87043000  1.0
  H  H13  1  0.88338000  0.93435000  0.62961000  1.0
  H  H14  1  0.93441000  0.88324000  0.12961000  1.0
  H  H15  1  0.11657000  0.06568000  0.37041000  1.0
  H  H16  1  0.15047000  0.17502000  0.97818000  1.0
  H  H17  1  0.82498000  0.84946000  0.52189000  1.0
  H  H18  1  0.84947000  0.82493000  0.02189000  1.0
  H  H19  1  0.17500000  0.15056000  0.47813000  1.0
  H  H20  1  0.04171000  0.98761000  0.16764000  1.0
  H  H21  1  0.01224000  0.95838000  0.33241000  1.0
  H  H22  1  0.95842000  0.01220000  0.83242000  1.0
  H  H23  1  0.98772000  0.04166000  0.66762000  1.0
  H  H24  1  0.61163000  0.96006000  0.35884000  1.0
  H  H25  1  0.03988000  0.38831000  0.14107000  1.0
  H  H26  1  0.38835000  0.03979000  0.64102000  1.0
  H  H27  1  0.96009000  0.61170000  0.85893000  1.0
  H  H28  1  0.49337000  0.04114000  0.27551000  1.0
  H  H29  1  0.95888000  0.50659000  0.22441000  1.0
  H  H30  1  0.50668000  0.95880000  0.72434000  1.0
  H  H31  1  0.04108000  0.49342000  0.77558000  1.0
  H  H32  1  0.33709000  0.10158000  0.50251000  1.0
  H  H33  1  0.89835000  0.66292000  0.99745000  1.0
  H  H34  1  0.66291000  0.89830000  0.49734000  1.0
  H  H35  1  0.10158000  0.33706000  0.00254000  1.0
  H  H36  1  0.66648000  0.40662000  0.48782000  1.0
  H  H37  1  0.59337000  0.33350000  0.01217000  1.0
  H  H38  1  0.33352000  0.59341000  0.51221000  1.0
  H  H39  1  0.40666000  0.66649000  0.98780000  1.0
  H  H40  1  0.61833000  0.67279000  0.57353000  1.0
  H  H41  1  0.32720000  0.38164000  0.92647000  1.0
  H  H42  1  0.38160000  0.32725000  0.42646000  1.0
  H  H43  1  0.67282000  0.61836000  0.07353000  1.0
  H  H44  1  0.75337000  0.71702000  0.48588000  1.0
  H  H45  1  0.28298000  0.24660000  0.01417000  1.0
  H  H46  1  0.24659000  0.28301000  0.51417000  1.0
  H  H47  1  0.71704000  0.75341000  0.98586000  1.0
  H  H48  1  0.84552000  0.60661000  0.40545000  1.0
  H  H49  1  0.39342000  0.15447000  0.09461000  1.0
  H  H50  1  0.15449000  0.39343000  0.59463000  1.0
  H  H51  1  0.60659000  0.84556000  0.90543000  1.0
  H  H52  1  0.02422000  0.19747000  0.24511000  1.0
  H  H53  1  0.80263000  0.97577000  0.25485000  1.0
  H  H54  1  0.97579000  0.80263000  0.75489000  1.0
  H  H55  1  0.19744000  0.02424000  0.74512000  1.0
  H  H56  1  0.89248000  0.29409000  0.29736000  1.0
  H  H57  1  0.70599000  0.10752000  0.20262000  1.0
  H  H58  1  0.10753000  0.70599000  0.70267000  1.0
  H  H59  1  0.29409000  0.89250000  0.79735000  1.0
  H  H60  1  0.07607000  0.43743000  0.42172000  1.0
  H  H61  1  0.56262000  0.92390000  0.07832000  1.0
  H  H62  1  0.92393000  0.56273000  0.57821000  1.0
  H  H63  1  0.43737000  0.07612000  0.92175000  1.0
  H  H64  1  0.19843000  0.33490000  0.36434000  1.0
  H  H65  1  0.66518000  0.80154000  0.13568000  1.0
  H  H66  1  0.80159000  0.66530000  0.63555000  1.0
  H  H67  1  0.33480000  0.19847000  0.86439000  1.0
  H  H68  1  0.38177000  0.18123000  0.66290000  1.0
  H  H69  1  0.81878000  0.61815000  0.83717000  1.0
  H  H70  1  0.61824000  0.81877000  0.33713000  1.0
  H  H71  1  0.18124000  0.38187000  0.16286000  1.0
  H  H72  1  0.51365000  0.25540000  0.60091000  1.0
  H  H73  1  0.74457000  0.48629000  0.89917000  1.0
  H  H74  1  0.48635000  0.74462000  0.39912000  1.0
  H  H75  1  0.25545000  0.51373000  0.10086000  1.0
  H  H76  1  0.39618000  0.49908000  0.70321000  1.0
  H  H77  1  0.50095000  0.60380000  0.79677000  1.0
  H  H78  1  0.60377000  0.50092000  0.29681000  1.0
  H  H79  1  0.49909000  0.39619000  0.20322000  1.0
  H  H80  1  0.26990000  0.41326000  0.76272000  1.0
  H  H81  1  0.58681000  0.73005000  0.73722000  1.0
  H  H82  1  0.73007000  0.58673000  0.23729000  1.0
  H  H83  1  0.41324000  0.26992000  0.26273000  1.0
  C  C84  1  0.14883000  0.12166000  0.14487000  1.0
  C  C85  1  0.87836000  0.85111000  0.35518000  1.0
  C  C86  1  0.85113000  0.87832000  0.85518000  1.0
  C  C87  1  0.12163000  0.14891000  0.64484000  1.0
  C  C88  1  0.06049000  0.08860000  0.93542000  1.0
  C  C89  1  0.91130000  0.93956000  0.56463000  1.0
  C  C90  1  0.93962000  0.91119000  0.06464000  1.0
  C  C91  1  0.08865000  0.06047000  0.43539000  1.0
  C  C92  1  0.10782000  0.12076000  0.99526000  1.0
  C  C93  1  0.87919000  0.89216000  0.50479000  1.0
  C  C94  1  0.89219000  0.87913000  0.00480000  1.0
  C  C95  1  0.12079000  0.10785000  0.49523000  1.0
  C  C96  1  0.10068000  0.08417000  0.07981000  1.0
  C  C97  1  0.91577000  0.89931000  0.42026000  1.0
  C  C98  1  0.89935000  0.91571000  0.92026000  1.0
  C  C99  1  0.08421000  0.10070000  0.57977000  1.0
  C  C100  1  0.04641000  0.01529000  0.10261000  1.0
  C  C101  1  0.98458000  0.95367000  0.39743000  1.0
  C  C102  1  0.95371000  0.98451000  0.89744000  1.0
  C  C103  1  0.01538000  0.04637000  0.60258000  1.0
  C  C104  1  0.99656000  0.98112000  0.04270000  1.0
  C  C105  1  0.01872000  0.00355000  0.45734000  1.0
  C  C106  1  0.00360000  0.01863000  0.95736000  1.0
  C  C107  1  0.98124000  0.99649000  0.54268000  1.0
  C  C108  1  0.34102000  0.12807000  0.33496000  1.0
  C  C109  1  0.87195000  0.65895000  0.16500000  1.0
  C  C110  1  0.65900000  0.87190000  0.66491000  1.0
  C  C111  1  0.12798000  0.34103000  0.83499000  1.0
  C  C112  1  0.55043000  0.98889000  0.38998000  1.0
  C  C113  1  0.01105000  0.44953000  0.10993000  1.0
  C  C114  1  0.44954000  0.01097000  0.60987000  1.0
  C  C115  1  0.98891000  0.55047000  0.89006000  1.0
  C  C116  1  0.48606000  0.03465000  0.34386000  1.0
  C  C117  1  0.96533000  0.51390000  0.15606000  1.0
  C  C118  1  0.51395000  0.96526000  0.65598000  1.0
  C  C119  1  0.03462000  0.48610000  0.84393000  1.0
  C  C120  1  0.40881000  0.07611000  0.38496000  1.0
  C  C121  1  0.92386000  0.59116000  0.11497000  1.0
  C  C122  1  0.59119000  0.92379000  0.61489000  1.0
  C  C123  1  0.07608000  0.40883000  0.88501000  1.0
  C  C124  1  0.39679000  0.06925000  0.47182000  1.0
  C  C125  1  0.93068000  0.60321000  0.02812000  1.0
  C  C126  1  0.60320000  0.93060000  0.52802000  1.0
  C  C127  1  0.06927000  0.39678000  0.97188000  1.0
  C  C128  1  0.46056000  0.02033000  0.52072000  1.0
  C  C129  1  0.97955000  0.53943000  0.97921000  1.0
  C  C130  1  0.53941000  0.97950000  0.47913000  1.0
  C  C131  1  0.02039000  0.46056000  0.02079000  1.0
  C  C132  1  0.81519000  0.42557000  0.40176000  1.0
  C  C133  1  0.57446000  0.18480000  0.09826000  1.0
  C  C134  1  0.18481000  0.57448000  0.59828000  1.0
  C  C135  1  0.42556000  0.81521000  0.90175000  1.0
  C  C136  1  0.54967000  0.51568000  0.59154000  1.0
  C  C137  1  0.48432000  0.45030000  0.90843000  1.0
  C  C138  1  0.45028000  0.48435000  0.40846000  1.0
  C  C139  1  0.51572000  0.54968000  0.09154000  1.0
  C  C140  1  0.76350000  0.49744000  0.44797000  1.0
  C  C141  1  0.50257000  0.23647000  0.05205000  1.0
  C  C142  1  0.23648000  0.50260000  0.55208000  1.0
  C  C143  1  0.49746000  0.76353000  0.94795000  1.0
  C  C144  1  0.68531000  0.47406000  0.49367000  1.0
  C  C145  1  0.52593000  0.31468000  0.00633000  1.0
  C  C146  1  0.31468000  0.52597000  0.50636000  1.0
  C  C147  1  0.47409000  0.68532000  0.99366000  1.0
  C  C148  1  0.63347000  0.53639000  0.54031000  1.0
  C  C149  1  0.46360000  0.36650000  0.95968000  1.0
  C  C150  1  0.36648000  0.46364000  0.45971000  1.0
  C  C151  1  0.53643000  0.63349000  0.04030000  1.0
  C  C152  1  0.65924000  0.62394000  0.53803000  1.0
  C  C153  1  0.37605000  0.34074000  0.96198000  1.0
  C  C154  1  0.34071000  0.37610000  0.46199000  1.0
  C  C155  1  0.62397000  0.65926000  0.03802000  1.0
  C  C156  1  0.73542000  0.64832000  0.49021000  1.0
  C  C157  1  0.35168000  0.26457000  0.00982000  1.0
  C  C158  1  0.26455000  0.35172000  0.50983000  1.0
  C  C159  1  0.64834000  0.73544000  0.99020000  1.0
  C  C160  1  0.78828000  0.58521000  0.44565000  1.0
  C  C161  1  0.41481000  0.21170000  0.05440000  1.0
  C  C162  1  0.21170000  0.41483000  0.55442000  1.0
  C  C163  1  0.58521000  0.78831000  0.94562000  1.0
  C  C164  1  0.03243000  0.25224000  0.28378000  1.0
  C  C165  1  0.74785000  0.96755000  0.21621000  1.0
  C  C166  1  0.96758000  0.74787000  0.71621000  1.0
  C  C167  1  0.25220000  0.03245000  0.78378000  1.0
  C  C168  1  0.95915000  0.30558000  0.31292000  1.0
  C  C169  1  0.69449000  0.04084000  0.18708000  1.0
  C  C170  1  0.04086000  0.69451000  0.68709000  1.0
  C  C171  1  0.30557000  0.95917000  0.81291000  1.0
  C  C172  1  0.97349000  0.37492000  0.36302000  1.0
  C  C173  1  0.62513000  0.02649000  0.13700000  1.0
  C  C174  1  0.02651000  0.62518000  0.63698000  1.0
  C  C175  1  0.37490000  0.97353000  0.86302000  1.0
  C  C176  1  0.06122000  0.38552000  0.38211000  1.0
  C  C177  1  0.61454000  0.93875000  0.11791000  1.0
  C  C178  1  0.93879000  0.61463000  0.61783000  1.0
  C  C179  1  0.38546000  0.06126000  0.88213000  1.0
  C  C180  1  0.12984000  0.32905000  0.35034000  1.0
  C  C181  1  0.67103000  0.87014000  0.14967000  1.0
  C  C182  1  0.87018000  0.67112000  0.64958000  1.0
  C  C183  1  0.32897000  0.12987000  0.85038000  1.0
  C  C184  1  0.38781000  0.25130000  0.67151000  1.0
  C  C185  1  0.74872000  0.61213000  0.82854000  1.0
  C  C186  1  0.61218000  0.74869000  0.32853000  1.0
  C  C187  1  0.25131000  0.38789000  0.17147000  1.0
  C  C188  1  0.46132000  0.29313000  0.63691000  1.0
  C  C189  1  0.70686000  0.53862000  0.86314000  1.0
  C  C190  1  0.53867000  0.70688000  0.36312000  1.0
  C  C191  1  0.29316000  0.46139000  0.13688000  1.0
  C  C192  1  0.46546000  0.38469000  0.64586000  1.0
  C  C193  1  0.61531000  0.53450000  0.85416000  1.0
  C  C194  1  0.53451000  0.61532000  0.35416000  1.0
  C  C195  1  0.38472000  0.46550000  0.14585000  1.0
  C  C196  1  0.39594000  0.42879000  0.69345000  1.0
  C  C197  1  0.57124000  0.60403000  0.80654000  1.0
  C  C198  1  0.60403000  0.57122000  0.30657000  1.0
  C  C199  1  0.42880000  0.39596000  0.19345000  1.0
  C  C200  1  0.32535000  0.38061000  0.72641000  1.0
  C  C201  1  0.61944000  0.67460000  0.77357000  1.0
  C  C202  1  0.67462000  0.61938000  0.27361000  1.0
  C  C203  1  0.38061000  0.32538000  0.22640000  1.0
  N  N204  1  0.11673000  0.26356000  0.30080000  1.0
  N  N205  1  0.73652000  0.88325000  0.19920000  1.0
  N  N206  1  0.88328000  0.73657000  0.69916000  1.0
  N  N207  1  0.26350000  0.11676000  0.80082000  1.0
  N  N208  1  0.90636000  0.43401000  0.39460000  1.0
  N  N209  1  0.56602000  0.09362000  0.10544000  1.0
  N  N210  1  0.09363000  0.56605000  0.60545000  1.0
  N  N211  1  0.43400000  0.90639000  0.89459000  1.0
  N  N212  1  0.31921000  0.29379000  0.71502000  1.0
  N  N213  1  0.70625000  0.68073000  0.78498000  1.0
  N  N214  1  0.68078000  0.70620000  0.28500000  1.0
  N  N215  1  0.29379000  0.31927000  0.21500000  1.0
  N  N216  1  0.53812000  0.42569000  0.60649000  1.0
  N  N217  1  0.57430000  0.46185000  0.89353000  1.0
  N  N218  1  0.46184000  0.57433000  0.39353000  1.0
  N  N219  1  0.42573000  0.53816000  0.10649000  1.0
  O  O220  1  0.14790000  0.08801000  0.21988000  1.0
  O  O221  1  0.91202000  0.85207000  0.28018000  1.0
  O  O222  1  0.85201000  0.91205000  0.78021000  1.0
  O  O223  1  0.08798000  0.14792000  0.71985000  1.0
  O  O224  1  0.19068000  0.19312000  0.12454000  1.0
  O  O225  1  0.80694000  0.80919000  0.37550000  1.0
  O  O226  1  0.80930000  0.80683000  0.87546000  1.0
  O  O227  1  0.19304000  0.19083000  0.62452000  1.0
  O  O228  1  0.33802000  0.11502000  0.25662000  1.0
  O  O229  1  0.88506000  0.66196000  0.24333000  1.0
  O  O230  1  0.66201000  0.88502000  0.74324000  1.0
  O  O231  1  0.11493000  0.33807000  0.75665000  1.0
  O  O232  1  0.28647000  0.18578000  0.36877000  1.0
  O  O233  1  0.81422000  0.71351000  0.13121000  1.0
  O  O234  1  0.71356000  0.81416000  0.63115000  1.0
  O  O235  1  0.18569000  0.28645000  0.86879000  1.0
  O  O236  1  0.78029000  0.36305000  0.37573000  1.0
  O  O237  1  0.63698000  0.21971000  0.12425000  1.0
  O  O238  1  0.21972000  0.63702000  0.62427000  1.0
  O  O239  1  0.36306000  0.78031000  0.87574000  1.0
  O  O240  1  0.49575000  0.57450000  0.61806000  1.0
  O  O241  1  0.42551000  0.50422000  0.88186000  1.0
  O  O242  1  0.50419000  0.42552000  0.38191000  1.0
  O  O243  1  0.57453000  0.49574000  0.11806000  1.0
