# generated using pymatgen
data_CuH16C11(NO4)2
_symmetry_space_group_name_H-M   'P 1'
_cell_length_a   6.82259000
_cell_length_b   9.76695000
_cell_length_c   11.93460000
_cell_angle_alpha   72.82020000
_cell_angle_beta   73.38870000
_cell_angle_gamma   69.55460000
_symmetry_Int_Tables_number   1
_chemical_formula_structural   CuH16C11(NO4)2
_chemical_formula_sum   'Cu2 H32 C22 N4 O16'
_cell_volume   696.94279595
_cell_formula_units_Z   2
loop_
 _symmetry_equiv_pos_site_id
 _symmetry_equiv_pos_as_xyz
  1  'x, y, z'
loop_
 _atom_site_type_symbol
 _atom_site_label
 _atom_site_symmetry_multiplicity
 _atom_site_fract_x
 _atom_site_fract_y
 _atom_site_fract_z
 _atom_site_occupancy
  Cu  Cu0  1  0.00000000  0.00000000  0.00000000  1.0
  Cu  Cu1  1  0.00000000  0.50000000  0.50000000  1.0
  H  H2  1  0.76105000  0.82947000  0.83005000  1.0
  H  H3  1  0.42056000  0.67050000  0.67000000  1.0
  H  H4  1  0.23895000  0.17053000  0.16995000  1.0
  H  H5  1  0.57944000  0.32950000  0.33000000  1.0
  H  H6  1  0.61969000  0.91678000  0.94958000  1.0
  H  H7  1  0.48610000  0.58322000  0.55047000  1.0
  H  H8  1  0.38031000  0.08322000  0.05042000  1.0
  H  H9  1  0.51390000  0.41678000  0.44954000  1.0
  H  H10  1  0.08355000  0.97870000  0.67875000  1.0
  H  H11  1  0.74110000  0.52152000  0.82119000  1.0
  H  H12  1  0.91645000  0.02130000  0.32125000  1.0
  H  H13  1  0.25890000  0.47848000  0.17881000  1.0
  H  H14  1  0.13769000  0.80375000  0.78115000  1.0
  H  H15  1  0.72289000  0.69636000  0.71869000  1.0
  H  H16  1  0.86231000  0.19625000  0.21885000  1.0
  H  H17  1  0.27711000  0.30364000  0.28131000  1.0
  H  H18  1  0.61453000  0.14926000  0.87460000  1.0
  H  H19  1  0.63851000  0.35083000  0.62540000  1.0
  H  H20  1  0.38547000  0.85074000  0.12540000  1.0
  H  H21  1  0.36149000  0.64917000  0.37460000  1.0
  H  H22  1  0.70051000  0.09612000  0.73470000  1.0
  H  H23  1  0.53139000  0.40398000  0.76528000  1.0
  H  H24  1  0.29949000  0.90388000  0.26530000  1.0
  H  H25  1  0.46861000  0.59602000  0.23472000  1.0
  H  H26  1  0.89561000  0.27731000  0.82024000  1.0
  H  H27  1  0.99316000  0.22264000  0.67985000  1.0
  H  H28  1  0.10439000  0.72269000  0.17977000  1.0
  H  H29  1  0.00684000  0.77736000  0.32015000  1.0
  H  H30  1  0.83023000  0.55001000  0.10128000  1.0
  H  H31  1  0.48154000  0.95002000  0.39877000  1.0
  H  H32  1  0.16977000  0.44999000  0.89872000  1.0
  H  H33  1  0.51845000  0.04998000  0.60123000  1.0
  C  C34  1  0.29349000  0.95108000  0.79302000  1.0
  C  C35  1  0.03782000  0.54886000  0.70693000  1.0
  C  C36  1  0.70651000  0.04892000  0.20698000  1.0
  C  C37  1  0.96218000  0.45114000  0.29307000  1.0
  C  C38  1  0.78176000  0.86466000  0.90438000  1.0
  C  C39  1  0.55081000  0.63537000  0.59566000  1.0
  C  C40  1  0.21824000  0.13534000  0.09563000  1.0
  C  C41  1  0.44919000  0.36463000  0.40434000  1.0
  C  C42  1  0.10145000  0.92500000  0.77178000  1.0
  C  C43  1  0.79837000  0.57511000  0.72816000  1.0
  C  C44  1  0.89856000  0.07500000  0.22822000  1.0
  C  C45  1  0.20162000  0.42489000  0.27184000  1.0
  C  C46  1  0.75532000  0.11942000  0.80380000  1.0
  C  C47  1  0.67860000  0.38063000  0.69623000  1.0
  C  C48  1  0.24468000  0.88058000  0.19621000  1.0
  C  C49  1  0.32139000  0.61937000  0.30377000  1.0
  C  C50  1  0.85054000  0.25002000  0.75002000  1.0
  C  C51  1  0.14946000  0.74998000  0.24998000  1.0
  C  C52  1  0.88459000  0.72924000  0.99119000  1.0
  C  C53  1  0.60497000  0.77081000  0.50886000  1.0
  C  C54  1  0.11541000  0.27076000  0.00881000  1.0
  C  C55  1  0.39503000  0.22919000  0.49114000  1.0
  N  N56  1  0.90122000  0.97689000  0.85875000  1.0
  N  N57  1  0.73694000  0.52317000  0.64126000  1.0
  N  N58  1  0.09878000  0.02311000  0.14125000  1.0
  N  N59  1  0.26306000  0.47683000  0.35874000  1.0
  O  O60  1  0.46611000  0.92785000  0.71696000  1.0
  O  O61  1  0.11124000  0.57205000  0.78296000  1.0
  O  O62  1  0.53389000  0.07215000  0.28304000  1.0
  O  O63  1  0.88876000  0.42795000  0.21704000  1.0
  O  O64  1  0.27332000  0.99163000  0.88999000  1.0
  O  O65  1  0.15518000  0.50820000  0.61000000  1.0
  O  O66  1  0.72668000  0.00837000  0.11001000  1.0
  O  O67  1  0.84482000  0.49180000  0.39000000  1.0
  O  O68  1  0.76555000  0.63567000  0.03694000  1.0
  O  O69  1  0.43811000  0.86435000  0.46307000  1.0
  O  O70  1  0.23445000  0.36433000  0.96306000  1.0
  O  O71  1  0.56189000  0.13565000  0.53693000  1.0
  O  O72  1  0.05559000  0.71107000  0.01723000  1.0
  O  O73  1  0.78381000  0.78900000  0.48285000  1.0
  O  O74  1  0.94441000  0.28893000  0.98277000  1.0
  O  O75  1  0.21619000  0.21100000  0.51715000  1.0
