# generated using pymatgen
data_SrH9C11N3O5
_symmetry_space_group_name_H-M   'P 1'
_cell_length_a   6.75065000
_cell_length_b   12.86620000
_cell_length_c   14.69600000
_cell_angle_alpha   112.85400000
_cell_angle_beta   90.00000000
_cell_angle_gamma   90.00000000
_symmetry_Int_Tables_number   1
_chemical_formula_structural   SrH9C11N3O5
_chemical_formula_sum   'Sr4 H36 C44 N12 O20'
_cell_volume   1176.22174127
_cell_formula_units_Z   4
loop_
 _symmetry_equiv_pos_site_id
 _symmetry_equiv_pos_as_xyz
  1  'x, y, z'
loop_
 _atom_site_type_symbol
 _atom_site_label
 _atom_site_symmetry_multiplicity
 _atom_site_fract_x
 _atom_site_fract_y
 _atom_site_fract_z
 _atom_site_occupancy
  Sr  Sr0  1  0.55195000  0.84653000  0.03471000  1.0
  Sr  Sr1  1  0.05195000  0.65348000  0.96529000  1.0
  Sr  Sr2  1  0.44805000  0.15347000  0.96529000  1.0
  Sr  Sr3  1  0.94805000  0.34652000  0.03471000  1.0
  H  H4  1  0.92508000  0.18453000  0.73752000  1.0
  H  H5  1  0.42510000  0.31547000  0.26248000  1.0
  H  H6  1  0.07491000  0.81547000  0.26248000  1.0
  H  H7  1  0.57491000  0.68453000  0.73752000  1.0
  H  H8  1  0.02396000  0.29400000  0.70628000  1.0
  H  H9  1  0.52396000  0.20599000  0.29372000  1.0
  H  H10  1  0.97604000  0.70599000  0.29371000  1.0
  H  H11  1  0.47604000  0.79400000  0.70628000  1.0
  H  H12  1  0.73793000  0.02640000  0.61287000  1.0
  H  H13  1  0.23793000  0.47360000  0.38713000  1.0
  H  H14  1  0.26208000  0.97360000  0.38713000  1.0
  H  H15  1  0.76208000  0.52640000  0.61287000  1.0
  H  H16  1  0.67035000  0.92011000  0.43272000  1.0
  H  H17  1  0.17034000  0.57989000  0.56728000  1.0
  H  H18  1  0.32966000  0.07989000  0.56728000  1.0
  H  H19  1  0.82966000  0.42011000  0.43272000  1.0
  H  H20  1  0.95601000  0.29930000  0.53940000  1.0
  H  H21  1  0.45601000  0.20070000  0.46060000  1.0
  H  H22  1  0.04398000  0.70069000  0.46060000  1.0
  H  H23  1  0.54398000  0.79930000  0.53940000  1.0
  H  H24  1  0.88600000  0.18019000  0.36221000  1.0
  H  H25  1  0.38600000  0.31981000  0.63779000  1.0
  H  H26  1  0.11400000  0.81980000  0.63779000  1.0
  H  H27  1  0.61399000  0.68019000  0.36221000  1.0
  H  H28  1  0.51979000  0.20230000  0.77226000  1.0
  H  H29  1  0.01980000  0.29771000  0.22775000  1.0
  H  H30  1  0.48021000  0.79770000  0.22774000  1.0
  H  H31  1  0.98021000  0.70230000  0.77226000  1.0
  H  H32  1  0.41809000  0.98555000  0.23305000  1.0
  H  H33  1  0.91809000  0.51445000  0.76696000  1.0
  H  H34  1  0.58191000  0.01445000  0.76695000  1.0
  H  H35  1  0.08191000  0.48555000  0.23304000  1.0
  H  H36  1  0.63230000  0.97437000  0.28024000  1.0
  H  H37  1  0.13230000  0.52563000  0.71976000  1.0
  H  H38  1  0.36771000  0.02563000  0.71976000  1.0
  H  H39  1  0.86770000  0.47437000  0.28024000  1.0
  C  C40  1  0.55432000  0.59306000  0.90455000  1.0
  C  C41  1  0.05431000  0.90695000  0.09545000  1.0
  C  C42  1  0.44568000  0.40694000  0.09545000  1.0
  C  C43  1  0.94568000  0.09305000  0.90455000  1.0
  C  C44  1  0.56549000  0.47120000  0.83952000  1.0
  C  C45  1  0.06548000  0.02880000  0.16049000  1.0
  C  C46  1  0.43451000  0.52880000  0.16048000  1.0
  C  C47  1  0.93451000  0.97120000  0.83951000  1.0
  C  C48  1  0.44904000  0.38003000  0.83648000  1.0
  C  C49  1  0.94904000  0.11997000  0.16353000  1.0
  C  C50  1  0.55096000  0.61997000  0.16352000  1.0
  C  C51  1  0.05095000  0.88003000  0.83647000  1.0
  C  C52  1  0.26115000  0.36553000  0.88350000  1.0
  C  C53  1  0.76115000  0.13448000  0.11650000  1.0
  C  C54  1  0.73885000  0.63448000  0.11650000  1.0
  C  C55  1  0.23885000  0.86552000  0.88350000  1.0
  C  C56  1  0.72830000  0.31859000  0.75254000  1.0
  C  C57  1  0.22831000  0.18141000  0.24747000  1.0
  C  C58  1  0.27170000  0.68141000  0.24746000  1.0
  C  C59  1  0.77170000  0.81859000  0.75254000  1.0
  C  C60  1  0.89296000  0.24083000  0.69898000  1.0
  C  C61  1  0.39297000  0.25917000  0.30102000  1.0
  C  C62  1  0.10704000  0.75917000  0.30102000  1.0
  C  C63  1  0.60704000  0.74083000  0.69898000  1.0
  C  C64  1  0.85141000  0.17260000  0.59119000  1.0
  C  C65  1  0.35141000  0.32740000  0.40881000  1.0
  C  C66  1  0.14859000  0.82740000  0.40881000  1.0
  C  C67  1  0.64859000  0.67260000  0.59119000  1.0
  C  C68  1  0.77119000  0.06393000  0.55961000  1.0
  C  C69  1  0.27119000  0.43607000  0.44039000  1.0
  C  C70  1  0.22881000  0.93607000  0.44039000  1.0
  C  C71  1  0.72882000  0.56393000  0.55961000  1.0
  C  C72  1  0.73481000  0.00456000  0.45938000  1.0
  C  C73  1  0.23480000  0.49544000  0.54062000  1.0
  C  C74  1  0.26520000  0.99543000  0.54062000  1.0
  C  C75  1  0.76520000  0.50457000  0.45938000  1.0
  C  C76  1  0.89271000  0.21529000  0.51886000  1.0
  C  C77  1  0.39272000  0.28471000  0.48114000  1.0
  C  C78  1  0.10728000  0.78471000  0.48114000  1.0
  C  C79  1  0.60728000  0.71529000  0.51886000  1.0
  C  C80  1  0.85357000  0.14930000  0.42012000  1.0
  C  C81  1  0.35357000  0.35070000  0.57988000  1.0
  C  C82  1  0.14643000  0.85070000  0.57988000  1.0
  C  C83  1  0.64643000  0.64930000  0.42012000  1.0
  N  N84  1  0.73592000  0.43058000  0.78504000  1.0
  N  N85  1  0.23591000  0.06942000  0.21496000  1.0
  N  N86  1  0.26409000  0.56942000  0.21496000  1.0
  N  N87  1  0.76408000  0.93059000  0.78504000  1.0
  N  N88  1  0.55634000  0.28504000  0.78099000  1.0
  N  N89  1  0.05634000  0.21497000  0.21902000  1.0
  N  N90  1  0.44366000  0.71496000  0.21901000  1.0
  N  N91  1  0.94365000  0.78503000  0.78098000  1.0
  N  N92  1  0.77389000  0.04561000  0.39006000  1.0
  N  N93  1  0.27389000  0.45440000  0.60994000  1.0
  N  N94  1  0.22611000  0.95439000  0.60994000  1.0
  N  N95  1  0.72611000  0.54561000  0.39006000  1.0
  O  O96  1  0.69270000  0.65711000  0.89631000  1.0
  O  O97  1  0.19269000  0.84290000  0.10369000  1.0
  O  O98  1  0.30730000  0.34289000  0.10368000  1.0
  O  O99  1  0.80730000  0.15710000  0.89631000  1.0
  O  O100  1  0.41979000  0.62819000  0.96955000  1.0
  O  O101  1  0.91979000  0.87182000  0.03045000  1.0
  O  O102  1  0.58021000  0.37181000  0.03045000  1.0
  O  O103  1  0.08021000  0.12818000  0.96955000  1.0
  O  O104  1  0.13833000  0.44589000  0.91983000  1.0
  O  O105  1  0.63834000  0.05411000  0.08018000  1.0
  O  O106  1  0.86167000  0.55411000  0.08017000  1.0
  O  O107  1  0.36166000  0.94589000  0.91983000  1.0
  O  O108  1  0.23287000  0.26849000  0.88522000  1.0
  O  O109  1  0.73288000  0.23151000  0.11478000  1.0
  O  O110  1  0.76713000  0.73151000  0.11478000  1.0
  O  O111  1  0.26712000  0.76849000  0.88522000  1.0
  O  O112  1  0.52695000  0.93140000  0.23283000  1.0
  O  O113  1  0.02695000  0.56860000  0.76717000  1.0
  O  O114  1  0.47305000  0.06860000  0.76717000  1.0
  O  O115  1  0.97305000  0.43140000  0.23283000  1.0
