# generated using pymatgen
data_Ag2H59C42(N7O2)2
_symmetry_space_group_name_H-M   'P 1'
_cell_length_a   10.28800000
_cell_length_b   16.00786512
_cell_length_c   34.46440000
_cell_angle_alpha   97.32639567
_cell_angle_beta   90.00520000
_cell_angle_gamma   108.72155057
_symmetry_Int_Tables_number   1
_chemical_formula_structural   Ag2H59C42(N7O2)2
_chemical_formula_sum   'Ag8 H236 C168 N56 O16'
_cell_volume   5326.61674516
_cell_formula_units_Z   4
loop_
 _symmetry_equiv_pos_site_id
 _symmetry_equiv_pos_as_xyz
  1  'x, y, z'
loop_
 _atom_site_type_symbol
 _atom_site_label
 _atom_site_symmetry_multiplicity
 _atom_site_fract_x
 _atom_site_fract_y
 _atom_site_fract_z
 _atom_site_occupancy
  Ag  Ag0  1  0.39839000  0.73604000  0.82373000  1.0
  Ag  Ag1  1  0.66223000  0.26385000  0.67622000  1.0
  Ag  Ag2  1  0.60161000  0.26396000  0.17627000  1.0
  Ag  Ag3  1  0.33777000  0.73615000  0.32378000  1.0
  Ag  Ag4  1  0.62133000  0.62497000  0.64686000  1.0
  Ag  Ag5  1  0.99608000  0.37471000  0.85309000  1.0
  Ag  Ag6  1  0.37867000  0.37504000  0.35315000  1.0
  Ag  Ag7  1  0.00394000  0.62530000  0.14691000  1.0
  H  H8  1  0.33913000  0.48178000  0.84703000  1.0
  H  H9  1  0.85719000  0.51775000  0.65305000  1.0
  H  H10  1  0.66087000  0.51822000  0.15297000  1.0
  H  H11  1  0.14281000  0.48225000  0.34695000  1.0
  H  H12  1  0.44673000  0.47511000  0.80739000  1.0
  H  H13  1  0.97150000  0.52474000  0.69272000  1.0
  H  H14  1  0.55329000  0.52490000  0.19261000  1.0
  H  H15  1  0.02850000  0.47526000  0.30728000  1.0
  H  H16  1  0.34705000  0.54839000  0.80909000  1.0
  H  H17  1  0.79872000  0.45131000  0.69104000  1.0
  H  H18  1  0.65296000  0.45161000  0.19091000  1.0
  H  H19  1  0.20128000  0.54869000  0.30896000  1.0
  H  H20  1  0.93390000  0.75856000  0.88587000  1.0
  H  H21  1  0.17551000  0.24133000  0.61406000  1.0
  H  H22  1  0.06612000  0.24145000  0.11413000  1.0
  H  H23  1  0.82449000  0.75868000  0.38594000  1.0
  H  H24  1  0.88724000  0.66734000  0.91322000  1.0
  H  H25  1  0.21974000  0.33261000  0.58677000  1.0
  H  H26  1  0.11277000  0.33267000  0.08678000  1.0
  H  H27  1  0.78027000  0.66740000  0.41323000  1.0
  H  H28  1  0.84491000  0.76509000  0.92967000  1.0
  H  H29  1  0.07997000  0.23480000  0.57026000  1.0
  H  H30  1  0.15510000  0.23492000  0.07033000  1.0
  H  H31  1  0.92002000  0.76521000  0.42974000  1.0
  H  H32  1  0.00485000  0.54019000  0.81572000  1.0
  H  H33  1  0.46487000  0.45957000  0.68437000  1.0
  H  H34  1  0.99515000  0.45980000  0.18427000  1.0
  H  H35  1  0.53513000  0.54043000  0.31563000  1.0
  H  H36  1  0.97343000  0.63276000  0.84336000  1.0
  H  H37  1  0.34101000  0.36689000  0.65676000  1.0
  H  H38  1  0.02657000  0.36724000  0.15664000  1.0
  H  H39  1  0.65899000  0.63312000  0.34324000  1.0
  H  H40  1  0.88030000  0.58431000  0.79858000  1.0
  H  H41  1  0.29628000  0.41546000  0.70154000  1.0
  H  H42  1  0.11970000  0.41569000  0.20142000  1.0
  H  H43  1  0.70372000  0.58455000  0.29846000  1.0
  H  H44  1  0.40971000  0.36647000  0.87548000  1.0
  H  H45  1  0.04327000  0.63318000  0.62456000  1.0
  H  H46  1  0.59031000  0.63354000  0.12452000  1.0
  H  H47  1  0.95672000  0.36682000  0.37543000  1.0
  H  H48  1  0.47274000  0.46278000  0.91022000  1.0
  H  H49  1  0.00996000  0.53690000  0.58980000  1.0
  H  H50  1  0.52728000  0.53723000  0.08979000  1.0
  H  H51  1  0.99003000  0.46310000  0.41020000  1.0
  H  H52  1  0.50320000  0.36269000  0.91836000  1.0
  H  H53  1  0.14053000  0.63697000  0.58169000  1.0
  H  H54  1  0.49680000  0.63731000  0.08164000  1.0
  H  H55  1  0.85947000  0.36303000  0.41831000  1.0
  H  H56  1  0.27648000  0.64337000  0.74335000  1.0
  H  H57  1  0.63293000  0.35640000  0.75663000  1.0
  H  H58  1  0.72353000  0.35663000  0.25666000  1.0
  H  H59  1  0.36706000  0.64360000  0.24337000  1.0
  H  H60  1  0.15946000  0.65305000  0.70747000  1.0
  H  H61  1  0.50616000  0.34659000  0.79250000  1.0
  H  H62  1  0.84054000  0.34694000  0.29254000  1.0
  H  H63  1  0.49383000  0.65341000  0.20750000  1.0
  H  H64  1  0.09879000  0.58344000  0.74423000  1.0
  H  H65  1  0.51492000  0.41619000  0.75575000  1.0
  H  H66  1  0.90122000  0.41656000  0.25577000  1.0
  H  H67  1  0.48507000  0.58381000  0.24425000  1.0
  H  H68  1  0.09521000  0.96575000  0.82165000  1.0
  H  H69  1  0.12941000  0.03418000  0.67810000  1.0
  H  H70  1  0.90477000  0.03424000  0.17835000  1.0
  H  H71  1  0.87059000  0.96582000  0.32190000  1.0
  H  H72  1  0.93003000  0.88333000  0.81927000  1.0
  H  H73  1  0.04664000  0.11662000  0.68049000  1.0
  H  H74  1  0.06995000  0.11666000  0.18073000  1.0
  H  H75  1  0.95336000  0.88338000  0.31951000  1.0
  H  H76  1  0.99487000  0.92991000  0.77673000  1.0
  H  H77  1  0.06476000  0.06990000  0.72300000  1.0
  H  H78  1  0.00511000  0.07008000  0.22326000  1.0
  H  H79  1  0.93524000  0.93010000  0.27700000  1.0
  H  H80  1  0.66866000  0.71996000  0.75842000  1.0
  H  H81  1  0.94897000  0.28025000  0.74162000  1.0
  H  H82  1  0.33133000  0.28003000  0.24158000  1.0
  H  H83  1  0.05104000  0.71976000  0.25837000  1.0
  H  H84  1  0.79969000  0.68494000  0.77737000  1.0
  H  H85  1  0.11483000  0.31466000  0.72254000  1.0
  H  H86  1  0.20031000  0.31506000  0.22263000  1.0
  H  H87  1  0.88517000  0.68534000  0.27745000  1.0
  H  H88  1  0.68065000  0.61371000  0.74013000  1.0
  H  H89  1  0.06779000  0.38631000  0.75977000  1.0
  H  H90  1  0.31937000  0.38629000  0.25987000  1.0
  H  H91  1  0.93221000  0.61369000  0.24023000  1.0
  H  H92  1  0.19954000  0.79077000  0.65603000  1.0
  H  H93  1  0.40894000  0.20908000  0.84392000  1.0
  H  H94  1  0.80048000  0.20924000  0.34397000  1.0
  H  H95  1  0.59104000  0.79091000  0.15608000  1.0
  H  H96  1  0.22888000  0.87334000  0.69752000  1.0
  H  H97  1  0.35573000  0.12646000  0.80247000  1.0
  H  H98  1  0.77111000  0.12666000  0.30249000  1.0
  H  H99  1  0.64426000  0.87353000  0.19753000  1.0
  H  H100  1  0.15146000  0.88656000  0.65326000  1.0
  H  H101  1  0.26533000  0.11329000  0.84675000  1.0
  H  H102  1  0.84855000  0.11345000  0.34674000  1.0
  H  H103  1  0.73465000  0.88670000  0.15325000  1.0
  H  H104  1  0.65527000  0.36145000  0.60678000  1.0
  H  H105  1  0.29266000  0.63827000  0.89310000  1.0
  H  H106  1  0.34472000  0.63855000  0.39322000  1.0
  H  H107  1  0.70734000  0.36173000  0.10689000  1.0
  H  H108  1  0.52225000  0.35528000  0.57281000  1.0
  H  H109  1  0.16611000  0.64443000  0.92717000  1.0
  H  H110  1  0.47774000  0.64472000  0.42719000  1.0
  H  H111  1  0.83388000  0.35556000  0.07283000  1.0
  H  H112  1  0.54215000  0.42314000  0.61917000  1.0
  H  H113  1  0.11788000  0.57645000  0.88085000  1.0
  H  H114  1  0.45783000  0.57686000  0.38083000  1.0
  H  H115  1  0.88211000  0.42354000  0.11915000  1.0
  H  H116  1  0.83215000  0.65637000  0.49274000  1.0
  H  H117  1  0.17571000  0.34364000  0.00726000  1.0
  H  H118  1  0.16786000  0.34364000  0.50726000  1.0
  H  H119  1  0.82428000  0.65636000  0.99274000  1.0
  H  H120  1  0.89783000  0.56616000  0.48203000  1.0
  H  H121  1  0.33148000  0.43382000  0.01801000  1.0
  H  H122  1  0.10218000  0.43385000  0.51797000  1.0
  H  H123  1  0.66851000  0.56618000  0.98199000  1.0
  H  H124  1  0.98881000  0.66063000  0.51591000  1.0
  H  H125  1  0.32819000  0.33932000  0.98418000  1.0
  H  H126  1  0.01120000  0.33938000  0.48409000  1.0
  H  H127  1  0.67181000  0.66068000  0.01582000  1.0
  H  H128  1  0.73182000  0.26994000  0.56139000  1.0
  H  H129  1  0.46111000  0.72972000  0.93852000  1.0
  H  H130  1  0.26818000  0.73006000  0.43862000  1.0
  H  H131  1  0.53889000  0.27028000  0.06148000  1.0
  H  H132  1  0.89157000  0.34569000  0.55155000  1.0
  H  H133  1  0.54537000  0.65404000  0.94832000  1.0
  H  H134  1  0.10842000  0.65431000  0.44845000  1.0
  H  H135  1  0.45463000  0.34596000  0.05168000  1.0
  H  H136  1  0.83334000  0.23548000  0.52530000  1.0
  H  H137  1  0.59734000  0.76430000  0.97452000  1.0
  H  H138  1  0.16665000  0.76452000  0.47470000  1.0
  H  H139  1  0.40266000  0.23570000  0.02548000  1.0
  H  H140  1  0.66154000  0.50108000  0.43431000  1.0
  H  H141  1  0.16043000  0.49917000  0.06580000  1.0
  H  H142  1  0.33846000  0.49893000  0.56570000  1.0
  H  H143  1  0.83957000  0.50083000  0.93420000  1.0
  H  H144  1  0.58195000  0.51758000  0.47894000  1.0
  H  H145  1  0.06421000  0.48263000  0.02117000  1.0
  H  H146  1  0.41805000  0.48242000  0.52106000  1.0
  H  H147  1  0.93578000  0.51737000  0.97883000  1.0
  H  H148  1  0.49062000  0.43420000  0.44029000  1.0
  H  H149  1  0.05649000  0.56617000  0.05977000  1.0
  H  H150  1  0.50939000  0.56581000  0.55971000  1.0
  H  H151  1  0.94351000  0.43383000  0.94023000  1.0
  H  H152  1  0.55923000  0.79138000  0.70383000  1.0
  H  H153  1  0.76732000  0.20858000  0.79625000  1.0
  H  H154  1  0.44075000  0.20861000  0.29617000  1.0
  H  H155  1  0.23267000  0.79141000  0.20375000  1.0
  H  H156  1  0.48340000  0.87641000  0.70403000  1.0
  H  H157  1  0.60672000  0.12333000  0.79591000  1.0
  H  H158  1  0.51661000  0.12360000  0.29597000  1.0
  H  H159  1  0.39328000  0.87666000  0.20409000  1.0
  H  H160  1  0.40684000  0.78367000  0.72954000  1.0
  H  H161  1  0.62275000  0.21602000  0.77039000  1.0
  H  H162  1  0.59316000  0.21633000  0.27046000  1.0
  H  H163  1  0.37725000  0.78398000  0.22961000  1.0
  H  H164  1  0.77471000  0.10417000  0.84415000  1.0
  H  H165  1  0.67005000  0.89569000  0.65575000  1.0
  H  H166  1  0.22530000  0.89583000  0.15584000  1.0
  H  H167  1  0.32995000  0.10430000  0.34425000  1.0
  H  H168  1  0.89708000  0.10216000  0.80844000  1.0
  H  H169  1  0.79445000  0.89746000  0.69143000  1.0
  H  H170  1  0.10293000  0.89784000  0.19156000  1.0
  H  H171  1  0.20555000  0.10254000  0.30857000  1.0
  H  H172  1  0.88487000  0.04032000  0.84854000  1.0
  H  H173  1  0.84403000  0.95944000  0.65139000  1.0
  H  H174  1  0.11514000  0.95968000  0.15145000  1.0
  H  H175  1  0.15598000  0.04056000  0.34861000  1.0
  H  H176  1  0.75963000  0.92650000  0.57288000  1.0
  H  H177  1  0.83277000  0.07326000  0.92698000  1.0
  H  H178  1  0.24037000  0.07350000  0.42712000  1.0
  H  H179  1  0.16722000  0.92673000  0.07302000  1.0
  H  H180  1  0.57924000  0.87515000  0.57445000  1.0
  H  H181  1  0.70380000  0.12477000  0.92546000  1.0
  H  H182  1  0.42076000  0.12485000  0.42555000  1.0
  H  H183  1  0.29619000  0.87522000  0.07454000  1.0
  H  H184  1  0.59792000  0.76468000  0.51427000  1.0
  H  H185  1  0.83315000  0.23509000  0.98566000  1.0
  H  H186  1  0.40209000  0.23532000  0.48573000  1.0
  H  H187  1  0.16686000  0.76492000  0.01434000  1.0
  H  H188  1  0.76703000  0.83711000  0.51031000  1.0
  H  H189  1  0.92981000  0.16255000  0.98952000  1.0
  H  H190  1  0.23298000  0.16289000  0.48969000  1.0
  H  H191  1  0.07019000  0.83744000  0.01047000  1.0
  H  H192  1  0.50889000  0.89337000  0.51561000  1.0
  H  H193  1  0.61550000  0.10640000  0.98435000  1.0
  H  H194  1  0.49111000  0.10663000  0.48439000  1.0
  H  H195  1  0.38450000  0.89360000  0.01565000  1.0
  H  H196  1  0.67302000  0.96263000  0.50529000  1.0
  H  H197  1  0.71050000  0.03715000  0.99462000  1.0
  H  H198  1  0.32699000  0.03737000  0.49470000  1.0
  H  H199  1  0.28950000  0.96285000  0.00537000  1.0
  H  H200  1  0.50621000  0.79255000  0.45227000  1.0
  H  H201  1  0.71415000  0.20731000  0.04765000  1.0
  H  H202  1  0.49379000  0.20744000  0.54773000  1.0
  H  H203  1  0.28585000  0.79269000  0.95235000  1.0
  H  H204  1  0.65586000  0.87350000  0.43926000  1.0
  H  H205  1  0.78272000  0.12625000  0.06063000  1.0
  H  H206  1  0.34413000  0.12649000  0.56074000  1.0
  H  H207  1  0.21729000  0.87376000  0.93937000  1.0
  H  H208  1  0.38904000  0.91133000  0.46258000  1.0
  H  H209  1  0.47814000  0.08889000  0.03745000  1.0
  H  H210  1  0.61095000  0.08865000  0.53742000  1.0
  H  H211  1  0.52187000  0.91111000  0.96255000  1.0
  H  H212  1  0.53592000  0.98758000  0.44598000  1.0
  H  H213  1  0.54855000  0.01242000  0.05397000  1.0
  H  H214  1  0.46407000  0.01241000  0.55402000  1.0
  H  H215  1  0.45147000  0.98758000  0.94602000  1.0
  H  H216  1  0.64224000  0.79361000  0.88490000  1.0
  H  H217  1  0.84854000  0.20617000  0.61510000  1.0
  H  H218  1  0.35778000  0.20640000  0.11510000  1.0
  H  H219  1  0.15145000  0.79383000  0.38490000  1.0
  H  H220  1  0.69878000  0.32113000  0.87407000  1.0
  H  H221  1  0.37747000  0.67842000  0.62590000  1.0
  H  H222  1  0.30123000  0.67887000  0.12593000  1.0
  H  H223  1  0.62251000  0.32158000  0.37410000  1.0
  H  H224  1  0.22919000  0.85322000  0.84234000  1.0
  H  H225  1  0.37589000  0.14668000  0.65754000  1.0
  H  H226  1  0.77081000  0.14678000  0.15766000  1.0
  H  H227  1  0.62410000  0.85331000  0.34246000  1.0
  H  H228  1  0.88414000  0.77759000  0.63606000  1.0
  H  H229  1  0.10656000  0.22218000  0.86390000  1.0
  H  H230  1  0.11587000  0.22241000  0.36394000  1.0
  H  H231  1  0.89343000  0.77782000  0.13610000  1.0
  H  H232  1  0.81851000  0.68444000  0.58026000  1.0
  H  H233  1  0.13412000  0.31540000  0.91978000  1.0
  H  H234  1  0.18150000  0.31557000  0.41974000  1.0
  H  H235  1  0.86586000  0.68459000  0.08022000  1.0
  H  H236  1  0.55705000  0.28797000  0.42984000  1.0
  H  H237  1  0.26934000  0.71216000  0.07016000  1.0
  H  H238  1  0.44297000  0.71204000  0.57016000  1.0
  H  H239  1  0.73066000  0.28784000  0.92984000  1.0
  H  H240  1  0.64249000  0.90026000  0.84854000  1.0
  H  H241  1  0.74240000  0.09965000  0.65149000  1.0
  H  H242  1  0.35752000  0.09974000  0.15146000  1.0
  H  H243  1  0.25761000  0.90035000  0.34851000  1.0
  C  C244  1  0.40825000  0.52083000  0.82675000  1.0
  C  C245  1  0.88743000  0.47885000  0.67339000  1.0
  C  C246  1  0.59176000  0.47917000  0.17325000  1.0
  C  C247  1  0.11256000  0.52115000  0.32661000  1.0
  C  C248  1  0.52366000  0.59430000  0.84807000  1.0
  C  C249  1  0.92953000  0.40539000  0.65210000  1.0
  C  C250  1  0.47636000  0.40571000  0.15193000  1.0
  C  C251  1  0.07047000  0.59461000  0.34790000  1.0
  C  C252  1  0.64918000  0.59237000  0.86429000  1.0
  C  C253  1  0.05689000  0.40729000  0.63583000  1.0
  C  C254  1  0.35083000  0.40763000  0.13571000  1.0
  C  C255  1  0.94310000  0.59271000  0.36417000  1.0
  C  C256  1  0.71888000  0.68023000  0.88121000  1.0
  C  C257  1  0.03860000  0.31949000  0.61882000  1.0
  C  C258  1  0.28113000  0.31977000  0.11879000  1.0
  C  C259  1  0.96140000  0.68051000  0.38118000  1.0
  C  C260  1  0.85310000  0.71998000  0.90362000  1.0
  C  C261  1  0.13309000  0.27987000  0.59634000  1.0
  C  C262  1  0.14691000  0.28002000  0.09638000  1.0
  C  C263  1  0.86691000  0.72013000  0.40366000  1.0
  C  C264  1  0.92443000  0.56910000  0.82481000  1.0
  C  C265  1  0.35553000  0.43058000  0.67530000  1.0
  C  C266  1  0.07558000  0.43090000  0.17519000  1.0
  C  C267  1  0.64445000  0.56942000  0.32471000  1.0
  C  C268  1  0.81686000  0.50549000  0.84527000  1.0
  C  C269  1  0.31147000  0.49415000  0.65480000  1.0
  C  C270  1  0.18314000  0.49451000  0.15473000  1.0
  C  C271  1  0.68853000  0.50586000  0.34520000  1.0
  C  C272  1  0.69586000  0.51525000  0.86229000  1.0
  C  C273  1  0.18068000  0.48439000  0.63779000  1.0
  C  C274  1  0.30415000  0.48475000  0.13771000  1.0
  C  C275  1  0.81931000  0.51561000  0.36221000  1.0
  C  C276  1  0.62767000  0.43388000  0.87554000  1.0
  C  C277  1  0.19380000  0.56569000  0.62448000  1.0
  C  C278  1  0.37234000  0.56612000  0.12447000  1.0
  C  C279  1  0.80619000  0.43431000  0.37552000  1.0
  C  C280  1  0.49676000  0.40446000  0.89598000  1.0
  C  C281  1  0.09230000  0.59517000  0.60405000  1.0
  C  C282  1  0.50324000  0.59554000  0.10402000  1.0
  C  C283  1  0.90770000  0.40483000  0.39595000  1.0
  C  C284  1  0.17304000  0.64704000  0.73845000  1.0
  C  C285  1  0.52579000  0.35262000  0.76153000  1.0
  C  C286  1  0.82696000  0.35295000  0.26156000  1.0
  C  C287  1  0.47420000  0.64738000  0.23847000  1.0
  C  C288  1  0.15325000  0.72348000  0.76441000  1.0
  C  C289  1  0.42967000  0.27620000  0.73553000  1.0
  C  C290  1  0.84675000  0.27651000  0.23559000  1.0
  C  C291  1  0.57031000  0.72379000  0.26447000  1.0
  C  C292  1  0.06933000  0.77606000  0.75838000  1.0
  C  C293  1  0.29317000  0.22363000  0.74154000  1.0
  C  C294  1  0.93068000  0.22394000  0.24162000  1.0
  C  C295  1  0.70683000  0.77637000  0.25846000  1.0
  C  C296  1  0.08789000  0.83721000  0.79251000  1.0
  C  C297  1  0.25053000  0.16267000  0.70735000  1.0
  C  C298  1  0.91211000  0.16279000  0.20749000  1.0
  C  C299  1  0.74947000  0.83733000  0.29265000  1.0
  C  C300  1  0.02444000  0.90790000  0.80328000  1.0
  C  C301  1  0.11643000  0.09200000  0.69649000  1.0
  C  C302  1  0.97554000  0.09209000  0.19672000  1.0
  C  C303  1  0.88356000  0.90799000  0.30351000  1.0
  C  C304  1  0.74099000  0.68332000  0.75055000  1.0
  C  C305  1  0.05804000  0.31659000  0.74940000  1.0
  C  C306  1  0.25900000  0.31667000  0.24945000  1.0
  C  C307  1  0.94195000  0.68341000  0.25060000  1.0
  C  C308  1  0.83601000  0.72381000  0.72033000  1.0
  C  C309  1  0.11232000  0.27601000  0.77963000  1.0
  C  C310  1  0.16400000  0.27619000  0.27967000  1.0
  C  C311  1  0.88766000  0.72398000  0.22037000  1.0
  C  C312  1  0.98012000  0.76632000  0.72402000  1.0
  C  C313  1  0.21383000  0.23337000  0.77593000  1.0
  C  C314  1  0.01989000  0.23368000  0.27598000  1.0
  C  C315  1  0.78615000  0.76662000  0.22407000  1.0
  C  C316  1  0.01907000  0.79251000  0.68726000  1.0
  C  C317  1  0.22663000  0.20726000  0.81271000  1.0
  C  C318  1  0.98094000  0.20749000  0.31274000  1.0
  C  C319  1  0.77335000  0.79273000  0.18729000  1.0
  C  C320  1  0.15668000  0.83843000  0.67277000  1.0
  C  C321  1  0.31840000  0.16139000  0.82721000  1.0
  C  C322  1  0.84333000  0.16157000  0.32723000  1.0
  C  C323  1  0.68158000  0.83861000  0.17279000  1.0
  C  C324  1  0.59746000  0.40047000  0.59505000  1.0
  C  C325  1  0.19604000  0.59923000  0.90491000  1.0
  C  C326  1  0.40253000  0.59953000  0.40495000  1.0
  C  C327  1  0.80396000  0.40077000  0.09509000  1.0
  C  C328  1  0.68751000  0.47818000  0.57775000  1.0
  C  C329  1  0.20878000  0.52162000  0.92224000  1.0
  C  C330  1  0.31248000  0.52182000  0.42225000  1.0
  C  C331  1  0.79123000  0.47838000  0.07776000  1.0
  C  C332  1  0.74029000  0.48073000  0.53962000  1.0
  C  C333  1  0.25919000  0.51916000  0.96037000  1.0
  C  C334  1  0.25970000  0.51927000  0.46038000  1.0
  C  C335  1  0.74082000  0.48084000  0.03963000  1.0
  C  C336  1  0.80926000  0.57100000  0.53757000  1.0
  C  C337  1  0.23816000  0.42892000  0.96243000  1.0
  C  C338  1  0.19075000  0.42901000  0.46243000  1.0
  C  C339  1  0.76184000  0.57108000  0.03757000  1.0
  C  C340  1  0.88601000  0.61617000  0.50541000  1.0
  C  C341  1  0.26980000  0.38381000  0.99462000  1.0
  C  C342  1  0.11399000  0.38383000  0.49459000  1.0
  C  C343  1  0.73020000  0.61619000  0.00539000  1.0
  C  C344  1  0.80144000  0.29201000  0.53783000  1.0
  C  C345  1  0.50890000  0.70773000  0.96206000  1.0
  C  C346  1  0.19856000  0.70799000  0.46217000  1.0
  C  C347  1  0.49109000  0.29227000  0.03794000  1.0
  C  C348  1  0.73334000  0.32293000  0.50700000  1.0
  C  C349  1  0.41019000  0.67693000  0.99295000  1.0
  C  C350  1  0.26666000  0.67708000  0.49300000  1.0
  C  C351  1  0.58982000  0.32307000  0.00705000  1.0
  C  C352  1  0.71148000  0.40681000  0.50792000  1.0
  C  C353  1  0.30436000  0.59315000  0.99206000  1.0
  C  C354  1  0.28853000  0.59320000  0.49209000  1.0
  C  C355  1  0.69564000  0.40685000  0.00794000  1.0
  C  C356  1  0.64249000  0.40123000  0.47223000  1.0
  C  C357  1  0.24117000  0.59883000  0.02778000  1.0
  C  C358  1  0.35750000  0.59877000  0.52778000  1.0
  C  C359  1  0.75883000  0.40117000  0.97222000  1.0
  C  C360  1  0.59113000  0.46670000  0.45560000  1.0
  C  C361  1  0.12441000  0.53354000  0.04448000  1.0
  C  C362  1  0.40888000  0.53331000  0.54440000  1.0
  C  C363  1  0.87559000  0.46646000  0.95552000  1.0
  C  C364  1  0.50474000  0.83000000  0.72204000  1.0
  C  C365  1  0.67450000  0.16981000  0.77796000  1.0
  C  C366  1  0.49526000  0.17000000  0.27796000  1.0
  C  C367  1  0.32549000  0.83018000  0.22204000  1.0
  C  C368  1  0.58625000  0.88012000  0.75837000  1.0
  C  C369  1  0.70634000  0.11980000  0.74167000  1.0
  C  C370  1  0.41375000  0.11987000  0.24163000  1.0
  C  C371  1  0.29366000  0.88020000  0.25832000  1.0
  C  C372  1  0.68226000  0.96810000  0.76405000  1.0
  C  C373  1  0.71412000  0.03173000  0.73597000  1.0
  C  C374  1  0.31774000  0.03190000  0.23595000  1.0
  C  C375  1  0.28587000  0.96826000  0.26403000  1.0
  C  C376  1  0.72534000  0.98291000  0.80364000  1.0
  C  C377  1  0.74222000  0.01690000  0.69636000  1.0
  C  C378  1  0.27466000  0.01709000  0.19636000  1.0
  C  C379  1  0.25779000  0.98310000  0.30363000  1.0
  C  C380  1  0.82547000  0.06113000  0.82743000  1.0
  C  C381  1  0.76385000  0.93863000  0.67250000  1.0
  C  C382  1  0.17454000  0.93887000  0.17256000  1.0
  C  C383  1  0.23616000  0.06137000  0.32750000  1.0
  C  C384  1  0.69693000  0.79410000  0.58880000  1.0
  C  C385  1  0.90249000  0.20570000  0.91109000  1.0
  C  C386  1  0.30307000  0.20590000  0.41120000  1.0
  C  C387  1  0.09750000  0.79431000  0.08891000  1.0
  C  C388  1  0.67531000  0.86341000  0.56562000  1.0
  C  C389  1  0.81158000  0.13639000  0.93426000  1.0
  C  C390  1  0.32470000  0.13659000  0.43438000  1.0
  C  C391  1  0.18842000  0.86361000  0.06574000  1.0
  C  C392  1  0.66496000  0.83438000  0.52098000  1.0
  C  C393  1  0.83045000  0.16537000  0.97890000  1.0
  C  C394  1  0.33505000  0.16562000  0.47902000  1.0
  C  C395  1  0.16955000  0.83463000  0.02109000  1.0
  C  C396  1  0.60335000  0.89326000  0.50059000  1.0
  C  C397  1  0.71015000  0.10651000  0.99932000  1.0
  C  C398  1  0.39665000  0.10673000  0.49941000  1.0
  C  C399  1  0.28986000  0.89349000  0.00067000  1.0
  C  C400  1  0.56449000  0.86430000  0.45700000  1.0
  C  C401  1  0.70055000  0.13554000  0.04293000  1.0
  C  C402  1  0.43550000  0.13568000  0.54300000  1.0
  C  C403  1  0.29947000  0.86447000  0.95707000  1.0
  C  C404  1  0.47529000  0.91625000  0.44324000  1.0
  C  C405  1  0.55947000  0.08381000  0.05675000  1.0
  C  C406  1  0.52471000  0.08374000  0.55676000  1.0
  C  C407  1  0.44053000  0.91618000  0.94325000  1.0
  C  C408  1  0.41748000  0.88866000  0.40121000  1.0
  C  C409  1  0.52949000  0.11150000  0.09879000  1.0
  C  C410  1  0.58251000  0.11133000  0.59879000  1.0
  C  C411  1  0.47051000  0.88850000  0.90121000  1.0
  N  N412  1  0.51890000  0.67769000  0.85442000  1.0
  N  N413  1  0.84137000  0.32205000  0.64569000  1.0
  N  N414  1  0.48110000  0.32231000  0.14558000  1.0
  N  N415  1  0.15863000  0.67795000  0.35432000  1.0
  N  N416  1  0.63727000  0.72864000  0.87421000  1.0
  N  N417  1  0.90865000  0.27109000  0.62582000  1.0
  N  N418  1  0.36273000  0.27136000  0.12579000  1.0
  N  N419  1  0.09135000  0.72891000  0.37418000  1.0
  N  N420  1  0.82262000  0.42394000  0.84830000  1.0
  N  N421  1  0.39874000  0.57565000  0.65171000  1.0
  N  N422  1  0.17737000  0.57605000  0.15170000  1.0
  N  N423  1  0.60125000  0.42435000  0.34829000  1.0
  N  N424  1  0.70698000  0.38156000  0.86607000  1.0
  N  N425  1  0.32542000  0.61799000  0.63391000  1.0
  N  N426  1  0.29302000  0.61844000  0.13393000  1.0
  N  N427  1  0.67457000  0.38202000  0.36609000  1.0
  N  N428  1  0.21823000  0.75123000  0.79971000  1.0
  N  N429  1  0.46687000  0.24858000  0.70021000  1.0
  N  N430  1  0.78177000  0.24877000  0.20029000  1.0
  N  N431  1  0.53312000  0.75142000  0.29979000  1.0
  N  N432  1  0.17736000  0.81935000  0.81641000  1.0
  N  N433  1  0.35787000  0.18057000  0.68346000  1.0
  N  N434  1  0.82263000  0.18065000  0.18359000  1.0
  N  N435  1  0.64213000  0.81943000  0.31654000  1.0
  N  N436  1  0.79074000  0.72408000  0.68381000  1.0
  N  N437  1  0.06682000  0.27581000  0.81616000  1.0
  N  N438  1  0.20926000  0.27592000  0.31619000  1.0
  N  N439  1  0.93317000  0.72419000  0.18384000  1.0
  N  N440  1  0.90259000  0.76559000  0.66433000  1.0
  N  N441  1  0.13714000  0.23425000  0.83564000  1.0
  N  N442  1  0.09742000  0.23441000  0.33567000  1.0
  N  N443  1  0.86285000  0.76575000  0.16436000  1.0
  N  N444  1  0.72252000  0.56106000  0.59737000  1.0
  N  N445  1  0.16110000  0.43871000  0.90265000  1.0
  N  N446  1  0.27746000  0.43894000  0.40264000  1.0
  N  N447  1  0.83891000  0.56129000  0.09735000  1.0
  N  N448  1  0.79718000  0.61598000  0.57268000  1.0
  N  N449  1  0.18109000  0.38387000  0.92734000  1.0
  N  N450  1  0.20282000  0.38403000  0.42732000  1.0
  N  N451  1  0.81891000  0.61613000  0.07266000  1.0
  N  N452  1  0.68157000  0.26988000  0.47345000  1.0
  N  N453  1  0.41169000  0.73006000  0.02650000  1.0
  N  N454  1  0.31844000  0.73013000  0.52656000  1.0
  N  N455  1  0.58832000  0.26994000  0.97350000  1.0
  N  N456  1  0.62820000  0.31911000  0.45279000  1.0
  N  N457  1  0.30915000  0.68094000  0.04719000  1.0
  N  N458  1  0.37180000  0.68089000  0.54721000  1.0
  N  N459  1  0.69084000  0.31906000  0.95281000  1.0
  N  N460  1  0.57234000  0.84480000  0.79204000  1.0
  N  N461  1  0.72783000  0.15517000  0.70802000  1.0
  N  N462  1  0.42766000  0.15519000  0.20796000  1.0
  N  N463  1  0.27217000  0.84483000  0.29198000  1.0
  N  N464  1  0.65835000  0.90751000  0.81888000  1.0
  N  N465  1  0.75090000  0.09239000  0.68116000  1.0
  N  N466  1  0.34166000  0.09249000  0.18112000  1.0
  N  N467  1  0.24911000  0.90761000  0.31884000  1.0
  O  O468  1  0.59152000  0.74068000  0.60243000  1.0
  O  O469  1  0.85046000  0.25910000  0.89742000  1.0
  O  O470  1  0.40849000  0.25933000  0.39757000  1.0
  O  O471  1  0.14955000  0.74093000  0.10259000  1.0
  O  O472  1  0.81933000  0.79122000  0.59262000  1.0
  O  O473  1  0.02778000  0.20864000  0.90732000  1.0
  O  O474  1  0.18068000  0.20878000  0.40738000  1.0
  O  O475  1  0.97220000  0.79137000  0.09268000  1.0
  O  O476  1  0.29281000  0.88672000  0.39497000  1.0
  O  O477  1  0.40680000  0.11345000  0.10508000  1.0
  O  O478  1  0.70719000  0.11328000  0.60503000  1.0
  O  O479  1  0.59321000  0.88655000  0.89492000  1.0
  O  O480  1  0.49296000  0.86999000  0.37479000  1.0
  O  O481  1  0.62389000  0.13033000  0.12514000  1.0
  O  O482  1  0.50704000  0.13001000  0.62521000  1.0
  O  O483  1  0.37613000  0.86968000  0.87485000  1.0
