# generated using pymatgen
data_AlH7C14N6O17
_symmetry_space_group_name_H-M   'P 1'
_cell_length_a   6.96388000
_cell_length_b   20.30660000
_cell_length_c   23.57140000
_cell_angle_alpha   90.00010000
_cell_angle_beta   89.99480000
_cell_angle_gamma   90.00000000
_symmetry_Int_Tables_number   1
_chemical_formula_structural   AlH7C14N6O17
_chemical_formula_sum   'Al4 H28 C56 N24 O68'
_cell_volume   3333.29590666
_cell_formula_units_Z   4
loop_
 _symmetry_equiv_pos_site_id
 _symmetry_equiv_pos_as_xyz
  1  'x, y, z'
loop_
 _atom_site_type_symbol
 _atom_site_label
 _atom_site_symmetry_multiplicity
 _atom_site_fract_x
 _atom_site_fract_y
 _atom_site_fract_z
 _atom_site_occupancy
  Al  Al0  1  0.96438000  0.74994000  0.50012000  1.0
  Al  Al1  1  0.53557000  0.25006000  0.00012000  1.0
  Al  Al2  1  0.46438000  0.75006000  0.49988000  1.0
  Al  Al3  1  0.03557000  0.24994000  0.99989000  1.0
  H  H4  1  0.76162000  0.46978000  0.65121000  1.0
  H  H5  1  0.73835000  0.53021000  0.15121000  1.0
  H  H6  1  0.26158000  0.03023000  0.34879000  1.0
  H  H7  1  0.23839000  0.96979000  0.84881000  1.0
  H  H8  1  0.58061000  0.39654000  0.73795000  1.0
  H  H9  1  0.91938000  0.60344000  0.23795000  1.0
  H  H10  1  0.08059000  0.10345000  0.26205000  1.0
  H  H11  1  0.41938000  0.89652000  0.76209000  1.0
  H  H12  1  0.98835000  0.52159000  0.82593000  1.0
  H  H13  1  0.51153000  0.47841000  0.32594000  1.0
  H  H14  1  0.48843000  0.97841000  0.17407000  1.0
  H  H15  1  0.01167000  0.02157000  0.67407000  1.0
  H  H16  1  0.06491000  0.45973000  0.77849000  1.0
  H  H17  1  0.43503000  0.54028000  0.27850000  1.0
  H  H18  1  0.56494000  0.04028000  0.22150000  1.0
  H  H19  1  0.93513000  0.95971000  0.72153000  1.0
  H  H20  1  0.45083000  0.56408000  0.74294000  1.0
  H  H21  1  0.04908000  0.43590000  0.24294000  1.0
  H  H22  1  0.95088000  0.93589000  0.25706000  1.0
  H  H23  1  0.54920000  0.06405000  0.75706000  1.0
  H  H24  1  0.52967000  0.48473000  0.67771000  1.0
  H  H25  1  0.97029000  0.51526000  0.17771000  1.0
  H  H26  1  0.02965000  0.01527000  0.32229000  1.0
  H  H27  1  0.47034000  0.98472000  0.82230000  1.0
  H  H28  1  0.21464000  0.66385000  0.48995000  1.0
  H  H29  1  0.28531000  0.33613000  0.98990000  1.0
  H  H30  1  0.71464000  0.83615000  0.51005000  1.0
  H  H31  1  0.78530000  0.16384000  0.01001000  1.0
  C  C32  1  0.21489000  0.82293000  0.57843000  1.0
  C  C33  1  0.28501000  0.17706000  0.07842000  1.0
  C  C34  1  0.71495000  0.67706000  0.42158000  1.0
  C  C35  1  0.78506000  0.32294000  0.92158000  1.0
  C  C36  1  0.21312000  0.82880000  0.42560000  1.0
  C  C37  1  0.28687000  0.17120000  0.92560000  1.0
  C  C38  1  0.71309000  0.67120000  0.57440000  1.0
  C  C39  1  0.78685000  0.32879000  0.07440000  1.0
  C  C40  1  0.94742000  0.54659000  0.73820000  1.0
  C  C41  1  0.55250000  0.45341000  0.23821000  1.0
  C  C42  1  0.44746000  0.95342000  0.26180000  1.0
  C  C43  1  0.05262000  0.04658000  0.76180000  1.0
  C  C44  1  0.59317000  0.56389000  0.76251000  1.0
  C  C45  1  0.90673000  0.43609000  0.26251000  1.0
  C  C46  1  0.09323000  0.93609000  0.23750000  1.0
  C  C47  1  0.40687000  0.06387000  0.73750000  1.0
  C  C48  1  0.60350000  0.50908000  0.80807000  1.0
  C  C49  1  0.89641000  0.49090000  0.30808000  1.0
  C  C50  1  0.10356000  0.99090000  0.19193000  1.0
  C  C51  1  0.39655000  0.00905000  0.69194000  1.0
  C  C52  1  0.78325000  0.36735000  0.87394000  1.0
  C  C53  1  0.71674000  0.63264000  0.37394000  1.0
  C  C54  1  0.28322000  0.13264000  0.12606000  1.0
  C  C55  1  0.21670000  0.86733000  0.62608000  1.0
  C  C56  1  0.74084000  0.55039000  0.71326000  1.0
  C  C57  1  0.75909000  0.44959000  0.21326000  1.0
  C  C58  1  0.24088000  0.94961000  0.28675000  1.0
  C  C59  1  0.25918000  0.05039000  0.78674000  1.0
  C  C60  1  0.95360000  0.49654000  0.78613000  1.0
  C  C61  1  0.54633000  0.50347000  0.28614000  1.0
  C  C62  1  0.45363000  0.00347000  0.21387000  1.0
  C  C63  1  0.04644000  0.99652000  0.71387000  1.0
  C  C64  1  0.76421000  0.45776000  0.79262000  1.0
  C  C65  1  0.73574000  0.54224000  0.29262000  1.0
  C  C66  1  0.26424000  0.04224000  0.20738000  1.0
  C  C67  1  0.23582000  0.95773000  0.70740000  1.0
  C  C68  1  0.70989000  0.42692000  0.73419000  1.0
  C  C69  1  0.79008000  0.57307000  0.23419000  1.0
  C  C70  1  0.20987000  0.07308000  0.26581000  1.0
  C  C71  1  0.29010000  0.92691000  0.76584000  1.0
  C  C72  1  0.68113000  0.48110000  0.68978000  1.0
  C  C73  1  0.81883000  0.51889000  0.18978000  1.0
  C  C74  1  0.18111000  0.01890000  0.31022000  1.0
  C  C75  1  0.31887000  0.98110000  0.81024000  1.0
  C  C76  1  0.78013000  0.40804000  0.83642000  1.0
  C  C77  1  0.71982000  0.59195000  0.33643000  1.0
  C  C78  1  0.28016000  0.09195000  0.16357000  1.0
  C  C79  1  0.21987000  0.90801000  0.66360000  1.0
  C  C80  1  0.72245000  0.59649000  0.66675000  1.0
  C  C81  1  0.77748000  0.40349000  0.16675000  1.0
  C  C82  1  0.22249000  0.90351000  0.33326000  1.0
  C  C83  1  0.27757000  0.09650000  0.83325000  1.0
  C  C84  1  0.71427000  0.62901000  0.62372000  1.0
  C  C85  1  0.78567000  0.37099000  0.12372000  1.0
  C  C86  1  0.21430000  0.87100000  0.37629000  1.0
  C  C87  1  0.28570000  0.12901000  0.87628000  1.0
  N  N88  1  0.09320000  0.52834000  0.68944000  1.0
  N  N89  1  0.40676000  0.47167000  0.18944000  1.0
  N  N90  1  0.59319000  0.97168000  0.31057000  1.0
  N  N91  1  0.90683000  0.02836000  0.81057000  1.0
  N  N92  1  0.03302000  0.61428000  0.75805000  1.0
  N  N93  1  0.46686000  0.38572000  0.25805000  1.0
  N  N94  1  0.53311000  0.88573000  0.24196000  1.0
  N  N95  1  0.96708000  0.11428000  0.74193000  1.0
  N  N96  1  0.61684000  0.63418000  0.78534000  1.0
  N  N97  1  0.88305000  0.36581000  0.28533000  1.0
  N  N98  1  0.11693000  0.86581000  0.21467000  1.0
  N  N99  1  0.38327000  0.13415000  0.71466000  1.0
  N  N100  1  0.61938000  0.53693000  0.87029000  1.0
  N  N101  1  0.88045000  0.46305000  0.37029000  1.0
  N  N102  1  0.11951000  0.96305000  0.12972000  1.0
  N  N103  1  0.38065000  0.03688000  0.62972000  1.0
  N  N104  1  0.41484000  0.46951000  0.81024000  1.0
  N  N105  1  0.08507000  0.53045000  0.31024000  1.0
  N  N106  1  0.91489000  0.03045000  0.18976000  1.0
  N  N107  1  0.58520000  0.96947000  0.68978000  1.0
  N  N108  1  0.85630000  0.37504000  0.71349000  1.0
  N  N109  1  0.64370000  0.62496000  0.21350000  1.0
  N  N110  1  0.35627000  0.12496000  0.28650000  1.0
  N  N111  1  0.14367000  0.87504000  0.78654000  1.0
  O  O112  1  0.37800000  0.81314000  0.44460000  1.0
  O  O113  1  0.12198000  0.18687000  0.94459000  1.0
  O  O114  1  0.87798000  0.68687000  0.55540000  1.0
  O  O115  1  0.62196000  0.31313000  0.05541000  1.0
  O  O116  1  0.05021000  0.80659000  0.55978000  1.0
  O  O117  1  0.44970000  0.19341000  0.05978000  1.0
  O  O118  1  0.55025000  0.69341000  0.44022000  1.0
  O  O119  1  0.94974000  0.30660000  0.94022000  1.0
  O  O120  1  0.04857000  0.81275000  0.44445000  1.0
  O  O121  1  0.45141000  0.18725000  0.94444000  1.0
  O  O122  1  0.54855000  0.68726000  0.55556000  1.0
  O  O123  1  0.95140000  0.31274000  0.05556000  1.0
  O  O124  1  0.87941000  0.69352000  0.44034000  1.0
  O  O125  1  0.62057000  0.30648000  0.94035000  1.0
  O  O126  1  0.37937000  0.80647000  0.55966000  1.0
  O  O127  1  0.12053000  0.19351000  0.05965000  1.0
  O  O128  1  0.21441000  0.71065000  0.49815000  1.0
  O  O129  1  0.28555000  0.28934000  0.99815000  1.0
  O  O130  1  0.71440000  0.78934000  0.50185000  1.0
  O  O131  1  0.78554000  0.21065000  0.00184000  1.0
  O  O132  1  0.07820000  0.47256000  0.66981000  1.0
  O  O133  1  0.21182000  0.56994000  0.67505000  1.0
  O  O134  1  0.42175000  0.52745000  0.16983000  1.0
  O  O135  1  0.28816000  0.43007000  0.17504000  1.0
  O  O136  1  0.57818000  0.02746000  0.33018000  1.0
  O  O137  1  0.71181000  0.93009000  0.32497000  1.0
  O  O138  1  0.92184000  0.97260000  0.83021000  1.0
  O  O139  1  0.78821000  0.06997000  0.82494000  1.0
  O  O140  1  0.15768000  0.61017000  0.79495000  1.0
  O  O141  1  0.97732000  0.66422000  0.73419000  1.0
  O  O142  1  0.34216000  0.38983000  0.29496000  1.0
  O  O143  1  0.52256000  0.33579000  0.23419000  1.0
  O  O144  1  0.65779000  0.88984000  0.20505000  1.0
  O  O145  1  0.47740000  0.83580000  0.26583000  1.0
  O  O146  1  0.84243000  0.11018000  0.70502000  1.0
  O  O147  1  0.02284000  0.16422000  0.76578000  1.0
  O  O148  1  0.73425000  0.64299000  0.82394000  1.0
  O  O149  1  0.52269000  0.67638000  0.76075000  1.0
  O  O150  1  0.76560000  0.35699000  0.32394000  1.0
  O  O151  1  0.97719000  0.32360000  0.26075000  1.0
  O  O152  1  0.23438000  0.85700000  0.17607000  1.0
  O  O153  1  0.02279000  0.82360000  0.23926000  1.0
  O  O154  1  0.26589000  0.14297000  0.67605000  1.0
  O  O155  1  0.47744000  0.17635000  0.73925000  1.0
  O  O156  1  0.47888000  0.56905000  0.88495000  1.0
  O  O157  1  0.76129000  0.52293000  0.89840000  1.0
  O  O158  1  0.02095000  0.43093000  0.38495000  1.0
  O  O159  1  0.73852000  0.47705000  0.39840000  1.0
  O  O160  1  0.97901000  0.93093000  0.11506000  1.0
  O  O161  1  0.26144000  0.97705000  0.10160000  1.0
  O  O162  1  0.52116000  0.06900000  0.61505000  1.0
  O  O163  1  0.23873000  0.02288000  0.60161000  1.0
  O  O164  1  0.34048000  0.45969000  0.76317000  1.0
  O  O165  1  0.36377000  0.44530000  0.85522000  1.0
  O  O166  1  0.15942000  0.54028000  0.26318000  1.0
  O  O167  1  0.13611000  0.55465000  0.35524000  1.0
  O  O168  1  0.84053000  0.04028000  0.23683000  1.0
  O  O169  1  0.86384000  0.05465000  0.14477000  1.0
  O  O170  1  0.65954000  0.95966000  0.73685000  1.0
  O  O171  1  0.63622000  0.94524000  0.64480000  1.0
  O  O172  1  0.82474000  0.35421000  0.66542000  1.0
  O  O173  1  0.98365000  0.35641000  0.74596000  1.0
  O  O174  1  0.67528000  0.64579000  0.16542000  1.0
  O  O175  1  0.51635000  0.64360000  0.24598000  1.0
  O  O176  1  0.32468000  0.14580000  0.33458000  1.0
  O  O177  1  0.48362000  0.14360000  0.25402000  1.0
  O  O178  1  0.17524000  0.85422000  0.83462000  1.0
  O  O179  1  0.01632000  0.85640000  0.75408000  1.0
