# generated using pymatgen
data_ZnH14C13NO4
_symmetry_space_group_name_H-M   'P 1'
_cell_length_a   9.72164000
_cell_length_b   11.02110000
_cell_length_c   11.08010000
_cell_angle_alpha   87.83290000
_cell_angle_beta   69.25300000
_cell_angle_gamma   87.09380000
_symmetry_Int_Tables_number   1
_chemical_formula_structural   ZnH14C13NO4
_chemical_formula_sum   'Zn2 H28 C26 N2 O8'
_cell_volume   1108.49596809
_cell_formula_units_Z   2
loop_
 _symmetry_equiv_pos_site_id
 _symmetry_equiv_pos_as_xyz
  1  'x, y, z'
loop_
 _atom_site_type_symbol
 _atom_site_label
 _atom_site_symmetry_multiplicity
 _atom_site_fract_x
 _atom_site_fract_y
 _atom_site_fract_z
 _atom_site_occupancy
  Zn  Zn0  1  0.34664000  0.50276000  0.51826000  1.0
  Zn  Zn1  1  0.65219000  0.48820000  0.48013000  1.0
  H  H2  1  0.61505000  0.50040000  0.85739000  1.0
  H  H3  1  0.16540000  0.46324000  0.92487000  1.0
  H  H4  1  0.22266000  0.42111000  0.05606000  1.0
  H  H5  1  0.72088000  0.70534000  0.98066000  1.0
  H  H6  1  0.77630000  0.68380000  0.11695000  1.0
  H  H7  1  0.90923000  0.67029000  0.95877000  1.0
  H  H8  1  0.84262000  0.46459000  0.06130000  1.0
  H  H9  1  0.78918000  0.48454000  0.92435000  1.0
  H  H10  1  0.92713000  0.83975000  0.58214000  1.0
  H  H11  1  0.83277000  0.77129000  0.73560000  1.0
  H  H12  1  0.97752000  0.86993000  0.71665000  1.0
  H  H13  1  0.38910000  0.46898000  0.13826000  1.0
  H  H14  1  0.06920000  0.65371000  0.72422000  1.0
  H  H15  1  0.16494000  0.72635000  0.57846000  1.0
  H  H16  1  0.07629000  0.15935000  0.43717000  1.0
  H  H17  1  0.88800000  0.17771000  0.53577000  1.0
  H  H18  1  0.93837000  0.09855000  0.38851000  1.0
  H  H19  1  0.84125000  0.30437000  0.35580000  1.0
  H  H20  1  0.03226000  0.29367000  0.26487000  1.0
  H  H21  1  0.68955000  0.87297000  0.55119000  1.0
  H  H22  1  0.29949000  0.11798000  0.44929000  1.0
  H  H23  1  0.79828000  0.64377000  0.58740000  1.0
  H  H24  1  0.20378000  0.35300000  0.40329000  1.0
  H  H25  1  0.67135000  0.09962000  0.57272000  1.0
  H  H26  1  0.31725000  0.89127000  0.42764000  1.0
  H  H27  1  0.23429000  0.64273000  0.10103000  1.0
  H  H28  1  0.17466000  0.68465000  0.97075000  1.0
  H  H29  1  0.05480000  0.60658000  0.10837000  1.0
  C  C30  1  0.47950000  0.25789000  0.51881000  1.0
  C  C31  1  0.38982000  0.49621000  0.89130000  1.0
  C  C32  1  0.49692000  0.48257000  0.06419000  1.0
  C  C33  1  0.50657000  0.49316000  0.93232000  1.0
  C  C34  1  0.59495000  0.05306000  0.54039000  1.0
  C  C35  1  0.39407000  0.93773000  0.45982000  1.0
  C  C36  1  0.60486000  0.92751000  0.52857000  1.0
  C  C37  1  0.38441000  0.06343000  0.47163000  1.0
  C  C38  1  0.50471000  0.86888000  0.48795000  1.0
  C  C39  1  0.48526000  0.12213000  0.51130000  1.0
  C  C40  1  0.23188000  0.49122000  0.98033000  1.0
  C  C41  1  0.51383000  0.73327000  0.47873000  1.0
  C  C42  1  0.17008000  0.61340000  0.04407000  1.0
  C  C43  1  0.76653000  0.51572000  0.02287000  1.0
  C  C44  1  0.79512000  0.65199000  0.01936000  1.0
  C  C45  1  0.05536000  0.69354000  0.63611000  1.0
  C  C46  1  0.94107000  0.79881000  0.66938000  1.0
  C  C47  1  0.95050000  0.29506000  0.36370000  1.0
  C  C48  1  0.96459000  0.17559000  0.43536000  1.0
  C  C49  1  0.57758000  0.48122000  0.24975000  1.0
  C  C50  1  0.42268000  0.50735000  0.74886000  1.0
  C  C51  1  0.89034000  0.57887000  0.54826000  1.0
  C  C52  1  0.11112000  0.41698000  0.44512000  1.0
  C  C53  1  0.02522000  0.59197000  0.56378000  1.0
  C  C54  1  0.97504000  0.40276000  0.43130000  1.0
  C  C55  1  0.61129000  0.48995000  0.10707000  1.0
  N  N56  1  0.13505000  0.50827000  0.51027000  1.0
  N  N57  1  0.86569000  0.48587000  0.48414000  1.0
  O  O58  1  0.35620000  0.31364000  0.53715000  1.0
  O  O59  1  0.63455000  0.67855000  0.47195000  1.0
  O  O60  1  0.60066000  0.30668000  0.50451000  1.0
  O  O61  1  0.39802000  0.68273000  0.47989000  1.0
  O  O62  1  0.44364000  0.47210000  0.32314000  1.0
  O  O63  1  0.55770000  0.50593000  0.67555000  1.0
  O  O64  1  0.68676000  0.48466000  0.28852000  1.0
  O  O65  1  0.31335000  0.51649000  0.70967000  1.0
