# generated using pymatgen
data_ZnH17C12N5O2
_symmetry_space_group_name_H-M   'P 1'
_cell_length_a   10.42160000
_cell_length_b   17.56890000
_cell_length_c   17.56680000
_cell_angle_alpha   119.98500000
_cell_angle_beta   89.99980000
_cell_angle_gamma   90.00000000
_symmetry_Int_Tables_number   1
_chemical_formula_structural   ZnH17C12N5O2
_chemical_formula_sum   'Zn6 H102 C72 N30 O12'
_cell_volume   2785.91513860
_cell_formula_units_Z   6
loop_
 _symmetry_equiv_pos_site_id
 _symmetry_equiv_pos_as_xyz
  1  'x, y, z'
loop_
 _atom_site_type_symbol
 _atom_site_label
 _atom_site_symmetry_multiplicity
 _atom_site_fract_x
 _atom_site_fract_y
 _atom_site_fract_z
 _atom_site_occupancy
  Zn  Zn0  1  0.86262000  0.46810000  0.92203000  1.0
  Zn  Zn1  1  0.69615000  0.92210000  0.45401000  1.0
  Zn  Zn2  1  0.52962000  0.45395000  0.53194000  1.0
  Zn  Zn3  1  0.36261000  0.53190000  0.07797000  1.0
  Zn  Zn4  1  0.19615000  0.07790000  0.54599000  1.0
  Zn  Zn5  1  0.02962000  0.54605000  0.46807000  1.0
  H  H6  1  0.96622000  0.63311000  0.15743000  1.0
  H  H7  1  0.79959000  0.15752000  0.52430000  1.0
  H  H8  1  0.63328000  0.52426000  0.36680000  1.0
  H  H9  1  0.46622000  0.36689000  0.84256000  1.0
  H  H10  1  0.29958000  0.84248000  0.47570000  1.0
  H  H11  1  0.13328000  0.47574000  0.63319000  1.0
  H  H12  1  0.99295000  0.52198000  0.19880000  1.0
  H  H13  1  0.82637000  0.19883000  0.67676000  1.0
  H  H14  1  0.65983000  0.67676000  0.47779000  1.0
  H  H15  1  0.49295000  0.47801000  0.80120000  1.0
  H  H16  1  0.32637000  0.80117000  0.32324000  1.0
  H  H17  1  0.15983000  0.32324000  0.52221000  1.0
  H  H18  1  0.78375000  0.41912000  0.06380000  1.0
  H  H19  1  0.61717000  0.06385000  0.64470000  1.0
  H  H20  1  0.45064000  0.64467000  0.58073000  1.0
  H  H21  1  0.28375000  0.58088000  0.93619000  1.0
  H  H22  1  0.11716000  0.93614000  0.35530000  1.0
  H  H23  1  0.95064000  0.35533000  0.41926000  1.0
  H  H24  1  0.81120000  0.40902000  0.15707000  1.0
  H  H25  1  0.64465000  0.15711000  0.74807000  1.0
  H  H26  1  0.47819000  0.74803000  0.59079000  1.0
  H  H27  1  0.31121000  0.59098000  0.84293000  1.0
  H  H28  1  0.14465000  0.84289000  0.25193000  1.0
  H  H29  1  0.97819000  0.25197000  0.40920000  1.0
  H  H30  1  0.03979000  0.36405000  0.11026000  1.0
  H  H31  1  0.87322000  0.11023000  0.74622000  1.0
  H  H32  1  0.70676000  0.74614000  0.63583000  1.0
  H  H33  1  0.53979000  0.63595000  0.88974000  1.0
  H  H34  1  0.37322000  0.88976000  0.25378000  1.0
  H  H35  1  0.20677000  0.25386000  0.36417000  1.0
  H  H36  1  0.00834000  0.36479000  0.01074000  1.0
  H  H37  1  0.84177000  0.01078000  0.64597000  1.0
  H  H38  1  0.67523000  0.64590000  0.63509000  1.0
  H  H39  1  0.50833000  0.63520000  0.98926000  1.0
  H  H40  1  0.34177000  0.98922000  0.35404000  1.0
  H  H41  1  0.17523000  0.35409000  0.36491000  1.0
  H  H42  1  0.92497000  0.29108000  0.03356000  1.0
  H  H43  1  0.75838000  0.03354000  0.74247000  1.0
  H  H44  1  0.59186000  0.74241000  0.70881000  1.0
  H  H45  1  0.42497000  0.70892000  0.96644000  1.0
  H  H46  1  0.25838000  0.96646000  0.25753000  1.0
  H  H47  1  0.09187000  0.25759000  0.29119000  1.0
  H  H48  1  0.83862000  0.64653000  0.27630000  1.0
  H  H49  1  0.67204000  0.27638000  0.62974000  1.0
  H  H50  1  0.50540000  0.62949000  0.35321000  1.0
  H  H51  1  0.33862000  0.35346000  0.72369000  1.0
  H  H52  1  0.17204000  0.72362000  0.37026000  1.0
  H  H53  1  0.00538000  0.37051000  0.64679000  1.0
  H  H54  1  0.79447000  0.55199000  0.28232000  1.0
  H  H55  1  0.62789000  0.28237000  0.73031000  1.0
  H  H56  1  0.46124000  0.73012000  0.44768000  1.0
  H  H57  1  0.29448000  0.44801000  0.71768000  1.0
  H  H58  1  0.12790000  0.71763000  0.26969000  1.0
  H  H59  1  0.96123000  0.26988000  0.55232000  1.0
  H  H60  1  0.71110000  0.57831000  0.21045000  1.0
  H  H61  1  0.54452000  0.21052000  0.63214000  1.0
  H  H62  1  0.37800000  0.63194000  0.42157000  1.0
  H  H63  1  0.21111000  0.42169000  0.78954000  1.0
  H  H64  1  0.04452000  0.78948000  0.36786000  1.0
  H  H65  1  0.87800000  0.36806000  0.57842000  1.0
  H  H66  1  0.74012000  0.63996000  0.00837000  1.0
  H  H67  1  0.57374000  0.00826000  0.36830000  1.0
  H  H68  1  0.40751000  0.36828000  0.36015000  1.0
  H  H69  1  0.24012000  0.36003000  0.99163000  1.0
  H  H70  1  0.07373000  0.99174000  0.63170000  1.0
  H  H71  1  0.90750000  0.63172000  0.63985000  1.0
  H  H72  1  0.90619000  0.66526000  0.03341000  1.0
  H  H73  1  0.73982000  0.03343000  0.36820000  1.0
  H  H74  1  0.57347000  0.36832000  0.33477000  1.0
  H  H75  1  0.40619000  0.33474000  0.96659000  1.0
  H  H76  1  0.23981000  0.96657000  0.63180000  1.0
  H  H77  1  0.07347000  0.63168000  0.66523000  1.0
  H  H78  1  0.54936000  0.78572000  0.30259000  1.0
  H  H79  1  0.38257000  0.30232000  0.51641000  1.0
  H  H80  1  0.21575000  0.51656000  0.21436000  1.0
  H  H81  1  0.04937000  0.21429000  0.69741000  1.0
  H  H82  1  0.88257000  0.69769000  0.48360000  1.0
  H  H83  1  0.71575000  0.48344000  0.78564000  1.0
  H  H84  1  0.58641000  0.67737000  0.14445000  1.0
  H  H85  1  0.41973000  0.14418000  0.46659000  1.0
  H  H86  1  0.25316000  0.46675000  0.32269000  1.0
  H  H87  1  0.08642000  0.32264000  0.85555000  1.0
  H  H88  1  0.91972000  0.85582000  0.53341000  1.0
  H  H89  1  0.75316000  0.53325000  0.67731000  1.0
  H  H90  1  0.96581000  0.78855000  0.17255000  1.0
  H  H91  1  0.79932000  0.17262000  0.38398000  1.0
  H  H92  1  0.63262000  0.38413000  0.21142000  1.0
  H  H93  1  0.46582000  0.21144000  0.82745000  1.0
  H  H94  1  0.29931000  0.82739000  0.61603000  1.0
  H  H95  1  0.13262000  0.61587000  0.78858000  1.0
  H  H96  1  0.90989000  0.89512000  0.33001000  1.0
  H  H97  1  0.74346000  0.33015000  0.43511000  1.0
  H  H98  1  0.57638000  0.43512000  0.10493000  1.0
  H  H99  1  0.40989000  0.10488000  0.66998000  1.0
  H  H100  1  0.24345000  0.66985000  0.56489000  1.0
  H  H101  1  0.07638000  0.56489000  0.89507000  1.0
  H  H102  1  0.74662000  0.54840000  0.06973000  1.0
  H  H103  1  0.58000000  0.06979000  0.52127000  1.0
  H  H104  1  0.41365000  0.52129000  0.45154000  1.0
  H  H105  1  0.24662000  0.45160000  0.93027000  1.0
  H  H106  1  0.08000000  0.93021000  0.47873000  1.0
  H  H107  1  0.91365000  0.47871000  0.54846000  1.0
  C  C108  1  0.06144000  0.52453000  0.05578000  1.0
  C  C109  1  0.89487000  0.05583000  0.53126000  1.0
  C  C110  1  0.72843000  0.53128000  0.47550000  1.0
  C  C111  1  0.56144000  0.47547000  0.94422000  1.0
  C  C112  1  0.39487000  0.94417000  0.46874000  1.0
  C  C113  1  0.22843000  0.46872000  0.52450000  1.0
  C  C114  1  0.93918000  0.56478000  0.11012000  1.0
  C  C115  1  0.77257000  0.11018000  0.54533000  1.0
  C  C116  1  0.60619000  0.54532000  0.43516000  1.0
  C  C117  1  0.43918000  0.43522000  0.88988000  1.0
  C  C118  1  0.27257000  0.88982000  0.45467000  1.0
  C  C119  1  0.10619000  0.45468000  0.56484000  1.0
  C  C120  1  0.90330000  0.52161000  0.16546000  1.0
  C  C121  1  0.73672000  0.16550000  0.64382000  1.0
  C  C122  1  0.57026000  0.64378000  0.47822000  1.0
  C  C123  1  0.40330000  0.47839000  0.83454000  1.0
  C  C124  1  0.23672000  0.83450000  0.35618000  1.0
  C  C125  1  0.07025000  0.35622000  0.52177000  1.0
  C  C126  1  0.85829000  0.42553000  0.11122000  1.0
  C  C127  1  0.69173000  0.11127000  0.68571000  1.0
  C  C128  1  0.52525000  0.68567000  0.57432000  1.0
  C  C129  1  0.35830000  0.57446000  0.88877000  1.0
  C  C130  1  0.19172000  0.88872000  0.31429000  1.0
  C  C131  1  0.02526000  0.31433000  0.42568000  1.0
  C  C132  1  0.96436000  0.35794000  0.06372000  1.0
  C  C133  1  0.79777000  0.06373000  0.70578000  1.0
  C  C134  1  0.63128000  0.70573000  0.64194000  1.0
  C  C135  1  0.46435000  0.64206000  0.93628000  1.0
  C  C136  1  0.29777000  0.93627000  0.29422000  1.0
  C  C137  1  0.13128000  0.29427000  0.35806000  1.0
  C  C138  1  0.80623000  0.57795000  0.23737000  1.0
  C  C139  1  0.63967000  0.23743000  0.65940000  1.0
  C  C140  1  0.47309000  0.65923000  0.42183000  1.0
  C  C141  1  0.30624000  0.42205000  0.76262000  1.0
  C  C142  1  0.13967000  0.76256000  0.34060000  1.0
  C  C143  1  0.97308000  0.34077000  0.57817000  1.0
  C  C144  1  0.81646000  0.64978000  0.05558000  1.0
  C  C145  1  0.65000000  0.05553000  0.40574000  1.0
  C  C146  1  0.48359000  0.40579000  0.35027000  1.0
  C  C147  1  0.31647000  0.35022000  0.94442000  1.0
  C  C148  1  0.14999000  0.94447000  0.59426000  1.0
  C  C149  1  0.98359000  0.59421000  0.64973000  1.0
  C  C150  1  0.63998000  0.78347000  0.27073000  1.0
  C  C151  1  0.47333000  0.27055000  0.48700000  1.0
  C  C152  1  0.30648000  0.48705000  0.21659000  1.0
  C  C153  1  0.13999000  0.21653000  0.72927000  1.0
  C  C154  1  0.97333000  0.72945000  0.51300000  1.0
  C  C155  1  0.80648000  0.51295000  0.78341000  1.0
  C  C156  1  0.66226000  0.72343000  0.18285000  1.0
  C  C157  1  0.49562000  0.18265000  0.45904000  1.0
  C  C158  1  0.32893000  0.45916000  0.27660000  1.0
  C  C159  1  0.16226000  0.27657000  0.81715000  1.0
  C  C160  1  0.99562000  0.81735000  0.54096000  1.0
  C  C161  1  0.82893000  0.54083000  0.72340000  1.0
  C  C162  1  0.78200000  0.72243000  0.14628000  1.0
  C  C163  1  0.61549000  0.14618000  0.42365000  1.0
  C  C164  1  0.44884000  0.42379000  0.27761000  1.0
  C  C165  1  0.28200000  0.27757000  0.85372000  1.0
  C  C166  1  0.11549000  0.85382000  0.57635000  1.0
  C  C167  1  0.94885000  0.57621000  0.72239000  1.0
  C  C168  1  0.87190000  0.78637000  0.19886000  1.0
  C  C169  1  0.70541000  0.19887000  0.41245000  1.0
  C  C170  1  0.53864000  0.41254000  0.21364000  1.0
  C  C171  1  0.37190000  0.21363000  0.80114000  1.0
  C  C172  1  0.20541000  0.80113000  0.58755000  1.0
  C  C173  1  0.03864000  0.58746000  0.78636000  1.0
  C  C174  1  0.84229000  0.84506000  0.28624000  1.0
  C  C175  1  0.67574000  0.28625000  0.44115000  1.0
  C  C176  1  0.50882000  0.44123000  0.15496000  1.0
  C  C177  1  0.34229000  0.15494000  0.71376000  1.0
  C  C178  1  0.17574000  0.71376000  0.55886000  1.0
  C  C179  1  0.00882000  0.55877000  0.84504000  1.0
  N  N180  1  0.83355000  0.56468000  0.05384000  1.0
  N  N181  1  0.66697000  0.05388000  0.48917000  1.0
  N  N182  1  0.50059000  0.48916000  0.43535000  1.0
  N  N183  1  0.33355000  0.43532000  0.94616000  1.0
  N  N184  1  0.16697000  0.94612000  0.51083000  1.0
  N  N185  1  0.00059000  0.51084000  0.56465000  1.0
  N  N186  1  0.72955000  0.84236000  0.32242000  1.0
  N  N187  1  0.56294000  0.32234000  0.47997000  1.0
  N  N188  1  0.39598000  0.48003000  0.15772000  1.0
  N  N189  1  0.22955000  0.15764000  0.67758000  1.0
  N  N190  1  0.06294000  0.67766000  0.52003000  1.0
  N  N191  1  0.89599000  0.51997000  0.84228000  1.0
  N  N192  1  0.85535000  0.33884000  0.87186000  1.0
  N  N193  1  0.68866000  0.87184000  0.53308000  1.0
  N  N194  1  0.52211000  0.53303000  0.66121000  1.0
  N  N195  1  0.35536000  0.66116000  0.12815000  1.0
  N  N196  1  0.18868000  0.12816000  0.46693000  1.0
  N  N197  1  0.02211000  0.46697000  0.33879000  1.0
  N  N198  1  0.76031000  0.31020000  0.88790000  1.0
  N  N199  1  0.59355000  0.88790000  0.57771000  1.0
  N  N200  1  0.42702000  0.57768000  0.68975000  1.0
  N  N201  1  0.26032000  0.68980000  0.11210000  1.0
  N  N202  1  0.09357000  0.11211000  0.42229000  1.0
  N  N203  1  0.92702000  0.42232000  0.31025000  1.0
  N  N204  1  0.66917000  0.28084000  0.90249000  1.0
  N  N205  1  0.50238000  0.90252000  0.62163000  1.0
  N  N206  1  0.33585000  0.62160000  0.71901000  1.0
  N  N207  1  0.16917000  0.71916000  0.09751000  1.0
  N  N208  1  0.00239000  0.09748000  0.37837000  1.0
  N  N209  1  0.83585000  0.37840000  0.28099000  1.0
  O  O210  1  0.05815000  0.48922000  0.97205000  1.0
  O  O211  1  0.89156000  0.97210000  0.48291000  1.0
  O  O212  1  0.72515000  0.48291000  0.51088000  1.0
  O  O213  1  0.55815000  0.51078000  0.02794000  1.0
  O  O214  1  0.39156000  0.02790000  0.51709000  1.0
  O  O215  1  0.22515000  0.51710000  0.48912000  1.0
  O  O216  1  0.15960000  0.52980000  0.10029000  1.0
  O  O217  1  0.99305000  0.10031000  0.57046000  1.0
  O  O218  1  0.82658000  0.57054000  0.47025000  1.0
  O  O219  1  0.65961000  0.47020000  0.89971000  1.0
  O  O220  1  0.49305000  0.89969000  0.42954000  1.0
  O  O221  1  0.32658000  0.42946000  0.52975000  1.0
