# generated using pymatgen
data_Zn4H9C21N3O13
_symmetry_space_group_name_H-M   'P 1'
_cell_length_a   18.20500000
_cell_length_b   18.22850000
_cell_length_c   18.38598608
_cell_angle_alpha   60.63592001
_cell_angle_beta   60.42297375
_cell_angle_gamma   60.26520000
_symmetry_Int_Tables_number   1
_chemical_formula_structural   Zn4H9C21N3O13
_chemical_formula_sum   'Zn8 H18 C42 N6 O26'
_cell_volume   4357.29211877
_cell_formula_units_Z   2
loop_
 _symmetry_equiv_pos_site_id
 _symmetry_equiv_pos_as_xyz
  1  'x, y, z'
loop_
 _atom_site_type_symbol
 _atom_site_label
 _atom_site_symmetry_multiplicity
 _atom_site_fract_x
 _atom_site_fract_y
 _atom_site_fract_z
 _atom_site_occupancy
  Zn  Zn0  1  0.84984000  0.05341000  0.06145000  1.0
  Zn  Zn1  1  0.02893000  0.05169000  0.06429000  1.0
  Zn  Zn2  1  0.02581000  0.05069000  0.89231000  1.0
  Zn  Zn3  1  0.02782000  0.87681000  0.06367000  1.0
  Zn  Zn4  1  0.61378000  0.46512000  0.47651000  1.0
  Zn  Zn5  1  0.44002000  0.46299000  0.47646000  1.0
  Zn  Zn6  1  0.43900000  0.63993000  0.47743000  1.0
  Zn  Zn7  1  0.44147000  0.46288000  0.65083000  1.0
  H  H8  1  0.90134000  0.21165000  0.21743000  1.0
  H  H9  1  0.80422000  0.30946000  0.31557000  1.0
  H  H10  1  0.57405000  0.29276000  0.32027000  1.0
  H  H11  1  0.90589000  0.20832000  0.69883000  1.0
  H  H12  1  0.80992000  0.30641000  0.59942000  1.0
  H  H13  1  0.57808000  0.30168000  0.83516000  1.0
  H  H14  1  0.90156000  0.68871000  0.22207000  1.0
  H  H15  1  0.80381000  0.59074000  0.32112000  1.0
  H  H16  1  0.57415000  0.83161000  0.31449000  1.0
  H  H17  1  0.18592000  0.20126000  0.70469000  1.0
  H  H18  1  0.28434000  0.29845000  0.60373000  1.0
  H  H19  1  0.28190000  0.30140000  0.83766000  1.0
  H  H20  1  0.18668000  0.68837000  0.21820000  1.0
  H  H21  1  0.28327000  0.58963000  0.31687000  1.0
  H  H22  1  0.27453000  0.82967000  0.31769000  1.0
  H  H23  1  0.28591000  0.82602000  0.60623000  1.0
  H  H24  1  0.18732000  0.92379000  0.70439000  1.0
  H  H25  1  0.18967000  0.68290000  0.92874000  1.0
  C  C26  1  0.84323000  0.14695000  0.15851000  1.0
  C  C27  1  0.78635000  0.20391000  0.21831000  1.0
  C  C28  1  0.82853000  0.23185000  0.24178000  1.0
  C  C29  1  0.77527000  0.28529000  0.29560000  1.0
  C  C30  1  0.68207000  0.30859000  0.32442000  1.0
  C  C31  1  0.64654000  0.27617000  0.29798000  1.0
  C  C32  1  0.62258000  0.36677000  0.38145000  1.0
  C  C33  1  0.84606000  0.14698000  0.87785000  1.0
  C  C34  1  0.79014000  0.20541000  0.81746000  1.0
  C  C35  1  0.83302000  0.23085000  0.72560000  1.0
  C  C36  1  0.78037000  0.28456000  0.67126000  1.0
  C  C37  1  0.68708000  0.31085000  0.71048000  1.0
  C  C38  1  0.65076000  0.28178000  0.80324000  1.0
  C  C39  1  0.62758000  0.36832000  0.65510000  1.0
  C  C40  1  0.84415000  0.86932000  0.15762000  1.0
  C  C41  1  0.78694000  0.80988000  0.21758000  1.0
  C  C42  1  0.82873000  0.71692000  0.24432000  1.0
  C  C43  1  0.77512000  0.66337000  0.29861000  1.0
  C  C44  1  0.68189000  0.70428000  0.32461000  1.0
  C  C45  1  0.64670000  0.79807000  0.29478000  1.0
  C  C46  1  0.62222000  0.64876000  0.38210000  1.0
  C  C47  1  0.12452000  0.14528000  0.88301000  1.0
  C  C48  1  0.18376000  0.20261000  0.82242000  1.0
  C  C49  1  0.20898000  0.22535000  0.73067000  1.0
  C  C50  1  0.26289000  0.27856000  0.67548000  1.0
  C  C51  1  0.28988000  0.30701000  0.71375000  1.0
  C  C52  1  0.26137000  0.28008000  0.80649000  1.0
  C  C53  1  0.34698000  0.36514000  0.65733000  1.0
  C  C54  1  0.12442000  0.86901000  0.15891000  1.0
  C  C55  1  0.18177000  0.80919000  0.21804000  1.0
  C  C56  1  0.20794000  0.71624000  0.24213000  1.0
  C  C57  1  0.26085000  0.66224000  0.29620000  1.0
  C  C58  1  0.28585000  0.70272000  0.32428000  1.0
  C  C59  1  0.25590000  0.79654000  0.29657000  1.0
  C  C60  1  0.34317000  0.64707000  0.38198000  1.0
  C  C61  1  0.34564000  0.64535000  0.66084000  1.0
  C  C62  1  0.28746000  0.70470000  0.71822000  1.0
  C  C63  1  0.26280000  0.79767000  0.67799000  1.0
  C  C64  1  0.20884000  0.85115000  0.73178000  1.0
  C  C65  1  0.18150000  0.81021000  0.82357000  1.0
  C  C66  1  0.21013000  0.71642000  0.85729000  1.0
  C  C67  1  0.12315000  0.86590000  0.88325000  1.0
  N  N68  1  0.69703000  0.22516000  0.24594000  1.0
  N  N69  1  0.70069000  0.23023000  0.85602000  1.0
  N  N70  1  0.69759000  0.85015000  0.24230000  1.0
  N  N71  1  0.20935000  0.22917000  0.86012000  1.0
  N  N72  1  0.20499000  0.84906000  0.24468000  1.0
  N  N73  1  0.26191000  0.66434000  0.80625000  1.0
  O  O74  1  0.98271000  0.00780000  0.02156000  1.0
  O  O75  1  0.92783000  0.12387000  0.13825000  1.0
  O  O76  1  0.80291000  0.12772000  0.13386000  1.0
  O  O77  1  0.53809000  0.38763000  0.40359000  1.0
  O  O78  1  0.66167000  0.39110000  0.40317000  1.0
  O  O79  1  0.93098000  0.12400000  0.83866000  1.0
  O  O80  1  0.80536000  0.12600000  0.96045000  1.0
  O  O81  1  0.54329000  0.38924000  0.69568000  1.0
  O  O82  1  0.66648000  0.39162000  0.57141000  1.0
  O  O83  1  0.92881000  0.82845000  0.13907000  1.0
  O  O84  1  0.80433000  0.95271000  0.13117000  1.0
  O  O85  1  0.53775000  0.68967000  0.40366000  1.0
  O  O86  1  0.66147000  0.56424000  0.40465000  1.0
  O  O87  1  0.10103000  0.12311000  0.84360000  1.0
  O  O88  1  0.10336000  0.12435000  0.96575000  1.0
  O  O89  1  0.37175000  0.38532000  0.69707000  1.0
  O  O90  1  0.36594000  0.38985000  0.57384000  1.0
  O  O91  1  0.10362000  0.82830000  0.13540000  1.0
  O  O92  1  0.10223000  0.95272000  0.13793000  1.0
  O  O93  1  0.36420000  0.68828000  0.40448000  1.0
  O  O94  1  0.36634000  0.56255000  0.40368000  1.0
  O  O95  1  0.36691000  0.68622000  0.57744000  1.0
  O  O96  1  0.36809000  0.56153000  0.69940000  1.0
  O  O97  1  0.10204000  0.82505000  0.96643000  1.0
  O  O98  1  0.09946000  0.95027000  0.84509000  1.0
  O  O99  1  0.48249000  0.50851000  0.52044000  1.0
