# generated using pymatgen
data_NdH15(C3O2)6
_symmetry_space_group_name_H-M   'P 1'
_cell_length_a   8.08161000
_cell_length_b   10.00120000
_cell_length_c   12.73570000
_cell_angle_alpha   92.63960000
_cell_angle_beta   95.71480000
_cell_angle_gamma   92.97990000
_symmetry_Int_Tables_number   1
_chemical_formula_structural   NdH15(C3O2)6
_chemical_formula_sum   'Nd2 H30 C36 O24'
_cell_volume   1021.51175221
_cell_formula_units_Z   2
loop_
 _symmetry_equiv_pos_site_id
 _symmetry_equiv_pos_as_xyz
  1  'x, y, z'
loop_
 _atom_site_type_symbol
 _atom_site_label
 _atom_site_symmetry_multiplicity
 _atom_site_fract_x
 _atom_site_fract_y
 _atom_site_fract_z
 _atom_site_occupancy
  Nd  Nd0  1  0.41601000  0.60825000  0.67485000  1.0
  Nd  Nd1  1  0.58399000  0.39175000  0.32514000  1.0
  H  H2  1  0.48375000  0.08896000  0.72886000  1.0
  H  H3  1  0.51625000  0.91104000  0.27115000  1.0
  H  H4  1  0.27448000  0.33437000  0.96339000  1.0
  H  H5  1  0.72551000  0.66563000  0.03662000  1.0
  H  H6  1  0.27166000  0.90252000  0.98322000  1.0
  H  H7  1  0.72835000  0.09748000  0.01678000  1.0
  H  H8  1  0.26626000  0.97471000  0.16280000  1.0
  H  H9  1  0.73374000  0.02529000  0.83720000  1.0
  H  H10  1  0.07276000  0.95218000  0.08006000  1.0
  H  H11  1  0.92724000  0.04781000  0.91994000  1.0
  H  H12  1  0.13755000  0.12773000  0.28613000  1.0
  H  H13  1  0.86246000  0.87226000  0.71387000  1.0
  H  H14  1  0.94838000  0.12014000  0.19840000  1.0
  H  H15  1  0.05162000  0.87986000  0.80161000  1.0
  H  H16  1  0.91641000  0.72392000  0.34513000  1.0
  H  H17  1  0.08359000  0.27608000  0.65487000  1.0
  H  H18  1  0.64082000  0.90417000  0.58278000  1.0
  H  H19  1  0.35916000  0.09583000  0.41722000  1.0
  H  H20  1  0.60642000  0.24198000  0.65392000  1.0
  H  H21  1  0.39358000  0.75802000  0.34607000  1.0
  H  H22  1  0.88872000  0.15346000  0.37174000  1.0
  H  H23  1  0.11127000  0.84654000  0.62826000  1.0
  H  H24  1  0.06704000  0.59896000  0.75335000  1.0
  H  H25  1  0.93295000  0.40104000  0.24665000  1.0
  H  H26  1  0.05224000  0.53791000  0.63684000  1.0
  H  H27  1  0.94776000  0.46209000  0.36316000  1.0
  H  H28  1  0.71274000  0.70383000  0.84439000  1.0
  H  H29  1  0.28727000  0.29617000  0.15561000  1.0
  H  H30  1  0.61356000  0.57572000  0.87495000  1.0
  H  H31  1  0.38644000  0.42428000  0.12504000  1.0
  C  C32  1  0.40587000  0.85295000  0.80079000  1.0
  C  C33  1  0.59413000  0.14705000  0.19921000  1.0
  C  C34  1  0.38043000  0.98642000  0.85236000  1.0
  C  C35  1  0.61958000  0.01358000  0.14764000  1.0
  C  C36  1  0.42684000  0.10120000  0.80207000  1.0
  C  C37  1  0.57317000  0.89880000  0.19793000  1.0
  C  C38  1  0.38994000  0.22691000  0.84293000  1.0
  C  C39  1  0.61007000  0.77310000  0.15707000  1.0
  C  C40  1  0.42430000  0.35224000  0.78720000  1.0
  C  C41  1  0.57571000  0.64776000  0.21280000  1.0
  C  C42  1  0.30944000  0.23643000  0.93497000  1.0
  C  C43  1  0.69056000  0.76357000  0.06504000  1.0
  C  C44  1  0.26991000  0.12121000  0.98764000  1.0
  C  C45  1  0.73010000  0.87879000  0.01237000  1.0
  C  C46  1  0.30330000  0.99493000  0.94599000  1.0
  C  C47  1  0.69671000  0.00507000  0.05401000  1.0
  C  C48  1  0.15267000  0.02322000  0.13398000  1.0
  C  C49  1  0.84734000  0.97677000  0.86602000  1.0
  C  C50  1  0.05791000  0.06513000  0.22575000  1.0
  C  C51  1  0.94209000  0.93487000  0.77425000  1.0
  C  C52  1  0.91482000  0.93911000  0.34922000  1.0
  C  C53  1  0.08517000  0.06088000  0.65078000  1.0
  C  C54  1  0.87319000  0.81250000  0.38458000  1.0
  C  C55  1  0.12680000  0.18750000  0.61542000  1.0
  C  C56  1  0.77457000  0.79906000  0.46780000  1.0
  C  C57  1  0.22542000  0.20094000  0.53220000  1.0
  C  C58  1  0.72374000  0.65987000  0.49746000  1.0
  C  C59  1  0.27626000  0.34013000  0.50254000  1.0
  C  C60  1  0.71810000  0.91374000  0.51783000  1.0
  C  C61  1  0.28189000  0.08626000  0.48216000  1.0
  C  C62  1  0.75958000  0.03992000  0.48132000  1.0
  C  C63  1  0.24041000  0.96008000  0.51867000  1.0
  C  C64  1  0.70072000  0.16541000  0.52845000  1.0
  C  C65  1  0.29927000  0.83459000  0.47155000  1.0
  C  C66  1  0.85764000  0.05358000  0.39710000  1.0
  C  C67  1  0.14235000  0.94642000  0.60290000  1.0
  O  O68  1  0.33181000  0.74761000  0.83074000  1.0
  O  O69  1  0.66821000  0.25239000  0.16927000  1.0
  O  O70  1  0.49763000  0.84795000  0.72448000  1.0
  O  O71  1  0.50237000  0.15206000  0.27552000  1.0
  O  O72  1  0.51510000  0.35492000  0.71006000  1.0
  O  O73  1  0.48491000  0.64508000  0.28994000  1.0
  O  O74  1  0.35783000  0.45830000  0.81825000  1.0
  O  O75  1  0.64217000  0.54171000  0.18175000  1.0
  O  O76  1  0.19526000  0.14127000  0.07958000  1.0
  O  O77  1  0.80474000  0.85873000  0.92043000  1.0
  O  O78  1  0.00866000  0.93951000  0.26627000  1.0
  O  O79  1  0.99134000  0.06048000  0.73373000  1.0
  O  O80  1  0.75882000  0.56147000  0.43790000  1.0
  O  O81  1  0.24118000  0.43853000  0.56210000  1.0
  O  O82  1  0.64611000  0.64613000  0.57851000  1.0
  O  O83  1  0.35388000  0.35387000  0.42149000  1.0
  O  O84  1  0.69490000  0.27095000  0.48032000  1.0
  O  O85  1  0.30509000  0.72905000  0.51968000  1.0
  O  O86  1  0.65783000  0.15701000  0.62514000  1.0
  O  O87  1  0.34216000  0.84298000  0.37486000  1.0
  O  O88  1  0.09448000  0.61626000  0.68230000  1.0
  O  O89  1  0.90552000  0.38374000  0.31770000  1.0
  O  O90  1  0.66734000  0.61403000  0.81708000  1.0
  O  O91  1  0.33267000  0.38598000  0.18292000  1.0
