# generated using pymatgen
data_CuH11C11NO4
_symmetry_space_group_name_H-M   'P 1'
_cell_length_a   8.52958000
_cell_length_b   13.22300000
_cell_length_c   13.97307582
_cell_angle_alpha   118.22080274
_cell_angle_beta   90.64390761
_cell_angle_gamma   90.02100000
_symmetry_Int_Tables_number   1
_chemical_formula_structural   CuH11C11NO4
_chemical_formula_sum   'Cu4 H44 C44 N4 O16'
_cell_volume   1388.52624688
_cell_formula_units_Z   4
loop_
 _symmetry_equiv_pos_site_id
 _symmetry_equiv_pos_as_xyz
  1  'x, y, z'
loop_
 _atom_site_type_symbol
 _atom_site_label
 _atom_site_symmetry_multiplicity
 _atom_site_fract_x
 _atom_site_fract_y
 _atom_site_fract_z
 _atom_site_occupancy
  Cu  Cu0  1  0.55315000  0.49852000  0.58604000  1.0
  Cu  Cu1  1  0.94640000  0.91169000  0.41325000  1.0
  Cu  Cu2  1  0.44685000  0.50148000  0.41396000  1.0
  Cu  Cu3  1  0.05360000  0.08831000  0.58675000  1.0
  H  H4  1  0.64681000  0.31205000  0.64845000  1.0
  H  H5  1  0.85314000  0.66341000  0.35174000  1.0
  H  H6  1  0.35319000  0.68794000  0.35154000  1.0
  H  H7  1  0.14686000  0.33660000  0.64827000  1.0
  H  H8  1  0.81798000  0.28840000  0.78136000  1.0
  H  H9  1  0.68234000  0.50665000  0.21853000  1.0
  H  H10  1  0.18201000  0.71160000  0.21864000  1.0
  H  H11  1  0.31767000  0.49336000  0.78148000  1.0
  H  H12  1  0.89690000  0.65618000  0.93991000  1.0
  H  H13  1  0.60327000  0.71623000  0.06029000  1.0
  H  H14  1  0.10309000  0.34382000  0.06009000  1.0
  H  H15  1  0.39673000  0.28377000  0.93971000  1.0
  H  H16  1  0.72155000  0.66245000  0.79905000  1.0
  H  H17  1  0.77843000  0.86337000  0.20130000  1.0
  H  H18  1  0.27845000  0.33755000  0.20095000  1.0
  H  H19  1  0.22157000  0.13663000  0.79871000  1.0
  H  H20  1  0.98170000  0.36829000  0.93830000  1.0
  H  H21  1  0.51838000  0.42977000  0.06149000  1.0
  H  H22  1  0.01829000  0.63170000  0.06169000  1.0
  H  H23  1  0.48162000  0.57024000  0.93852000  1.0
  H  H24  1  0.09666000  0.65200000  0.73584000  1.0
  H  H25  1  0.40349000  0.91619000  0.26441000  1.0
  H  H26  1  0.90335000  0.34800000  0.26416000  1.0
  H  H27  1  0.59651000  0.08380000  0.73559000  1.0
  H  H28  1  0.99352000  0.53924000  0.62653000  1.0
  H  H29  1  0.50640000  0.91272000  0.37379000  1.0
  H  H30  1  0.00647000  0.46076000  0.37347000  1.0
  H  H31  1  0.49361000  0.08728000  0.62621000  1.0
  H  H32  1  0.89472000  0.72468000  0.65145000  1.0
  H  H33  1  0.60523000  0.07316000  0.34859000  1.0
  H  H34  1  0.10528000  0.27533000  0.34855000  1.0
  H  H35  1  0.39476000  0.92684000  0.65141000  1.0
  H  H36  1  0.98251000  0.64725000  0.52331000  1.0
  H  H37  1  0.51756000  0.12388000  0.47677000  1.0
  H  H38  1  0.01749000  0.35276000  0.47669000  1.0
  H  H39  1  0.48244000  0.87613000  0.52323000  1.0
  H  H40  1  0.13804000  0.84783000  0.72233000  1.0
  H  H41  1  0.36206000  0.12555000  0.27772000  1.0
  H  H42  1  0.86196000  0.15217000  0.27767000  1.0
  H  H43  1  0.63794000  0.87445000  0.72228000  1.0
  H  H44  1  0.23317000  0.75922000  0.59844000  1.0
  H  H45  1  0.26676000  0.16060000  0.40156000  1.0
  H  H46  1  0.76683000  0.24078000  0.40156000  1.0
  H  H47  1  0.73324000  0.83940000  0.59844000  1.0
  C  C48  1  0.70319000  0.38616000  0.71541000  1.0
  C  C49  1  0.79686000  0.67048000  0.28472000  1.0
  C  C50  1  0.29681000  0.61384000  0.28459000  1.0
  C  C51  1  0.20314000  0.32952000  0.71528000  1.0
  C  C52  1  0.79880000  0.37397000  0.79043000  1.0
  C  C53  1  0.70150000  0.58318000  0.20952000  1.0
  C  C54  1  0.20119000  0.62603000  0.20957000  1.0
  C  C55  1  0.29849000  0.41682000  0.79048000  1.0
  C  C56  1  0.87026000  0.47113000  0.87553000  1.0
  C  C57  1  0.63004000  0.59537000  0.12446000  1.0
  C  C58  1  0.12974000  0.52887000  0.12447000  1.0
  C  C59  1  0.36996000  0.40463000  0.87555000  1.0
  C  C60  1  0.84277000  0.57735000  0.87796000  1.0
  C  C61  1  0.65738000  0.69927000  0.12220000  1.0
  C  C62  1  0.15722000  0.42265000  0.12204000  1.0
  C  C63  1  0.34261000  0.30073000  0.87780000  1.0
  C  C64  1  0.74504000  0.58179000  0.80001000  1.0
  C  C65  1  0.75498000  0.78168000  0.20022000  1.0
  C  C66  1  0.25496000  0.41821000  0.19999000  1.0
  C  C67  1  0.24502000  0.21831000  0.79978000  1.0
  C  C68  1  0.96618000  0.45723000  0.95516000  1.0
  C  C69  1  0.53396000  0.50193000  0.04476000  1.0
  C  C70  1  0.03382000  0.54277000  0.04484000  1.0
  C  C71  1  0.46604000  0.49807000  0.95524000  1.0
  C  C72  1  0.23116000  0.56039000  0.59253000  1.0
  C  C73  1  0.26824000  0.96779000  0.40764000  1.0
  C  C74  1  0.76884000  0.43960000  0.40746000  1.0
  C  C75  1  0.73177000  0.03220000  0.59236000  1.0
  C  C76  1  0.07680000  0.61060000  0.64750000  1.0
  C  C77  1  0.42314000  0.96301000  0.35276000  1.0
  C  C78  1  0.92320000  0.38940000  0.35250000  1.0
  C  C79  1  0.57686000  0.03699000  0.64724000  1.0
  C  C80  1  0.00736000  0.69361000  0.61088000  1.0
  C  C81  1  0.49258000  0.08264000  0.38923000  1.0
  C  C82  1  0.99264000  0.30640000  0.38913000  1.0
  C  C83  1  0.50742000  0.91737000  0.61078000  1.0
  C  C84  1  0.11836000  0.79371000  0.63466000  1.0
  C  C85  1  0.38163000  0.15902000  0.36542000  1.0
  C  C86  1  0.88163000  0.20629000  0.36534000  1.0
  C  C87  1  0.61838000  0.84098000  0.63458000  1.0
  C  C88  1  0.06927000  0.87038000  0.58604000  1.0
  C  C89  1  0.43070000  0.28409000  0.41382000  1.0
  C  C90  1  0.93073000  0.12962000  0.41397000  1.0
  C  C91  1  0.56931000  0.71590000  0.58617000  1.0
  N  N92  1  0.67429000  0.48834000  0.72009000  1.0
  N  N93  1  0.82566000  0.76805000  0.28010000  1.0
  N  N94  1  0.32571000  0.51166000  0.27991000  1.0
  N  N95  1  0.17434000  0.23195000  0.71990000  1.0
  O  O96  1  0.33773000  0.54373000  0.64830000  1.0
  O  O97  1  0.16210000  0.89543000  0.35142000  1.0
  O  O98  1  0.66227000  0.45627000  0.35170000  1.0
  O  O99  1  0.83790000  0.10458000  0.64859000  1.0
  O  O100  1  0.24365000  0.54016000  0.49436000  1.0
  O  O101  1  0.25593000  0.04605000  0.50558000  1.0
  O  O102  1  0.75635000  0.45984000  0.50563000  1.0
  O  O103  1  0.74407000  0.95395000  0.49442000  1.0
  O  O104  1  0.09879000  0.97725000  0.64357000  1.0
  O  O105  1  0.40146000  0.33386000  0.35652000  1.0
  O  O106  1  0.90121000  0.02275000  0.35643000  1.0
  O  O107  1  0.59854000  0.66615000  0.64348000  1.0
  O  O108  1  0.00754000  0.82236000  0.49128000  1.0
  O  O109  1  0.49273000  0.33128000  0.50861000  1.0
  O  O110  1  0.99246000  0.17764000  0.50872000  1.0
  O  O111  1  0.50728000  0.66872000  0.49138000  1.0
