# generated using pymatgen
data_CuH28C27N4O7
_symmetry_space_group_name_H-M   'P 1'
_cell_length_a   8.34154000
_cell_length_b   12.48780000
_cell_length_c   13.44840000
_cell_angle_alpha   74.79740000
_cell_angle_beta   84.49860000
_cell_angle_gamma   85.21010000
_symmetry_Int_Tables_number   1
_chemical_formula_structural   CuH28C27N4O7
_chemical_formula_sum   'Cu2 H56 C54 N8 O14'
_cell_volume   1343.14849969
_cell_formula_units_Z   2
loop_
 _symmetry_equiv_pos_site_id
 _symmetry_equiv_pos_as_xyz
  1  'x, y, z'
loop_
 _atom_site_type_symbol
 _atom_site_label
 _atom_site_symmetry_multiplicity
 _atom_site_fract_x
 _atom_site_fract_y
 _atom_site_fract_z
 _atom_site_occupancy
  Cu  Cu0  1  0.00000000  0.50000000  0.50000000  1.0
  Cu  Cu1  1  0.50000000  0.00000000  0.00000000  1.0
  H  H2  1  0.79958000  0.71244000  0.48016000  1.0
  H  H3  1  0.20041000  0.28756000  0.51985000  1.0
  H  H4  1  0.44656000  0.18055000  0.86095000  1.0
  H  H5  1  0.55344000  0.81945000  0.13905000  1.0
  H  H6  1  0.29809000  0.24555000  0.90430000  1.0
  H  H7  1  0.70191000  0.75444000  0.09571000  1.0
  H  H8  1  0.55509000  0.80440000  0.39023000  1.0
  H  H9  1  0.44489000  0.19560000  0.60979000  1.0
  H  H10  1  0.29413000  0.55937000  0.29511000  1.0
  H  H11  1  0.70587000  0.44063000  0.70489000  1.0
  H  H12  1  0.42096000  0.70357000  0.28672000  1.0
  H  H13  1  0.57903000  0.29643000  0.71329000  1.0
  H  H14  1  0.25403000  0.62060000  0.06237000  1.0
  H  H15  1  0.74596000  0.37940000  0.93763000  1.0
  H  H16  1  0.78249000  0.43561000  0.36658000  1.0
  H  H17  1  0.21752000  0.56439000  0.63341000  1.0
  H  H18  1  0.34137000  0.42767000  0.13981000  1.0
  H  H19  1  0.65862000  0.57233000  0.86020000  1.0
  H  H20  1  0.17559000  0.34575000  0.35604000  1.0
  H  H21  1  0.82441000  0.65424000  0.64395000  1.0
  H  H22  1  0.35511000  0.28607000  0.30305000  1.0
  H  H23  1  0.64488000  0.71393000  0.69696000  1.0
  H  H24  1  0.20211000  0.23821000  0.17510000  1.0
  H  H25  1  0.79789000  0.76179000  0.82490000  1.0
  H  H26  1  0.11190000  0.18124000  0.29961000  1.0
  H  H27  1  0.88809000  0.81876000  0.70039000  1.0
  H  H28  1  0.90312000  0.33938000  0.27874000  1.0
  H  H29  1  0.09688000  0.66063000  0.72127000  1.0
  H  H30  1  0.89930000  0.27588000  0.17755000  1.0
  H  H31  1  0.10070000  0.72412000  0.82245000  1.0
  H  H32  1  0.88922000  0.48169000  0.11292000  1.0
  H  H33  1  0.11077000  0.51831000  0.88708000  1.0
  H  H34  1  0.06733000  0.42089000  0.06070000  1.0
  H  H35  1  0.93267000  0.57911000  0.93929000  1.0
  H  H36  1  0.04119000  0.52731000  0.24263000  1.0
  H  H37  1  0.95881000  0.47269000  0.75738000  1.0
  H  H38  1  0.87351000  0.84876000  0.93136000  1.0
  H  H39  1  0.12649000  0.15123000  0.06864000  1.0
  H  H40  1  0.97830000  0.02642000  0.81705000  1.0
  H  H41  1  0.02171000  0.97358000  0.18295000  1.0
  H  H42  1  0.24507000  0.08359000  0.84749000  1.0
  H  H43  1  0.75493000  0.91640000  0.15250000  1.0
  H  H44  1  0.32271000  0.79544000  0.07780000  1.0
  H  H45  1  0.67730000  0.20456000  0.92220000  1.0
  H  H46  1  0.12716000  0.80708000  0.57915000  1.0
  H  H47  1  0.87285000  0.19293000  0.42085000  1.0
  H  H48  1  0.31146000  0.07759000  0.56834000  1.0
  H  H49  1  0.68855000  0.92241000  0.43166000  1.0
  H  H50  1  0.29397000  0.94314000  0.65394000  1.0
  H  H51  1  0.70603000  0.05686000  0.34605000  1.0
  H  H52  1  0.11773000  0.02612000  0.61135000  1.0
  H  H53  1  0.88227000  0.97388000  0.38864000  1.0
  H  H54  1  0.38042000  0.08649000  0.39003000  1.0
  H  H55  1  0.61959000  0.91351000  0.60996000  1.0
  H  H56  1  0.24458000  0.83497000  0.25585000  1.0
  H  H57  1  0.75542000  0.16503000  0.74415000  1.0
  C  C58  1  0.73754000  0.67204000  0.43379000  1.0
  C  C59  1  0.26247000  0.32797000  0.56621000  1.0
  C  C60  1  0.60256000  0.72245000  0.38349000  1.0
  C  C61  1  0.39743000  0.27754000  0.61653000  1.0
  C  C62  1  0.52828000  0.66643000  0.32543000  1.0
  C  C63  1  0.47172000  0.33357000  0.67457000  1.0
  C  C64  1  0.59240000  0.56169000  0.31828000  1.0
  C  C65  1  0.40760000  0.43831000  0.68172000  1.0
  C  C66  1  0.72914000  0.51708000  0.37022000  1.0
  C  C67  1  0.27086000  0.48292000  0.62977000  1.0
  C  C68  1  0.52134000  0.49409000  0.25794000  1.0
  C  C69  1  0.47866000  0.50592000  0.74206000  1.0
  C  C70  1  0.26805000  0.44273000  0.20819000  1.0
  C  C71  1  0.73195000  0.55727000  0.79181000  1.0
  C  C72  1  0.23751000  0.32987000  0.28483000  1.0
  C  C73  1  0.76249000  0.67014000  0.71517000  1.0
  C  C74  1  0.13353000  0.26024000  0.24178000  1.0
  C  C75  1  0.86647000  0.73976000  0.75822000  1.0
  C  C76  1  0.97478000  0.32414000  0.21021000  1.0
  C  C77  1  0.02521000  0.67587000  0.78980000  1.0
  C  C78  1  0.00458000  0.43537000  0.13230000  1.0
  C  C79  1  0.99542000  0.56464000  0.86770000  1.0
  C  C80  1  0.10853000  0.50623000  0.17493000  1.0
  C  C81  1  0.89147000  0.49377000  0.82507000  1.0
  C  C82  1  0.03419000  0.70020000  0.08212000  1.0
  C  C83  1  0.96582000  0.29980000  0.91788000  1.0
  C  C84  1  0.09227000  0.80657000  0.01166000  1.0
  C  C85  1  0.90773000  0.19343000  0.98835000  1.0
  C  C86  1  0.99286000  0.87395000  0.93877000  1.0
  C  C87  1  0.00714000  0.12605000  0.06123000  1.0
  C  C88  1  0.04989000  0.97283000  0.87644000  1.0
  C  C89  1  0.95012000  0.02716000  0.12356000  1.0
  C  C90  1  0.19918000  0.00502000  0.89275000  1.0
  C  C91  1  0.80083000  0.99497000  0.10724000  1.0
  C  C92  1  0.24114000  0.84446000  0.02223000  1.0
  C  C93  1  0.75886000  0.15554000  0.97777000  1.0
  C  C94  1  0.12334000  0.69693000  0.42713000  1.0
  C  C95  1  0.87666000  0.30308000  0.57287000  1.0
  C  C96  1  0.17994000  0.80951000  0.41869000  1.0
  C  C97  1  0.82007000  0.19049000  0.58130000  1.0
  C  C98  1  0.17923000  0.85348000  0.50439000  1.0
  C  C99  1  0.82078000  0.14653000  0.49561000  1.0
  C  C100  1  0.24741000  0.95499000  0.49531000  1.0
  C  C101  1  0.75260000  0.04502000  0.50469000  1.0
  C  C102  1  0.24280000  0.00280000  0.58730000  1.0
  C  C103  1  0.75721000  0.99720000  0.41270000  1.0
  C  C104  1  0.32093000  0.00950000  0.39930000  1.0
  C  C105  1  0.67907000  0.99050000  0.60070000  1.0
  C  C106  1  0.32172000  0.96650000  0.31283000  1.0
  C  C107  1  0.67828000  0.03349000  0.68717000  1.0
  C  C108  1  0.24675000  0.86826000  0.32266000  1.0
  C  C109  1  0.75324000  0.13174000  0.67732000  1.0
  C  C110  1  0.41042000  0.02194000  0.21139000  1.0
  C  C111  1  0.58958000  0.97806000  0.78861000  1.0
  N  N112  1  0.79935000  0.57024000  0.42795000  1.0
  N  N113  1  0.20065000  0.42976000  0.57205000  1.0
  N  N114  1  0.29163000  0.94325000  0.96589000  1.0
  N  N115  1  0.70837000  0.05674000  0.03411000  1.0
  N  N116  1  0.35932000  0.51039000  0.25322000  1.0
  N  N117  1  0.64068000  0.48960000  0.74678000  1.0
  N  N118  1  0.14289000  0.61265000  0.10082000  1.0
  N  N119  1  0.85711000  0.38734000  0.89918000  1.0
  O  O120  1  0.05049000  0.64723000  0.51460000  1.0
  O  O121  1  0.94951000  0.35277000  0.48540000  1.0
  O  O122  1  0.40886000  0.21328000  0.91812000  1.0
  O  O123  1  0.59113000  0.78671000  0.08188000  1.0
  O  O124  1  0.41718000  0.96136000  0.14438000  1.0
  O  O125  1  0.58284000  0.03863000  0.85561000  1.0
  O  O126  1  0.14937000  0.65335000  0.35219000  1.0
  O  O127  1  0.85063000  0.34666000  0.64781000  1.0
  O  O128  1  0.46933000  0.11269000  0.19876000  1.0
  O  O129  1  0.53068000  0.88731000  0.80123000  1.0
  O  O130  1  0.60736000  0.42838000  0.21776000  1.0
  O  O131  1  0.39264000  0.57162000  0.78224000  1.0
  O  O132  1  0.89261000  0.69494000  0.12217000  1.0
  O  O133  1  0.10740000  0.30506000  0.87783000  1.0
