# generated using pymatgen
data_CoH34C36(N2O3)2
_symmetry_space_group_name_H-M   'P 1'
_cell_length_a   11.22630000
_cell_length_b   12.86186171
_cell_length_c   41.69100000
_cell_angle_alpha   85.81685283
_cell_angle_beta   90.00080000
_cell_angle_gamma   64.12351484
_symmetry_Int_Tables_number   1
_chemical_formula_structural   CoH34C36(N2O3)2
_chemical_formula_sum   'Co6 H204 C216 N24 O36'
_cell_volume   5398.41311863
_cell_formula_units_Z   6
loop_
 _symmetry_equiv_pos_site_id
 _symmetry_equiv_pos_as_xyz
  1  'x, y, z'
loop_
 _atom_site_type_symbol
 _atom_site_label
 _atom_site_symmetry_multiplicity
 _atom_site_fract_x
 _atom_site_fract_y
 _atom_site_fract_z
 _atom_site_occupancy
  Co  Co0  1  0.04286000  0.39981000  0.64829000  1.0
  Co  Co1  1  0.44298000  0.60005000  0.85171000  1.0
  Co  Co2  1  0.95713000  0.60020000  0.35171000  1.0
  Co  Co3  1  0.55701000  0.39996000  0.14829000  1.0
  Co  Co4  1  0.81894000  0.00011000  0.75001000  1.0
  Co  Co5  1  0.18106000  0.99989000  0.24999000  1.0
  H  H6  1  0.14155000  0.78017000  0.33329000  1.0
  H  H7  1  0.92170000  0.21946000  0.16669000  1.0
  H  H8  1  0.85845000  0.21983000  0.66666667  1.0
  H  H9  1  0.07829000  0.78054000  0.83331000  1.0
  H  H10  1  0.10047000  0.72403000  0.38929000  1.0
  H  H11  1  0.82470000  0.27570000  0.11067000  1.0
  H  H12  1  0.89954000  0.27597000  0.61071000  1.0
  H  H13  1  0.17530000  0.72429000  0.88933000  1.0
  H  H14  1  0.89341000  0.08653000  0.40641000  1.0
  H  H15  1  0.98040000  0.91322000  0.09346000  1.0
  H  H16  1  0.10660000  0.91346000  0.59358000  1.0
  H  H17  1  0.01960000  0.08677000  0.90654000  1.0
  H  H18  1  0.92787000  0.13944000  0.35041000  1.0
  H  H19  1  0.06763000  0.86024000  0.14949000  1.0
  H  H20  1  0.07214000  0.86056000  0.64959000  1.0
  H  H21  1  0.93236000  0.13976000  0.85051000  1.0
  H  H22  1  0.83340000  0.01005000  0.44933000  1.0
  H  H23  1  0.84392000  0.98974000  0.05058000  1.0
  H  H24  1  0.16660000  0.98995000  0.55067000  1.0
  H  H25  1  0.15607000  0.01026000  0.94942000  1.0
  H  H26  1  0.99474000  0.00076000  0.45284000  1.0
  H  H27  1  0.99583000  0.99932000  0.04710000  1.0
  H  H28  1  0.00525000  0.99924000  0.54716000  1.0
  H  H29  1  0.00417000  0.00067000  0.95290000  1.0
  H  H30  1  0.29373000  0.78052000  0.49230000  1.0
  H  H31  1  0.07472000  0.21920000  0.00771000  1.0
  H  H32  1  0.70626000  0.21949000  0.50770000  1.0
  H  H33  1  0.92529000  0.78079000  0.99230000  1.0
  H  H34  1  0.18269000  0.87978000  0.46247000  1.0
  H  H35  1  0.06267000  0.11996000  0.03750000  1.0
  H  H36  1  0.81731000  0.12022000  0.53753000  1.0
  H  H37  1  0.93734000  0.88003000  0.96250000  1.0
  H  H38  1  0.22411000  0.73142000  0.46181000  1.0
  H  H39  1  0.95590000  0.26835000  0.03817000  1.0
  H  H40  1  0.77589000  0.26858000  0.53819000  1.0
  H  H41  1  0.04410000  0.73165000  0.96183000  1.0
  H  H42  1  0.25455000  0.60647000  0.55886000  1.0
  H  H43  1  0.86173000  0.39343000  0.94110000  1.0
  H  H44  1  0.74545000  0.39353000  0.44114000  1.0
  H  H45  1  0.13827000  0.60657000  0.05890000  1.0
  H  H46  1  0.31355000  0.63641000  0.52139000  1.0
  H  H47  1  0.95060000  0.36331000  0.97858000  1.0
  H  H48  1  0.68645000  0.36359000  0.47860000  1.0
  H  H49  1  0.04941000  0.63668000  0.02142000  1.0
  H  H50  1  0.95080000  0.75822000  0.59920000  1.0
  H  H51  1  0.70897000  0.24193000  0.90079000  1.0
  H  H52  1  0.04920000  0.24178000  0.40080000  1.0
  H  H53  1  0.29103000  0.75807000  0.09921000  1.0
  H  H54  1  0.12222000  0.69998000  0.59386000  1.0
  H  H55  1  0.82203000  0.30031000  0.90608000  1.0
  H  H56  1  0.87778000  0.30002000  0.40614000  1.0
  H  H57  1  0.17797000  0.69969000  0.09392000  1.0
  H  H58  1  0.03365000  0.62158000  0.58330000  1.0
  H  H59  1  0.65506000  0.37859000  0.91668000  1.0
  H  H60  1  0.96635000  0.37842000  0.41669000  1.0
  H  H61  1  0.34494000  0.62141000  0.08332000  1.0
  H  H62  1  0.66735000  0.88673000  0.54522000  1.0
  H  H63  1  0.55424000  0.11331000  0.95478000  1.0
  H  H64  1  0.33265000  0.11327000  0.45477000  1.0
  H  H65  1  0.44575000  0.88669000  0.04522000  1.0
  H  H66  1  0.77583000  0.77293000  0.57253000  1.0
  H  H67  1  0.54886000  0.22691000  0.92738000  1.0
  H  H68  1  0.22416000  0.22708000  0.42748000  1.0
  H  H69  1  0.45114000  0.77309000  0.07262000  1.0
  H  H70  1  0.64398000  0.01759000  0.51548000  1.0
  H  H71  1  0.66189000  0.98233000  0.98448000  1.0
  H  H72  1  0.35602000  0.98241000  0.48452000  1.0
  H  H73  1  0.33811000  0.01767000  0.01552000  1.0
  H  H74  1  0.66715000  0.93694000  0.48134000  1.0
  H  H75  1  0.60416000  0.06317000  0.01860000  1.0
  H  H76  1  0.33285000  0.06306000  0.51866000  1.0
  H  H77  1  0.39584000  0.93683000  0.98140000  1.0
  H  H78  1  0.70452000  0.05739000  0.48030000  1.0
  H  H79  1  0.76204000  0.94286000  0.01969000  1.0
  H  H80  1  0.29548000  0.94261000  0.51970000  1.0
  H  H81  1  0.23795000  0.05714000  0.98031000  1.0
  H  H82  1  0.75549000  0.03018000  0.63313000  1.0
  H  H83  1  0.78587000  0.96963000  0.86688000  1.0
  H  H84  1  0.24451000  0.96982000  0.36687000  1.0
  H  H85  1  0.21413000  0.03037000  0.13312000  1.0
  H  H86  1  0.55738000  0.15304000  0.66337000  1.0
  H  H87  1  0.71070000  0.84666000  0.83667000  1.0
  H  H88  1  0.44262000  0.84696000  0.33663000  1.0
  H  H89  1  0.28931000  0.15334000  0.16333000  1.0
  H  H90  1  0.30267000  0.11188000  0.59368000  1.0
  H  H91  1  0.41499000  0.88772000  0.90639000  1.0
  H  H92  1  0.69732000  0.88813000  0.40632000  1.0
  H  H93  1  0.58502000  0.11227000  0.09361000  1.0
  H  H94  1  0.49858000  0.97992000  0.56525000  1.0
  H  H95  1  0.47895000  0.01971000  0.93481000  1.0
  H  H96  1  0.50141000  0.02009000  0.43474000  1.0
  H  H97  1  0.52105000  0.98029000  0.06519000  1.0
  H  H98  1  0.48891000  0.52364000  0.55441000  1.0
  H  H99  1  0.01350000  0.47618000  0.94561000  1.0
  H  H100  1  0.51109000  0.47636000  0.44559000  1.0
  H  H101  1  0.98651000  0.52382000  0.05439000  1.0
  H  H102  1  0.70642000  0.44365000  0.58390000  1.0
  H  H103  1  0.15099000  0.55616000  0.91611000  1.0
  H  H104  1  0.29358000  0.55635000  0.41610000  1.0
  H  H105  1  0.84901000  0.44384000  0.08390000  1.0
  H  H106  1  0.60197000  0.77039000  0.62318000  1.0
  H  H107  1  0.37292000  0.22954000  0.87673000  1.0
  H  H108  1  0.39802000  0.22962000  0.37682000  1.0
  H  H109  1  0.62707000  0.77047000  0.12327000  1.0
  H  H110  1  0.38589000  0.85490000  0.59222000  1.0
  H  H111  1  0.24144000  0.14500000  0.90770000  1.0
  H  H112  1  0.61411000  0.14510000  0.40778000  1.0
  H  H113  1  0.75856000  0.85500000  0.09230000  1.0
  H  H114  1  0.96021000  0.64492000  0.67796000  1.0
  H  H115  1  0.60553000  0.35485000  0.82203000  1.0
  H  H116  1  0.03979000  0.35508000  0.32204000  1.0
  H  H117  1  0.39447000  0.64515000  0.17797000  1.0
  H  H118  1  0.14845000  0.72934000  0.68402000  1.0
  H  H119  1  0.87809000  0.27075000  0.81594000  1.0
  H  H120  1  0.85155000  0.27066000  0.31598000  1.0
  H  H121  1  0.12191000  0.72925000  0.18406000  1.0
  H  H122  1  0.30395000  0.42968000  0.63167000  1.0
  H  H123  1  0.73377000  0.57001000  0.86845000  1.0
  H  H124  1  0.69605000  0.57032000  0.36833000  1.0
  H  H125  1  0.26624000  0.42998000  0.13155000  1.0
  H  H126  1  0.36586000  0.67352000  0.63792000  1.0
  H  H127  1  0.03965000  0.32651000  0.86212000  1.0
  H  H128  1  0.63413000  0.32649000  0.36208000  1.0
  H  H129  1  0.96034000  0.67350000  0.13788000  1.0
  H  H130  1  0.44785000  0.52285000  0.63723000  1.0
  H  H131  1  0.97078000  0.47719000  0.86284000  1.0
  H  H132  1  0.55216000  0.47715000  0.36277000  1.0
  H  H133  1  0.02922000  0.52281000  0.13716000  1.0
  H  H134  1  0.32116000  0.80593000  0.65816000  1.0
  H  H135  1  0.12683000  0.19411000  0.84177000  1.0
  H  H136  1  0.67885000  0.19407000  0.34184000  1.0
  H  H137  1  0.87317000  0.80590000  0.15823000  1.0
  H  H138  1  0.39956000  0.86357000  0.68292000  1.0
  H  H139  1  0.26297000  0.13648000  0.81705000  1.0
  H  H140  1  0.60044000  0.13643000  0.31708000  1.0
  H  H141  1  0.73703000  0.86353000  0.18295000  1.0
  H  H142  1  0.26065000  0.84365000  0.69659000  1.0
  H  H143  1  0.10407000  0.15669000  0.80330000  1.0
  H  H144  1  0.73936000  0.15635000  0.30341000  1.0
  H  H145  1  0.89593000  0.84331000  0.19670000  1.0
  H  H146  1  0.63809000  0.28592000  0.69333000  1.0
  H  H147  1  0.92393000  0.71424000  0.80672000  1.0
  H  H148  1  0.36191000  0.71408000  0.30668000  1.0
  H  H149  1  0.07607000  0.28576000  0.19328000  1.0
  H  H150  1  0.59187000  0.37060000  0.65650000  1.0
  H  H151  1  0.96237000  0.62969000  0.84357000  1.0
  H  H152  1  0.40813000  0.62940000  0.34350000  1.0
  H  H153  1  0.03764000  0.37031000  0.15643000  1.0
  H  H154  1  0.46930000  0.35683000  0.68077000  1.0
  H  H155  1  0.82620000  0.64321000  0.81927000  1.0
  H  H156  1  0.53070000  0.64317000  0.31924000  1.0
  H  H157  1  0.17380000  0.35680000  0.18073000  1.0
  H  H158  1  0.74570000  0.61836000  0.76092000  1.0
  H  H159  1  0.36414000  0.38203000  0.73916000  1.0
  H  H160  1  0.25430000  0.38164000  0.23908000  1.0
  H  H161  1  0.63586000  0.61797000  0.26084000  1.0
  H  H162  1  0.78064000  0.47390000  0.77258000  1.0
  H  H163  1  0.25455000  0.52648000  0.72750000  1.0
  H  H164  1  0.21936000  0.52610000  0.22742000  1.0
  H  H165  1  0.74545000  0.47352000  0.27250000  1.0
  H  H166  1  0.64469000  0.58881000  0.78892000  1.0
  H  H167  1  0.23372000  0.41152000  0.71112000  1.0
  H  H168  1  0.35532000  0.41118000  0.21108000  1.0
  H  H169  1  0.76628000  0.58848000  0.28888000  1.0
  H  H170  1  0.74100000  0.34483000  0.76529000  1.0
  H  H171  1  0.08576000  0.65530000  0.73476000  1.0
  H  H172  1  0.25901000  0.65517000  0.23471000  1.0
  H  H173  1  0.91424000  0.34470000  0.26524000  1.0
  H  H174  1  0.70263000  0.27578000  0.73498000  1.0
  H  H175  1  0.97847000  0.72441000  0.76509000  1.0
  H  H176  1  0.29738000  0.72422000  0.26502000  1.0
  H  H177  1  0.02153000  0.27559000  0.23491000  1.0
  H  H178  1  0.98064000  0.15967000  0.74762000  1.0
  H  H179  1  0.14044000  0.84027000  0.75242000  1.0
  H  H180  1  0.01936000  0.84033000  0.25237000  1.0
  H  H181  1  0.85956000  0.15973000  0.24758000  1.0
  H  H182  1  0.15783000  0.18163000  0.70265000  1.0
  H  H183  1  0.33992000  0.81810000  0.79734000  1.0
  H  H184  1  0.84217000  0.81837000  0.29734000  1.0
  H  H185  1  0.66008000  0.18190000  0.20267000  1.0
  H  H186  1  0.79235000  0.47737000  0.69007000  1.0
  H  H187  1  0.26994000  0.52252000  0.80995000  1.0
  H  H188  1  0.20765000  0.52263000  0.30993000  1.0
  H  H189  1  0.73005000  0.47748000  0.19005000  1.0
  H  H190  1  0.41197000  0.85348000  0.73487000  1.0
  H  H191  1  0.26505000  0.14683000  0.76507000  1.0
  H  H192  1  0.58802000  0.14652000  0.26513000  1.0
  H  H193  1  0.73494000  0.85318000  0.23493000  1.0
  H  H194  1  0.51518000  0.76404000  0.76761000  1.0
  H  H195  1  0.27891000  0.23633000  0.73235000  1.0
  H  H196  1  0.48481000  0.23596000  0.23239000  1.0
  H  H197  1  0.72110000  0.76366000  0.26765000  1.0
  H  H198  1  0.66255000  0.74795000  0.68431000  1.0
  H  H199  1  0.41027000  0.25227000  0.81565000  1.0
  H  H200  1  0.33744000  0.25206000  0.31569000  1.0
  H  H201  1  0.58973000  0.74772000  0.18435000  1.0
  H  H202  1  0.83395000  0.85015000  0.68803000  1.0
  H  H203  1  0.68384000  0.14991000  0.81194000  1.0
  H  H204  1  0.16603000  0.14986000  0.31197000  1.0
  H  H205  1  0.31616000  0.85009000  0.18806000  1.0
  H  H206  1  0.62991000  0.88704000  0.77476000  1.0
  H  H207  1  0.51662000  0.11313000  0.72521000  1.0
  H  H208  1  0.37009000  0.11296000  0.22525000  1.0
  H  H209  1  0.48338000  0.88687000  0.27480000  1.0
  C  C210  1  0.05534000  0.99953000  0.30448000  1.0
  C  C211  1  0.05487000  0.99996000  0.19547000  1.0
  C  C212  1  0.94466000  0.00047000  0.69552000  1.0
  C  C213  1  0.94513000  0.00004000  0.80453000  1.0
  C  C214  1  0.03501000  0.96392000  0.33788000  1.0
  C  C215  1  0.99900000  0.03571000  0.16206000  1.0
  C  C216  1  0.96499000  0.03608000  0.66212000  1.0
  C  C217  1  0.00101000  0.96428000  0.83794000  1.0
  C  C218  1  0.08609000  0.84650000  0.34935000  1.0
  C  C219  1  0.93262000  0.15314000  0.15062000  1.0
  C  C220  1  0.91392000  0.15350000  0.65065000  1.0
  C  C221  1  0.06739000  0.84685000  0.84938000  1.0
  C  C222  1  0.06530000  0.81487000  0.38058000  1.0
  C  C223  1  0.88036000  0.18484000  0.11938000  1.0
  C  C224  1  0.93470000  0.18513000  0.61942000  1.0
  C  C225  1  0.11964000  0.81515000  0.88062000  1.0
  C  C226  1  0.99596000  0.90109000  0.40136000  1.0
  C  C227  1  0.89727000  0.09868000  0.09857000  1.0
  C  C228  1  0.00404000  0.09891000  0.59864000  1.0
  C  C229  1  0.10273000  0.90131000  0.90143000  1.0
  C  C230  1  0.94597000  0.01872000  0.39051000  1.0
  C  C231  1  0.96504000  0.98101000  0.10939000  1.0
  C  C232  1  0.05404000  0.98128000  0.60949000  1.0
  C  C233  1  0.03497000  0.01898000  0.89061000  1.0
  C  C234  1  0.96500000  0.04850000  0.35885000  1.0
  C  C235  1  0.01380000  0.95118000  0.14105000  1.0
  C  C236  1  0.03500000  0.95150000  0.64115000  1.0
  C  C237  1  0.98619000  0.04882000  0.85895000  1.0
  C  C238  1  0.93718000  0.94980000  0.45502000  1.0
  C  C239  1  0.88727000  0.05013000  0.04491000  1.0
  C  C240  1  0.06281000  0.05020000  0.54497000  1.0
  C  C241  1  0.11274000  0.94986000  0.95509000  1.0
  C  C242  1  0.95763000  0.88800000  0.48792000  1.0
  C  C243  1  0.84584000  0.11204000  0.01203000  1.0
  C  C244  1  0.04236000  0.11200000  0.51208000  1.0
  C  C245  1  0.15416000  0.88795000  0.98797000  1.0
  C  C246  1  0.08852000  0.81448000  0.49891000  1.0
  C  C247  1  0.90330000  0.18549000  0.00103000  1.0
  C  C248  1  0.91147000  0.18552000  0.50108000  1.0
  C  C249  1  0.09669000  0.81451000  0.99897000  1.0
  C  C250  1  0.11065000  0.75418000  0.52954000  1.0
  C  C251  1  0.86519000  0.24580000  0.97040000  1.0
  C  C252  1  0.88935000  0.24582000  0.47046000  1.0
  C  C253  1  0.13481000  0.75420000  0.02960000  1.0
  C  C254  1  0.00418000  0.76850000  0.54948000  1.0
  C  C255  1  0.77284000  0.23164000  0.95048000  1.0
  C  C256  1  0.99582000  0.23150000  0.45052000  1.0
  C  C257  1  0.22716000  0.76835000  0.04952000  1.0
  C  C258  1  0.87392000  0.84070000  0.53789000  1.0
  C  C259  1  0.71470000  0.15948000  0.96207000  1.0
  C  C260  1  0.12609000  0.15930000  0.46211000  1.0
  C  C261  1  0.28531000  0.84051000  0.03793000  1.0
  C  C262  1  0.84967000  0.90223000  0.50731000  1.0
  C  C263  1  0.75203000  0.09789000  0.99265000  1.0
  C  C264  1  0.15033000  0.09777000  0.49269000  1.0
  C  C265  1  0.24798000  0.90210000  0.00735000  1.0
  C  C266  1  0.20338000  0.80078000  0.47799000  1.0
  C  C267  1  0.00449000  0.19901000  0.02198000  1.0
  C  C268  1  0.79662000  0.19922000  0.52201000  1.0
  C  C269  1  0.99551000  0.80099000  0.97802000  1.0
  C  C270  1  0.24998000  0.67649000  0.54136000  1.0
  C  C271  1  0.92708000  0.32335000  0.95859000  1.0
  C  C272  1  0.75002000  0.32351000  0.45864000  1.0
  C  C273  1  0.07292000  0.67665000  0.04141000  1.0
  C  C274  1  0.02877000  0.70905000  0.58306000  1.0
  C  C275  1  0.73776000  0.29117000  0.91690000  1.0
  C  C276  1  0.97124000  0.29095000  0.41693000  1.0
  C  C277  1  0.26225000  0.70882000  0.08310000  1.0
  C  C278  1  0.76071000  0.85510000  0.55923000  1.0
  C  C279  1  0.61594000  0.14490000  0.94075000  1.0
  C  C280  1  0.23929000  0.14490000  0.44077000  1.0
  C  C281  1  0.38406000  0.85510000  0.05925000  1.0
  C  C282  1  0.70949000  0.98252000  0.49556000  1.0
  C  C283  1  0.69213000  0.01760000  0.00440000  1.0
  C  C284  1  0.29051000  0.01748000  0.50444000  1.0
  C  C285  1  0.30787000  0.98240000  0.99560000  1.0
  C  C286  1  0.64003000  0.99791000  0.59739000  1.0
  C  C287  1  0.63832000  0.00178000  0.90267000  1.0
  C  C288  1  0.35995000  0.00210000  0.40261000  1.0
  C  C289  1  0.36167000  0.99823000  0.09733000  1.0
  C  C290  1  0.65586000  0.04689000  0.62514000  1.0
  C  C291  1  0.70309000  0.95282000  0.87490000  1.0
  C  C292  1  0.34413000  0.95311000  0.37486000  1.0
  C  C293  1  0.29692000  0.04718000  0.12509000  1.0
  C  C294  1  0.54554000  0.11582000  0.64162000  1.0
  C  C295  1  0.66172000  0.88386000  0.85843000  1.0
  C  C296  1  0.45445000  0.88418000  0.35838000  1.0
  C  C297  1  0.33828000  0.11614000  0.14157000  1.0
  C  C298  1  0.41721000  0.14063000  0.63039000  1.0
  C  C299  1  0.55826000  0.85900000  0.86967000  1.0
  C  C300  1  0.58278000  0.85937000  0.36961000  1.0
  C  C301  1  0.44174000  0.14100000  0.13033000  1.0
  C  C302  1  0.40239000  0.09175000  0.60258000  1.0
  C  C303  1  0.49458000  0.90783000  0.89749000  1.0
  C  C304  1  0.59760000  0.90826000  0.39742000  1.0
  C  C305  1  0.50542000  0.09217000  0.10251000  1.0
  C  C306  1  0.51274000  0.01877000  0.58640000  1.0
  C  C307  1  0.53195000  0.98082000  0.91366000  1.0
  C  C308  1  0.48725000  0.98124000  0.41360000  1.0
  C  C309  1  0.46806000  0.01918000  0.08634000  1.0
  C  C310  1  0.30043000  0.22167000  0.64756000  1.0
  C  C311  1  0.52245000  0.77803000  0.85249000  1.0
  C  C312  1  0.69957000  0.77833000  0.35244000  1.0
  C  C313  1  0.47755000  0.22197000  0.14751000  1.0
  C  C314  1  0.42289000  0.69485000  0.57166000  1.0
  C  C315  1  0.11848000  0.30501000  0.92831000  1.0
  C  C316  1  0.57711000  0.30515000  0.42834000  1.0
  C  C317  1  0.88151000  0.69500000  0.07169000  1.0
  C  C318  1  0.51311000  0.57876000  0.56915000  1.0
  C  C319  1  0.09272000  0.42106000  0.93085000  1.0
  C  C320  1  0.48690000  0.42123000  0.43085000  1.0
  C  C321  1  0.90728000  0.57894000  0.06915000  1.0
  C  C322  1  0.63541000  0.53352000  0.58589000  1.0
  C  C323  1  0.16977000  0.46631000  0.91412000  1.0
  C  C324  1  0.36459000  0.46648000  0.41411000  1.0
  C  C325  1  0.83023000  0.53369000  0.08588000  1.0
  C  C326  1  0.66800000  0.60105000  0.60579000  1.0
  C  C327  1  0.26977000  0.39881000  0.89419000  1.0
  C  C328  1  0.33200000  0.39895000  0.39421000  1.0
  C  C329  1  0.73023000  0.60119000  0.10581000  1.0
  C  C330  1  0.57690000  0.71742000  0.60777000  1.0
  C  C331  1  0.29494000  0.28247000  0.89216000  1.0
  C  C332  1  0.42310000  0.28258000  0.39223000  1.0
  C  C333  1  0.70505000  0.71753000  0.10784000  1.0
  C  C334  1  0.45661000  0.76465000  0.59064000  1.0
  C  C335  1  0.22197000  0.23522000  0.90932000  1.0
  C  C336  1  0.54339000  0.23535000  0.40936000  1.0
  C  C337  1  0.77802000  0.76479000  0.09068000  1.0
  C  C338  1  0.79364000  0.55180000  0.62599000  1.0
  C  C339  1  0.34607000  0.44822000  0.87404000  1.0
  C  C340  1  0.20635000  0.44821000  0.37401000  1.0
  C  C341  1  0.65393000  0.55178000  0.12596000  1.0
  C  C342  1  0.05982000  0.61363000  0.66927000  1.0
  C  C343  1  0.67379000  0.38621000  0.83073000  1.0
  C  C344  1  0.94018000  0.38637000  0.33073000  1.0
  C  C345  1  0.32621000  0.61379000  0.16927000  1.0
  C  C346  1  0.15213000  0.65611000  0.67194000  1.0
  C  C347  1  0.80853000  0.34391000  0.82804000  1.0
  C  C348  1  0.84787000  0.34389000  0.32807000  1.0
  C  C349  1  0.19147000  0.65609000  0.17196000  1.0
  C  C350  1  0.23464000  0.49947000  0.64482000  1.0
  C  C351  1  0.73435000  0.50026000  0.85527000  1.0
  C  C352  1  0.76537000  0.50053000  0.35518000  1.0
  C  C353  1  0.26565000  0.49974000  0.14473000  1.0
  C  C354  1  0.38694000  0.59217000  0.65217000  1.0
  C  C355  1  0.97933000  0.40786000  0.84788000  1.0
  C  C356  1  0.61306000  0.40783000  0.34783000  1.0
  C  C357  1  0.02067000  0.59214000  0.15212000  1.0
  C  C358  1  0.45870000  0.58361000  0.68356000  1.0
  C  C359  1  0.04254000  0.41652000  0.81650000  1.0
  C  C360  1  0.54130000  0.41639000  0.31644000  1.0
  C  C361  1  0.95746000  0.58348000  0.18350000  1.0
  C  C362  1  0.54569000  0.47267000  0.69776000  1.0
  C  C363  1  0.01847000  0.52749000  0.80231000  1.0
  C  C364  1  0.45431000  0.52733000  0.30224000  1.0
  C  C365  1  0.98153000  0.47251000  0.19769000  1.0
  C  C366  1  0.62068000  0.46364000  0.72587000  1.0
  C  C367  1  0.08431000  0.53652000  0.77418000  1.0
  C  C368  1  0.37932000  0.53636000  0.27413000  1.0
  C  C369  1  0.91569000  0.46348000  0.22582000  1.0
  C  C370  1  0.60998000  0.56428000  0.73948000  1.0
  C  C371  1  0.17429000  0.43592000  0.76056000  1.0
  C  C372  1  0.39003000  0.43571000  0.26052000  1.0
  C  C373  1  0.82571000  0.56408000  0.23945000  1.0
  C  C374  1  0.51812000  0.67331000  0.72590000  1.0
  C  C375  1  0.19135000  0.32690000  0.77410000  1.0
  C  C376  1  0.48188000  0.32669000  0.27410000  1.0
  C  C377  1  0.80865000  0.67310000  0.22590000  1.0
  C  C378  1  0.44335000  0.68490000  0.69763000  1.0
  C  C379  1  0.12833000  0.31528000  0.80238000  1.0
  C  C380  1  0.55665000  0.31510000  0.30237000  1.0
  C  C381  1  0.87167000  0.68472000  0.19762000  1.0
  C  C382  1  0.35213000  0.80478000  0.68309000  1.0
  C  C383  1  0.15677000  0.19538000  0.81685000  1.0
  C  C384  1  0.64788000  0.19522000  0.31691000  1.0
  C  C385  1  0.84323000  0.80462000  0.18315000  1.0
  C  C386  1  0.56200000  0.36638000  0.68153000  1.0
  C  C387  1  0.92839000  0.63379000  0.81854000  1.0
  C  C388  1  0.43800000  0.63363000  0.31847000  1.0
  C  C389  1  0.07161000  0.36622000  0.18146000  1.0
  C  C390  1  0.69970000  0.55994000  0.76691000  1.0
  C  C391  1  0.25972000  0.44039000  0.73314000  1.0
  C  C392  1  0.30032000  0.44005000  0.23309000  1.0
  C  C393  1  0.74028000  0.55961000  0.26686000  1.0
  C  C394  1  0.72622000  0.34780000  0.73923000  1.0
  C  C395  1  0.07404000  0.65234000  0.76083000  1.0
  C  C396  1  0.27378000  0.65220000  0.26078000  1.0
  C  C397  1  0.92596000  0.34766000  0.23917000  1.0
  C  C398  1  0.97121000  0.22736000  0.72926000  1.0
  C  C399  1  0.19880000  0.77254000  0.77077000  1.0
  C  C400  1  0.02879000  0.77264000  0.27074000  1.0
  C  C401  1  0.80120000  0.22746000  0.22923000  1.0
  C  C402  1  0.05621000  0.23946000  0.70724000  1.0
  C  C403  1  0.29604000  0.76034000  0.79277000  1.0
  C  C404  1  0.94379000  0.76054000  0.29276000  1.0
  C  C405  1  0.70396000  0.23966000  0.20723000  1.0
  C  C406  1  0.86796000  0.39394000  0.69952000  1.0
  C  C407  1  0.26214000  0.60595000  0.80049000  1.0
  C  C408  1  0.13203000  0.60607000  0.30047000  1.0
  C  C409  1  0.73786000  0.39405000  0.19951000  1.0
  C  C410  1  0.50727000  0.77902000  0.74130000  1.0
  C  C411  1  0.28601000  0.22123000  0.75866000  1.0
  C  C412  1  0.49272000  0.22099000  0.25870000  1.0
  C  C413  1  0.71398000  0.77877000  0.24134000  1.0
  C  C414  1  0.67840000  0.79529000  0.70305000  1.0
  C  C415  1  0.47341000  0.20489000  0.79691000  1.0
  C  C416  1  0.32158000  0.20472000  0.29696000  1.0
  C  C417  1  0.52658000  0.79511000  0.20309000  1.0
  C  C418  1  0.76512000  0.84398000  0.70537000  1.0
  C  C419  1  0.60882000  0.15613000  0.79460000  1.0
  C  C420  1  0.23488000  0.15602000  0.29464000  1.0
  C  C421  1  0.39117000  0.84387000  0.20540000  1.0
  C  C422  1  0.66223000  0.86646000  0.75052000  1.0
  C  C423  1  0.52842000  0.13362000  0.74944000  1.0
  C  C424  1  0.33777000  0.13354000  0.24948000  1.0
  C  C425  1  0.47158000  0.86638000  0.25056000  1.0
  N  N426  1  0.11285000  0.51545000  0.65252000  1.0
  N  N427  1  0.62859000  0.48426000  0.84754000  1.0
  N  N428  1  0.88716000  0.48454000  0.34748000  1.0
  N  N429  1  0.37141000  0.51574000  0.15246000  1.0
  N  N430  1  0.26200000  0.58298000  0.65617000  1.0
  N  N431  1  0.84523000  0.41697000  0.84386000  1.0
  N  N432  1  0.73800000  0.41702000  0.34383000  1.0
  N  N433  1  0.15477000  0.58304000  0.15614000  1.0
  N  N434  1  0.99088000  0.34395000  0.68892000  1.0
  N  N435  1  0.33520000  0.65586000  0.81107000  1.0
  N  N436  1  0.00911000  0.65606000  0.31108000  1.0
  N  N437  1  0.66479000  0.34414000  0.18893000  1.0
  N  N438  1  0.85236000  0.32545000  0.72384000  1.0
  N  N439  1  0.17793000  0.67453000  0.77620000  1.0
  N  N440  1  0.14765000  0.67455000  0.27616000  1.0
  N  N441  1  0.82206000  0.32548000  0.22380000  1.0
  N  N442  1  0.61404000  0.81084000  0.73183000  1.0
  N  N443  1  0.42461000  0.18930000  0.76813000  1.0
  N  N444  1  0.38595000  0.18917000  0.26817000  1.0
  N  N445  1  0.57539000  0.81070000  0.23187000  1.0
  N  N446  1  0.75412000  0.88836000  0.73504000  1.0
  N  N447  1  0.64221000  0.11169000  0.76494000  1.0
  N  N448  1  0.24588000  0.11164000  0.26496000  1.0
  N  N449  1  0.35778000  0.88832000  0.23506000  1.0
  O  O450  1  0.15340000  0.92419000  0.28951000  1.0
  O  O451  1  0.07752000  0.07525000  0.21049000  1.0
  O  O452  1  0.84660000  0.07581000  0.71049000  1.0
  O  O453  1  0.92249000  0.92475000  0.78951000  1.0
  O  O454  1  0.98224000  0.09943000  0.29146000  1.0
  O  O455  1  0.08166000  0.90001000  0.20843000  1.0
  O  O456  1  0.01776000  0.90057000  0.70853000  1.0
  O  O457  1  0.91834000  0.09999000  0.79157000  1.0
  O  O458  1  0.98251000  0.86319000  0.43191000  1.0
  O  O459  1  0.84581000  0.13667000  0.06803000  1.0
  O  O460  1  0.01749000  0.13681000  0.56808000  1.0
  O  O461  1  0.15418000  0.86333000  0.93197000  1.0
  O  O462  1  0.75502000  0.93595000  0.58231000  1.0
  O  O463  1  0.69128000  0.06382000  0.91774000  1.0
  O  O464  1  0.24497000  0.06406000  0.41769000  1.0
  O  O465  1  0.30872000  0.93618000  0.08226000  1.0
  O  O466  1  0.18980000  0.27092000  0.63052000  1.0
  O  O467  1  0.46092000  0.72891000  0.86952000  1.0
  O  O468  1  0.81019000  0.72909000  0.36948000  1.0
  O  O469  1  0.53909000  0.27109000  0.13048000  1.0
  O  O470  1  0.31396000  0.24166000  0.67613000  1.0
  O  O471  1  0.55599000  0.75801000  0.82392000  1.0
  O  O472  1  0.68603000  0.75835000  0.32387000  1.0
  O  O473  1  0.44400000  0.24200000  0.17608000  1.0
  O  O474  1  0.29971000  0.74797000  0.55693000  1.0
  O  O475  1  0.04834000  0.25188000  0.94302000  1.0
  O  O476  1  0.70029000  0.25203000  0.44307000  1.0
  O  O477  1  0.95166000  0.74812000  0.05697000  1.0
  O  O478  1  0.80149000  0.60242000  0.65005000  1.0
  O  O479  1  0.40474000  0.39769000  0.84998000  1.0
  O  O480  1  0.19850000  0.39759000  0.34995000  1.0
  O  O481  1  0.59525000  0.60231000  0.15002000  1.0
  O  O482  1  0.88880000  0.45611000  0.61773000  1.0
  O  O483  1  0.34524000  0.54398000  0.88231000  1.0
  O  O484  1  0.11119000  0.54390000  0.38227000  1.0
  O  O485  1  0.65476000  0.45602000  0.11769000  1.0
