# generated using pymatgen
data_ZnH16C27NO4
_symmetry_space_group_name_H-M   'P 1'
_cell_length_a   15.44350000
_cell_length_b   15.44380000
_cell_length_c   17.68757881
_cell_angle_alpha   115.88184525
_cell_angle_beta   115.88176474
_cell_angle_gamma   90.01560000
_symmetry_Int_Tables_number   1
_chemical_formula_structural   ZnH16C27NO4
_chemical_formula_sum   'Zn4 H64 C108 N4 O16'
_cell_volume   3318.52190423
_cell_formula_units_Z   4
loop_
 _symmetry_equiv_pos_site_id
 _symmetry_equiv_pos_as_xyz
  1  'x, y, z'
loop_
 _atom_site_type_symbol
 _atom_site_label
 _atom_site_symmetry_multiplicity
 _atom_site_fract_x
 _atom_site_fract_y
 _atom_site_fract_z
 _atom_site_occupancy
  Zn  Zn0  1  0.94991000  0.94989000  0.89978000  1.0
  Zn  Zn1  1  0.54991000  0.54996000  0.09986000  1.0
  Zn  Zn2  1  0.05000000  0.04998000  0.09999000  1.0
  Zn  Zn3  1  0.45009000  0.45009000  0.90021000  1.0
  H  H4  1  0.10696000  0.98863000  0.82248000  1.0
  H  H5  1  0.13293000  0.93487000  0.68140000  1.0
  H  H6  1  0.99106000  0.80882000  0.74785000  1.0
  H  H7  1  0.90722000  0.71784000  0.56725000  1.0
  H  H8  1  0.71539000  0.83353000  0.82229000  1.0
  H  H9  1  0.54826000  0.74628000  0.68130000  1.0
  H  H10  1  0.75685000  0.93904000  0.74787000  1.0
  H  H11  1  0.66002000  0.84930000  0.56729000  1.0
  H  H12  1  0.90342000  0.17497000  0.87304000  1.0
  H  H13  1  0.87226000  0.25763000  0.77404000  1.0
  H  H14  1  0.96959000  0.69808000  0.87278000  1.0
  H  H15  1  0.90169000  0.51644000  0.77351000  1.0
  H  H16  1  0.39128000  0.66380000  0.17623000  1.0
  H  H17  1  0.36715000  0.75207000  0.31803000  1.0
  H  H18  1  0.78483000  0.51227000  0.17636000  1.0
  H  H19  1  0.95068000  0.56573000  0.31826000  1.0
  H  H20  1  0.59674000  0.80263000  0.12721000  1.0
  H  H21  1  0.62820000  0.98466000  0.22625000  1.0
  H  H22  1  0.58035000  0.75207000  0.25179000  1.0
  H  H23  1  0.66875000  0.84792000  0.43220000  1.0
  H  H24  1  0.53049000  0.32453000  0.12702000  1.0
  H  H25  1  0.59821000  0.24170000  0.22622000  1.0
  H  H26  1  0.67117000  0.49981000  0.25164000  1.0
  H  H27  1  0.76328000  0.58416000  0.43200000  1.0
  H  H28  1  0.82435000  0.03028000  0.12613000  1.0
  H  H29  1  0.74199000  0.09854000  0.22569000  1.0
  H  H30  1  0.99859000  0.16741000  0.25208000  1.0
  H  H31  1  0.08306000  0.26005000  0.43211000  1.0
  H  H32  1  0.30198000  0.09613000  0.12642000  1.0
  H  H33  1  0.48390000  0.12739000  0.22585000  1.0
  H  H34  1  0.25348000  0.08457000  0.25210000  1.0
  H  H35  1  0.34903000  0.17200000  0.43216000  1.0
  H  H36  1  0.16477000  0.89165000  0.17706000  1.0
  H  H37  1  0.25314000  0.86694000  0.31847000  1.0
  H  H38  1  0.01216000  0.28524000  0.17714000  1.0
  H  H39  1  0.06513000  0.45127000  0.31872000  1.0
  H  H40  1  0.67598000  0.40383000  0.87366000  1.0
  H  H41  1  0.75867000  0.37232000  0.77437000  1.0
  H  H42  1  0.50117000  0.41705000  0.74830000  1.0
  H  H43  1  0.41671000  0.32969000  0.56822000  1.0
  H  H44  1  0.19759000  0.46979000  0.87339000  1.0
  H  H45  1  0.01560000  0.40204000  0.77386000  1.0
  H  H46  1  0.24710000  0.33125000  0.74818000  1.0
  H  H47  1  0.15158000  0.23860000  0.56810000  1.0
  H  H48  1  0.33649000  0.21514000  0.82399000  1.0
  H  H49  1  0.24844000  0.04903000  0.68227000  1.0
  H  H50  1  0.48738000  0.60886000  0.82409000  1.0
  H  H51  1  0.43359000  0.63318000  0.68235000  1.0
  H  H52  1  0.05791000  0.26055000  0.04653000  1.0
  H  H53  1  0.03898000  0.43107000  0.08486000  1.0
  H  H54  1  0.98854000  0.78599000  0.04642000  1.0
  H  H55  1  0.04591000  0.65389000  0.08480000  1.0
  H  H56  1  0.73907000  0.01118000  0.95312000  1.0
  H  H57  1  0.56838000  0.95347000  0.91380000  1.0
  H  H58  1  0.21455000  0.94243000  0.95393000  1.0
  H  H59  1  0.34667000  0.96148000  0.91565000  1.0
  H  H60  1  0.44227000  0.71438000  0.95368000  1.0
  H  H61  1  0.46143000  0.84671000  0.91567000  1.0
  H  H62  1  0.51111000  0.23891000  0.95286000  1.0
  H  H63  1  0.45359000  0.06824000  0.91380000  1.0
  H  H64  1  0.76090000  0.55824000  0.04690000  1.0
  H  H65  1  0.93135000  0.53922000  0.08502000  1.0
  H  H66  1  0.28606000  0.48860000  0.04683000  1.0
  H  H67  1  0.15382000  0.54585000  0.08503000  1.0
  C  C68  1  0.20460000  0.13303000  0.90218000  1.0
  C  C69  1  0.15608000  0.03880000  0.82245000  1.0
  C  C70  1  0.17102000  0.00883000  0.74302000  1.0
  C  C71  1  0.91811000  0.81581000  0.70417000  1.0
  C  C72  1  0.87053000  0.76478000  0.60440000  1.0
  C  C73  1  0.69748000  0.76898000  0.90208000  1.0
  C  C74  1  0.66623000  0.78339000  0.82232000  1.0
  C  C75  1  0.57180000  0.73397000  0.74294000  1.0
  C  C76  1  0.78613000  0.88835000  0.70421000  1.0
  C  C77  1  0.73389000  0.83956000  0.60444000  1.0
  C  C78  1  0.80680000  0.24219000  0.92874000  1.0
  C  C79  1  0.85280000  0.22396000  0.87256000  1.0
  C  C80  1  0.83478000  0.27061000  0.81658000  1.0
  C  C81  1  0.12192000  0.68655000  0.92860000  1.0
  C  C82  1  0.01973000  0.64859000  0.87232000  1.0
  C  C83  1  0.98172000  0.54598000  0.81616000  1.0
  C  C84  1  0.29558000  0.73080000  0.09779000  1.0
  C  C85  1  0.34372000  0.71551000  0.17707000  1.0
  C  C86  1  0.32952000  0.76530000  0.25693000  1.0
  C  C87  1  0.80211000  0.36687000  0.09788000  1.0
  C  C88  1  0.83323000  0.46139000  0.17720000  1.0
  C  C89  1  0.92724000  0.49144000  0.25711000  1.0
  C  C90  1  0.69340000  0.81381000  0.07160000  1.0
  C  C91  1  0.64744000  0.85213000  0.12778000  1.0
  C  C92  1  0.66557000  0.95479000  0.18364000  1.0
  C  C93  1  0.62187000  0.71847000  0.29526000  1.0
  C  C94  1  0.67032000  0.77060000  0.39502000  1.0
  C  C95  1  0.37826000  0.25780000  0.07160000  1.0
  C  C96  1  0.48041000  0.27569000  0.12774000  1.0
  C  C97  1  0.51821000  0.22897000  0.18366000  1.0
  C  C98  1  0.67313000  0.57687000  0.29516000  1.0
  C  C99  1  0.72451000  0.62439000  0.39491000  1.0
  C  C100  1  0.75772000  0.87821000  0.07131000  1.0
  C  C101  1  0.77567000  0.98040000  0.12721000  1.0
  C  C102  1  0.72926000  0.01850000  0.18338000  1.0
  C  C103  1  0.07606000  0.17051000  0.29550000  1.0
  C  C104  1  0.12341000  0.22118000  0.39525000  1.0
  C  C105  1  0.31366000  0.19322000  0.07144000  1.0
  C  C106  1  0.35171000  0.14701000  0.12739000  1.0
  C  C107  1  0.45429000  0.16505000  0.18348000  1.0
  C  C108  1  0.21941000  0.12487000  0.29551000  1.0
  C  C109  1  0.27180000  0.17397000  0.39526000  1.0
  C  C110  1  0.23107000  0.79558000  0.09795000  1.0
  C  C111  1  0.21617000  0.84377000  0.17748000  1.0
  C  C112  1  0.26598000  0.82923000  0.25714000  1.0
  C  C113  1  0.86680000  0.30226000  0.09803000  1.0
  C  C114  1  0.96119000  0.33355000  0.17759000  1.0
  C  C115  1  0.99100000  0.42771000  0.25733000  1.0
  C  C116  1  0.74236000  0.30673000  0.92874000  1.0
  C  C117  1  0.72457000  0.35283000  0.87272000  1.0
  C  C118  1  0.77121000  0.33467000  0.81672000  1.0
  C  C119  1  0.42391000  0.37609000  0.70485000  1.0
  C  C120  1  0.37660000  0.32702000  0.60510000  1.0
  C  C121  1  0.18634000  0.62197000  0.92857000  1.0
  C  C122  1  0.14806000  0.51985000  0.87246000  1.0
  C  C123  1  0.04541000  0.48205000  0.81630000  1.0
  C  C124  1  0.28094000  0.32885000  0.70476000  1.0
  C  C125  1  0.22856000  0.27821000  0.60501000  1.0
  C  C126  1  0.26949000  0.19770000  0.90241000  1.0
  C  C127  1  0.28494000  0.16660000  0.82323000  1.0
  C  C128  1  0.23529000  0.07245000  0.74341000  1.0
  C  C129  1  0.63285000  0.70461000  0.90240000  1.0
  C  C130  1  0.53818000  0.65653000  0.82324000  1.0
  C  C131  1  0.50793000  0.67084000  0.74343000  1.0
  C  C132  1  0.77631000  0.77629000  0.55262000  1.0
  C  C133  1  0.72328000  0.72332000  0.44668000  1.0
  C  C134  1  0.22360000  0.22359000  0.44719000  1.0
  C  C135  1  0.27665000  0.27667000  0.55317000  1.0
  C  C136  1  0.20384000  0.17410000  0.99876000  1.0
  C  C137  1  0.18108000  0.27679000  0.02214000  1.0
  C  C138  1  0.13028000  0.11286000  0.00362000  1.0
  C  C139  1  0.10698000  0.30927000  0.04463000  1.0
  C  C140  1  0.09683000  0.40613000  0.06692000  1.0
  C  C141  1  0.79483000  0.82456000  0.99862000  1.0
  C  C142  1  0.84102000  0.74532000  0.02209000  1.0
  C  C143  1  0.87321000  0.89067000  0.00345000  1.0
  C  C144  1  0.93761000  0.73538000  0.04458000  1.0
  C  C145  1  0.97013000  0.66087000  0.06691000  1.0
  C  C146  1  0.82571000  0.20509000  0.00141000  1.0
  C  C147  1  0.72290000  0.15885000  0.97770000  1.0
  C  C148  1  0.88662000  0.12665000  0.99667000  1.0
  C  C149  1  0.69029000  0.06209000  0.95476000  1.0
  C  C150  1  0.59328000  0.02936000  0.93197000  1.0
  C  C151  1  0.17569000  0.79629000  0.00141000  1.0
  C  C152  1  0.25500000  0.81903000  0.97803000  1.0
  C  C153  1  0.11013000  0.87007000  0.99671000  1.0
  C  C154  1  0.26498000  0.89317000  0.95557000  1.0
  C  C155  1  0.33959000  0.90345000  0.93335000  1.0
  C  C156  1  0.29618000  0.67548000  0.00123000  1.0
  C  C157  1  0.31904000  0.75489000  0.97798000  1.0
  C  C158  1  0.36998000  0.60981000  0.99661000  1.0
  C  C159  1  0.39317000  0.76495000  0.95555000  1.0
  C  C160  1  0.40342000  0.83959000  0.93337000  1.0
  C  C161  1  0.70501000  0.32570000  0.00124000  1.0
  C  C162  1  0.65881000  0.22292000  0.97765000  1.0
  C  C163  1  0.62660000  0.38678000  0.99656000  1.0
  C  C164  1  0.56209000  0.19023000  0.95474000  1.0
  C  C165  1  0.52947000  0.09323000  0.93201000  1.0
  C  C166  1  0.67428000  0.70397000  0.99898000  1.0
  C  C167  1  0.77701000  0.68125000  0.02223000  1.0
  C  C168  1  0.61325000  0.63011000  0.00359000  1.0
  C  C169  1  0.80956000  0.60724000  0.04484000  1.0
  C  C170  1  0.90637000  0.59702000  0.06701000  1.0
  C  C171  1  0.32466000  0.29495000  0.99894000  1.0
  C  C172  1  0.24524000  0.34095000  0.02223000  1.0
  C  C173  1  0.39026000  0.37339000  0.00348000  1.0
  C  C174  1  0.23535000  0.43758000  0.04482000  1.0
  C  C175  1  0.16077000  0.47004000  0.06706000  1.0
  N  N176  1  0.87647000  0.87643000  0.75287000  1.0
  N  N177  1  0.62319000  0.62338000  0.24660000  1.0
  N  N178  1  0.12339000  0.12334000  0.24679000  1.0
  N  N179  1  0.37675000  0.37678000  0.75348000  1.0
  O  O180  1  0.05628000  0.05050000  0.92447000  1.0
  O  O181  1  0.86808000  0.87386000  0.92431000  1.0
  O  O182  1  0.86720000  0.05850000  0.91406000  1.0
  O  O183  1  0.04699000  0.85567000  0.91411000  1.0
  O  O184  1  0.44454000  0.62751000  0.07589000  1.0
  O  O185  1  0.63125000  0.44836000  0.07580000  1.0
  O  O186  1  0.63190000  0.64486000  0.08601000  1.0
  O  O187  1  0.45408000  0.44107000  0.08589000  1.0
  O  O188  1  0.94139000  0.95378000  0.08604000  1.0
  O  O189  1  0.14471000  0.13238000  0.08622000  1.0
  O  O190  1  0.12721000  0.94429000  0.07581000  1.0
  O  O191  1  0.94864000  0.13150000  0.07575000  1.0
  O  O192  1  0.55883000  0.36789000  0.91411000  1.0
  O  O193  1  0.35541000  0.54633000  0.91419000  1.0
  O  O194  1  0.37237000  0.36890000  0.92424000  1.0
  O  O195  1  0.55188000  0.55534000  0.92435000  1.0
