# generated using pymatgen
data_GdH20C18N2O11
_symmetry_space_group_name_H-M   'P 1'
_cell_length_a   10.61890000
_cell_length_b   10.94560000
_cell_length_c   12.77110000
_cell_angle_alpha   103.96600000
_cell_angle_beta   109.83500000
_cell_angle_gamma   96.84390000
_symmetry_Int_Tables_number   1
_chemical_formula_structural   GdH20C18N2O11
_chemical_formula_sum   'Gd2 H40 C36 N4 O22'
_cell_volume   1321.77352524
_cell_formula_units_Z   2
loop_
 _symmetry_equiv_pos_site_id
 _symmetry_equiv_pos_as_xyz
  1  'x, y, z'
loop_
 _atom_site_type_symbol
 _atom_site_label
 _atom_site_symmetry_multiplicity
 _atom_site_fract_x
 _atom_site_fract_y
 _atom_site_fract_z
 _atom_site_occupancy
  Gd  Gd0  1  0.10092000  0.54547000  0.68267000  1.0
  Gd  Gd1  1  0.89908000  0.45453000  0.31733000  1.0
  H  H2  1  0.93154000  0.14157000  0.30147000  1.0
  H  H3  1  0.06846000  0.85843000  0.69853000  1.0
  H  H4  1  0.22922000  0.39362000  0.26765000  1.0
  H  H5  1  0.77078000  0.60639000  0.73235000  1.0
  H  H6  1  0.17937000  0.90020000  0.93541000  1.0
  H  H7  1  0.82062000  0.09980000  0.06458000  1.0
  H  H8  1  0.00423000  0.16396000  0.67387000  1.0
  H  H9  1  0.99577000  0.83604000  0.32613000  1.0
  H  H10  1  0.41020000  0.57297000  0.65521000  1.0
  H  H11  1  0.58981000  0.42704000  0.34480000  1.0
  H  H12  1  0.55748000  0.82148000  0.87426000  1.0
  H  H13  1  0.44252000  0.17852000  0.12574000  1.0
  H  H14  1  0.44793000  0.51689000  0.82682000  1.0
  H  H15  1  0.55206000  0.48310000  0.17317000  1.0
  H  H16  1  0.63218000  0.45703000  0.90516000  1.0
  H  H17  1  0.36782000  0.54297000  0.09484000  1.0
  H  H18  1  0.63683000  0.29136000  0.85618000  1.0
  H  H19  1  0.36316000  0.70864000  0.14383000  1.0
  H  H20  1  0.60675000  0.35029000  0.98637000  1.0
  H  H21  1  0.39324000  0.64971000  0.01363000  1.0
  H  H22  1  0.25777000  0.18948000  0.74218000  1.0
  H  H23  1  0.74223000  0.81052000  0.25783000  1.0
  H  H24  1  0.36960000  0.16996000  0.87555000  1.0
  H  H25  1  0.63040000  0.83003000  0.12445000  1.0
  H  H26  1  0.40959000  0.13057000  0.74852000  1.0
  H  H27  1  0.59041000  0.86943000  0.25148000  1.0
  H  H28  1  0.87646000  0.35850000  0.75051000  1.0
  H  H29  1  0.12356000  0.64150000  0.24949000  1.0
  H  H30  1  0.79600000  0.18831000  0.78294000  1.0
  H  H31  1  0.20400000  0.81169000  0.21705000  1.0
  H  H32  1  0.84838000  0.20581000  0.93590000  1.0
  H  H33  1  0.15162000  0.79419000  0.06410000  1.0
  H  H34  1  0.91849000  0.10352000  0.84921000  1.0
  H  H35  1  0.08151000  0.89648000  0.15079000  1.0
  H  H36  1  0.19683000  0.39427000  0.98798000  1.0
  H  H37  1  0.80317000  0.60573000  0.01202000  1.0
  H  H38  1  0.15367000  0.22715000  0.97906000  1.0
  H  H39  1  0.84633000  0.77285000  0.02094000  1.0
  H  H40  1  0.10060000  0.34571000  0.06813000  1.0
  H  H41  1  0.89940000  0.65429000  0.93186000  1.0
  C  C42  1  0.97244000  0.02848000  0.39282000  1.0
  C  C43  1  0.02756000  0.97152000  0.60718000  1.0
  C  C44  1  0.97441000  0.12129000  0.49304000  1.0
  C  C45  1  0.02558000  0.87871000  0.50696000  1.0
  C  C46  1  0.00180000  0.09111000  0.59786000  1.0
  C  C47  1  0.99819000  0.90889000  0.40214000  1.0
  C  C48  1  0.95351000  0.25233000  0.49053000  1.0
  C  C49  1  0.04649000  0.74767000  0.50947000  1.0
  C  C50  1  0.40892000  0.44536000  0.38188000  1.0
  C  C51  1  0.59109000  0.55465000  0.61813000  1.0
  C  C52  1  0.35825000  0.48425000  0.47165000  1.0
  C  C53  1  0.64176000  0.51576000  0.52836000  1.0
  C  C54  1  0.44988000  0.53918000  0.58785000  1.0
  C  C55  1  0.55012000  0.46083000  0.41216000  1.0
  C  C56  1  0.20900000  0.46696000  0.44376000  1.0
  C  C57  1  0.79100000  0.53304000  0.55624000  1.0
  C  C58  1  0.36430000  0.99077000  0.99720000  1.0
  C  C59  1  0.63569000  0.00923000  0.00279000  1.0
  C  C60  1  0.39909000  0.88943000  0.92668000  1.0
  C  C61  1  0.60091000  0.11057000  0.07331000  1.0
  C  C62  1  0.53320000  0.90007000  0.92960000  1.0
  C  C63  1  0.46679000  0.09993000  0.07040000  1.0
  C  C64  1  0.29499000  0.76985000  0.85134000  1.0
  C  C65  1  0.70500000  0.23015000  0.14866000  1.0
  C  C66  1  0.37862000  0.42119000  0.79735000  1.0
  C  C67  1  0.62138000  0.57881000  0.20265000  1.0
  C  C68  1  0.58707000  0.35865000  0.89842000  1.0
  C  C69  1  0.41292000  0.64135000  0.10158000  1.0
  C  C70  1  0.36461000  0.19707000  0.79709000  1.0
  C  C71  1  0.63539000  0.80292000  0.20291000  1.0
  C  C72  1  0.97692000  0.38399000  0.82395000  1.0
  C  C73  1  0.02309000  0.61601000  0.17605000  1.0
  C  C74  1  0.88237000  0.19384000  0.86256000  1.0
  C  C75  1  0.11763000  0.80616000  0.13744000  1.0
  C  C76  1  0.11898000  0.31844000  0.98681000  1.0
  C  C77  1  0.88102000  0.68156000  0.01319000  1.0
  N  N78  1  0.44070000  0.32905000  0.82922000  1.0
  N  N79  1  0.55929000  0.67095000  0.17078000  1.0
  N  N80  1  0.99275000  0.30234000  0.88754000  1.0
  N  N81  1  0.00726000  0.69766000  0.11245000  1.0
  O  O82  1  0.96853000  0.33549000  0.58484000  1.0
  O  O83  1  0.03146000  0.66451000  0.41516000  1.0
  O  O84  1  0.92287000  0.27488000  0.39141000  1.0
  O  O85  1  0.07713000  0.72512000  0.60859000  1.0
  O  O86  1  0.94643000  0.05109000  0.28840000  1.0
  O  O87  1  0.05357000  0.94891000  0.71160000  1.0
  O  O88  1  0.16294000  0.49031000  0.52439000  1.0
  O  O89  1  0.83707000  0.50970000  0.47561000  1.0
  O  O90  1  0.12709000  0.42837000  0.33503000  1.0
  O  O91  1  0.87292000  0.57163000  0.66498000  1.0
  O  O92  1  0.32409000  0.39361000  0.26747000  1.0
  O  O93  1  0.67592000  0.60641000  0.73254000  1.0
  O  O94  1  0.17189000  0.75681000  0.85011000  1.0
  O  O95  1  0.82811000  0.24319000  0.14989000  1.0
  O  O96  1  0.32728000  0.67893000  0.78868000  1.0
  O  O97  1  0.67272000  0.32107000  0.21132000  1.0
  O  O98  1  0.23500000  0.98523000  0.99475000  1.0
  O  O99  1  0.76500000  0.01477000  0.00525000  1.0
  O  O100  1  0.25289000  0.40353000  0.73953000  1.0
  O  O101  1  0.74711000  0.59647000  0.26046000  1.0
  O  O102  1  0.06613000  0.48156000  0.84211000  1.0
  O  O103  1  0.93388000  0.51844000  0.15789000  1.0
