# generated using pymatgen
data_Ag2H21C23(N2O)5
_symmetry_space_group_name_H-M   'P 1'
_cell_length_a   9.62527000
_cell_length_b   11.20500000
_cell_length_c   12.08820000
_cell_angle_alpha   81.93000000
_cell_angle_beta   81.97140000
_cell_angle_gamma   77.04860000
_symmetry_Int_Tables_number   1
_chemical_formula_structural   Ag2H21C23(N2O)5
_chemical_formula_sum   'Ag4 H42 C46 N20 O10'
_cell_volume   1250.04350321
_cell_formula_units_Z   2
loop_
 _symmetry_equiv_pos_site_id
 _symmetry_equiv_pos_as_xyz
  1  'x, y, z'
loop_
 _atom_site_type_symbol
 _atom_site_label
 _atom_site_symmetry_multiplicity
 _atom_site_fract_x
 _atom_site_fract_y
 _atom_site_fract_z
 _atom_site_occupancy
  Ag  Ag0  1  0.34985000  0.02072000  0.04616000  1.0
  Ag  Ag1  1  0.65015000  0.97928000  0.95384000  1.0
  Ag  Ag2  1  0.85418000  0.72926000  0.27400000  1.0
  Ag  Ag3  1  0.14582000  0.27074000  0.72600000  1.0
  H  H4  1  0.64302000  0.20642000  0.28480000  1.0
  H  H5  1  0.35699000  0.79358000  0.71520000  1.0
  H  H6  1  0.38744000  0.21830000  0.36431000  1.0
  H  H7  1  0.61256000  0.78170000  0.63569000  1.0
  H  H8  1  0.26739000  0.04792000  0.35172000  1.0
  H  H9  1  0.73262000  0.95208000  0.64828000  1.0
  H  H10  1  0.40408000  0.86242000  0.26063000  1.0
  H  H11  1  0.59592000  0.13757000  0.73937000  1.0
  H  H12  1  0.65557000  0.85193000  0.17985000  1.0
  H  H13  1  0.34443000  0.14807000  0.82015000  1.0
  H  H14  1  0.10414000  0.55902000  0.63864000  1.0
  H  H15  1  0.89585000  0.44098000  0.36136000  1.0
  H  H16  1  0.31812000  0.65254000  0.60961000  1.0
  H  H17  1  0.68188000  0.34746000  0.39039000  1.0
  H  H18  1  0.31856000  0.84899000  0.48497000  1.0
  H  H19  1  0.68144000  0.15101000  0.51503000  1.0
  H  H20  1  0.10060000  0.95236000  0.38988000  1.0
  H  H21  1  0.89940000  0.04764000  0.61012000  1.0
  H  H22  1  0.88784000  0.85876000  0.41871000  1.0
  H  H23  1  0.11215000  0.14124000  0.58129000  1.0
  H  H24  1  0.67695000  0.32554000  0.08468000  1.0
  H  H25  1  0.32305000  0.67447000  0.91532000  1.0
  H  H26  1  0.96793000  0.31311000  0.09982000  1.0
  H  H27  1  0.03207000  0.68689000  0.90018000  1.0
  H  H28  1  0.14847000  0.23609000  0.07387000  1.0
  H  H29  1  0.85153000  0.76391000  0.92613000  1.0
  H  H30  1  0.24205000  0.80050000  0.09488000  1.0
  H  H31  1  0.75795000  0.19950000  0.90512000  1.0
  H  H32  1  0.09752000  0.72581000  0.14554000  1.0
  H  H33  1  0.90248000  0.27419000  0.85446000  1.0
  H  H34  1  0.57748000  0.44809000  0.77613000  1.0
  H  H35  1  0.42252000  0.55191000  0.22387000  1.0
  H  H36  1  0.73944000  0.46361000  0.81748000  1.0
  H  H37  1  0.26056000  0.53639000  0.18252000  1.0
  H  H38  1  0.49831000  0.56597000  0.40856000  1.0
  H  H39  1  0.50169000  0.43402000  0.59144000  1.0
  H  H40  1  0.61352000  0.64360000  0.31374000  1.0
  H  H41  1  0.38648000  0.35640000  0.68626000  1.0
  H  H42  1  0.06739000  0.50580000  0.25059000  1.0
  H  H43  1  0.93261000  0.49420000  0.74941000  1.0
  H  H44  1  0.97237000  0.53436000  0.14690000  1.0
  H  H45  1  0.02763000  0.46564000  0.85310000  1.0
  C  C46  1  0.66785000  0.02760000  0.23089000  1.0
  C  C47  1  0.33215000  0.97240000  0.76911000  1.0
  C  C48  1  0.58945000  0.13154000  0.28103000  1.0
  C  C49  1  0.41055000  0.86846000  0.71897000  1.0
  C  C50  1  0.44696000  0.13771000  0.32504000  1.0
  C  C51  1  0.55304000  0.86229000  0.67496000  1.0
  C  C52  1  0.37963000  0.04127000  0.31826000  1.0
  C  C53  1  0.62037000  0.95873000  0.68174000  1.0
  C  C54  1  0.45553000  0.93822000  0.26666000  1.0
  C  C55  1  0.54447000  0.06178000  0.73334000  1.0
  C  C56  1  0.59929000  0.93135000  0.22307000  1.0
  C  C57  1  0.40071000  0.06865000  0.77693000  1.0
  C  C58  1  0.82052000  0.02304000  0.18745000  1.0
  C  C59  1  0.17948000  0.97696000  0.81255000  1.0
  C  C60  1  0.04867000  0.91306000  0.14110000  1.0
  C  C61  1  0.95133000  0.08694000  0.85889000  1.0
  C  C62  1  0.00138000  0.12518000  0.12276000  1.0
  C  C63  1  0.99862000  0.87482000  0.87724000  1.0
  C  C64  1  0.98360000  0.70003000  0.52728000  1.0
  C  C65  1  0.01640000  0.29998000  0.47272000  1.0
  C  C66  1  0.10382000  0.64479000  0.58369000  1.0
  C  C67  1  0.89618000  0.35521000  0.41631000  1.0
  C  C68  1  0.22383000  0.69786000  0.56762000  1.0
  C  C69  1  0.77616000  0.30214000  0.43238000  1.0
  C  C70  1  0.22430000  0.80789000  0.49707000  1.0
  C  C71  1  0.77570000  0.19211000  0.50293000  1.0
  C  C72  1  0.10323000  0.86530000  0.44342000  1.0
  C  C73  1  0.89677000  0.13470000  0.55658000  1.0
  C  C74  1  0.98341000  0.81198000  0.45852000  1.0
  C  C75  1  0.01659000  0.18802000  0.54148000  1.0
  C  C76  1  0.85696000  0.64284000  0.54211000  1.0
  C  C77  1  0.14304000  0.35717000  0.45789000  1.0
  C  C78  1  0.65561000  0.61139000  0.47761000  1.0
  C  C79  1  0.34439000  0.38861000  0.52239000  1.0
  C  C80  1  0.70518000  0.53618000  0.65669000  1.0
  C  C81  1  0.29482000  0.46382000  0.34331000  1.0
  C  C82  1  0.73117000  0.54775000  0.10936000  1.0
  C  C83  1  0.26883000  0.45225000  0.89064000  1.0
  C  C84  1  0.61546000  0.52314000  0.04850000  1.0
  C  C85  1  0.38454000  0.47686000  0.95150000  1.0
  C  C86  1  0.59981000  0.40235000  0.04722000  1.0
  C  C87  1  0.40019000  0.59765000  0.95278000  1.0
  C  C88  1  0.51512000  0.62080000  0.99979000  1.0
  C  C89  1  0.48488000  0.37920000  0.00021000  1.0
  C  C90  1  0.52632000  0.75164000  0.99748000  1.0
  C  C91  1  0.47369000  0.24836000  0.00252000  1.0
  N  N92  1  0.90928000  0.91139000  0.18332000  1.0
  N  N93  1  0.09073000  0.08861000  0.81668000  1.0
  N  N94  1  0.09952000  0.01812000  0.11220000  1.0
  N  N95  1  0.90048000  0.98188000  0.88780000  1.0
  N  N96  1  0.85952000  0.13082000  0.15749000  1.0
  N  N97  1  0.14048000  0.86917000  0.84251000  1.0
  N  N98  1  0.04328000  0.23258000  0.09702000  1.0
  N  N99  1  0.95672000  0.76742000  0.90298000  1.0
  N  N100  1  0.13743000  0.80464000  0.12972000  1.0
  N  N101  1  0.86257000  0.19536000  0.87028000  1.0
  N  N102  1  0.77622000  0.66044000  0.45615000  1.0
  N  N103  1  0.22378000  0.33956000  0.54385000  1.0
  N  N104  1  0.61426000  0.55344000  0.57852000  1.0
  N  N105  1  0.38574000  0.44656000  0.42148000  1.0
  N  N106  1  0.82953000  0.57819000  0.64146000  1.0
  N  N107  1  0.17047000  0.42181000  0.35854000  1.0
  N  N108  1  0.67258000  0.47469000  0.75685000  1.0
  N  N109  1  0.32742000  0.52531000  0.24314000  1.0
  N  N110  1  0.57302000  0.62157000  0.39557000  1.0
  N  N111  1  0.42698000  0.37843000  0.60443000  1.0
  O  O112  1  0.85516000  0.47927000  0.09714000  1.0
  O  O113  1  0.14484000  0.52073000  0.90286000  1.0
  O  O114  1  0.03789000  0.56921000  0.18664000  1.0
  O  O115  1  0.96211000  0.43079000  0.81336000  1.0
  O  O116  1  0.69256000  0.63622000  0.17052000  1.0
  O  O117  1  0.30744000  0.36378000  0.82948000  1.0
  O  O118  1  0.41438000  0.82042000  0.04186000  1.0
  O  O119  1  0.58562000  0.17958000  0.95814000  1.0
  O  O120  1  0.63982000  0.78485000  0.95042000  1.0
  O  O121  1  0.36018000  0.21516000  0.04958000  1.0
