# generated using pymatgen
data_TbH15C24(N2O3)2
_symmetry_space_group_name_H-M   'P 1'
_cell_length_a   9.28314000
_cell_length_b   9.66208000
_cell_length_c   12.66430000
_cell_angle_alpha   109.56600000
_cell_angle_beta   91.80880000
_cell_angle_gamma   99.90950000
_symmetry_Int_Tables_number   1
_chemical_formula_structural   TbH15C24(N2O3)2
_chemical_formula_sum   'Tb2 H30 C48 N8 O12'
_cell_volume   1049.47735745
_cell_formula_units_Z   2
loop_
 _symmetry_equiv_pos_site_id
 _symmetry_equiv_pos_as_xyz
  1  'x, y, z'
loop_
 _atom_site_type_symbol
 _atom_site_label
 _atom_site_symmetry_multiplicity
 _atom_site_fract_x
 _atom_site_fract_y
 _atom_site_fract_z
 _atom_site_occupancy
  Tb  Tb0  1  0.90211000  0.47834000  0.12752000  1.0
  Tb  Tb1  1  0.09789000  0.52166000  0.87248000  1.0
  H  H2  1  0.17898000  0.12380000  0.74371000  1.0
  H  H3  1  0.82102000  0.87620000  0.25629000  1.0
  H  H4  1  0.12190000  0.13217000  0.93378000  1.0
  H  H5  1  0.87809000  0.86783000  0.06622000  1.0
  H  H6  1  0.09689000  0.89550000  0.98073000  1.0
  H  H7  1  0.90311000  0.10451000  0.01927000  1.0
  H  H8  1  0.08875000  0.25704000  0.62232000  1.0
  H  H9  1  0.91125000  0.74296000  0.37768000  1.0
  H  H10  1  0.15411000  0.21170000  0.42293000  1.0
  H  H11  1  0.84587000  0.78830000  0.57707000  1.0
  H  H12  1  0.21950000  0.43299000  0.35925000  1.0
  H  H13  1  0.78049000  0.56701000  0.64075000  1.0
  H  H14  1  0.44110000  0.14875000  0.47009000  1.0
  H  H15  1  0.55889000  0.85125000  0.52991000  1.0
  H  H16  1  0.54844000  0.29120000  0.35316000  1.0
  H  H17  1  0.45155000  0.70880000  0.64684000  1.0
  H  H18  1  0.51485000  0.17532000  0.14476000  1.0
  H  H19  1  0.48514000  0.82468000  0.85524000  1.0
  H  H20  1  0.34279000  0.92815000  0.05613000  1.0
  H  H21  1  0.65721000  0.07185000  0.94387000  1.0
  H  H22  1  0.42994000  0.59477000  0.25053000  1.0
  H  H23  1  0.57005000  0.40523000  0.74947000  1.0
  H  H24  1  0.44988000  0.63725000  0.12680000  1.0
  H  H25  1  0.55012000  0.36275000  0.87320000  1.0
  H  H26  1  0.36813000  0.31828000  0.13467000  1.0
  H  H27  1  0.63187000  0.68171000  0.86532000  1.0
  H  H28  1  0.37448000  0.36168000  0.00922000  1.0
  H  H29  1  0.62552000  0.63832000  0.99078000  1.0
  H  H30  1  0.23743000  0.07312000  0.54681000  1.0
  H  H31  1  0.76257000  0.92688000  0.45318000  1.0
  C  C32  1  0.20685000  0.86141000  0.57044000  1.0
  C  C33  1  0.79316000  0.13859000  0.42956000  1.0
  C  C34  1  0.17233000  0.88230000  0.68256000  1.0
  C  C35  1  0.82766000  0.11771000  0.31745000  1.0
  C  C36  1  0.16091000  0.02074000  0.76292000  1.0
  C  C37  1  0.83909000  0.97925000  0.23708000  1.0
  C  C38  1  0.13126000  0.02625000  0.87028000  1.0
  C  C39  1  0.86874000  0.97375000  0.12972000  1.0
  C  C40  1  0.11617000  0.89456000  0.89614000  1.0
  C  C41  1  0.88383000  0.10544000  0.10386000  1.0
  C  C42  1  0.15223000  0.75281000  0.71493000  1.0
  C  C43  1  0.84777000  0.24719000  0.28507000  1.0
  C  C44  1  0.15793000  0.60651000  0.63323000  1.0
  C  C45  1  0.84207000  0.39349000  0.36678000  1.0
  C  C46  1  0.12243000  0.34965000  0.59163000  1.0
  C  C47  1  0.87757000  0.65035000  0.40837000  1.0
  C  C48  1  0.15863000  0.32515000  0.48101000  1.0
  C  C49  1  0.84136000  0.67485000  0.51899000  1.0
  C  C50  1  0.19623000  0.44662000  0.44572000  1.0
  C  C51  1  0.80376000  0.55338000  0.55428000  1.0
  C  C52  1  0.19480000  0.59105000  0.52182000  1.0
  C  C53  1  0.80520000  0.40896000  0.47818000  1.0
  C  C54  1  0.22310000  0.72386000  0.49279000  1.0
  C  C55  1  0.77691000  0.27615000  0.50721000  1.0
  C  C56  1  0.26914000  0.88354000  0.40751000  1.0
  C  C57  1  0.73087000  0.11646000  0.59249000  1.0
  C  C58  1  0.31914000  0.96228000  0.33048000  1.0
  C  C59  1  0.68087000  0.03772000  0.66952000  1.0
  C  C60  1  0.41338000  0.10282000  0.37905000  1.0
  C  C61  1  0.58662000  0.89719000  0.62095000  1.0
  C  C62  1  0.47811000  0.18165000  0.31324000  1.0
  C  C63  1  0.52189000  0.81836000  0.68676000  1.0
  C  C64  1  0.45740000  0.11705000  0.19619000  1.0
  C  C65  1  0.54260000  0.88295000  0.80380000  1.0
  C  C66  1  0.36231000  0.97961000  0.14730000  1.0
  C  C67  1  0.63769000  0.02039000  0.85271000  1.0
  C  C68  1  0.28669000  0.90303000  0.21195000  1.0
  C  C69  1  0.71332000  0.09697000  0.78805000  1.0
  C  C70  1  0.17026000  0.76729000  0.14727000  1.0
  C  C71  1  0.82974000  0.23271000  0.85273000  1.0
  C  C72  1  0.61652000  0.52945000  0.16487000  1.0
  C  C73  1  0.38348000  0.47056000  0.83513000  1.0
  C  C74  1  0.45829000  0.54992000  0.16313000  1.0
  C  C75  1  0.54171000  0.45008000  0.83687000  1.0
  C  C76  1  0.35219000  0.40288000  0.09770000  1.0
  C  C77  1  0.64781000  0.59712000  0.90230000  1.0
  C  C78  1  0.19438000  0.41942000  0.10467000  1.0
  C  C79  1  0.80562000  0.58058000  0.89533000  1.0
  N  N80  1  0.23550000  0.96143000  0.51457000  1.0
  N  N81  1  0.76451000  0.03857000  0.48543000  1.0
  N  N82  1  0.26361000  0.73991000  0.39329000  1.0
  N  N83  1  0.73640000  0.26009000  0.60671000  1.0
  N  N84  1  0.12696000  0.76205000  0.82165000  1.0
  N  N85  1  0.87303000  0.23795000  0.17836000  1.0
  N  N86  1  0.12413000  0.48566000  0.66614000  1.0
  N  N87  1  0.87587000  0.51433000  0.33386000  1.0
  O  O88  1  0.18185000  0.71643000  0.04178000  1.0
  O  O89  1  0.81817000  0.28357000  0.95822000  1.0
  O  O90  1  0.06829000  0.71686000  0.19703000  1.0
  O  O91  1  0.93173000  0.28313000  0.80296000  1.0
  O  O92  1  0.72150000  0.64361000  0.19326000  1.0
  O  O93  1  0.27850000  0.35639000  0.80674000  1.0
  O  O94  1  0.64416000  0.39742000  0.13550000  1.0
  O  O95  1  0.35584000  0.60259000  0.86449000  1.0
  O  O96  1  0.13500000  0.43094000  0.19470000  1.0
  O  O97  1  0.86500000  0.56905000  0.80529000  1.0
  O  O98  1  0.11812000  0.42096000  0.01781000  1.0
  O  O99  1  0.88189000  0.57906000  0.98219000  1.0
