# generated using pymatgen
data_CdH28C28(N5O3)2
_symmetry_space_group_name_H-M   'P 1'
_cell_length_a   8.42233000
_cell_length_b   10.37000000
_cell_length_c   17.48490000
_cell_angle_alpha   90.00000000
_cell_angle_beta   90.00000000
_cell_angle_gamma   94.75340000
_symmetry_Int_Tables_number   1
_chemical_formula_structural   CdH28C28(N5O3)2
_chemical_formula_sum   'Cd2 H56 C56 N20 O12'
_cell_volume   1521.87110061
_cell_formula_units_Z   2
loop_
 _symmetry_equiv_pos_site_id
 _symmetry_equiv_pos_as_xyz
  1  'x, y, z'
loop_
 _atom_site_type_symbol
 _atom_site_label
 _atom_site_symmetry_multiplicity
 _atom_site_fract_x
 _atom_site_fract_y
 _atom_site_fract_z
 _atom_site_occupancy
  Cd  Cd0  1  0.00000000  0.00000000  0.50000000  1.0
  Cd  Cd1  1  0.50000000  0.50000000  0.00000000  1.0
  H  H2  1  0.71473000  0.12705000  0.57833000  1.0
  H  H3  1  0.21472000  0.62706000  0.92167000  1.0
  H  H4  1  0.28527000  0.87295000  0.42167000  1.0
  H  H5  1  0.78528000  0.37294000  0.07833000  1.0
  H  H6  1  0.65478000  0.32183000  0.65392000  1.0
  H  H7  1  0.15478000  0.82184000  0.84608000  1.0
  H  H8  1  0.34522000  0.67817000  0.34609000  1.0
  H  H9  1  0.84522000  0.17816000  0.15392000  1.0
  H  H10  1  0.88011000  0.47510000  0.69831000  1.0
  H  H11  1  0.38011000  0.97510000  0.80169000  1.0
  H  H12  1  0.11989000  0.52491000  0.30169000  1.0
  H  H13  1  0.61989000  0.02490000  0.19831000  1.0
  H  H14  1  0.20145000  0.23653000  0.58425000  1.0
  H  H15  1  0.70144000  0.73653000  0.91575000  1.0
  H  H16  1  0.79855000  0.76347000  0.41576000  1.0
  H  H17  1  0.29856000  0.26347000  0.08425000  1.0
  H  H18  1  0.29786000  0.56357000  0.76014000  1.0
  H  H19  1  0.79786000  0.06357000  0.73986000  1.0
  H  H20  1  0.70214000  0.43643000  0.23986000  1.0
  H  H21  1  0.20214000  0.93643000  0.26014000  1.0
  H  H22  1  0.08635000  0.52686000  0.76849000  1.0
  H  H23  1  0.58635000  0.02686000  0.73151000  1.0
  H  H24  1  0.91365000  0.47314000  0.23151000  1.0
  H  H25  1  0.41364000  0.97314000  0.26849000  1.0
  H  H26  1  0.16781000  0.65114000  0.70594000  1.0
  H  H27  1  0.66781000  0.15113000  0.79406000  1.0
  H  H28  1  0.83219000  0.34887000  0.29406000  1.0
  H  H29  1  0.33219000  0.84887000  0.20594000  1.0
  H  H30  1  0.32119000  0.58778000  0.51938000  1.0
  H  H31  1  0.82119000  0.08778000  0.98062000  1.0
  H  H32  1  0.67881000  0.41222000  0.48062000  1.0
  H  H33  1  0.17881000  0.91222000  0.01938000  1.0
  H  H34  1  0.49740000  0.67494000  0.48344000  1.0
  H  H35  1  0.99740000  0.17494000  0.01656000  1.0
  H  H36  1  0.50260000  0.32506000  0.51656000  1.0
  H  H37  1  0.00260000  0.82507000  0.98344000  1.0
  H  H38  1  0.36405000  0.75487000  0.54147000  1.0
  H  H39  1  0.86405000  0.25487000  0.95853000  1.0
  H  H40  1  0.63595000  0.24513000  0.45853000  1.0
  H  H41  1  0.13595000  0.74513000  0.04147000  1.0
  H  H42  1  0.67316000  0.81972000  0.52266000  1.0
  H  H43  1  0.17316000  0.31972000  0.97734000  1.0
  H  H44  1  0.32684000  0.18028000  0.47734000  1.0
  H  H45  1  0.82684000  0.68029000  0.02266000  1.0
  H  H46  1  0.66715000  0.61482000  0.73771000  1.0
  H  H47  1  0.16716000  0.11482000  0.76229000  1.0
  H  H48  1  0.33284000  0.38517000  0.26229000  1.0
  H  H49  1  0.83284000  0.88517000  0.23771000  1.0
  H  H50  1  0.92205000  0.74255000  0.77093000  1.0
  H  H51  1  0.42206000  0.24256000  0.72908000  1.0
  H  H52  1  0.07795000  0.25744000  0.22907000  1.0
  H  H53  1  0.57794000  0.75744000  0.27093000  1.0
  H  H54  1  0.05042000  0.89583000  0.67267000  1.0
  H  H55  1  0.55042000  0.39583000  0.82733000  1.0
  H  H56  1  0.94958000  0.10417000  0.32733000  1.0
  H  H57  1  0.44958000  0.60417000  0.17267000  1.0
  C  C58  1  0.80980000  0.19704000  0.59779000  1.0
  C  C59  1  0.30979000  0.69704000  0.90221000  1.0
  C  C60  1  0.19020000  0.80296000  0.40221000  1.0
  C  C61  1  0.69021000  0.30296000  0.09779000  1.0
  C  C62  1  0.77749000  0.30511000  0.64022000  1.0
  C  C63  1  0.27748000  0.80512000  0.85978000  1.0
  C  C64  1  0.22251000  0.69489000  0.35978000  1.0
  C  C65  1  0.72252000  0.19488000  0.14023000  1.0
  C  C66  1  0.90328000  0.39141000  0.66394000  1.0
  C  C67  1  0.40328000  0.89141000  0.83606000  1.0
  C  C68  1  0.09672000  0.60859000  0.33606000  1.0
  C  C69  1  0.59672000  0.10859000  0.16394000  1.0
  C  C70  1  0.05974000  0.36872000  0.64395000  1.0
  C  C71  1  0.55974000  0.86872000  0.85605000  1.0
  C  C72  1  0.94026000  0.63128000  0.35605000  1.0
  C  C73  1  0.44026000  0.13128000  0.14395000  1.0
  C  C74  1  0.08151000  0.25786000  0.60055000  1.0
  C  C75  1  0.58151000  0.75786000  0.89945000  1.0
  C  C76  1  0.91849000  0.74214000  0.39945000  1.0
  C  C77  1  0.41849000  0.24214000  0.10055000  1.0
  C  C78  1  0.19701000  0.45845000  0.66574000  1.0
  C  C79  1  0.69701000  0.95845000  0.83426000  1.0
  C  C80  1  0.80299000  0.54155000  0.33426000  1.0
  C  C81  1  0.30299000  0.04155000  0.16574000  1.0
  C  C82  1  0.18426000  0.55434000  0.72894000  1.0
  C  C83  1  0.68426000  0.05434000  0.77106000  1.0
  C  C84  1  0.81575000  0.44566000  0.27106000  1.0
  C  C85  1  0.31574000  0.94566000  0.22894000  1.0
  C  C86  1  0.41692000  0.66233000  0.53279000  1.0
  C  C87  1  0.91692000  0.16233000  0.96722000  1.0
  C  C88  1  0.58308000  0.33767000  0.46721000  1.0
  C  C89  1  0.08308000  0.83767000  0.03279000  1.0
  C  C90  1  0.50437000  0.62568000  0.60296000  1.0
  C  C91  1  0.00437000  0.12568000  0.89704000  1.0
  C  C92  1  0.49563000  0.37432000  0.39704000  1.0
  C  C93  1  0.99563000  0.87432000  0.10296000  1.0
  C  C94  1  0.72656000  0.79589000  0.57717000  1.0
  C  C95  1  0.22656000  0.29589000  0.92283000  1.0
  C  C96  1  0.27344000  0.20411000  0.42283000  1.0
  C  C97  1  0.77343000  0.70411000  0.07717000  1.0
  C  C98  1  0.65224000  0.70197000  0.62602000  1.0
  C  C99  1  0.15224000  0.20197000  0.87398000  1.0
  C  C100  1  0.34776000  0.29803000  0.37398000  1.0
  C  C101  1  0.84776000  0.79803000  0.12602000  1.0
  C  C102  1  0.72379000  0.68449000  0.69745000  1.0
  C  C103  1  0.22380000  0.18449000  0.80255000  1.0
  C  C104  1  0.27621000  0.31551000  0.30254000  1.0
  C  C105  1  0.77621000  0.81551000  0.19745000  1.0
  C  C106  1  0.86582000  0.75548000  0.71566000  1.0
  C  C107  1  0.36583000  0.25548000  0.78435000  1.0
  C  C108  1  0.13418000  0.24451000  0.28434000  1.0
  C  C109  1  0.63417000  0.74452000  0.21565000  1.0
  C  C110  1  0.93558000  0.84216000  0.66191000  1.0
  C  C111  1  0.43558000  0.34216000  0.83809000  1.0
  C  C112  1  0.06443000  0.15784000  0.33809000  1.0
  C  C113  1  0.56442000  0.65784000  0.16191000  1.0
  N  N114  1  0.96015000  0.17441000  0.57829000  1.0
  N  N115  1  0.46014000  0.67441000  0.92171000  1.0
  N  N116  1  0.03986000  0.82559000  0.42172000  1.0
  N  N117  1  0.53986000  0.32559000  0.07829000  1.0
  N  N118  1  0.32670000  0.45212000  0.62633000  1.0
  N  N119  1  0.82670000  0.95212000  0.87367000  1.0
  N  N120  1  0.67330000  0.54788000  0.37367000  1.0
  N  N121  1  0.17329000  0.04788000  0.12633000  1.0
  N  N122  1  0.45627000  0.52908000  0.64668000  1.0
  N  N123  1  0.95627000  0.02908000  0.85332000  1.0
  N  N124  1  0.54373000  0.47092000  0.35332000  1.0
  N  N125  1  0.04373000  0.97092000  0.14668000  1.0
  N  N126  1  0.86613000  0.86246000  0.59410000  1.0
  N  N127  1  0.36614000  0.36246000  0.90591000  1.0
  N  N128  1  0.13386000  0.13754000  0.40590000  1.0
  N  N129  1  0.63386000  0.63754000  0.09409000  1.0
  N  N130  1  0.66230000  0.98722000  0.39117000  1.0
  N  N131  1  0.16230000  0.48722000  0.10883000  1.0
  N  N132  1  0.33771000  0.01278000  0.60883000  1.0
  N  N133  1  0.83770000  0.51278000  0.89117000  1.0
  O  O134  1  0.73853000  0.03200000  0.45086000  1.0
  O  O135  1  0.23853000  0.53200000  0.04914000  1.0
  O  O136  1  0.26147000  0.96800000  0.54914000  1.0
  O  O137  1  0.76147000  0.46800000  0.95086000  1.0
  O  O138  1  0.57685000  0.88181000  0.39599000  1.0
  O  O139  1  0.07685000  0.38182000  0.10401000  1.0
  O  O140  1  0.42315000  0.11818000  0.60401000  1.0
  O  O141  1  0.92315000  0.61818000  0.89599000  1.0
  O  O142  1  0.67423000  0.05057000  0.32976000  1.0
  O  O143  1  0.17423000  0.55057000  0.17025000  1.0
  O  O144  1  0.32577000  0.94943000  0.67024000  1.0
  O  O145  1  0.82577000  0.44943000  0.82976000  1.0
