# generated using pymatgen
data_Zr6H39C50N10ClO32
_symmetry_space_group_name_H-M   'P 1'
_cell_length_a   14.77500000
_cell_length_b   14.78860282
_cell_length_c   14.79040000
_cell_angle_alpha   90.06323285
_cell_angle_beta   119.83320000
_cell_angle_gamma   119.82539658
_symmetry_Int_Tables_number   1
_chemical_formula_structural   Zr6H39C50N10ClO32
_chemical_formula_sum   'Zr6 H39 C50 N10 Cl1 O32'
_cell_volume   2295.67245145
_cell_formula_units_Z   1
loop_
 _symmetry_equiv_pos_site_id
 _symmetry_equiv_pos_as_xyz
  1  'x, y, z'
loop_
 _atom_site_type_symbol
 _atom_site_label
 _atom_site_symmetry_multiplicity
 _atom_site_fract_x
 _atom_site_fract_y
 _atom_site_fract_z
 _atom_site_occupancy
  Zr  Zr0  1  0.49086000  0.61342000  0.11367000  1.0
  Zr  Zr1  1  0.50677000  0.38396000  0.88455000  1.0
  Zr  Zr2  1  0.73742000  0.62087000  0.12093000  1.0
  Zr  Zr3  1  0.25944000  0.37572000  0.87595000  1.0
  Zr  Zr4  1  0.49847000  0.37982000  0.11823000  1.0
  Zr  Zr5  1  0.49834000  0.61768000  0.87986000  1.0
  H  H6  1  0.68092000  0.59177000  0.28038000  1.0
  H  H7  1  0.31742000  0.21720000  0.90693000  1.0
  H  H8  1  0.69166000  0.59745000  0.90975000  1.0
  H  H9  1  0.30540000  0.58788000  0.89991000  1.0
  H  H10  1  0.50195000  0.36189000  0.40926000  1.0
  H  H11  1  0.50085000  0.64076000  0.59158000  1.0
  H  H12  1  0.51571000  0.91562000  0.86891000  1.0
  H  H13  1  0.49836000  0.09003000  0.13926000  1.0
  H  H14  1  0.95007000  0.09097000  0.85988000  1.0
  H  H15  1  0.04558000  0.91035000  0.14114000  1.0
  H  H16  1  0.95075000  0.35609000  0.58757000  1.0
  H  H17  1  0.04642000  0.63742000  0.40705000  1.0
  H  H18  1  0.04489000  0.91199000  0.39653000  1.0
  H  H19  1  0.71375000  0.97559000  0.38573000  1.0
  H  H20  1  0.71563000  0.88784000  0.46912000  1.0
  H  H21  1  0.89970000  0.05620000  0.64013000  1.0
  H  H22  1  0.89709000  0.14362000  0.55694000  1.0
  H  H23  1  0.22979000  0.63400000  0.13441000  1.0
  H  H24  1  0.76693000  0.36073000  0.86422000  1.0
  H  H25  1  0.49051000  0.32166000  0.64430000  1.0
  H  H26  1  0.48105000  0.26838000  0.53400000  1.0
  H  H27  1  0.47234000  0.66009000  0.33672000  1.0
  H  H28  1  0.46492000  0.70531000  0.43886000  1.0
  H  H29  1  0.51877000  0.15818000  0.83619000  1.0
  H  H30  1  0.50369000  0.04587000  0.77953000  1.0
  H  H31  1  0.50164000  0.85002000  0.17585000  1.0
  H  H32  1  0.50690000  0.95902000  0.22824000  1.0
  H  H33  1  0.67568000  0.86328000  0.83908000  1.0
  H  H34  1  0.73224000  0.97392000  0.79515000  1.0
  H  H35  1  0.32061000  0.15758000  0.18199000  1.0
  H  H36  1  0.26338000  0.05650000  0.23584000  1.0
  H  H37  1  0.67537000  0.31644000  0.34142000  1.0
  H  H38  1  0.73241000  0.26317000  0.44361000  1.0
  H  H39  1  0.32134000  0.65918000  0.63519000  1.0
  H  H40  1  0.26433000  0.70514000  0.52598000  1.0
  H  H41  1  0.03159000  0.66923000  0.18475000  1.0
  H  H42  1  0.18529000  0.71262000  0.23298000  1.0
  H  H43  1  0.96489000  0.31102000  0.82835000  1.0
  H  H44  1  0.81166000  0.26183000  0.78706000  1.0
  C  C45  1  0.48869000  0.49670000  0.29893000  1.0
  C  C46  1  0.51419000  0.20170000  0.00560000  1.0
  C  C47  1  0.50155000  0.49904000  0.69584000  1.0
  C  C48  1  0.49774000  0.80299000  0.00108000  1.0
  C  C49  1  0.79396000  0.80581000  0.29612000  1.0
  C  C50  1  0.18532000  0.48725000  0.99315000  1.0
  C  C51  1  0.20585000  0.19992000  0.69296000  1.0
  C  C52  1  0.81152000  0.50375000  0.00949000  1.0
  C  C53  1  0.80121000  0.49643000  0.30384000  1.0
  C  C54  1  0.80057000  0.80934000  0.00224000  1.0
  C  C55  1  0.19593000  0.49439000  0.68788000  1.0
  C  C56  1  0.19547000  0.19411000  0.00112000  1.0
  C  C57  1  0.50238000  0.49744000  0.59619000  1.0
  C  C58  1  0.49537000  0.50257000  0.40227000  1.0
  C  C59  1  0.50438000  0.41633000  0.54616000  1.0
  C  C60  1  0.49645000  0.58523000  0.45379000  1.0
  C  C61  1  0.50056000  0.42223000  0.45000000  1.0
  C  C62  1  0.49977000  0.57918000  0.54959000  1.0
  C  C63  1  0.51511000  0.10197000  0.00398000  1.0
  C  C64  1  0.50266000  0.90542000  0.00609000  1.0
  C  C65  1  0.52079000  0.05370000  0.92482000  1.0
  C  C66  1  0.49854000  0.95438000  0.08611000  1.0
  C  C67  1  0.51311000  0.95581000  0.92860000  1.0
  C  C68  1  0.50459000  0.05161000  0.08152000  1.0
  C  C69  1  0.89837000  0.90770000  0.99825000  1.0
  C  C70  1  0.09749000  0.09503000  0.00407000  1.0
  C  C71  1  0.86755000  0.95793000  0.91541000  1.0
  C  C72  1  0.12816000  0.04450000  0.08663000  1.0
  C  C73  1  0.96946000  0.05034000  0.92166000  1.0
  C  C74  1  0.02621000  0.95174000  0.08012000  1.0
  C  C75  1  0.89903000  0.49326000  0.40291000  1.0
  C  C76  1  0.09804000  0.49858000  0.58988000  1.0
  C  C77  1  0.86823000  0.41086000  0.45359000  1.0
  C  C78  1  0.12887000  0.58174000  0.54001000  1.0
  C  C79  1  0.97016000  0.41692000  0.54597000  1.0
  C  C80  1  0.02702000  0.57550000  0.44751000  1.0
  C  C81  1  0.89646000  0.90761000  0.39480000  1.0
  C  C82  1  0.10559000  0.10104000  0.59112000  1.0
  C  C83  1  0.87558000  0.96175000  0.45135000  1.0
  C  C84  1  0.12570000  0.04478000  0.53290000  1.0
  C  C85  1  0.97712000  0.05477000  0.54556000  1.0
  C  C86  1  0.02463000  0.95227000  0.43817000  1.0
  C  C87  1  0.77535000  0.96127000  0.45624000  1.0
  C  C88  1  0.89026000  0.06672000  0.56306000  1.0
  C  C89  1  0.91099000  0.50425000  0.00772000  1.0
  C  C90  1  0.08575000  0.48903000  0.99235000  1.0
  C  C91  1  0.04422000  0.58535000  0.08669000  1.0
  C  C92  1  0.95255000  0.40952000  0.91188000  1.0
  C  C93  1  0.12719000  0.57405000  0.07595000  1.0
  C  C94  1  0.86949000  0.42011000  0.92333000  1.0
  N  N95  1  0.51318000  0.33590000  0.58892000  1.0
  N  N96  1  0.49862000  0.67161000  0.41591000  1.0
  N  N97  1  0.53761000  0.10022000  0.84850000  1.0
  N  N98  1  0.48372000  0.90841000  0.16302000  1.0
  N  N99  1  0.74400000  0.91789000  0.82904000  1.0
  N  N100  1  0.25133000  0.08025000  0.16885000  1.0
  N  N101  1  0.74515000  0.32948000  0.41839000  1.0
  N  N102  1  0.25231000  0.66841000  0.58049000  1.0
  N  N103  1  0.09300000  0.67422000  0.16885000  1.0
  N  N104  1  0.90330000  0.32662000  0.82345000  1.0
  Cl  Cl105  1  0.27652000  0.08363000  0.57490000  1.0
  O  O106  1  0.48485000  0.57108000  0.25490000  1.0
  O  O107  1  0.51432000  0.24364000  0.92925000  1.0
  O  O108  1  0.50297000  0.42343000  0.73854000  1.0
  O  O109  1  0.49376000  0.75881000  0.07537000  1.0
  O  O110  1  0.83165000  0.76499000  0.25802000  1.0
  O  O111  1  0.15106000  0.41085000  0.91693000  1.0
  O  O112  1  0.16440000  0.23603000  0.73090000  1.0
  O  O113  1  0.84594000  0.57982000  0.08618000  1.0
  O  O114  1  0.68313000  0.42002000  0.26175000  1.0
  O  O115  1  0.68244000  0.76764000  0.92639000  1.0
  O  O116  1  0.31397000  0.57093000  0.73006000  1.0
  O  O117  1  0.31354000  0.23695000  0.07827000  1.0
  O  O118  1  0.83754000  0.76987000  0.07932000  1.0
  O  O119  1  0.15921000  0.41649000  0.72664000  1.0
  O  O120  1  0.15875000  0.23184000  0.92214000  1.0
  O  O121  1  0.83798000  0.57470000  0.26541000  1.0
  O  O122  1  0.67857000  0.76626000  0.25880000  1.0
  O  O123  1  0.69507000  0.42758000  0.93325000  1.0
  O  O124  1  0.32256000  0.24058000  0.73553000  1.0
  O  O125  1  0.30176000  0.56326000  0.06992000  1.0
  O  O126  1  0.49720000  0.76297000  0.92387000  1.0
  O  O127  1  0.48840000  0.41964000  0.25901000  1.0
  O  O128  1  0.51027000  0.23980000  0.08044000  1.0
  O  O129  1  0.50006000  0.57521000  0.73508000  1.0
  O  O130  1  0.35941000  0.56153000  0.92719000  1.0
  O  O131  1  0.63732000  0.57011000  0.93575000  1.0
  O  O132  1  0.36838000  0.29724000  0.93240000  1.0
  O  O133  1  0.62902000  0.56599000  0.20032000  1.0
  O  O134  1  0.60093000  0.45221000  0.05195000  1.0
  O  O135  1  0.39614000  0.44595000  0.04501000  1.0
  O  O136  1  0.40260000  0.44931000  0.85103000  1.0
  O  O137  1  0.59458000  0.64680000  0.04816000  1.0
