# generated using pymatgen
data_MgH2(C3O2)2
_symmetry_space_group_name_H-M   'P 1'
_cell_length_a   7.78012000
_cell_length_b   7.78977000
_cell_length_c   7.78459000
_cell_angle_alpha   66.47740000
_cell_angle_beta   66.45590000
_cell_angle_gamma   66.45910000
_symmetry_Int_Tables_number   1
_chemical_formula_structural   MgH2(C3O2)2
_chemical_formula_sum   'Mg3 H6 C18 O12'
_cell_volume   380.06726526
_cell_formula_units_Z   3
loop_
 _symmetry_equiv_pos_site_id
 _symmetry_equiv_pos_as_xyz
  1  'x, y, z'
loop_
 _atom_site_type_symbol
 _atom_site_label
 _atom_site_symmetry_multiplicity
 _atom_site_fract_x
 _atom_site_fract_y
 _atom_site_fract_z
 _atom_site_occupancy
  Mg  Mg0  1  0.16180000  0.16151000  0.66149000  1.0
  Mg  Mg1  1  0.83821000  0.83849000  0.33851000  1.0
  Mg  Mg2  1  0.00000000  0.00000000  0.50000000  1.0
  H  H3  1  0.88448000  0.30037000  0.08653000  1.0
  H  H4  1  0.11552000  0.69964000  0.91347000  1.0
  H  H5  1  0.58910000  0.88249000  0.79984000  1.0
  H  H6  1  0.41090000  0.11751000  0.20016000  1.0
  H  H7  1  0.30133000  0.58675000  0.38198000  1.0
  H  H8  1  0.69867000  0.41325000  0.61802000  1.0
  C  C9  1  0.59660000  0.42834000  0.25598000  1.0
  C  C10  1  0.40341000  0.57166000  0.74402000  1.0
  C  C11  1  0.75992000  0.43078000  0.09209000  1.0
  C  C12  1  0.24008000  0.56922000  0.90791000  1.0
  C  C13  1  0.75819000  0.59524000  0.92817000  1.0
  C  C14  1  0.24180000  0.40476000  0.07183000  1.0
  C  C15  1  0.59414000  0.75831000  0.93060000  1.0
  C  C16  1  0.40587000  0.24169000  0.06940000  1.0
  C  C17  1  0.42981000  0.75662000  0.09503000  1.0
  C  C18  1  0.57020000  0.24337000  0.90497000  1.0
  C  C19  1  0.43210000  0.59244000  0.25779000  1.0
  C  C20  1  0.56790000  0.40755000  0.74221000  1.0
  C  C21  1  0.58254000  0.24070000  0.41343000  1.0
  C  C22  1  0.41745000  0.75931000  0.58657000  1.0
  C  C23  1  0.91566000  0.58176000  0.74019000  1.0
  C  C24  1  0.08435000  0.41823000  0.25982000  1.0
  C  C25  1  0.24173000  0.91411000  0.08145000  1.0
  C  C26  1  0.75828000  0.08590000  0.91853000  1.0
  O  O27  1  0.41557000  0.22402000  0.51704000  1.0
  O  O28  1  0.58445000  0.77598000  0.48296000  1.0
  O  O29  1  0.74116000  0.10104000  0.42834000  1.0
  O  O30  1  0.25884000  0.89896000  0.57166000  1.0
  O  O31  1  0.01992000  0.41528000  0.72306000  1.0
  O  O32  1  0.98008000  0.58473000  0.27693000  1.0
  O  O33  1  0.92973000  0.74048000  0.60073000  1.0
  O  O34  1  0.07026000  0.25952000  0.39927000  1.0
  O  O35  1  0.22502000  0.01791000  0.91463000  1.0
  O  O36  1  0.77497000  0.98208000  0.08538000  1.0
  O  O37  1  0.10198000  0.92859000  0.24010000  1.0
  O  O38  1  0.89802000  0.07141000  0.75990000  1.0
