# generated using pymatgen
data_CoH15C24N2(O2F3)2
_symmetry_space_group_name_H-M   'P 1'
_cell_length_a   7.26585000
_cell_length_b   14.04339015
_cell_length_c   24.96030000
_cell_angle_alpha   73.78986114
_cell_angle_beta   89.98350000
_cell_angle_gamma   75.00919687
_symmetry_Int_Tables_number   1
_chemical_formula_structural   CoH15C24N2(O2F3)2
_chemical_formula_sum   'Co4 H60 C96 N8 O16 F24'
_cell_volume   2355.28215096
_cell_formula_units_Z   4
loop_
 _symmetry_equiv_pos_site_id
 _symmetry_equiv_pos_as_xyz
  1  'x, y, z'
loop_
 _atom_site_type_symbol
 _atom_site_label
 _atom_site_symmetry_multiplicity
 _atom_site_fract_x
 _atom_site_fract_y
 _atom_site_fract_z
 _atom_site_occupancy
  Co  Co0  1  0.84787000  0.05838000  0.98986000  1.0
  Co  Co1  1  0.90606000  0.94181000  0.51019000  1.0
  Co  Co2  1  0.15198000  0.94175000  0.01010000  1.0
  Co  Co3  1  0.09398000  0.05818000  0.48983000  1.0
  H  H4  1  0.49670000  0.91921000  0.12612000  1.0
  H  H5  1  0.41595000  0.08049000  0.37382000  1.0
  H  H6  1  0.50330000  0.08088000  0.87385000  1.0
  H  H7  1  0.58390000  0.91941000  0.62616000  1.0
  H  H8  1  0.28179000  0.65015000  0.34203000  1.0
  H  H9  1  0.93287000  0.34984000  0.15774000  1.0
  H  H10  1  0.71824000  0.34979000  0.65792000  1.0
  H  H11  1  0.06712000  0.65018000  0.84227000  1.0
  H  H12  1  0.41364000  0.82305000  0.21774000  1.0
  H  H13  1  0.23707000  0.17672000  0.28217000  1.0
  H  H14  1  0.58638000  0.17706000  0.78223000  1.0
  H  H15  1  0.76289000  0.82330000  0.71781000  1.0
  H  H16  1  0.69622000  0.82709000  0.32254000  1.0
  H  H17  1  0.52405000  0.17274000  0.17749000  1.0
  H  H18  1  0.30365000  0.17298000  0.67749000  1.0
  H  H19  1  0.47592000  0.82729000  0.82249000  1.0
  H  H20  1  0.72099000  0.28442000  0.89252000  1.0
  H  H21  1  0.00490000  0.71578000  0.60757000  1.0
  H  H22  1  0.27902000  0.71564000  0.10746000  1.0
  H  H23  1  0.99502000  0.28411000  0.39248000  1.0
  H  H24  1  0.38465000  0.14272000  0.00922000  1.0
  H  H25  1  0.52742000  0.85743000  0.49077000  1.0
  H  H26  1  0.61540000  0.85731000  0.99077000  1.0
  H  H27  1  0.47257000  0.14248000  0.50930000  1.0
  H  H28  1  0.09954000  0.75497000  0.39843000  1.0
  H  H29  1  0.85582000  0.24499000  0.10135000  1.0
  H  H30  1  0.90045000  0.24482000  0.60159000  1.0
  H  H31  1  0.14415000  0.75505000  0.89865000  1.0
  H  H32  1  0.00471000  0.64717000  0.25750000  1.0
  H  H33  1  0.65169000  0.35305000  0.24264000  1.0
  H  H34  1  0.99526000  0.35295000  0.74249000  1.0
  H  H35  1  0.34843000  0.64683000  0.75742000  1.0
  H  H36  1  0.05164000  0.26469000  0.97509000  1.0
  H  H37  1  0.31632000  0.73546000  0.52479000  1.0
  H  H38  1  0.94837000  0.73535000  0.02489000  1.0
  H  H39  1  0.68361000  0.26450000  0.47524000  1.0
  H  H40  1  0.03010000  0.35479000  0.90892000  1.0
  H  H41  1  0.38458000  0.64537000  0.59097000  1.0
  H  H42  1  0.96995000  0.64527000  0.09107000  1.0
  H  H43  1  0.61533000  0.35454000  0.40906000  1.0
  H  H44  1  0.34633000  0.40933000  0.87362000  1.0
  H  H45  1  0.75536000  0.59071000  0.62632000  1.0
  H  H46  1  0.65368000  0.59073000  0.12637000  1.0
  H  H47  1  0.24453000  0.40915000  0.37376000  1.0
  H  H48  1  0.79579000  0.38135000  0.00558000  1.0
  H  H49  1  0.17707000  0.61861000  0.49442000  1.0
  H  H50  1  0.20420000  0.61869000  0.99441000  1.0
  H  H51  1  0.82290000  0.38136000  0.50558000  1.0
  H  H52  1  0.08740000  0.75169000  0.16944000  1.0
  H  H53  1  0.83867000  0.24846000  0.33069000  1.0
  H  H54  1  0.91259000  0.24840000  0.83054000  1.0
  H  H55  1  0.16140000  0.75133000  0.66934000  1.0
  H  H56  1  0.30676000  0.47221000  0.95518000  1.0
  H  H57  1  0.77884000  0.52803000  0.54466000  1.0
  H  H58  1  0.69324000  0.52783000  0.04482000  1.0
  H  H59  1  0.22111000  0.47196000  0.45534000  1.0
  H  H60  1  0.52053000  0.92496000  0.38352000  1.0
  H  H61  1  0.44668000  0.07481000  0.11651000  1.0
  H  H62  1  0.47925000  0.07494000  0.61658000  1.0
  H  H63  1  0.55330000  0.92527000  0.88345000  1.0
  C  C64  1  0.85522000  0.90111000  0.08797000  1.0
  C  C65  1  0.75642000  0.09874000  0.41203000  1.0
  C  C66  1  0.14485000  0.09894000  0.91200000  1.0
  C  C67  1  0.24357000  0.90113000  0.58798000  1.0
  C  C68  1  0.60841000  0.86222000  0.15603000  1.0
  C  C69  1  0.47073000  0.13756000  0.34395000  1.0
  C  C70  1  0.39160000  0.13789000  0.84393000  1.0
  C  C71  1  0.52929000  0.86232000  0.65605000  1.0
  C  C72  1  0.80665000  0.59405000  0.34170000  1.0
  C  C73  1  0.40122000  0.40591000  0.15829000  1.0
  C  C74  1  0.19340000  0.40610000  0.65827000  1.0
  C  C75  1  0.59889000  0.59406000  0.84172000  1.0
  C  C76  1  0.63737000  0.66264000  0.29770000  1.0
  C  C77  1  0.30044000  0.33728000  0.20228000  1.0
  C  C78  1  0.36263000  0.33744000  0.70227000  1.0
  C  C79  1  0.69962000  0.66271000  0.79773000  1.0
  C  C80  1  0.33418000  0.71154000  0.34937000  1.0
  C  C81  1  0.04672000  0.28841000  0.15048000  1.0
  C  C82  1  0.66578000  0.28840000  0.65062000  1.0
  C  C83  1  0.95325000  0.71163000  0.84952000  1.0
  C  C84  1  0.56181000  0.80635000  0.20719000  1.0
  C  C85  1  0.36842000  0.19346000  0.29278000  1.0
  C  C86  1  0.43819000  0.19376000  0.79277000  1.0
  C  C87  1  0.63160000  0.80647000  0.70723000  1.0
  C  C88  1  0.56602000  0.81034000  0.33937000  1.0
  C  C89  1  0.37722000  0.18951000  0.16060000  1.0
  C  C90  1  0.43389000  0.18966000  0.66064000  1.0
  C  C91  1  0.62276000  0.81054000  0.83938000  1.0
  C  C92  1  0.70221000  0.72784000  0.24457000  1.0
  C  C93  1  0.43021000  0.27211000  0.25545000  1.0
  C  C94  1  0.29777000  0.27227000  0.75540000  1.0
  C  C95  1  0.56982000  0.72783000  0.74456000  1.0
  C  C96  1  0.50382000  0.73054000  0.32827000  1.0
  C  C97  1  0.23518000  0.26935000  0.17167000  1.0
  C  C98  1  0.49610000  0.26947000  0.67172000  1.0
  C  C99  1  0.76479000  0.73069000  0.82833000  1.0
  C  C100  1  0.79854000  0.84275000  0.14217000  1.0
  C  C101  1  0.64121000  0.15714000  0.35787000  1.0
  C  C102  1  0.20149000  0.15733000  0.85781000  1.0
  C  C103  1  0.35883000  0.84272000  0.64214000  1.0
  C  C104  1  0.59538000  0.27469000  0.91427000  1.0
  C  C105  1  0.86969000  0.72548000  0.58578000  1.0
  C  C106  1  0.40463000  0.72537000  0.08571000  1.0
  C  C107  1  0.13021000  0.27440000  0.41428000  1.0
  C  C108  1  0.42840000  0.19886000  0.97597000  1.0
  C  C109  1  0.62723000  0.80129000  0.52402000  1.0
  C  C110  1  0.57162000  0.80118000  0.02401000  1.0
  C  C111  1  0.37274000  0.19860000  0.47604000  1.0
  C  C112  1  0.05804000  0.41603000  0.97747000  1.0
  C  C113  1  0.47398000  0.58411000  0.52244000  1.0
  C  C114  1  0.94196000  0.58400000  0.02253000  1.0
  C  C115  1  0.52597000  0.41586000  0.47757000  1.0
  C  C116  1  0.23100000  0.76993000  0.38171000  1.0
  C  C117  1  0.00214000  0.23003000  0.11811000  1.0
  C  C118  1  0.76894000  0.22996000  0.61831000  1.0
  C  C119  1  0.99783000  0.77001000  0.88188000  1.0
  C  C120  1  0.89182000  0.70796000  0.23023000  1.0
  C  C121  1  0.59963000  0.29217000  0.26986000  1.0
  C  C122  1  0.10816000  0.29215000  0.76975000  1.0
  C  C123  1  0.40044000  0.70771000  0.73016000  1.0
  C  C124  1  0.54261000  0.58899000  0.27811000  1.0
  C  C125  1  0.13188000  0.41098000  0.22183000  1.0
  C  C126  1  0.45752000  0.41105000  0.72185000  1.0
  C  C127  1  0.86825000  0.58909000  0.77816000  1.0
  C  C128  1  0.10510000  0.32874000  0.95092000  1.0
  C  C129  1  0.43370000  0.67140000  0.54898000  1.0
  C  C130  1  0.89492000  0.67130000  0.04908000  1.0
  C  C131  1  0.56619000  0.32854000  0.45105000  1.0
  C  C132  1  0.41202000  0.33733000  0.90489000  1.0
  C  C133  1  0.74907000  0.66278000  0.59509000  1.0
  C  C134  1  0.58798000  0.66273000  0.09510000  1.0
  C  C135  1  0.25080000  0.33711000  0.40498000  1.0
  C  C136  1  0.88618000  0.43339000  0.00316000  1.0
  C  C137  1  0.31952000  0.56663000  0.49682000  1.0
  C  C138  1  0.11382000  0.56665000  0.99683000  1.0
  C  C139  1  0.68045000  0.43335000  0.50318000  1.0
  C  C140  1  0.93933000  0.76592000  0.17994000  1.0
  C  C141  1  0.70495000  0.23417000  0.32016000  1.0
  C  C142  1  0.06067000  0.23416000  0.82004000  1.0
  C  C143  1  0.29510000  0.76568000  0.67986000  1.0
  C  C144  1  0.17158000  0.48373000  0.97468000  1.0
  C  C145  1  0.65519000  0.51641000  0.52522000  1.0
  C  C146  1  0.82840000  0.51631000  0.02532000  1.0
  C  C147  1  0.34476000  0.48358000  0.47477000  1.0
  C  C148  1  0.29767000  0.84635000  0.39478000  1.0
  C  C149  1  0.14520000  0.15349000  0.10514000  1.0
  C  C150  1  0.70226000  0.15354000  0.60526000  1.0
  C  C151  1  0.85479000  0.84656000  0.89484000  1.0
  C  C152  1  0.19362000  0.90196000  0.43339000  1.0
  C  C153  1  0.09643000  0.09778000  0.06665000  1.0
  C  C154  1  0.80632000  0.09790000  0.56667000  1.0
  C  C155  1  0.90359000  0.90227000  0.93333000  1.0
  C  C156  1  0.46594000  0.86663000  0.37300000  1.0
  C  C157  1  0.33365000  0.13318000  0.12697000  1.0
  C  C158  1  0.53395000  0.13330000  0.62704000  1.0
  C  C159  1  0.66634000  0.86689000  0.87300000  1.0
  N  N160  1  0.60360000  0.18833000  0.95844000  1.0
  N  N161  1  0.79170000  0.81188000  0.54162000  1.0
  N  N162  1  0.39640000  0.81173000  0.04153000  1.0
  N  N163  1  0.20827000  0.18802000  0.45843000  1.0
  N  N164  1  0.30745000  0.28872000  0.94450000  1.0
  N  N165  1  0.59608000  0.71137000  0.55544000  1.0
  N  N166  1  0.69256000  0.71133000  0.05549000  1.0
  N  N167  1  0.40383000  0.28853000  0.44462000  1.0
  O  O168  1  0.06193000  0.86761000  0.45921000  1.0
  O  O169  1  0.93027000  0.13217000  0.04092000  1.0
  O  O170  1  0.93811000  0.13215000  0.54085000  1.0
  O  O171  1  0.06973000  0.86788000  0.95907000  1.0
  O  O172  1  0.73490000  0.98094000  0.05685000  1.0
  O  O173  1  0.71568000  0.01902000  0.44319000  1.0
  O  O174  1  0.26514000  0.01911000  0.94311000  1.0
  O  O175  1  0.28421000  0.98085000  0.55677000  1.0
  O  O176  1  0.24487000  0.97867000  0.44012000  1.0
  O  O177  1  0.22412000  0.02095000  0.05993000  1.0
  O  O178  1  0.75484000  0.02125000  0.55994000  1.0
  O  O179  1  0.77591000  0.97911000  0.94004000  1.0
  O  O180  1  0.02556000  0.86675000  0.07578000  1.0
  O  O181  1  0.89267000  0.13297000  0.42414000  1.0
  O  O182  1  0.97449000  0.13331000  0.92419000  1.0
  O  O183  1  0.10725000  0.86689000  0.57593000  1.0
  F  F184  1  0.92352000  0.64980000  0.35236000  1.0
  F  F185  1  0.57403000  0.35022000  0.14770000  1.0
  F  F186  1  0.07647000  0.35040000  0.64759000  1.0
  F  F187  1  0.42610000  0.64974000  0.85231000  1.0
  F  F188  1  0.37289000  0.64137000  0.24777000  1.0
  F  F189  1  0.01444000  0.35860000  0.25215000  1.0
  F  F190  1  0.62722000  0.35864000  0.75220000  1.0
  F  F191  1  0.98563000  0.64154000  0.74785000  1.0
  F  F192  1  0.91948000  0.51483000  0.32516000  1.0
  F  F193  1  0.43445000  0.48524000  0.17478000  1.0
  F  F194  1  0.08064000  0.48533000  0.67481000  1.0
  F  F195  1  0.56567000  0.51474000  0.82520000  1.0
  F  F196  1  0.74344000  0.55125000  0.39136000  1.0
  F  F197  1  0.29545000  0.44854000  0.10860000  1.0
  F  F198  1  0.25669000  0.44888000  0.60862000  1.0
  F  F199  1  0.70470000  0.55140000  0.89140000  1.0
  F  F200  1  0.65592000  0.54100000  0.24484000  1.0
  F  F201  1  0.19715000  0.45894000  0.25511000  1.0
  F  F202  1  0.34427000  0.45906000  0.75512000  1.0
  F  F203  1  0.80307000  0.54113000  0.74486000  1.0
  F  F204  1  0.50620000  0.51315000  0.32134000  1.0
  F  F205  1  0.01977000  0.48686000  0.17860000  1.0
  F  F206  1  0.49399000  0.48688000  0.67863000  1.0
  F  F207  1  0.98044000  0.51321000  0.82137000  1.0
