# generated using pymatgen
data_Co3H36C30(NO12)2
_symmetry_space_group_name_H-M   'P 1'
_cell_length_a   12.28350000
_cell_length_b   12.50790000
_cell_length_c   17.37450000
_cell_angle_alpha   89.99960000
_cell_angle_beta   89.99930000
_cell_angle_gamma   66.01900000
_symmetry_Int_Tables_number   1
_chemical_formula_structural   Co3H36C30(NO12)2
_chemical_formula_sum   'Co6 H72 C60 N4 O48'
_cell_volume   2439.00730249
_cell_formula_units_Z   2
loop_
 _symmetry_equiv_pos_site_id
 _symmetry_equiv_pos_as_xyz
  1  'x, y, z'
loop_
 _atom_site_type_symbol
 _atom_site_label
 _atom_site_symmetry_multiplicity
 _atom_site_fract_x
 _atom_site_fract_y
 _atom_site_fract_z
 _atom_site_occupancy
  Co  Co0  1  0.43904000  0.15951000  0.29439000  1.0
  Co  Co1  1  0.56095000  0.34050000  0.79439000  1.0
  Co  Co2  1  0.56096000  0.84049000  0.70562000  1.0
  Co  Co3  1  0.43905000  0.65951000  0.20561000  1.0
  Co  Co4  1  0.00000000  0.49999000  0.00000000  1.0
  Co  Co5  1  0.00001000  0.00000000  0.50000000  1.0
  H  H6  1  0.82257000  0.44618000  0.99277000  1.0
  H  H7  1  0.80422000  0.51293000  0.91122000  1.0
  H  H8  1  0.13184000  0.25215000  0.17473000  1.0
  H  H9  1  0.09395000  0.96465000  0.29078000  1.0
  H  H10  1  0.83903000  0.16319000  0.11854000  1.0
  H  H11  1  0.90647000  0.94027000  0.27334000  1.0
  H  H12  1  0.80218000  0.02086000  0.20029000  1.0
  H  H13  1  0.03347000  0.71045000  0.06675000  1.0
  H  H14  1  0.77836000  0.57515000  0.09904000  1.0
  H  H15  1  0.75426000  0.87237000  0.23416000  1.0
  H  H16  1  0.38543000  0.02133000  0.37533000  1.0
  H  H17  1  0.43090000  0.08047000  0.44216000  1.0
  H  H18  1  0.34884000  0.33982000  0.19183000  1.0
  H  H19  1  0.48816000  0.27857000  0.19973000  1.0
  H  H20  1  0.26763000  0.34901000  0.36066000  1.0
  H  H21  1  0.37479000  0.32077000  0.41653000  1.0
  H  H22  1  0.45737000  0.01581000  0.18253000  1.0
  H  H23  1  0.54856000  0.93295000  0.24374000  1.0
  H  H24  1  0.17743000  0.05384000  0.49276000  1.0
  H  H25  1  0.19579000  0.98707000  0.41122000  1.0
  H  H26  1  0.86816000  0.24785000  0.67470000  1.0
  H  H27  1  0.90604000  0.53535000  0.79078000  1.0
  H  H28  1  0.16098000  0.33683000  0.61853000  1.0
  H  H29  1  0.09352000  0.55972000  0.77336000  1.0
  H  H30  1  0.19782000  0.47915000  0.70029000  1.0
  H  H31  1  0.96654000  0.78955000  0.56675000  1.0
  H  H32  1  0.22165000  0.92484000  0.59904000  1.0
  H  H33  1  0.24573000  0.62763000  0.73417000  1.0
  H  H34  1  0.61457000  0.47868000  0.87534000  1.0
  H  H35  1  0.56909000  0.41953000  0.94216000  1.0
  H  H36  1  0.65116000  0.16019000  0.69183000  1.0
  H  H37  1  0.51182000  0.22143000  0.69973000  1.0
  H  H38  1  0.73237000  0.15098000  0.86063000  1.0
  H  H39  1  0.62521000  0.17923000  0.91653000  1.0
  H  H40  1  0.54264000  0.48421000  0.68254000  1.0
  H  H41  1  0.45143000  0.56705000  0.74375000  1.0
  H  H42  1  0.17743000  0.55380000  0.00722000  1.0
  H  H43  1  0.19577000  0.48706000  0.08878000  1.0
  H  H44  1  0.86817000  0.74783000  0.82527000  1.0
  H  H45  1  0.90605000  0.03535000  0.70922000  1.0
  H  H46  1  0.16099000  0.83680000  0.88145000  1.0
  H  H47  1  0.09353000  0.05971000  0.72665000  1.0
  H  H48  1  0.19782000  0.97913000  0.79971000  1.0
  H  H49  1  0.96653000  0.28954000  0.93325000  1.0
  H  H50  1  0.22164000  0.42484000  0.90096000  1.0
  H  H51  1  0.24574000  0.12762000  0.76582000  1.0
  H  H52  1  0.61458000  0.97867000  0.62467000  1.0
  H  H53  1  0.56909000  0.91953000  0.55784000  1.0
  H  H54  1  0.65116000  0.66019000  0.80818000  1.0
  H  H55  1  0.51183000  0.72143000  0.80028000  1.0
  H  H56  1  0.73238000  0.65097000  0.63937000  1.0
  H  H57  1  0.62522000  0.67922000  0.58348000  1.0
  H  H58  1  0.54263000  0.98421000  0.81747000  1.0
  H  H59  1  0.45143000  0.06705000  0.75626000  1.0
  H  H60  1  0.82258000  0.94619000  0.50724000  1.0
  H  H61  1  0.80423000  0.01293000  0.58879000  1.0
  H  H62  1  0.13186000  0.75214000  0.32529000  1.0
  H  H63  1  0.09395000  0.46465000  0.20923000  1.0
  H  H64  1  0.83902000  0.66320000  0.38147000  1.0
  H  H65  1  0.90647000  0.44030000  0.22665000  1.0
  H  H66  1  0.80217000  0.52087000  0.29972000  1.0
  H  H67  1  0.03347000  0.21045000  0.43324000  1.0
  H  H68  1  0.77836000  0.07516000  0.40096000  1.0
  H  H69  1  0.75425000  0.37238000  0.26583000  1.0
  H  H70  1  0.38543000  0.52133000  0.12466000  1.0
  H  H71  1  0.43091000  0.58047000  0.05784000  1.0
  H  H72  1  0.34884000  0.83982000  0.30817000  1.0
  H  H73  1  0.48816000  0.77858000  0.30026000  1.0
  H  H74  1  0.26762000  0.84901000  0.13935000  1.0
  H  H75  1  0.37479000  0.82077000  0.08347000  1.0
  H  H76  1  0.45737000  0.51580000  0.31746000  1.0
  H  H77  1  0.54857000  0.43296000  0.25625000  1.0
  C  C78  1  0.93681000  0.31762000  0.08425000  1.0
  C  C79  1  0.98124000  0.21728000  0.14032000  1.0
  C  C80  1  0.08402000  0.19656000  0.18310000  1.0
  C  C81  1  0.12522000  0.10606000  0.23716000  1.0
  C  C82  1  0.06372000  0.03421000  0.24783000  1.0
  C  C83  1  0.96121000  0.05375000  0.20483000  1.0
  C  C84  1  0.92022000  0.14531000  0.15142000  1.0
  C  C85  1  0.23232000  0.09077000  0.28382000  1.0
  C  C86  1  0.89747000  0.97490000  0.21435000  1.0
  C  C87  1  0.89944000  0.80383000  0.15113000  1.0
  C  C88  1  0.95379000  0.71509000  0.09681000  1.0
  C  C89  1  0.81213000  0.64003000  0.11496000  1.0
  C  C90  1  0.75343000  0.72510000  0.16996000  1.0
  C  C91  1  0.79827000  0.80805000  0.18975000  1.0
  C  C92  1  0.64395000  0.72644000  0.20829000  1.0
  C  C93  1  0.06319000  0.18241000  0.58423000  1.0
  C  C94  1  0.01874000  0.28274000  0.64030000  1.0
  C  C95  1  0.91597000  0.30345000  0.68308000  1.0
  C  C96  1  0.87476000  0.39395000  0.73715000  1.0
  C  C97  1  0.93628000  0.46579000  0.74782000  1.0
  C  C98  1  0.03879000  0.44625000  0.70482000  1.0
  C  C99  1  0.07978000  0.35470000  0.65140000  1.0
  C  C100  1  0.76767000  0.40923000  0.78381000  1.0
  C  C101  1  0.10252000  0.52510000  0.71436000  1.0
  C  C102  1  0.10055000  0.69618000  0.65114000  1.0
  C  C103  1  0.04621000  0.78492000  0.59681000  1.0
  C  C104  1  0.18790000  0.85995000  0.61497000  1.0
  C  C105  1  0.24658000  0.77490000  0.66998000  1.0
  C  C106  1  0.20173000  0.69195000  0.68976000  1.0
  C  C107  1  0.35605000  0.77356000  0.70830000  1.0
  C  C108  1  0.06319000  0.68236000  0.91575000  1.0
  C  C109  1  0.01877000  0.78270000  0.85969000  1.0
  C  C110  1  0.91598000  0.80343000  0.81690000  1.0
  C  C111  1  0.87478000  0.89393000  0.76284000  1.0
  C  C112  1  0.93629000  0.96578000  0.75217000  1.0
  C  C113  1  0.03881000  0.94623000  0.79517000  1.0
  C  C114  1  0.07979000  0.85467000  0.84858000  1.0
  C  C115  1  0.76768000  0.90922000  0.71618000  1.0
  C  C116  1  0.10253000  0.02509000  0.78564000  1.0
  C  C117  1  0.10055000  0.19617000  0.84886000  1.0
  C  C118  1  0.04621000  0.28490000  0.90319000  1.0
  C  C119  1  0.18788000  0.35995000  0.88504000  1.0
  C  C120  1  0.24657000  0.27490000  0.83003000  1.0
  C  C121  1  0.20173000  0.19194000  0.81024000  1.0
  C  C122  1  0.35604000  0.27356000  0.79170000  1.0
  C  C123  1  0.93682000  0.81762000  0.41575000  1.0
  C  C124  1  0.98126000  0.71728000  0.35970000  1.0
  C  C125  1  0.08403000  0.69656000  0.31692000  1.0
  C  C126  1  0.12524000  0.60606000  0.26285000  1.0
  C  C127  1  0.06372000  0.53421000  0.25218000  1.0
  C  C128  1  0.96119000  0.55377000  0.29518000  1.0
  C  C129  1  0.92022000  0.64531000  0.34860000  1.0
  C  C130  1  0.23232000  0.59077000  0.21618000  1.0
  C  C131  1  0.89747000  0.47492000  0.28565000  1.0
  C  C132  1  0.89944000  0.30383000  0.34886000  1.0
  C  C133  1  0.95379000  0.21508000  0.40319000  1.0
  C  C134  1  0.81211000  0.14005000  0.38504000  1.0
  C  C135  1  0.75342000  0.22510000  0.33003000  1.0
  C  C136  1  0.79827000  0.30805000  0.31024000  1.0
  C  C137  1  0.64394000  0.22644000  0.29171000  1.0
  N  N138  1  0.91189000  0.63450000  0.07982000  1.0
  N  N139  1  0.08813000  0.86549000  0.57983000  1.0
  N  N140  1  0.08811000  0.36549000  0.92017000  1.0
  N  N141  1  0.91190000  0.13450000  0.42016000  1.0
  O  O142  1  0.82909000  0.51503000  0.96490000  1.0
  O  O143  1  0.99692000  0.38072000  0.08152000  1.0
  O  O144  1  0.84472000  0.33340000  0.04442000  1.0
  O  O145  1  0.27813000  0.00197000  0.32865000  1.0
  O  O146  1  0.27263000  0.16964000  0.27671000  1.0
  O  O147  1  0.95282000  0.87898000  0.16096000  1.0
  O  O148  1  0.59842000  0.65950000  0.18036000  1.0
  O  O149  1  0.60315000  0.79410000  0.26628000  1.0
  O  O150  1  0.45062000  0.04719000  0.39077000  1.0
  O  O151  1  0.41475000  0.26155000  0.19378000  1.0
  O  O152  1  0.35340000  0.32785000  0.36223000  1.0
  O  O153  1  0.51452000  0.01437000  0.22171000  1.0
  O  O154  1  0.17093000  0.98497000  0.46490000  1.0
  O  O155  1  0.00310000  0.11930000  0.58151000  1.0
  O  O156  1  0.15526000  0.16665000  0.54439000  1.0
  O  O157  1  0.72188000  0.49802000  0.82865000  1.0
  O  O158  1  0.72737000  0.33036000  0.77671000  1.0
  O  O159  1  0.04717000  0.62104000  0.66098000  1.0
  O  O160  1  0.40159000  0.84048000  0.68037000  1.0
  O  O161  1  0.39683000  0.70591000  0.76630000  1.0
  O  O162  1  0.54937000  0.45282000  0.89077000  1.0
  O  O163  1  0.58524000  0.23845000  0.69378000  1.0
  O  O164  1  0.64659000  0.17215000  0.86222000  1.0
  O  O165  1  0.48547000  0.48565000  0.72170000  1.0
  O  O166  1  0.17090000  0.48495000  0.03510000  1.0
  O  O167  1  0.00307000  0.61928000  0.91848000  1.0
  O  O168  1  0.15529000  0.66658000  0.95558000  1.0
  O  O169  1  0.72187000  0.99802000  0.67134000  1.0
  O  O170  1  0.72737000  0.83035000  0.72329000  1.0
  O  O171  1  0.04718000  0.12101000  0.83903000  1.0
  O  O172  1  0.40157000  0.34050000  0.81963000  1.0
  O  O173  1  0.39684000  0.20590000  0.73371000  1.0
  O  O174  1  0.54938000  0.95281000  0.60923000  1.0
  O  O175  1  0.58524000  0.73845000  0.80623000  1.0
  O  O176  1  0.64660000  0.67214000  0.63778000  1.0
  O  O177  1  0.48547000  0.98564000  0.77830000  1.0
  O  O178  1  0.82910000  0.01504000  0.53511000  1.0
  O  O179  1  0.99693000  0.88071000  0.41849000  1.0
  O  O180  1  0.84474000  0.83340000  0.45559000  1.0
  O  O181  1  0.27812000  0.50197000  0.17135000  1.0
  O  O182  1  0.27263000  0.66964000  0.22329000  1.0
  O  O183  1  0.95282000  0.37897000  0.33904000  1.0
  O  O184  1  0.59842000  0.15951000  0.31964000  1.0
  O  O185  1  0.60315000  0.29410000  0.23372000  1.0
  O  O186  1  0.45062000  0.54719000  0.10923000  1.0
  O  O187  1  0.41475000  0.76155000  0.30622000  1.0
  O  O188  1  0.35340000  0.82785000  0.13778000  1.0
  O  O189  1  0.51453000  0.51436000  0.27829000  1.0
