# generated using pymatgen
data_Zn4H12C54O13F12
_symmetry_space_group_name_H-M   'P 1'
_cell_length_a   24.42020000
_cell_length_b   24.42012618
_cell_length_c   24.42012618
_cell_angle_alpha   60.00010000
_cell_angle_beta   60.00010000
_cell_angle_gamma   60.00010000
_symmetry_Int_Tables_number   1
_chemical_formula_structural   Zn4H12C54O13F12
_chemical_formula_sum   'Zn8 H24 C108 O26 F24'
_cell_volume   10297.48126495
_cell_formula_units_Z   2
loop_
 _symmetry_equiv_pos_site_id
 _symmetry_equiv_pos_as_xyz
  1  'x, y, z'
loop_
 _atom_site_type_symbol
 _atom_site_label
 _atom_site_symmetry_multiplicity
 _atom_site_fract_x
 _atom_site_fract_y
 _atom_site_fract_z
 _atom_site_occupancy
  Zn  Zn0  1  0.53284000  0.53283000  0.03283000  1.0
  Zn  Zn1  1  0.53284000  0.40150000  0.03283000  1.0
  Zn  Zn2  1  0.53283000  0.53283000  0.90150000  1.0
  Zn  Zn3  1  0.40150000  0.53283000  0.03283000  1.0
  Zn  Zn4  1  0.96717000  0.96717000  0.46716000  1.0
  Zn  Zn5  1  0.96716000  0.96717000  0.59850000  1.0
  Zn  Zn6  1  0.96716000  0.09850000  0.46717000  1.0
  Zn  Zn7  1  0.09850000  0.96717000  0.46716000  1.0
  H  H8  1  0.43647000  0.65157000  0.15157000  1.0
  H  H9  1  0.26039000  0.65157000  0.15157000  1.0
  H  H10  1  0.06353000  0.84843000  0.34843000  1.0
  H  H11  1  0.23961000  0.84843000  0.34843000  1.0
  H  H12  1  0.65157000  0.26039000  0.93647000  1.0
  H  H13  1  0.65157000  0.43647000  0.76039000  1.0
  H  H14  1  0.84843000  0.23961000  0.56353000  1.0
  H  H15  1  0.84843000  0.06353000  0.73961000  1.0
  H  H16  1  0.65157000  0.65157000  0.93647000  1.0
  H  H17  1  0.65157000  0.65157000  0.76039000  1.0
  H  H18  1  0.84843000  0.84843000  0.56353000  1.0
  H  H19  1  0.84843000  0.84843000  0.73961000  1.0
  H  H20  1  0.43647000  0.26039000  0.15157000  1.0
  H  H21  1  0.26039000  0.43647000  0.15157000  1.0
  H  H22  1  0.06353000  0.23961000  0.34843000  1.0
  H  H23  1  0.23961000  0.06353000  0.34843000  1.0
  H  H24  1  0.65157000  0.26039000  0.15157000  1.0
  H  H25  1  0.65157000  0.43647000  0.15157000  1.0
  H  H26  1  0.84843000  0.23961000  0.34843000  1.0
  H  H27  1  0.84843000  0.06353000  0.34843000  1.0
  H  H28  1  0.26039000  0.65157000  0.93647000  1.0
  H  H29  1  0.43647000  0.65157000  0.76039000  1.0
  H  H30  1  0.23961000  0.84843000  0.56353000  1.0
  H  H31  1  0.06353000  0.84843000  0.73961000  1.0
  C  C32  1  0.60470000  0.39531000  0.10468000  1.0
  C  C33  1  0.60468000  0.39532000  0.89531000  1.0
  C  C34  1  0.60468000  0.60469000  0.89531000  1.0
  C  C35  1  0.39531000  0.60469000  0.89531000  1.0
  C  C36  1  0.39531000  0.60469000  0.10469000  1.0
  C  C37  1  0.39531000  0.39531000  0.10469000  1.0
  C  C38  1  0.89531000  0.89531000  0.60469000  1.0
  C  C39  1  0.89531000  0.10468000  0.60469000  1.0
  C  C40  1  0.89531000  0.10469000  0.39531000  1.0
  C  C41  1  0.10468000  0.10469000  0.39531000  1.0
  C  C42  1  0.10469000  0.89531000  0.39531000  1.0
  C  C43  1  0.10468000  0.89531000  0.60469000  1.0
  C  C44  1  0.38204000  0.66787000  0.16787000  1.0
  C  C45  1  0.34201000  0.70842000  0.20841000  1.0
  C  C46  1  0.36999000  0.73022000  0.23022000  1.0
  C  C47  1  0.28222000  0.66787000  0.16787000  1.0
  C  C48  1  0.24116000  0.70842000  0.20841000  1.0
  C  C49  1  0.16957000  0.73022000  0.23022000  1.0
  C  C50  1  0.11796000  0.83213000  0.33213000  1.0
  C  C51  1  0.15799000  0.79159000  0.29158000  1.0
  C  C52  1  0.13001000  0.76978000  0.26978000  1.0
  C  C53  1  0.21778000  0.83213000  0.33213000  1.0
  C  C54  1  0.25884000  0.79159000  0.29158000  1.0
  C  C55  1  0.33043000  0.76978000  0.26978000  1.0
  C  C56  1  0.35203000  0.64797000  0.14797000  1.0
  C  C57  1  0.27055000  0.72945000  0.22945000  1.0
  C  C58  1  0.14797000  0.85203000  0.35203000  1.0
  C  C59  1  0.22946000  0.77055000  0.27054000  1.0
  C  C60  1  0.66787000  0.28222000  0.88204000  1.0
  C  C61  1  0.70841000  0.24116000  0.84201000  1.0
  C  C62  1  0.73023000  0.16957000  0.86998000  1.0
  C  C63  1  0.66787000  0.38204000  0.78222000  1.0
  C  C64  1  0.70841000  0.34201000  0.74116000  1.0
  C  C65  1  0.73022000  0.36998000  0.66957000  1.0
  C  C66  1  0.83213000  0.21778000  0.61796000  1.0
  C  C67  1  0.79158000  0.25884000  0.65799000  1.0
  C  C68  1  0.76978000  0.33043000  0.63001000  1.0
  C  C69  1  0.83213000  0.11796000  0.71778000  1.0
  C  C70  1  0.79158000  0.15799000  0.75884000  1.0
  C  C71  1  0.76978000  0.13001000  0.83043000  1.0
  C  C72  1  0.64797000  0.35203000  0.85203000  1.0
  C  C73  1  0.72945000  0.27055000  0.77055000  1.0
  C  C74  1  0.85203000  0.14797000  0.64797000  1.0
  C  C75  1  0.77055000  0.22945000  0.72945000  1.0
  C  C76  1  0.66787000  0.66787000  0.88204000  1.0
  C  C77  1  0.70842000  0.70841000  0.84201000  1.0
  C  C78  1  0.73023000  0.73022000  0.86998000  1.0
  C  C79  1  0.66787000  0.66787000  0.78222000  1.0
  C  C80  1  0.70842000  0.70841000  0.74116000  1.0
  C  C81  1  0.73023000  0.73022000  0.66957000  1.0
  C  C82  1  0.83213000  0.83213000  0.61796000  1.0
  C  C83  1  0.79159000  0.79158000  0.65799000  1.0
  C  C84  1  0.76977000  0.76978000  0.63002000  1.0
  C  C85  1  0.83213000  0.83213000  0.71778000  1.0
  C  C86  1  0.79159000  0.79158000  0.75884000  1.0
  C  C87  1  0.76977000  0.76978000  0.83043000  1.0
  C  C88  1  0.64797000  0.64797000  0.85203000  1.0
  C  C89  1  0.72945000  0.72945000  0.77055000  1.0
  C  C90  1  0.85203000  0.85203000  0.64797000  1.0
  C  C91  1  0.77055000  0.77055000  0.72945000  1.0
  C  C92  1  0.38204000  0.28222000  0.16787000  1.0
  C  C93  1  0.34200000  0.24116000  0.20842000  1.0
  C  C94  1  0.36999000  0.16957000  0.23022000  1.0
  C  C95  1  0.28222000  0.38204000  0.16787000  1.0
  C  C96  1  0.24116000  0.34201000  0.20841000  1.0
  C  C97  1  0.16957000  0.36999000  0.23022000  1.0
  C  C98  1  0.11796000  0.21778000  0.33213000  1.0
  C  C99  1  0.15799000  0.25884000  0.29158000  1.0
  C  C100  1  0.13001000  0.33043000  0.26978000  1.0
  C  C101  1  0.21777000  0.11796000  0.33213000  1.0
  C  C102  1  0.25884000  0.15799000  0.29158000  1.0
  C  C103  1  0.33043000  0.13001000  0.26978000  1.0
  C  C104  1  0.35203000  0.35203000  0.14797000  1.0
  C  C105  1  0.27055000  0.27055000  0.22945000  1.0
  C  C106  1  0.14797000  0.14797000  0.35203000  1.0
  C  C107  1  0.22945000  0.22945000  0.27055000  1.0
  C  C108  1  0.66787000  0.28222000  0.16787000  1.0
  C  C109  1  0.70842000  0.24116000  0.20841000  1.0
  C  C110  1  0.73022000  0.16957000  0.23022000  1.0
  C  C111  1  0.66787000  0.38204000  0.16787000  1.0
  C  C112  1  0.70842000  0.34201000  0.20841000  1.0
  C  C113  1  0.73022000  0.36999000  0.23022000  1.0
  C  C114  1  0.83213000  0.21778000  0.33213000  1.0
  C  C115  1  0.79159000  0.25884000  0.29158000  1.0
  C  C116  1  0.76978000  0.33043000  0.26978000  1.0
  C  C117  1  0.83213000  0.11796000  0.33213000  1.0
  C  C118  1  0.79159000  0.15799000  0.29158000  1.0
  C  C119  1  0.76977000  0.13002000  0.26978000  1.0
  C  C120  1  0.64797000  0.35203000  0.14797000  1.0
  C  C121  1  0.72945000  0.27055000  0.22945000  1.0
  C  C122  1  0.85203000  0.14797000  0.35203000  1.0
  C  C123  1  0.77055000  0.22945000  0.27055000  1.0
  C  C124  1  0.28222000  0.66787000  0.88204000  1.0
  C  C125  1  0.24116000  0.70841000  0.84201000  1.0
  C  C126  1  0.16958000  0.73022000  0.86998000  1.0
  C  C127  1  0.38204000  0.66787000  0.78222000  1.0
  C  C128  1  0.34200000  0.70842000  0.74116000  1.0
  C  C129  1  0.36999000  0.73022000  0.66957000  1.0
  C  C130  1  0.21778000  0.83213000  0.61796000  1.0
  C  C131  1  0.25884000  0.79158000  0.65799000  1.0
  C  C132  1  0.33043000  0.76978000  0.63001000  1.0
  C  C133  1  0.11796000  0.83213000  0.71778000  1.0
  C  C134  1  0.15798000  0.79159000  0.75884000  1.0
  C  C135  1  0.13001000  0.76978000  0.83043000  1.0
  C  C136  1  0.35203000  0.64797000  0.85203000  1.0
  C  C137  1  0.27055000  0.72945000  0.77055000  1.0
  C  C138  1  0.14797000  0.85203000  0.64797000  1.0
  C  C139  1  0.22945000  0.77055000  0.72945000  1.0
  O  O140  1  0.50000000  0.50000000  0.00000000  1.0
  O  O141  1  0.58803000  0.45860000  0.08804000  1.0
  O  O142  1  0.58804000  0.36532000  0.95860000  1.0
  O  O143  1  0.58803000  0.58804000  0.86533000  1.0
  O  O144  1  0.58804000  0.36533000  0.08803000  1.0
  O  O145  1  0.58803000  0.58804000  0.95860000  1.0
  O  O146  1  0.58803000  0.45860000  0.86533000  1.0
  O  O147  1  0.45859000  0.58804000  0.86533000  1.0
  O  O148  1  0.36532000  0.58804000  0.08804000  1.0
  O  O149  1  0.36532000  0.58804000  0.95860000  1.0
  O  O150  1  0.45859000  0.58804000  0.08804000  1.0
  O  O151  1  0.45861000  0.36532000  0.08803000  1.0
  O  O152  1  0.36532000  0.45860000  0.08804000  1.0
  O  O153  1  1.00000000  0.00000000  0.50000000  1.0
  O  O154  1  0.91196000  0.91196000  0.54140000  1.0
  O  O155  1  0.91196000  0.04140000  0.63467000  1.0
  O  O156  1  0.91197000  0.13467000  0.41196000  1.0
  O  O157  1  0.91197000  0.91196000  0.63467000  1.0
  O  O158  1  0.91196000  0.04140000  0.41196000  1.0
  O  O159  1  0.91197000  0.13467000  0.54140000  1.0
  O  O160  1  0.04140000  0.13467000  0.41196000  1.0
  O  O161  1  0.13468000  0.91196000  0.41196000  1.0
  O  O162  1  0.13467000  0.04140000  0.41196000  1.0
  O  O163  1  0.04140000  0.91196000  0.41196000  1.0
  O  O164  1  0.04141000  0.91196000  0.63467000  1.0
  O  O165  1  0.13467000  0.91196000  0.54140000  1.0
  F  F166  1  0.35908000  0.78925000  0.28924000  1.0
  F  F167  1  0.43758000  0.71075000  0.21075000  1.0
  F  F168  1  0.06243000  0.78924000  0.28925000  1.0
  F  F169  1  0.14092000  0.71075000  0.21075000  1.0
  F  F170  1  0.78925000  0.06242000  0.85908000  1.0
  F  F171  1  0.71076000  0.14092000  0.93757000  1.0
  F  F172  1  0.78925000  0.35908000  0.56242000  1.0
  F  F173  1  0.71075000  0.43757000  0.64092000  1.0
  F  F174  1  0.78924000  0.78925000  0.85908000  1.0
  F  F175  1  0.71076000  0.71075000  0.93757000  1.0
  F  F176  1  0.78925000  0.78925000  0.56242000  1.0
  F  F177  1  0.71075000  0.71075000  0.64092000  1.0
  F  F178  1  0.35908000  0.06242000  0.28925000  1.0
  F  F179  1  0.43757000  0.14092000  0.21076000  1.0
  F  F180  1  0.06242000  0.35908000  0.28925000  1.0
  F  F181  1  0.14092000  0.43758000  0.21075000  1.0
  F  F182  1  0.78924000  0.06243000  0.28925000  1.0
  F  F183  1  0.71075000  0.14092000  0.21075000  1.0
  F  F184  1  0.78924000  0.35908000  0.28925000  1.0
  F  F185  1  0.71075000  0.43758000  0.21075000  1.0
  F  F186  1  0.06242000  0.78925000  0.85908000  1.0
  F  F187  1  0.14093000  0.71075000  0.93757000  1.0
  F  F188  1  0.35908000  0.78925000  0.56242000  1.0
  F  F189  1  0.43758000  0.71075000  0.64092000  1.0
