# generated using pymatgen
data_CuH4C7N3
_symmetry_space_group_name_H-M   'P 1'
_cell_length_a   21.73870000
_cell_length_b   27.16440000
_cell_length_c   29.12770000
_cell_angle_alpha   89.51010000
_cell_angle_beta   92.45850000
_cell_angle_gamma   89.98280000
_symmetry_Int_Tables_number   1
_chemical_formula_structural   CuH4C7N3
_chemical_formula_sum   'Cu12 H48 C84 N36'
_cell_volume   17183.98867469
_cell_formula_units_Z   12
loop_
 _symmetry_equiv_pos_site_id
 _symmetry_equiv_pos_as_xyz
  1  'x, y, z'
loop_
 _atom_site_type_symbol
 _atom_site_label
 _atom_site_symmetry_multiplicity
 _atom_site_fract_x
 _atom_site_fract_y
 _atom_site_fract_z
 _atom_site_occupancy
  Cu  Cu0  1  0.41950000  0.43321000  0.35500000  1.0
  Cu  Cu1  1  0.35868000  0.39864000  0.44339000  1.0
  Cu  Cu2  1  0.41291000  0.31953000  0.37371000  1.0
  Cu  Cu3  1  0.63334000  0.11194000  0.83435000  1.0
  Cu  Cu4  1  0.63287000  0.10505000  0.94290000  1.0
  Cu  Cu5  1  0.55173000  0.18442000  0.88666000  1.0
  Cu  Cu6  1  0.91026000  0.57132000  0.14781000  1.0
  Cu  Cu7  1  0.85394000  0.59714000  0.05093000  1.0
  Cu  Cu8  1  0.91453000  0.68097000  0.11751000  1.0
  Cu  Cu9  1  0.11678000  0.90370000  0.66822000  1.0
  Cu  Cu10  1  0.12577000  0.89157000  0.56317000  1.0
  Cu  Cu11  1  0.06451000  0.80681000  0.62476000  1.0
  H  H12  1  0.35130000  0.53480000  0.33526000  1.0
  H  H13  1  0.27110000  0.49114000  0.46328000  1.0
  H  H14  1  0.48608000  0.27973000  0.28692000  1.0
  H  H15  1  0.51825000  0.43719000  0.27849000  1.0
  H  H16  1  0.35060000  0.33012000  0.53179000  1.0
  H  H17  1  0.39004000  0.22075000  0.42950000  1.0
  H  H18  1  0.73344000  0.03215000  0.81396000  1.0
  H  H19  1  0.70845000  0.00414000  0.95891000  1.0
  H  H20  1  0.44675000  0.20800000  0.80738000  1.0
  H  H21  1  0.57523000  0.11995000  0.73308000  1.0
  H  H22  1  0.63767000  0.15215000  0.04226000  1.0
  H  H23  1  0.54629000  0.26796000  0.96184000  1.0
  H  H24  1  0.83424000  0.47625000  0.17220000  1.0
  H  H25  1  0.76300000  0.50473000  0.03301000  1.0
  H  H26  1  0.99606000  0.72706000  0.20336000  1.0
  H  H27  1  0.00917000  0.57010000  0.23109000  1.0
  H  H28  1  0.84340000  0.65880000  0.95745000  1.0
  H  H29  1  0.89013000  0.77474000  0.05426000  1.0
  H  H30  1  0.21472000  0.98914000  0.68779000  1.0
  H  H31  1  0.20746000  0.98658000  0.53865000  1.0
  H  H32  1  0.97272000  0.77131000  0.70345000  1.0
  H  H33  1  0.03915000  0.91113000  0.75656000  1.0
  H  H34  1  0.11880000  0.84099000  0.46621000  1.0
  H  H35  1  0.07237000  0.71792000  0.55395000  1.0
  H  H36  1  0.75304000  0.92139000  0.94585000  1.0
  H  H37  1  0.81419000  0.97274000  0.81774000  1.0
  H  H38  1  0.90893000  0.91256000  0.76534000  1.0
  H  H39  1  0.96492000  0.77154000  0.81399000  1.0
  H  H40  1  0.91639000  0.73127000  0.90692000  1.0
  H  H41  1  0.80248000  0.82067000  0.98616000  1.0
  H  H42  1  0.25224000  0.59975000  0.45865000  1.0
  H  H43  1  0.22664000  0.55460000  0.32035000  1.0
  H  H44  1  0.12227000  0.59970000  0.25871000  1.0
  H  H45  1  0.01458000  0.71725000  0.30617000  1.0
  H  H46  1  0.04627000  0.76184000  0.40493000  1.0
  H  H47  1  0.17582000  0.68838000  0.49399000  1.0
  H  H48  1  0.25126000  0.07479000  0.54560000  1.0
  H  H49  1  0.30915000  0.03549000  0.68183000  1.0
  H  H50  1  0.40784000  0.09622000  0.73491000  1.0
  H  H51  1  0.48136000  0.22475000  0.67507000  1.0
  H  H52  1  0.43181000  0.25928000  0.57735000  1.0
  H  H53  1  0.30440000  0.17130000  0.50063000  1.0
  H  H54  1  0.74258000  0.39646000  0.04816000  1.0
  H  H55  1  0.70980000  0.45878000  0.17762000  1.0
  H  H56  1  0.61191000  0.41435000  0.23846000  1.0
  H  H57  1  0.51687000  0.28404000  0.19949000  1.0
  H  H58  1  0.54725000  0.23246000  0.10578000  1.0
  H  H59  1  0.67023000  0.30187000  0.01687000  1.0
  C  C60  1  0.33868000  0.51713000  0.36704000  1.0
  C  C61  1  0.29362000  0.53032000  0.39757000  1.0
  C  C62  1  0.29789000  0.49503000  0.43288000  1.0
  C  C63  1  0.48739000  0.31935000  0.29100000  1.0
  C  C64  1  0.51909000  0.35528000  0.26664000  1.0
  C  C65  1  0.50436000  0.40000000  0.28702000  1.0
  C  C66  1  0.36121000  0.31008000  0.50104000  1.0
  C  C67  1  0.36908000  0.25943000  0.49516000  1.0
  C  C68  1  0.38072000  0.25382000  0.44864000  1.0
  C  C69  1  0.72134000  0.03231000  0.84966000  1.0
  C  C70  1  0.73780000  0.99973000  0.88561000  1.0
  C  C71  1  0.70809000  0.01771000  0.92380000  1.0
  C  C72  1  0.48522000  0.18643000  0.79609000  1.0
  C  C73  1  0.49427000  0.16515000  0.75333000  1.0
  C  C74  1  0.55129000  0.14140000  0.75801000  1.0
  C  C75  1  0.61386000  0.17474000  0.01624000  1.0
  C  C76  1  0.59462000  0.22380000  0.01819000  1.0
  C  C77  1  0.56736000  0.23408000  0.97478000  1.0
  C  C78  1  0.82408000  0.49000000  0.13762000  1.0
  C  C79  1  0.78026000  0.47380000  0.10453000  1.0
  C  C80  1  0.78783000  0.50421000  0.06613000  1.0
  C  C81  1  0.99215000  0.68725000  0.20376000  1.0
  C  C82  1  0.02031000  0.65240000  0.23352000  1.0
  C  C83  1  0.99933000  0.60670000  0.21750000  1.0
  C  C84  1  0.85620000  0.68095000  0.98716000  1.0
  C  C85  1  0.86396000  0.73194000  0.99050000  1.0
  C  C86  1  0.87949000  0.74042000  0.03688000  1.0
  C  C87  1  0.20640000  0.98168000  0.65156000  1.0
  C  C88  1  0.22937000  0.00528000  0.61294000  1.0
  C  C89  1  0.20222000  0.98076000  0.57512000  1.0
  C  C90  1  0.99631000  0.80579000  0.71046000  1.0
  C  C91  1  0.98791000  0.84010000  0.74523000  1.0
  C  C92  1  0.03024000  0.87769000  0.73733000  1.0
  C  C93  1  0.10619000  0.81663000  0.49397000  1.0
  C  C94  1  0.09771000  0.76561000  0.49411000  1.0
  C  C95  1  0.08297000  0.75355000  0.53914000  1.0
  C  C96  1  0.81755000  0.88414000  0.89845000  1.0
  C  C97  1  0.83821000  0.83681000  0.91594000  1.0
  C  C98  1  0.87669000  0.80604000  0.88863000  1.0
  C  C99  1  0.89804000  0.82401000  0.84532000  1.0
  C  C100  1  0.87955000  0.87242000  0.82895000  1.0
  C  C101  1  0.83781000  0.90160000  0.85452000  1.0
  C  C102  1  0.77901000  0.91999000  0.91497000  1.0
  C  C103  1  0.81069000  0.94710000  0.84618000  1.0
  C  C104  1  0.90974000  0.88139000  0.78883000  1.0
  C  C105  1  0.93845000  0.80534000  0.81415000  1.0
  C  C106  1  0.88826000  0.76314000  0.91362000  1.0
  C  C107  1  0.82891000  0.81157000  0.95667000  1.0
  C  C108  1  0.18644000  0.63099000  0.40357000  1.0
  C  C109  1  0.15059000  0.67147000  0.41983000  1.0
  C  C110  1  0.10658000  0.69682000  0.38918000  1.0
  C  C111  1  0.09531000  0.67917000  0.34289000  1.0
  C  C112  1  0.13136000  0.63849000  0.32675000  1.0
  C  C113  1  0.17828000  0.61587000  0.35628000  1.0
  C  C114  1  0.23125000  0.60067000  0.42421000  1.0
  C  C115  1  0.21894000  0.57757000  0.34979000  1.0
  C  C116  1  0.10868000  0.62723000  0.28300000  1.0
  C  C117  1  0.05226000  0.69105000  0.30793000  1.0
  C  C118  1  0.08127000  0.73463000  0.41410000  1.0
  C  C119  1  0.14934000  0.69437000  0.46207000  1.0
  C  C120  1  0.32047000  0.11334000  0.59281000  1.0
  C  C121  1  0.34495000  0.15743000  0.57235000  1.0
  C  C122  1  0.38805000  0.18784000  0.59874000  1.0
  C  C123  1  0.40914000  0.17318000  0.64447000  1.0
  C  C124  1  0.38427000  0.12926000  0.66487000  1.0
  C  C125  1  0.33943000  0.10007000  0.63953000  1.0
  C  C126  1  0.27796000  0.07826000  0.57767000  1.0
  C  C127  1  0.30764000  0.05787000  0.65085000  1.0
  C  C128  1  0.41219000  0.12395000  0.70827000  1.0
  C  C129  1  0.45163000  0.19278000  0.67628000  1.0
  C  C130  1  0.40120000  0.22825000  0.57160000  1.0
  C  C131  1  0.33442000  0.18051000  0.52999000  1.0
  C  C132  1  0.67734000  0.36979000  0.10147000  1.0
  C  C133  1  0.64489000  0.32564000  0.08767000  1.0
  C  C134  1  0.60296000  0.30181000  0.11820000  1.0
  C  C135  1  0.59088000  0.32400000  0.16184000  1.0
  C  C136  1  0.62256000  0.36888000  0.17513000  1.0
  C  C137  1  0.66699000  0.39069000  0.14590000  1.0
  C  C138  1  0.72047000  0.39931000  0.08067000  1.0
  C  C139  1  0.70444000  0.43172000  0.15061000  1.0
  C  C140  1  0.60023000  0.38332000  0.21669000  1.0
  C  C141  1  0.55068000  0.31302000  0.19625000  1.0
  C  C142  1  0.58017000  0.26017000  0.09586000  1.0
  C  C143  1  0.64515000  0.29791000  0.04804000  1.0
  N  N144  1  0.34281000  0.46251000  0.42372000  1.0
  N  N145  1  0.36770000  0.47611000  0.38303000  1.0
  N  N146  1  0.46614000  0.39118000  0.32150000  1.0
  N  N147  1  0.45533000  0.34160000  0.32386000  1.0
  N  N148  1  0.38004000  0.29865000  0.42802000  1.0
  N  N149  1  0.36823000  0.33338000  0.46050000  1.0
  N  N150  1  0.67559000  0.05850000  0.91112000  1.0
  N  N151  1  0.68404000  0.06757000  0.86555000  1.0
  N  N152  1  0.57489000  0.14795000  0.80105000  1.0
  N  N153  1  0.53405000  0.17579000  0.82466000  1.0
  N  N154  1  0.57053000  0.19371000  0.94836000  1.0
  N  N155  1  0.59917000  0.15689000  0.97400000  1.0
  N  N156  1  0.83354000  0.53679000  0.07592000  1.0
  N  N157  1  0.85557000  0.52805000  0.12006000  1.0
  N  N158  1  0.96105000  0.61385000  0.18039000  1.0
  N  N159  1  0.95621000  0.66346000  0.17197000  1.0
  N  N160  1  0.88093000  0.69697000  0.05986000  1.0
  N  N161  1  0.86681000  0.66020000  0.02910000  1.0
  N  N162  1  0.16512000  0.94471000  0.59049000  1.0
  N  N163  1  0.16802000  0.94520000  0.63749000  1.0
  N  N164  1  0.06176000  0.86664000  0.69995000  1.0
  N  N165  1  0.04111000  0.82224000  0.68331000  1.0
  N  N166  1  0.08319000  0.79494000  0.56451000  1.0
  N  N167  1  0.09731000  0.83399000  0.53653000  1.0
  N  N168  1  0.77502000  0.95802000  0.88300000  1.0
  N  N169  1  0.94522000  0.84051000  0.78003000  1.0
  N  N170  1  0.85928000  0.76691000  0.95485000  1.0
  N  N171  1  0.25078000  0.56854000  0.39119000  1.0
  N  N172  1  0.06075000  0.65923000  0.27173000  1.0
  N  N173  1  0.10730000  0.73259000  0.45829000  1.0
  N  N174  1  0.27042000  0.04484000  0.61320000  1.0
  N  N175  1  0.45277000  0.16271000  0.71491000  1.0
  N  N176  1  0.36861000  0.22351000  0.53002000  1.0
  N  N177  1  0.73668000  0.43668000  0.11089000  1.0
  N  N178  1  0.55655000  0.34937000  0.22928000  1.0
  N  N179  1  0.60604000  0.25829000  0.05331000  1.0
