# generated using pymatgen
data_Cu3H12C18(NO3)4
_symmetry_space_group_name_H-M   'P 1'
_cell_length_a   6.55372000
_cell_length_b   8.08194000
_cell_length_c   10.52430000
_cell_angle_alpha   86.76610000
_cell_angle_beta   76.51200000
_cell_angle_gamma   69.78400000
_symmetry_Int_Tables_number   1
_chemical_formula_structural   Cu3H12C18(NO3)4
_chemical_formula_sum   'Cu3 H12 C18 N4 O12'
_cell_volume   508.49169426
_cell_formula_units_Z   1
loop_
 _symmetry_equiv_pos_site_id
 _symmetry_equiv_pos_as_xyz
  1  'x, y, z'
loop_
 _atom_site_type_symbol
 _atom_site_label
 _atom_site_symmetry_multiplicity
 _atom_site_fract_x
 _atom_site_fract_y
 _atom_site_fract_z
 _atom_site_occupancy
  Cu  Cu0  1  0.50000000  0.00000000  0.00000000  1.0
  Cu  Cu1  1  0.10954000  0.26244000  0.50632000  1.0
  Cu  Cu2  1  0.89046000  0.73756000  0.49369000  1.0
  H  H3  1  0.74872000  0.19973000  0.70953000  1.0
  H  H4  1  0.25128000  0.80027000  0.29047000  1.0
  H  H5  1  0.36462000  0.21038000  0.70851000  1.0
  H  H6  1  0.63538000  0.78962000  0.29149000  1.0
  H  H7  1  0.52618000  0.19509000  0.30129000  1.0
  H  H8  1  0.47381000  0.80492000  0.69871000  1.0
  H  H9  1  0.90813000  0.19317000  0.30213000  1.0
  H  H10  1  0.09185000  0.80684000  0.69787000  1.0
  H  H11  1  0.14937000  0.06348000  0.90210000  1.0
  H  H12  1  0.85063000  0.93652000  0.09790000  1.0
  H  H13  1  0.22900000  0.85677000  0.94493000  1.0
  H  H14  1  0.77101000  0.14322000  0.05507000  1.0
  C  C15  1  0.10959000  0.48322000  0.24354000  1.0
  C  C16  1  0.89041000  0.51678000  0.75646000  1.0
  C  C17  1  0.22560000  0.32091000  0.16389000  1.0
  C  C18  1  0.77439000  0.67909000  0.83611000  1.0
  C  C19  1  0.29259000  0.37125000  0.02814000  1.0
  C  C20  1  0.70741000  0.62875000  0.97186000  1.0
  C  C21  1  0.20842000  0.56470000  0.02167000  1.0
  C  C22  1  0.79158000  0.43530000  0.97833000  1.0
  C  C23  1  0.08583000  0.63279000  0.15573000  1.0
  C  C24  1  0.91418000  0.36721000  0.84427000  1.0
  C  C25  1  0.69748000  0.20464000  0.61794000  1.0
  C  C26  1  0.30252000  0.79536000  0.38206000  1.0
  C  C27  1  0.48473000  0.20869000  0.61737000  1.0
  C  C28  1  0.51527000  0.79130000  0.38263000  1.0
  C  C29  1  0.57350000  0.20206000  0.39263000  1.0
  C  C30  1  0.42649000  0.79795000  0.60737000  1.0
  C  C31  1  0.78541000  0.20007000  0.39314000  1.0
  C  C32  1  0.21458000  0.79994000  0.60686000  1.0
  N  N33  1  0.84871000  0.20667000  0.50597000  1.0
  N  N34  1  0.15129000  0.79333000  0.49403000  1.0
  N  N35  1  0.41729000  0.21181000  0.50473000  1.0
  N  N36  1  0.58270000  0.78819000  0.49528000  1.0
  O  O37  1  0.04147000  0.49287000  0.36638000  1.0
  O  O38  1  0.95853000  0.50713000  0.63362000  1.0
  O  O39  1  0.26851000  0.16549000  0.20161000  1.0
  O  O40  1  0.73149000  0.83451000  0.79839000  1.0
  O  O41  1  0.40794000  0.26173000  0.93587000  1.0
  O  O42  1  0.59207000  0.73827000  0.06413000  1.0
  O  O43  1  0.23904000  0.65404000  0.92223000  1.0
  O  O44  1  0.76097000  0.34596000  0.07777000  1.0
  O  O45  1  0.98065000  0.79105000  0.19195000  1.0
  O  O46  1  0.01936000  0.20895000  0.80805000  1.0
  O  O47  1  0.24093000  0.97544000  0.95598000  1.0
  O  O48  1  0.75908000  0.02455000  0.04402000  1.0
