# generated using pymatgen
data_CuB2H32C14S4(OF2)4
_symmetry_space_group_name_H-M   'P 1'
_cell_length_a   7.68254000
_cell_length_b   10.90590000
_cell_length_c   15.09400000
_cell_angle_alpha   90.00000000
_cell_angle_beta   96.14100000
_cell_angle_gamma   90.00000000
_symmetry_Int_Tables_number   1
_chemical_formula_structural   CuB2H32C14S4(OF2)4
_chemical_formula_sum   'Cu2 B4 H64 C28 S8 O8 F16'
_cell_volume   1257.39397423
_cell_formula_units_Z   2
loop_
 _symmetry_equiv_pos_site_id
 _symmetry_equiv_pos_as_xyz
  1  'x, y, z'
loop_
 _atom_site_type_symbol
 _atom_site_label
 _atom_site_symmetry_multiplicity
 _atom_site_fract_x
 _atom_site_fract_y
 _atom_site_fract_z
 _atom_site_occupancy
  Cu  Cu0  1  0.00000000  0.50000000  0.00000000  1.0
  Cu  Cu1  1  0.50000000  0.00001000  0.50000000  1.0
  B  B2  1  0.76155000  0.25021000  0.10119000  1.0
  B  B3  1  0.73846000  0.75022000  0.39882000  1.0
  B  B4  1  0.23845000  0.74978000  0.89881000  1.0
  B  B5  1  0.26155000  0.24979000  0.60118000  1.0
  H  H6  1  0.99976000  0.47790000  0.36119000  1.0
  H  H7  1  0.50024000  0.97790000  0.13881000  1.0
  H  H8  1  0.00023000  0.52210000  0.63881000  1.0
  H  H9  1  0.49976000  0.02210000  0.86119000  1.0
  H  H10  1  0.21324000  0.43682000  0.33740000  1.0
  H  H11  1  0.28675000  0.93682000  0.16259000  1.0
  H  H12  1  0.78674000  0.56318000  0.66259000  1.0
  H  H13  1  0.71325000  0.06318000  0.83740000  1.0
  H  H14  1  0.02841000  0.40272000  0.25892000  1.0
  H  H15  1  0.47159000  0.90272000  0.24108000  1.0
  H  H16  1  0.97158000  0.59727000  0.74108000  1.0
  H  H17  1  0.52841000  0.09728000  0.75892000  1.0
  H  H18  1  0.16282000  0.66485000  0.30888000  1.0
  H  H19  1  0.33718000  0.16485000  0.19111000  1.0
  H  H20  1  0.83718000  0.33514000  0.69111000  1.0
  H  H21  1  0.66282000  0.83515000  0.80888000  1.0
  H  H22  1  0.96576000  0.63160000  0.24152000  1.0
  H  H23  1  0.53423000  0.13160000  0.25848000  1.0
  H  H24  1  0.03422000  0.36840000  0.75848000  1.0
  H  H25  1  0.46577000  0.86840000  0.74152000  1.0
  H  H26  1  0.46623000  0.61839000  0.26721000  1.0
  H  H27  1  0.03377000  0.11839000  0.23279000  1.0
  H  H28  1  0.53377000  0.38161000  0.73279000  1.0
  H  H29  1  0.96623000  0.88160000  0.76721000  1.0
  H  H30  1  0.42015000  0.46167000  0.23607000  1.0
  H  H31  1  0.07985000  0.96167000  0.26393000  1.0
  H  H32  1  0.57985000  0.53833000  0.76393000  1.0
  H  H33  1  0.92016000  0.03833000  0.73607000  1.0
  H  H34  1  0.50161000  0.50660000  0.08182000  1.0
  H  H35  1  0.99840000  0.00659000  0.41818000  1.0
  H  H36  1  0.49840000  0.49340000  0.91818000  1.0
  H  H37  1  0.00161000  0.99340000  0.58182000  1.0
  H  H38  1  0.67722000  0.52139000  0.16544000  1.0
  H  H39  1  0.82278000  0.02139000  0.33456000  1.0
  H  H40  1  0.32278000  0.47861000  0.83456000  1.0
  H  H41  1  0.17723000  0.97861000  0.66544000  1.0
  H  H42  1  0.45893000  0.73969000  0.08333000  1.0
  H  H43  1  0.04107000  0.23968000  0.41668000  1.0
  H  H44  1  0.54107000  0.26031000  0.91667000  1.0
  H  H45  1  0.95893000  0.76032000  0.58332000  1.0
  H  H46  1  0.64701000  0.74914000  0.16558000  1.0
  H  H47  1  0.85300000  0.24914000  0.33442000  1.0
  H  H48  1  0.35300000  0.25086000  0.83442000  1.0
  H  H49  1  0.14700000  0.75086000  0.66558000  1.0
  H  H50  1  0.64118000  0.90635000  0.01147000  1.0
  H  H51  1  0.85881000  0.40635000  0.48853000  1.0
  H  H52  1  0.35882000  0.09365000  0.98854000  1.0
  H  H53  1  0.14119000  0.59366000  0.51147000  1.0
  H  H54  1  0.82526000  0.86948000  0.95358000  1.0
  H  H55  1  0.67474000  0.36949000  0.54641000  1.0
  H  H56  1  0.17475000  0.13052000  0.04642000  1.0
  H  H57  1  0.32527000  0.63052000  0.45359000  1.0
  H  H58  1  0.92090000  0.99690000  0.08792000  1.0
  H  H59  1  0.57909000  0.49690000  0.41208000  1.0
  H  H60  1  0.07910000  0.00310000  0.91209000  1.0
  H  H61  1  0.42090000  0.50310000  0.58792000  1.0
  H  H62  1  0.84180000  0.88544000  0.15903000  1.0
  H  H63  1  0.65820000  0.38544000  0.34097000  1.0
  H  H64  1  0.15820000  0.11456000  0.84097000  1.0
  H  H65  1  0.34180000  0.61456000  0.65903000  1.0
  H  H66  1  0.01765000  0.84734000  0.09597000  1.0
  H  H67  1  0.48234000  0.34734000  0.40403000  1.0
  H  H68  1  0.98234000  0.15266000  0.90403000  1.0
  H  H69  1  0.51766000  0.65266000  0.59597000  1.0
  C  C70  1  0.08527000  0.47014000  0.30772000  1.0
  C  C71  1  0.41473000  0.97014000  0.19227000  1.0
  C  C72  1  0.91472000  0.52985000  0.69227000  1.0
  C  C73  1  0.58528000  0.02985000  0.80773000  1.0
  C  C74  1  0.09601000  0.59526000  0.26460000  1.0
  C  C75  1  0.40399000  0.09526000  0.23540000  1.0
  C  C76  1  0.90398000  0.40474000  0.73540000  1.0
  C  C77  1  0.59601000  0.90474000  0.76460000  1.0
  C  C78  1  0.42819000  0.55587000  0.21120000  1.0
  C  C79  1  0.07181000  0.05587000  0.28880000  1.0
  C  C80  1  0.57181000  0.44413000  0.78880000  1.0
  C  C81  1  0.92819000  0.94413000  0.71120000  1.0
  C  C82  1  0.55233000  0.56319000  0.13908000  1.0
  C  C83  1  0.94767000  0.06318000  0.36092000  1.0
  C  C84  1  0.44767000  0.43681000  0.86092000  1.0
  C  C85  1  0.05233000  0.93682000  0.63908000  1.0
  C  C86  1  0.58141000  0.69496000  0.11053000  1.0
  C  C87  1  0.91859000  0.19496000  0.38947000  1.0
  C  C88  1  0.41859000  0.30504000  0.88947000  1.0
  C  C89  1  0.08141000  0.80504000  0.61053000  1.0
  C  C90  1  0.76764000  0.85847000  0.01655000  1.0
  C  C91  1  0.73235000  0.35847000  0.48345000  1.0
  C  C92  1  0.23236000  0.14153000  0.98346000  1.0
  C  C93  1  0.26765000  0.64153000  0.51655000  1.0
  C  C94  1  0.89471000  0.89876000  0.09498000  1.0
  C  C95  1  0.60529000  0.39876000  0.40501000  1.0
  C  C96  1  0.10529000  0.10124000  0.90502000  1.0
  C  C97  1  0.39471000  0.60124000  0.59498000  1.0
  S  S98  1  0.20961000  0.59792000  0.16549000  1.0
  S  S99  1  0.29039000  0.09792000  0.33451000  1.0
  S  S100  1  0.79038000  0.40208000  0.83451000  1.0
  S  S101  1  0.70962000  0.90209000  0.66549000  1.0
  S  S102  1  0.71343000  0.69651000  0.01860000  1.0
  S  S103  1  0.78657000  0.19651000  0.48140000  1.0
  S  S104  1  0.28657000  0.30349000  0.98140000  1.0
  S  S105  1  0.21344000  0.80349000  0.51860000  1.0
  O  O106  1  0.15123000  0.48120000  0.11210000  1.0
  O  O107  1  0.34877000  0.98121000  0.38790000  1.0
  O  O108  1  0.84878000  0.51879000  0.88789000  1.0
  O  O109  1  0.65123000  0.01880000  0.61210000  1.0
  O  O110  1  0.88585000  0.63456000  0.05775000  1.0
  O  O111  1  0.61415000  0.13456000  0.44224000  1.0
  O  O112  1  0.11415000  0.36544000  0.94224000  1.0
  O  O113  1  0.38585000  0.86545000  0.55776000  1.0
  F  F114  1  0.65012000  0.15443000  0.06512000  1.0
  F  F115  1  0.84988000  0.65443000  0.43488000  1.0
  F  F116  1  0.34988000  0.84557000  0.93488000  1.0
  F  F117  1  0.15012000  0.34558000  0.56512000  1.0
  F  F118  1  0.71241000  0.28609000  0.18539000  1.0
  F  F119  1  0.78760000  0.78609000  0.31462000  1.0
  F  F120  1  0.28758000  0.71391000  0.81461000  1.0
  F  F121  1  0.21240000  0.21392000  0.68539000  1.0
  F  F122  1  0.93794000  0.20872000  0.11199000  1.0
  F  F123  1  0.56207000  0.70872000  0.38802000  1.0
  F  F124  1  0.06206000  0.79127000  0.88801000  1.0
  F  F125  1  0.43794000  0.29128000  0.61199000  1.0
  F  F126  1  0.74636000  0.35121000  0.04152000  1.0
  F  F127  1  0.75364000  0.85122000  0.45848000  1.0
  F  F128  1  0.25365000  0.64878000  0.95848000  1.0
  F  F129  1  0.24635000  0.14878000  0.54152000  1.0
