# generated using pymatgen
data_CuSiH12C16(N2F3)2
_symmetry_space_group_name_H-M   'P 1'
_cell_length_a   8.19271000
_cell_length_b   8.99947000
_cell_length_c   8.99942000
_cell_angle_alpha   88.53760000
_cell_angle_beta   79.81110000
_cell_angle_gamma   79.81110000
_symmetry_Int_Tables_number   1
_chemical_formula_structural   CuSiH12C16(N2F3)2
_chemical_formula_sum   'Cu1 Si1 H12 C16 N4 F6'
_cell_volume   642.75347943
_cell_formula_units_Z   1
loop_
 _symmetry_equiv_pos_site_id
 _symmetry_equiv_pos_as_xyz
  1  'x, y, z'
loop_
 _atom_site_type_symbol
 _atom_site_label
 _atom_site_symmetry_multiplicity
 _atom_site_fract_x
 _atom_site_fract_y
 _atom_site_fract_z
 _atom_site_occupancy
  Cu  Cu0  1  0.50000000  0.50000000  0.50000000  1.0
  Si  Si1  1  0.00001000  0.49999000  0.50001000  1.0
  H  H2  1  0.28227000  0.49964000  0.27476000  1.0
  H  H3  1  0.79467000  0.50038000  0.24882000  1.0
  H  H4  1  0.84462000  0.49985000  0.96434000  1.0
  H  H5  1  0.71773000  0.50036000  0.72523000  1.0
  H  H6  1  0.20533000  0.49962000  0.75118000  1.0
  H  H7  1  0.15539000  0.50015000  0.03567000  1.0
  H  H8  1  0.28229000  0.27476000  0.49958000  1.0
  H  H9  1  0.79468000  0.24882000  0.50035000  1.0
  H  H10  1  0.84461000  0.96433000  0.49986000  1.0
  H  H11  1  0.71772000  0.72523000  0.50040000  1.0
  H  H12  1  0.20533000  0.75118000  0.49963000  1.0
  H  H13  1  0.15539000  0.03566000  0.50012000  1.0
  C  C14  1  0.40422000  0.50001000  0.20325000  1.0
  C  C15  1  0.69318000  0.50016000  0.18538000  1.0
  C  C16  1  0.71933000  0.50002000  0.03010000  1.0
  C  C17  1  0.58098000  0.49994000  0.95575000  1.0
  C  C18  1  0.59578000  0.49999000  0.79675000  1.0
  C  C19  1  0.30683000  0.49984000  0.81462000  1.0
  C  C20  1  0.28067000  0.49999000  0.96990000  1.0
  C  C21  1  0.41902000  0.50006000  0.04425000  1.0
  C  C22  1  0.40421000  0.20327000  0.49996000  1.0
  C  C23  1  0.69318000  0.18539000  0.50013000  1.0
  C  C24  1  0.71934000  0.03007000  0.50001000  1.0
  C  C25  1  0.58097000  0.95576000  0.49994000  1.0
  C  C26  1  0.59578000  0.79674000  0.50002000  1.0
  C  C27  1  0.30682000  0.81461000  0.49985000  1.0
  C  C28  1  0.28068000  0.96992000  0.49997000  1.0
  C  C29  1  0.41903000  0.04423000  0.50004000  1.0
  N  N30  1  0.53637000  0.49995000  0.26987000  1.0
  N  N31  1  0.46364000  0.50005000  0.73012000  1.0
  N  N32  1  0.53638000  0.26987000  0.49991000  1.0
  N  N33  1  0.46363000  0.73012000  0.50007000  1.0
  F  F34  1  0.20651000  0.51368000  0.51371000  1.0
  F  F35  1  0.79350000  0.48632000  0.48630000  1.0
  F  F36  1  0.00003000  0.63608000  0.36391000  1.0
  F  F37  1  0.99998000  0.36390000  0.63609000  1.0
  F  F38  1  0.07297000  0.36367000  0.36368000  1.0
  F  F39  1  0.92705000  0.63632000  0.63632000  1.0
