# generated using pymatgen
data_ZnH7C7NO6
_symmetry_space_group_name_H-M   'P 1'
_cell_length_a   7.27221000
_cell_length_b   9.26746000
_cell_length_c   12.82270000
_cell_angle_alpha   89.99960000
_cell_angle_beta   90.00000000
_cell_angle_gamma   89.99960000
_symmetry_Int_Tables_number   1
_chemical_formula_structural   ZnH7C7NO6
_chemical_formula_sum   'Zn4 H28 C28 N4 O24'
_cell_volume   864.18478020
_cell_formula_units_Z   4
loop_
 _symmetry_equiv_pos_site_id
 _symmetry_equiv_pos_as_xyz
  1  'x, y, z'
loop_
 _atom_site_type_symbol
 _atom_site_label
 _atom_site_symmetry_multiplicity
 _atom_site_fract_x
 _atom_site_fract_y
 _atom_site_fract_z
 _atom_site_occupancy
  Zn  Zn0  1  0.10666000  0.36403000  0.26467000  1.0
  Zn  Zn1  1  0.39334000  0.63597000  0.76467000  1.0
  Zn  Zn2  1  0.60666000  0.13597000  0.73533000  1.0
  Zn  Zn3  1  0.89334000  0.86403000  0.23533000  1.0
  H  H4  1  0.59207000  0.60119000  0.48408000  1.0
  H  H5  1  0.90793000  0.39881000  0.98408000  1.0
  H  H6  1  0.09207000  0.89881000  0.51592000  1.0
  H  H7  1  0.40793000  0.10120000  0.01592000  1.0
  H  H8  1  0.84155000  0.41245000  0.46435000  1.0
  H  H9  1  0.65846000  0.58755000  0.96435000  1.0
  H  H10  1  0.34155000  0.08755000  0.53566000  1.0
  H  H11  1  0.15846000  0.91246000  0.03565000  1.0
  H  H12  1  0.45318000  0.15772000  0.28897000  1.0
  H  H13  1  0.04683000  0.84228000  0.78898000  1.0
  H  H14  1  0.95317000  0.34228000  0.71103000  1.0
  H  H15  1  0.54682000  0.65773000  0.21102000  1.0
  H  H16  1  0.07692000  0.15201000  0.13726000  1.0
  H  H17  1  0.42308000  0.84799000  0.63725000  1.0
  H  H18  1  0.57693000  0.34799000  0.86274000  1.0
  H  H19  1  0.92307000  0.65201000  0.36274000  1.0
  H  H20  1  0.19840000  0.26973000  0.07911000  1.0
  H  H21  1  0.30159000  0.73027000  0.57911000  1.0
  H  H22  1  0.69841000  0.23027000  0.92089000  1.0
  H  H23  1  0.80160000  0.76973000  0.42090000  1.0
  H  H24  1  0.89686000  0.53037000  0.16581000  1.0
  H  H25  1  0.60313000  0.46963000  0.66581000  1.0
  H  H26  1  0.39687000  0.96963000  0.83419000  1.0
  H  H27  1  0.10313000  0.03037000  0.33419000  1.0
  H  H28  1  0.81350000  0.37091000  0.14129000  1.0
  H  H29  1  0.68650000  0.62909000  0.64130000  1.0
  H  H30  1  0.31351000  0.12909000  0.85871000  1.0
  H  H31  1  0.18649000  0.87091000  0.35871000  1.0
  C  C32  1  0.39684000  0.47572000  0.39867000  1.0
  C  C33  1  0.10315000  0.52428000  0.89868000  1.0
  C  C34  1  0.89685000  0.02429000  0.60133000  1.0
  C  C35  1  0.60315000  0.97571000  0.10133000  1.0
  C  C36  1  0.24238000  0.58415000  0.40488000  1.0
  C  C37  1  0.25762000  0.41583000  0.90489000  1.0
  C  C38  1  0.74238000  0.91583000  0.59511000  1.0
  C  C39  1  0.75761000  0.08417000  0.09512000  1.0
  C  C40  1  0.56787000  0.49999000  0.44360000  1.0
  C  C41  1  0.93213000  0.50001000  0.94361000  1.0
  C  C42  1  0.06787000  0.00001000  0.55639000  1.0
  C  C43  1  0.43212000  0.00000000  0.05639000  1.0
  C  C44  1  0.70460000  0.39584000  0.43211000  1.0
  C  C45  1  0.79541000  0.60415000  0.93211000  1.0
  C  C46  1  0.20460000  0.10416000  0.56790000  1.0
  C  C47  1  0.29541000  0.89585000  0.06789000  1.0
  C  C48  1  0.80787000  0.15636000  0.35471000  1.0
  C  C49  1  0.69214000  0.84364000  0.85472000  1.0
  C  C50  1  0.30786000  0.34365000  0.64528000  1.0
  C  C51  1  0.19214000  0.65636000  0.14528000  1.0
  C  C52  1  0.66607000  0.27047000  0.37604000  1.0
  C  C53  1  0.83394000  0.72952000  0.87605000  1.0
  C  C54  1  0.16607000  0.22952000  0.62396000  1.0
  C  C55  1  0.33393000  0.77048000  0.12395000  1.0
  C  C56  1  0.48931000  0.25333000  0.33410000  1.0
  C  C57  1  0.01069000  0.74667000  0.83411000  1.0
  C  C58  1  0.98930000  0.24668000  0.66589000  1.0
  C  C59  1  0.51069000  0.75333000  0.16589000  1.0
  N  N60  1  0.35926000  0.35395000  0.34486000  1.0
  N  N61  1  0.14075000  0.64606000  0.84486000  1.0
  N  N62  1  0.85924000  0.14606000  0.65514000  1.0
  N  N63  1  0.64075000  0.85394000  0.15514000  1.0
  O  O64  1  0.17775000  0.22523000  0.14815000  1.0
  O  O65  1  0.32225000  0.77476000  0.64815000  1.0
  O  O66  1  0.67775000  0.27476000  0.85185000  1.0
  O  O67  1  0.82224000  0.72523000  0.35185000  1.0
  O  O68  1  0.85596000  0.43677000  0.19682000  1.0
  O  O69  1  0.64404000  0.56323000  0.69682000  1.0
  O  O70  1  0.35596000  0.06323000  0.80317000  1.0
  O  O71  1  0.14404000  0.93676000  0.30318000  1.0
  O  O72  1  0.08656000  0.54014000  0.36998000  1.0
  O  O73  1  0.41345000  0.45985000  0.86999000  1.0
  O  O74  1  0.58655000  0.95985000  0.63002000  1.0
  O  O75  1  0.91344000  0.04016000  0.13002000  1.0
  O  O76  1  0.97849000  0.19396000  0.34983000  1.0
  O  O77  1  0.52152000  0.80605000  0.84983000  1.0
  O  O78  1  0.47849000  0.30604000  0.65017000  1.0
  O  O79  1  0.02151000  0.69396000  0.15017000  1.0
  O  O80  1  0.75032000  0.02930000  0.34191000  1.0
  O  O81  1  0.74968000  0.97069000  0.84191000  1.0
  O  O82  1  0.25032000  0.47070000  0.65809000  1.0
  O  O83  1  0.24967000  0.52932000  0.15808000  1.0
  O  O84  1  0.27272000  0.70864000  0.44045000  1.0
  O  O85  1  0.22729000  0.29136000  0.94045000  1.0
  O  O86  1  0.77272000  0.79136000  0.55955000  1.0
  O  O87  1  0.72729000  0.20864000  0.05955000  1.0
