# generated using pymatgen
data_CuH15C19(NO2)2
_symmetry_space_group_name_H-M   'P 1'
_cell_length_a   8.43003000
_cell_length_b   9.20802000
_cell_length_c   11.51210000
_cell_angle_alpha   69.88700000
_cell_angle_beta   86.54060000
_cell_angle_gamma   87.77400000
_symmetry_Int_Tables_number   1
_chemical_formula_structural   CuH15C19(NO2)2
_chemical_formula_sum   'Cu2 H30 C38 N4 O8'
_cell_volume   837.43292703
_cell_formula_units_Z   2
loop_
 _symmetry_equiv_pos_site_id
 _symmetry_equiv_pos_as_xyz
  1  'x, y, z'
loop_
 _atom_site_type_symbol
 _atom_site_label
 _atom_site_symmetry_multiplicity
 _atom_site_fract_x
 _atom_site_fract_y
 _atom_site_fract_z
 _atom_site_occupancy
  Cu  Cu0  1  0.87745000  0.65172000  0.21405000  1.0
  Cu  Cu1  1  0.12257000  0.34828000  0.78596000  1.0
  H  H2  1  0.19822000  0.10290000  0.24528000  1.0
  H  H3  1  0.80179000  0.89710000  0.75474000  1.0
  H  H4  1  0.34025000  0.04610000  0.61366000  1.0
  H  H5  1  0.65976000  0.95391000  0.38635000  1.0
  H  H6  1  0.04553000  0.70716000  0.55373000  1.0
  H  H7  1  0.95451000  0.29283000  0.44628000  1.0
  H  H8  1  0.49534000  0.24716000  0.50953000  1.0
  H  H9  1  0.50464000  0.75285000  0.49048000  1.0
  H  H10  1  0.29084000  0.31043000  0.51486000  1.0
  H  H11  1  0.70913000  0.68960000  0.48514000  1.0
  H  H12  1  0.20441000  0.56929000  0.35373000  1.0
  H  H13  1  0.79558000  0.43073000  0.64624000  1.0
  H  H14  1  0.29765000  0.82030000  0.19855000  1.0
  H  H15  1  0.70237000  0.17971000  0.80142000  1.0
  H  H16  1  0.58715000  0.85189000  0.13633000  1.0
  H  H17  1  0.41288000  0.14810000  0.86367000  1.0
  H  H18  1  0.69124000  0.40535000  0.36743000  1.0
  H  H19  1  0.30874000  0.59465000  0.63258000  1.0
  H  H20  1  0.21816000  0.93592000  0.80664000  1.0
  H  H21  1  0.78184000  0.06407000  0.19338000  1.0
  H  H22  1  0.39209000  0.82493000  0.78347000  1.0
  H  H23  1  0.60790000  0.17508000  0.21652000  1.0
  H  H24  1  0.40289000  0.53488000  0.90693000  1.0
  H  H25  1  0.59709000  0.46511000  0.09304000  1.0
  H  H26  1  0.31078000  0.32674000  0.10472000  1.0
  H  H27  1  0.68921000  0.67325000  0.89526000  1.0
  H  H28  1  0.07774000  0.38094000  0.22681000  1.0
  H  H29  1  0.92225000  0.61905000  0.77317000  1.0
  H  H30  1  0.03520000  0.83355000  0.98202000  1.0
  H  H31  1  0.96484000  0.16646000  0.01799000  1.0
  C  C32  1  0.02493000  0.84328000  0.30577000  1.0
  C  C33  1  0.97508000  0.15670000  0.69424000  1.0
  C  C34  1  0.11589000  0.89839000  0.39105000  1.0
  C  C35  1  0.88412000  0.10161000  0.60898000  1.0
  C  C36  1  0.20041000  0.03573000  0.34360000  1.0
  C  C37  1  0.79958000  0.96428000  0.65640000  1.0
  C  C38  1  0.27981000  0.08833000  0.42410000  1.0
  C  C39  1  0.72018000  0.91168000  0.57590000  1.0
  C  C40  1  0.27870000  0.00434000  0.55146000  1.0
  C  C41  1  0.72128000  0.99566000  0.44855000  1.0
  C  C42  1  0.19324000  0.86722000  0.59682000  1.0
  C  C43  1  0.80675000  0.13278000  0.40318000  1.0
  C  C44  1  0.11280000  0.81327000  0.51745000  1.0
  C  C45  1  0.88720000  0.18671000  0.48256000  1.0
  C  C46  1  0.39544000  0.30746000  0.45342000  1.0
  C  C47  1  0.60453000  0.69255000  0.54658000  1.0
  C  C48  1  0.44204000  0.46656000  0.37062000  1.0
  C  C49  1  0.55795000  0.53345000  0.62937000  1.0
  C  C50  1  0.32981000  0.58532000  0.32406000  1.0
  C  C51  1  0.67019000  0.41470000  0.67592000  1.0
  C  C52  1  0.38171000  0.72585000  0.23847000  1.0
  C  C53  1  0.61830000  0.27414000  0.76153000  1.0
  C  C54  1  0.54241000  0.74410000  0.20326000  1.0
  C  C55  1  0.45761000  0.25590000  0.79673000  1.0
  C  C56  1  0.60089000  0.49493000  0.33195000  1.0
  C  C57  1  0.39911000  0.50506000  0.66806000  1.0
  C  C58  1  0.26328000  0.82167000  0.80771000  1.0
  C  C59  1  0.73672000  0.17835000  0.19229000  1.0
  C  C60  1  0.22457000  0.69928000  0.93023000  1.0
  C  C61  1  0.77545000  0.30072000  0.06976000  1.0
  C  C62  1  0.30404000  0.55565000  0.96503000  1.0
  C  C63  1  0.69596000  0.44435000  0.03495000  1.0
  C  C64  1  0.25283000  0.44034000  0.07370000  1.0
  C  C65  1  0.74717000  0.55967000  0.92629000  1.0
  C  C66  1  0.12352000  0.47028000  0.14336000  1.0
  C  C67  1  0.87648000  0.52971000  0.85663000  1.0
  C  C68  1  0.09832000  0.72225000  0.00616000  1.0
  C  C69  1  0.90170000  0.27776000  0.99384000  1.0
  N  N70  1  0.65258000  0.63080000  0.24945000  1.0
  N  N71  1  0.34743000  0.36919000  0.75055000  1.0
  N  N72  1  0.04693000  0.60964000  0.11141000  1.0
  N  N73  1  0.95308000  0.39035000  0.88860000  1.0
  O  O74  1  0.02028000  0.92483000  0.19259000  1.0
  O  O75  1  0.97972000  0.07515000  0.80742000  1.0
  O  O76  1  0.95816000  0.71095000  0.35553000  1.0
  O  O77  1  0.04185000  0.28902000  0.64450000  1.0
  O  O78  1  0.35566000  0.22680000  0.37121000  1.0
  O  O79  1  0.64433000  0.77320000  0.62879000  1.0
  O  O80  1  0.18122000  0.77630000  0.71919000  1.0
  O  O81  1  0.81876000  0.22371000  0.28081000  1.0
