# generated using pymatgen
data_ZnH6C9O4
_symmetry_space_group_name_H-M   'P 1'
_cell_length_a   4.59958000
_cell_length_b   11.90610000
_cell_length_c   15.39330000
_cell_angle_alpha   89.99980000
_cell_angle_beta   94.52220000
_cell_angle_gamma   89.99990000
_symmetry_Int_Tables_number   1
_chemical_formula_structural   ZnH6C9O4
_chemical_formula_sum   'Zn4 H24 C36 O16'
_cell_volume   840.35987407
_cell_formula_units_Z   4
loop_
 _symmetry_equiv_pos_site_id
 _symmetry_equiv_pos_as_xyz
  1  'x, y, z'
loop_
 _atom_site_type_symbol
 _atom_site_label
 _atom_site_symmetry_multiplicity
 _atom_site_fract_x
 _atom_site_fract_y
 _atom_site_fract_z
 _atom_site_occupancy
  Zn  Zn0  1  0.31303000  0.12825000  0.49393000  1.0
  Zn  Zn1  1  0.68698000  0.62825000  0.00607000  1.0
  Zn  Zn2  1  0.68698000  0.87175000  0.50607000  1.0
  Zn  Zn3  1  0.31302000  0.37175000  0.99393000  1.0
  H  H4  1  0.18851000  0.40995000  0.46156000  1.0
  H  H5  1  0.81149000  0.90996000  0.03844000  1.0
  H  H6  1  0.81151000  0.59004000  0.53844000  1.0
  H  H7  1  0.18850000  0.09004000  0.96156000  1.0
  H  H8  1  0.12198000  0.57165000  0.21049000  1.0
  H  H9  1  0.87802000  0.07166000  0.28951000  1.0
  H  H10  1  0.87802000  0.42835000  0.78951000  1.0
  H  H11  1  0.12197000  0.92835000  0.71049000  1.0
  H  H12  1  0.58267000  0.28630000  0.25713000  1.0
  H  H13  1  0.41734000  0.78630000  0.24287000  1.0
  H  H14  1  0.41734000  0.71370000  0.74287000  1.0
  H  H15  1  0.58266000  0.21370000  0.75713000  1.0
  H  H16  1  0.28829000  0.67427000  0.37595000  1.0
  H  H17  1  0.71170000  0.17427000  0.12405000  1.0
  H  H18  1  0.71170000  0.32572000  0.62405000  1.0
  H  H19  1  0.28830000  0.82572000  0.87595000  1.0
  H  H20  1  0.57803000  0.59819000  0.33407000  1.0
  H  H21  1  0.42197000  0.09819000  0.16593000  1.0
  H  H22  1  0.42198000  0.40181000  0.66593000  1.0
  H  H23  1  0.57803000  0.90181000  0.83407000  1.0
  H  H24  1  0.47896000  0.57206000  0.44150000  1.0
  H  H25  1  0.52104000  0.07206000  0.05850000  1.0
  H  H26  1  0.52105000  0.42794000  0.55850000  1.0
  H  H27  1  0.47896000  0.92794000  0.94150000  1.0
  C  C28  1  0.79096000  0.24992000  0.42595000  1.0
  C  C29  1  0.20904000  0.74992000  0.07405000  1.0
  C  C30  1  0.20904000  0.75009000  0.57405000  1.0
  C  C31  1  0.79096000  0.25009000  0.92595000  1.0
  C  C32  1  0.09506000  0.41644000  0.39451000  1.0
  C  C33  1  0.90494000  0.91644000  0.10549000  1.0
  C  C34  1  0.90494000  0.58356000  0.60549000  1.0
  C  C35  1  0.09506000  0.08356000  0.89451000  1.0
  C  C36  1  0.05653000  0.50678000  0.25494000  1.0
  C  C37  1  0.94347000  0.00678000  0.24506000  1.0
  C  C38  1  0.94347000  0.49322000  0.74506000  1.0
  C  C39  1  0.05652000  0.99322000  0.75494000  1.0
  C  C40  1  0.75333000  0.34495000  0.27992000  1.0
  C  C41  1  0.24668000  0.84495000  0.22008000  1.0
  C  C42  1  0.24667000  0.65505000  0.72008000  1.0
  C  C43  1  0.75332000  0.15505000  0.77992000  1.0
  C  C44  1  0.18009000  0.50325000  0.34094000  1.0
  C  C45  1  0.81990000  0.00325000  0.15906000  1.0
  C  C46  1  0.81992000  0.49675000  0.65906000  1.0
  C  C47  1  0.18008000  0.99675000  0.84094000  1.0
  C  C48  1  0.88415000  0.33758000  0.36481000  1.0
  C  C49  1  0.11585000  0.83759000  0.13519000  1.0
  C  C50  1  0.11585000  0.66242000  0.63519000  1.0
  C  C51  1  0.88415000  0.16241000  0.86481000  1.0
  C  C52  1  0.39300000  0.59141000  0.37474000  1.0
  C  C53  1  0.60700000  0.09141000  0.12526000  1.0
  C  C54  1  0.60700000  0.40859000  0.62526000  1.0
  C  C55  1  0.39300000  0.90859000  0.87474000  1.0
  C  C56  1  0.70873000  0.43935000  0.13367000  1.0
  C  C57  1  0.29128000  0.93935000  0.36634000  1.0
  C  C58  1  0.29127000  0.56065000  0.86634000  1.0
  C  C59  1  0.70872000  0.06065000  0.63367000  1.0
  C  C60  1  0.84399000  0.42884000  0.22442000  1.0
  C  C61  1  0.15602000  0.92884000  0.27558000  1.0
  C  C62  1  0.15602000  0.57117000  0.77558000  1.0
  C  C63  1  0.84398000  0.07117000  0.72442000  1.0
  O  O64  1  0.95687000  0.22323000  0.49334000  1.0
  O  O65  1  0.04313000  0.72324000  0.00666000  1.0
  O  O66  1  0.04313000  0.77677000  0.50666000  1.0
  O  O67  1  0.95687000  0.27676000  0.99334000  1.0
  O  O68  1  0.53682000  0.20851000  0.40861000  1.0
  O  O69  1  0.46318000  0.70851000  0.09139000  1.0
  O  O70  1  0.46319000  0.79149000  0.59139000  1.0
  O  O71  1  0.53681000  0.29149000  0.90861000  1.0
  O  O72  1  0.47631000  0.38278000  0.11361000  1.0
  O  O73  1  0.52369000  0.88278000  0.38639000  1.0
  O  O74  1  0.52369000  0.61722000  0.88639000  1.0
  O  O75  1  0.47630000  0.11722000  0.61361000  1.0
  O  O76  1  0.83265000  0.50390000  0.08169000  1.0
  O  O77  1  0.16735000  0.00390000  0.41831000  1.0
  O  O78  1  0.16735000  0.49610000  0.91831000  1.0
  O  O79  1  0.83264000  0.99610000  0.58169000  1.0
