# generated using pymatgen
data_Zn8H48C73O31
_symmetry_space_group_name_H-M   'P 1'
_cell_length_a   18.36613566
_cell_length_b   18.38950000
_cell_length_c   18.46020000
_cell_angle_alpha   119.83600000
_cell_angle_beta   90.01403737
_cell_angle_gamma   119.76236404
_symmetry_Int_Tables_number   1
_chemical_formula_structural   Zn8H48C73O31
_chemical_formula_sum   'Zn8 H48 C73 O31'
_cell_volume   4434.78212065
_cell_formula_units_Z   1
loop_
 _symmetry_equiv_pos_site_id
 _symmetry_equiv_pos_as_xyz
  1  'x, y, z'
loop_
 _atom_site_type_symbol
 _atom_site_label
 _atom_site_symmetry_multiplicity
 _atom_site_fract_x
 _atom_site_fract_y
 _atom_site_fract_z
 _atom_site_occupancy
  Zn  Zn0  1  0.45691000  0.41028000  0.54036000  1.0
  Zn  Zn1  1  0.45486000  0.58687000  0.54370000  1.0
  Zn  Zn2  1  0.45880000  0.41756000  0.37193000  1.0
  Zn  Zn3  1  0.63083000  0.58933000  0.54524000  1.0
  Zn  Zn4  1  0.04246000  0.58293000  0.95218000  1.0
  Zn  Zn5  1  0.04451000  0.59097000  0.12791000  1.0
  Zn  Zn6  1  0.04001000  0.40920000  0.95529000  1.0
  Zn  Zn7  1  0.86860000  0.41413000  0.95571000  1.0
  H  H8  1  0.37307000  0.44133000  0.84214000  1.0
  H  H9  1  0.48470000  0.59676000  0.84937000  1.0
  H  H10  1  0.68306000  0.39091000  0.08985000  1.0
  H  H11  1  0.97264000  0.61703000  0.36801000  1.0
  H  H12  1  0.97256000  0.71598000  0.37273000  1.0
  H  H13  1  0.87636000  0.61390000  0.46607000  1.0
  H  H14  1  0.87825000  0.71461000  0.47207000  1.0
  H  H15  1  0.58999000  0.90884000  0.66018000  1.0
  H  H16  1  0.68705000  0.09904000  0.75994000  1.0
  H  H17  1  0.96661000  0.08383000  0.80457000  1.0
  H  H18  1  0.93725000  0.09357000  0.89996000  1.0
  H  H19  1  0.12675000  0.56627000  0.65105000  1.0
  H  H20  1  0.62077000  0.61707000  0.81318000  1.0
  H  H21  1  0.82893000  0.90156000  0.80932000  1.0
  H  H22  1  0.30933000  0.39881000  0.18535000  1.0
  H  H23  1  0.21719000  0.40162000  0.08908000  1.0
  H  H24  1  0.32555000  0.70348000  0.47369000  1.0
  H  H25  1  0.22792000  0.59709000  0.46223000  1.0
  H  H26  1  0.25668000  0.34520000  0.65706000  1.0
  H  H27  1  0.15837000  0.34073000  0.74993000  1.0
  H  H28  1  0.21831000  0.68973000  0.82061000  1.0
  H  H29  1  0.53492000  0.32661000  0.76241000  1.0
  H  H30  1  0.01809000  0.41063000  0.64495000  1.0
  H  H31  1  0.30766000  0.73913000  0.90770000  1.0
  H  H32  1  0.31551000  0.69252000  0.72349000  1.0
  H  H33  1  0.40481000  0.74334000  0.81143000  1.0
  H  H34  1  0.39923000  0.30668000  0.79950000  1.0
  H  H35  1  0.70433000  0.46220000  0.85815000  1.0
  H  H36  1  0.79716000  0.54229000  0.64173000  1.0
  H  H37  1  0.96475000  0.67955000  0.73810000  1.0
  H  H38  1  0.09960000  0.70102000  0.69789000  1.0
  H  H39  1  0.03987000  0.81608000  0.04974000  1.0
  H  H40  1  0.06319000  0.83685000  0.96533000  1.0
  H  H41  1  0.88320000  0.38918000  0.68469000  1.0
  H  H42  1  0.07387000  0.93663000  0.06971000  1.0
  H  H43  1  0.43110000  0.07876000  0.41515000  1.0
  H  H44  1  0.88914000  0.80977000  0.75593000  1.0
  H  H45  1  0.98879000  0.92724000  0.78430000  1.0
  H  H46  1  0.94062000  0.81359000  0.67417000  1.0
  H  H47  1  0.27889000  0.81251000  0.51736000  1.0
  H  H48  1  0.18051000  0.78818000  0.46303000  1.0
  H  H49  1  0.28758000  0.87720000  0.46716000  1.0
  H  H50  1  0.09095000  0.53627000  0.36736000  1.0
  H  H51  1  0.27734000  0.10296000  0.18276000  1.0
  H  H52  1  0.19092000  0.88723000  0.35804000  1.0
  H  H53  1  0.28643000  0.89181000  0.33424000  1.0
  H  H54  1  0.28461000  0.07969000  0.46050000  1.0
  H  H55  1  0.58943000  0.39114000  0.18713000  1.0
  C  C56  1  0.63115000  0.77574000  0.63352000  1.0
  C  C57  1  0.66872000  0.48535000  0.76406000  1.0
  C  C58  1  0.97621000  0.62023000  0.71712000  1.0
  C  C59  1  0.36631000  0.22477000  0.35856000  1.0
  C  C60  1  0.05215000  0.63233000  0.69464000  1.0
  C  C61  1  0.06751000  0.55709000  0.66862000  1.0
  C  C62  1  0.00656000  0.46975000  0.66535000  1.0
  C  C63  1  0.93099000  0.45796000  0.68816000  1.0
  C  C64  1  0.91495000  0.53327000  0.71479000  1.0
  C  C65  1  0.29397000  0.04999000  0.33026000  1.0
  C  C66  1  0.30994000  0.11092000  0.30001000  1.0
  C  C67  1  0.52443000  0.38647000  0.78257000  1.0
  C  C68  1  0.26676000  0.05912000  0.20995000  1.0
  C  C69  1  0.20909000  0.95235000  0.15292000  1.0
  C  C70  1  0.19198000  0.89028000  0.18418000  1.0
  C  C71  1  0.36266000  0.49762000  0.63739000  1.0
  C  C72  1  0.23733000  0.94374000  0.27360000  1.0
  C  C73  1  0.25073000  0.92771000  0.34407000  1.0
  C  C74  1  0.31247000  0.04878000  0.41035000  1.0
  C  C75  1  0.79189000  0.56400000  0.34318000  1.0
  C  C76  1  0.69944000  0.50289000  0.30893000  1.0
  C  C77  1  0.66153000  0.43997000  0.21586000  1.0
  C  C78  1  0.44784000  0.37508000  0.80291000  1.0
  C  C79  1  0.71393000  0.43990000  0.16143000  1.0
  C  C80  1  0.80757000  0.50308000  0.19666000  1.0
  C  C81  1  0.84456000  0.56431000  0.28854000  1.0
  C  C82  1  0.93081000  0.64302000  0.36553000  1.0
  C  C83  1  0.64205000  0.50336000  0.36562000  1.0
  C  C84  1  0.87119000  0.64218000  0.42738000  1.0
  C  C85  1  0.77779000  0.94337000  0.73992000  1.0
  C  C86  1  0.68969000  0.88941000  0.69013000  1.0
  C  C87  1  0.65842000  0.94850000  0.69847000  1.0
  C  C88  1  0.71275000  0.05503000  0.75459000  1.0
  C  C89  1  0.43308000  0.45036000  0.82676000  1.0
  C  C90  1  0.80150000  0.10885000  0.80552000  1.0
  C  C91  1  0.83240000  0.04987000  0.79572000  1.0
  C  C92  1  0.91129000  0.05454000  0.82832000  1.0
  C  C93  1  0.84726000  0.93270000  0.76906000  1.0
  C  C94  1  0.26723000  0.55869000  0.34126000  1.0
  C  C95  1  0.35763000  0.49876000  0.36333000  1.0
  C  C96  1  0.30216000  0.50099000  0.30676000  1.0
  C  C97  1  0.28295000  0.44459000  0.21429000  1.0
  C  C98  1  0.23160000  0.44638000  0.16042000  1.0
  C  C99  1  0.19699000  0.50537000  0.19574000  1.0
  C  C100  1  0.72339000  0.47835000  0.80930000  1.0
  C  C101  1  0.21686000  0.56150000  0.28742000  1.0
  C  C102  1  0.20333000  0.63423000  0.36635000  1.0
  C  C103  1  0.26193000  0.63017000  0.42674000  1.0
  C  C104  1  0.29916000  0.57855000  0.74640000  1.0
  C  C105  1  0.30501000  0.49623000  0.69388000  1.0
  C  C106  1  0.25297000  0.41040000  0.69688000  1.0
  C  C107  1  0.64051000  0.50686000  0.64298000  1.0
  C  C108  1  0.19818000  0.40808000  0.74910000  1.0
  C  C109  1  0.19244000  0.49169000  0.80182000  1.0
  C  C110  1  0.24467000  0.57644000  0.79916000  1.0
  C  C111  1  0.80421000  0.49562000  0.79697000  1.0
  C  C112  1  0.27205000  0.68391000  0.83624000  1.0
  C  C113  1  0.33317000  0.68613000  0.77593000  1.0
  C  C114  1  0.86273000  0.50361000  0.13785000  1.0
  C  C115  1  0.13377000  0.48981000  0.85721000  1.0
  C  C116  1  0.13526000  0.77655000  0.12883000  1.0
  C  C117  1  0.85852000  0.22249000  0.86485000  1.0
  C  C118  1  0.14138000  0.50513000  0.13672000  1.0
  C  C119  1  0.49563000  0.53744000  0.83043000  1.0
  C  C120  1  0.86042000  0.49578000  0.85580000  1.0
  C  C121  1  0.57192000  0.54868000  0.80978000  1.0
  C  C122  1  0.83312000  0.51978000  0.73622000  1.0
  C  C123  1  0.58705000  0.47299000  0.78500000  1.0
  C  C124  1  0.08218000  0.87343000  0.03688000  1.0
  C  C125  1  0.92580000  0.85695000  0.73138000  1.0
  C  C126  1  0.24671000  0.80521000  0.46140000  1.0
  C  C127  1  0.77828000  0.52644000  0.69079000  1.0
  C  C128  1  0.69730000  0.50868000  0.70287000  1.0
  O  O129  1  0.50039000  0.50169000  0.50110000  1.0
  O  O130  1  0.94128000  0.26489000  0.89742000  1.0
  O  O131  1  0.11568000  0.56333000  0.17502000  1.0
  O  O132  1  0.66913000  0.73132000  0.62564000  1.0
  O  O133  1  0.81941000  0.43587000  0.87951000  1.0
  O  O134  1  0.12414000  0.44638000  0.05351000  1.0
  O  O135  1  0.94424000  0.55798000  0.87949000  1.0
  O  O136  1  0.10927000  0.72931000  0.04516000  1.0
  O  O137  1  0.82042000  0.26797000  0.87797000  1.0
  O  O138  1  0.94650000  0.56906000  0.17617000  1.0
  O  O139  1  0.09849000  0.41705000  0.86734000  1.0
  O  O140  1  0.37208000  0.42434000  0.60080000  1.0
  O  O141  1  0.39323000  0.26579000  0.44118000  1.0
  O  O142  1  0.39788000  0.57285000  0.63036000  1.0
  O  O143  1  0.55829000  0.44049000  0.32616000  1.0
  O  O144  1  0.36856000  0.54872000  0.44599000  1.0
  O  O145  1  0.68156000  0.56926000  0.62164000  1.0
  O  O146  1  0.38972000  0.44751000  0.32460000  1.0
  O  O147  1  0.55708000  0.44127000  0.61610000  1.0
  O  O148  1  0.17411000  0.91274000  0.06604000  1.0
  O  O149  1  0.40093000  0.09557000  0.45773000  1.0
  O  O150  1  0.87303000  0.87926000  0.70164000  1.0
  O  O151  1  0.68158000  0.56717000  0.44921000  1.0
  O  O152  1  0.24123000  0.72812000  0.37862000  1.0
  O  O153  1  0.11489000  0.59714000  0.36785000  1.0
  O  O154  1  0.54856000  0.73238000  0.59900000  1.0
  O  O155  1  0.38171000  0.27108000  0.32108000  1.0
  O  O156  1  0.99863000  0.49845000  0.99794000  1.0
  O  O157  1  0.82202000  0.43920000  0.05451000  1.0
  O  O158  1  0.12398000  0.56284000  0.89033000  1.0
  O  O159  1  0.11839000  0.73543000  0.17123000  1.0
