# generated using pymatgen
data_CuH7C7INO2
_symmetry_space_group_name_H-M   'P 1'
_cell_length_a   4.02531000
_cell_length_b   13.58300000
_cell_length_c   15.79790000
_cell_angle_alpha   89.99910000
_cell_angle_beta   89.93210000
_cell_angle_gamma   89.99940000
_symmetry_Int_Tables_number   1
_chemical_formula_structural   CuH7C7INO2
_chemical_formula_sum   'Cu4 H28 C28 I4 N4 O8'
_cell_volume   863.76198869
_cell_formula_units_Z   4
loop_
 _symmetry_equiv_pos_site_id
 _symmetry_equiv_pos_as_xyz
  1  'x, y, z'
loop_
 _atom_site_type_symbol
 _atom_site_label
 _atom_site_symmetry_multiplicity
 _atom_site_fract_x
 _atom_site_fract_y
 _atom_site_fract_z
 _atom_site_occupancy
  Cu  Cu0  1  0.83337000  0.02869000  0.06676000  1.0
  Cu  Cu1  1  0.83335000  0.47131000  0.56676000  1.0
  Cu  Cu2  1  0.16661000  0.97131000  0.93325000  1.0
  Cu  Cu3  1  0.16663000  0.52868000  0.43325000  1.0
  H  H4  1  0.03904000  0.22234000  0.01402000  1.0
  H  H5  1  0.03903000  0.27765000  0.51402000  1.0
  H  H6  1  0.96089000  0.77766000  0.98598000  1.0
  H  H7  1  0.96097000  0.72233000  0.48598000  1.0
  H  H8  1  0.44919000  0.36771000  0.23311000  1.0
  H  H9  1  0.44916000  0.13228000  0.73311000  1.0
  H  H10  1  0.55084000  0.63229000  0.76689000  1.0
  H  H11  1  0.55080000  0.86771000  0.26690000  1.0
  H  H12  1  0.21650000  0.23153000  0.32126000  1.0
  H  H13  1  0.21645000  0.26847000  0.82127000  1.0
  H  H14  1  0.78350000  0.76848000  0.67873000  1.0
  H  H15  1  0.78351000  0.73153000  0.17874000  1.0
  H  H16  1  0.34475000  0.45242000  0.95425000  1.0
  H  H17  1  0.34478000  0.04758000  0.45426000  1.0
  H  H18  1  0.65516000  0.54758000  0.04573000  1.0
  H  H19  1  0.65518000  0.95241000  0.54575000  1.0
  H  H20  1  0.67490000  0.03380000  0.23083000  1.0
  H  H21  1  0.67488000  0.46620000  0.73082000  1.0
  H  H22  1  0.32512000  0.96621000  0.76918000  1.0
  H  H23  1  0.32517000  0.53381000  0.26918000  1.0
  H  H24  1  0.06553000  0.01756000  0.28063000  1.0
  H  H25  1  0.06551000  0.48244000  0.78062000  1.0
  H  H26  1  0.93449000  0.98245000  0.71937000  1.0
  H  H27  1  0.93456000  0.51755000  0.21937000  1.0
  H  H28  1  0.77379000  0.09955000  0.32612000  1.0
  H  H29  1  0.77378000  0.40045000  0.82611000  1.0
  H  H30  1  0.22621000  0.90046000  0.67389000  1.0
  H  H31  1  0.22625000  0.59956000  0.17389000  1.0
  C  C32  1  0.08412000  0.22684000  0.08192000  1.0
  C  C33  1  0.08411000  0.27315000  0.58192000  1.0
  C  C34  1  0.91587000  0.77316000  0.91808000  1.0
  C  C35  1  0.91590000  0.72684000  0.41809000  1.0
  C  C36  1  0.25456000  0.30650000  0.11670000  1.0
  C  C37  1  0.25454000  0.19349000  0.61672000  1.0
  C  C38  1  0.74550000  0.69349000  0.88329000  1.0
  C  C39  1  0.74551000  0.80650000  0.38330000  1.0
  C  C40  1  0.31106000  0.30760000  0.20416000  1.0
  C  C41  1  0.31101000  0.19240000  0.70418000  1.0
  C  C42  1  0.68897000  0.69240000  0.79582000  1.0
  C  C43  1  0.68895000  0.80760000  0.29583000  1.0
  C  C44  1  0.18429000  0.23147000  0.25276000  1.0
  C  C45  1  0.18424000  0.26852000  0.75277000  1.0
  C  C46  1  0.81573000  0.76853000  0.74723000  1.0
  C  C47  1  0.81574000  0.73148000  0.24724000  1.0
  C  C48  1  0.01117000  0.15404000  0.21417000  1.0
  C  C49  1  0.01115000  0.34596000  0.71417000  1.0
  C  C50  1  0.98882000  0.84597000  0.78582000  1.0
  C  C51  1  0.98885000  0.65404000  0.28582000  1.0
  C  C52  1  0.36962000  0.38944000  0.06380000  1.0
  C  C53  1  0.36961000  0.11056000  0.56382000  1.0
  C  C54  1  0.63038000  0.61055000  0.93618000  1.0
  C  C55  1  0.63039000  0.88946000  0.43618000  1.0
  C  C56  1  0.87165000  0.07204000  0.26577000  1.0
  C  C57  1  0.87164000  0.42796000  0.76576000  1.0
  C  C58  1  0.12835000  0.92797000  0.73424000  1.0
  C  C59  1  0.12839000  0.57205000  0.23424000  1.0
  I  I60  1  0.33509000  0.90723000  0.09067000  1.0
  I  I61  1  0.33512000  0.59276000  0.59067000  1.0
  I  I62  1  0.66486000  0.09276000  0.90933000  1.0
  I  I63  1  0.66489000  0.40724000  0.40932000  1.0
  N  N64  1  0.96819000  0.15136000  0.12875000  1.0
  N  N65  1  0.96818000  0.34863000  0.62875000  1.0
  N  N66  1  0.03180000  0.84863000  0.87126000  1.0
  N  N67  1  0.03182000  0.65137000  0.37126000  1.0
  O  O68  1  0.26326000  0.38924000  0.98467000  1.0
  O  O69  1  0.26329000  0.11076000  0.48469000  1.0
  O  O70  1  0.73673000  0.61076000  0.01532000  1.0
  O  O71  1  0.73671000  0.88924000  0.51532000  1.0
  O  O72  1  0.55183000  0.45518000  0.09399000  1.0
  O  O73  1  0.55185000  0.04481000  0.59402000  1.0
  O  O74  1  0.44816000  0.54483000  0.90600000  1.0
  O  O75  1  0.44819000  0.95518000  0.40599000  1.0
