# generated using pymatgen
data_CuH11C9IN
_symmetry_space_group_name_H-M   'P 1'
_cell_length_a   7.63885000
_cell_length_b   8.13127000
_cell_length_c   16.66890000
_cell_angle_alpha   90.00020000
_cell_angle_beta   90.00010000
_cell_angle_gamma   110.69400000
_symmetry_Int_Tables_number   1
_chemical_formula_structural   CuH11C9IN
_chemical_formula_sum   'Cu4 H44 C36 I4 N4'
_cell_volume   968.56393960
_cell_formula_units_Z   4
loop_
 _symmetry_equiv_pos_site_id
 _symmetry_equiv_pos_as_xyz
  1  'x, y, z'
loop_
 _atom_site_type_symbol
 _atom_site_label
 _atom_site_symmetry_multiplicity
 _atom_site_fract_x
 _atom_site_fract_y
 _atom_site_fract_z
 _atom_site_occupancy
  Cu  Cu0  1  0.86571000  0.02793000  0.02514000  1.0
  Cu  Cu1  1  0.63429000  0.47207000  0.52514000  1.0
  Cu  Cu2  1  0.13429000  0.97207000  0.97486000  1.0
  Cu  Cu3  1  0.36571000  0.52794000  0.47486000  1.0
  H  H4  1  0.70773000  0.30080000  0.97697000  1.0
  H  H5  1  0.79227000  0.19919000  0.47697000  1.0
  H  H6  1  0.29228000  0.69919000  0.02303000  1.0
  H  H7  1  0.20772000  0.80081000  0.52303000  1.0
  H  H8  1  0.47249000  0.22961000  0.01265000  1.0
  H  H9  1  0.02752000  0.27039000  0.51265000  1.0
  H  H10  1  0.52752000  0.77038000  0.98735000  1.0
  H  H11  1  0.97248000  0.72962000  0.48735000  1.0
  H  H12  1  0.48074000  0.13970000  0.87239000  1.0
  H  H13  1  0.01926000  0.36030000  0.37239000  1.0
  H  H14  1  0.51927000  0.86029000  0.12761000  1.0
  H  H15  1  0.98074000  0.63971000  0.62761000  1.0
  H  H16  1  0.63826000  0.02898000  0.89696000  1.0
  H  H17  1  0.86173000  0.47102000  0.39696000  1.0
  H  H18  1  0.36174000  0.97101000  0.10304000  1.0
  H  H19  1  0.13826000  0.52899000  0.60304000  1.0
  H  H20  1  0.57105000  0.25030000  0.14622000  1.0
  H  H21  1  0.92895000  0.24970000  0.64622000  1.0
  H  H22  1  0.42895000  0.74969000  0.85378000  1.0
  H  H23  1  0.07105000  0.75031000  0.35378000  1.0
  H  H24  1  0.80360000  0.33480000  0.10824000  1.0
  H  H25  1  0.69641000  0.16519000  0.60824000  1.0
  H  H26  1  0.19641000  0.66519000  0.89176000  1.0
  H  H27  1  0.30359000  0.83481000  0.39176000  1.0
  H  H28  1  0.02126000  0.15568000  0.14742000  1.0
  H  H29  1  0.47874000  0.34432000  0.64742000  1.0
  H  H30  1  0.97874000  0.84431000  0.85258000  1.0
  H  H31  1  0.52125000  0.65569000  0.35258000  1.0
  H  H32  1  0.12854000  0.03179000  0.26551000  1.0
  H  H33  1  0.37146000  0.46820000  0.76551000  1.0
  H  H34  1  0.87145000  0.96820000  0.73450000  1.0
  H  H35  1  0.62855000  0.53181000  0.23450000  1.0
  H  H36  1  0.92679000  0.94892000  0.38826000  1.0
  H  H37  1  0.57321000  0.55107000  0.88826000  1.0
  H  H38  1  0.07320000  0.05108000  0.61174000  1.0
  H  H39  1  0.42680000  0.44893000  0.11174000  1.0
  H  H40  1  0.62166000  0.99001000  0.39077000  1.0
  H  H41  1  0.87834000  0.50999000  0.89077000  1.0
  H  H42  1  0.37834000  0.00999000  0.60924000  1.0
  H  H43  1  0.12166000  0.49001000  0.10923000  1.0
  H  H44  1  0.51482000  0.11646000  0.27297000  1.0
  H  H45  1  0.98518000  0.38354000  0.77297000  1.0
  H  H46  1  0.48518000  0.88354000  0.72703000  1.0
  H  H47  1  0.01482000  0.61646000  0.22703000  1.0
  C  C48  1  0.58628000  0.18465000  0.99273000  1.0
  C  C49  1  0.91373000  0.31535000  0.49273000  1.0
  C  C50  1  0.41373000  0.81534000  0.00727000  1.0
  C  C51  1  0.08627000  0.68465000  0.50727000  1.0
  C  C52  1  0.52201000  0.06746000  0.91993000  1.0
  C  C53  1  0.97799000  0.43254000  0.41993000  1.0
  C  C54  1  0.47799000  0.93253000  0.08006000  1.0
  C  C55  1  0.02201000  0.56747000  0.58007000  1.0
  C  C56  1  0.69311000  0.21466000  0.12967000  1.0
  C  C57  1  0.80689000  0.28534000  0.62967000  1.0
  C  C58  1  0.30690000  0.78533000  0.87033000  1.0
  C  C59  1  0.19310000  0.71467000  0.37033000  1.0
  C  C60  1  0.75850000  0.14031000  0.20144000  1.0
  C  C61  1  0.74150000  0.35968000  0.70144000  1.0
  C  C62  1  0.24150000  0.85968000  0.79856000  1.0
  C  C63  1  0.25850000  0.64032000  0.29856000  1.0
  C  C64  1  0.93152000  0.11628000  0.20040000  1.0
  C  C65  1  0.56848000  0.38372000  0.70040000  1.0
  C  C66  1  0.06848000  0.88371000  0.79960000  1.0
  C  C67  1  0.43152000  0.61629000  0.29960000  1.0
  C  C68  1  0.99229000  0.04697000  0.26682000  1.0
  C  C69  1  0.50770000  0.45303000  0.76682000  1.0
  C  C70  1  0.00770000  0.95302000  0.73318000  1.0
  C  C71  1  0.49230000  0.54698000  0.23318000  1.0
  C  C72  1  0.88004000  0.00069000  0.33532000  1.0
  C  C73  1  0.61996000  0.49931000  0.83532000  1.0
  C  C74  1  0.11995000  0.99931000  0.66468000  1.0
  C  C75  1  0.38004000  0.50069000  0.16468000  1.0
  C  C76  1  0.70823000  0.02506000  0.33701000  1.0
  C  C77  1  0.79176000  0.47494000  0.83701000  1.0
  C  C78  1  0.29176000  0.97494000  0.66299000  1.0
  C  C79  1  0.20824000  0.52506000  0.16299000  1.0
  C  C80  1  0.64814000  0.09519000  0.27063000  1.0
  C  C81  1  0.85186000  0.40481000  0.77063000  1.0
  C  C82  1  0.35186000  0.90480000  0.72937000  1.0
  C  C83  1  0.14813000  0.59520000  0.22937000  1.0
  I  I84  1  0.87821000  0.71994000  0.04796000  1.0
  I  I85  1  0.62180000  0.78007000  0.54797000  1.0
  I  I86  1  0.12181000  0.28006000  0.95204000  1.0
  I  I87  1  0.37819000  0.21994000  0.45204000  1.0
  N  N88  1  0.64056000  0.09219000  0.05970000  1.0
  N  N89  1  0.85944000  0.40781000  0.55970000  1.0
  N  N90  1  0.35945000  0.90780000  0.94030000  1.0
  N  N91  1  0.14056000  0.59219000  0.44030000  1.0
