# generated using pymatgen
data_CdNiH16(C5N3)2
_symmetry_space_group_name_H-M   'P 1'
_cell_length_a   6.97564000
_cell_length_b   7.66905000
_cell_length_c   9.50743000
_cell_angle_alpha   89.99910000
_cell_angle_beta   76.17500000
_cell_angle_gamma   89.99960000
_symmetry_Int_Tables_number   1
_chemical_formula_structural   CdNiH16(C5N3)2
_chemical_formula_sum   'Cd1 Ni1 H16 C10 N6'
_cell_volume   493.88002434
_cell_formula_units_Z   1
loop_
 _symmetry_equiv_pos_site_id
 _symmetry_equiv_pos_as_xyz
  1  'x, y, z'
loop_
 _atom_site_type_symbol
 _atom_site_label
 _atom_site_symmetry_multiplicity
 _atom_site_fract_x
 _atom_site_fract_y
 _atom_site_fract_z
 _atom_site_occupancy
  Cd  Cd0  1  0.00002000  0.00000000  0.99999000  1.0
  Ni  Ni1  1  0.50001000  0.50000000  0.00000000  1.0
  H  H2  1  0.98163000  0.10673000  0.28135000  1.0
  H  H3  1  0.33696000  0.11446000  0.19225000  1.0
  H  H4  1  0.20069000  0.11533000  0.46258000  1.0
  H  H5  1  0.56875000  0.11468000  0.36405000  1.0
  H  H6  1  0.01838000  0.10675000  0.71862000  1.0
  H  H7  1  0.66305000  0.11446000  0.80775000  1.0
  H  H8  1  0.79928000  0.11535000  0.53742000  1.0
  H  H9  1  0.43121000  0.11467000  0.63596000  1.0
  H  H10  1  0.01837000  0.89327000  0.71863000  1.0
  H  H11  1  0.66305000  0.88553000  0.80776000  1.0
  H  H12  1  0.79928000  0.88467000  0.53742000  1.0
  H  H13  1  0.43121000  0.88533000  0.63597000  1.0
  H  H14  1  0.98161000  0.89325000  0.28136000  1.0
  H  H15  1  0.33695000  0.88554000  0.19226000  1.0
  H  H16  1  0.20069000  0.88466000  0.46259000  1.0
  H  H17  1  0.56876000  0.88533000  0.36406000  1.0
  C  C18  1  0.65987000  0.33095000  0.04799000  1.0
  C  C19  1  0.34017000  0.33096000  0.95201000  1.0
  C  C20  1  0.34016000  0.66907000  0.95201000  1.0
  C  C21  1  0.65988000  0.66903000  0.04800000  1.0
  C  C22  1  0.26196000  0.99999000  0.24956000  1.0
  C  C23  1  0.27836000  0.00000000  0.40669000  1.0
  C  C24  1  0.49191000  0.00000000  0.42123000  1.0
  C  C25  1  0.73805000  0.00001000  0.75044000  1.0
  C  C26  1  0.72162000  0.00000000  0.59332000  1.0
  C  C27  1  0.50806000  0.00000000  0.57879000  1.0
  N  N28  1  0.76245000  0.22202000  0.07657000  1.0
  N  N29  1  0.23756000  0.22200000  0.92342000  1.0
  N  N30  1  0.23758000  0.77800000  0.92341000  1.0
  N  N31  1  0.76247000  0.77796000  0.07658000  1.0
  N  N32  1  0.05709000  0.00002000  0.23260000  1.0
  N  N33  1  0.94291000  0.99997000  0.76738000  1.0
