# generated using pymatgen
data_CdH15C20N7O4
_symmetry_space_group_name_H-M   'P 1'
_cell_length_a   14.23240000
_cell_length_b   15.14250000
_cell_length_c   17.36870000
_cell_angle_alpha   89.99980000
_cell_angle_beta   89.99980000
_cell_angle_gamma   97.77730000
_symmetry_Int_Tables_number   1
_chemical_formula_structural   CdH15C20N7O4
_chemical_formula_sum   'Cd4 H60 C80 N28 O16'
_cell_volume   3708.76833743
_cell_formula_units_Z   4
loop_
 _symmetry_equiv_pos_site_id
 _symmetry_equiv_pos_as_xyz
  1  'x, y, z'
loop_
 _atom_site_type_symbol
 _atom_site_label
 _atom_site_symmetry_multiplicity
 _atom_site_fract_x
 _atom_site_fract_y
 _atom_site_fract_z
 _atom_site_occupancy
  Cd  Cd0  1  0.35773000  0.98432000  0.01024000  1.0
  Cd  Cd1  1  0.14227000  0.01568000  0.51024000  1.0
  Cd  Cd2  1  0.64227000  0.01568000  0.98976000  1.0
  Cd  Cd3  1  0.85773000  0.98432000  0.48976000  1.0
  H  H4  1  0.30508000  0.00011000  0.74697000  1.0
  H  H5  1  0.19492000  0.99989000  0.24697000  1.0
  H  H6  1  0.69492000  0.99988000  0.25303000  1.0
  H  H7  1  0.80507000  0.00011000  0.75303000  1.0
  H  H8  1  0.60700000  0.01558000  0.78354000  1.0
  H  H9  1  0.89299000  0.98442000  0.28354000  1.0
  H  H10  1  0.39300000  0.98441000  0.21646000  1.0
  H  H11  1  0.10699000  0.01557000  0.71646000  1.0
  H  H12  1  0.25217000  0.52034000  0.98690000  1.0
  H  H13  1  0.24784000  0.47966000  0.48691000  1.0
  H  H14  1  0.74784000  0.47967000  0.01309000  1.0
  H  H15  1  0.75217000  0.52034000  0.51309000  1.0
  H  H16  1  0.27040000  0.41633000  0.97006000  1.0
  H  H17  1  0.22960000  0.58367000  0.47005000  1.0
  H  H18  1  0.72960000  0.58368000  0.02994000  1.0
  H  H19  1  0.77041000  0.41633000  0.52994000  1.0
  H  H20  1  0.34873000  0.16793000  0.90749000  1.0
  H  H21  1  0.15127000  0.83207000  0.40749000  1.0
  H  H22  1  0.65127000  0.83208000  0.09251000  1.0
  H  H23  1  0.84873000  0.16792000  0.59251000  1.0
  H  H24  1  0.49440000  0.04122000  0.55420000  1.0
  H  H25  1  0.00559000  0.95879000  0.05420000  1.0
  H  H26  1  0.50560000  0.95878000  0.44580000  1.0
  H  H27  1  0.99439000  0.04121000  0.94580000  1.0
  H  H28  1  0.41120000  0.28937000  0.16791000  1.0
  H  H29  1  0.08880000  0.71063000  0.66791000  1.0
  H  H30  1  0.58880000  0.71064000  0.83209000  1.0
  H  H31  1  0.91120000  0.28936000  0.33209000  1.0
  H  H32  1  0.37201000  0.33353000  0.92441000  1.0
  H  H33  1  0.12799000  0.66647000  0.42442000  1.0
  H  H34  1  0.62799000  0.66648000  0.07559000  1.0
  H  H35  1  0.87201000  0.33353000  0.57559000  1.0
  H  H36  1  0.70645000  0.02192000  0.66492000  1.0
  H  H37  1  0.79355000  0.97808000  0.16491000  1.0
  H  H38  1  0.29355000  0.97808000  0.33507000  1.0
  H  H39  1  0.20644000  0.02193000  0.83508000  1.0
  H  H40  1  0.65741000  0.02558000  0.57682000  1.0
  H  H41  1  0.84259000  0.97442000  0.07682000  1.0
  H  H42  1  0.34259000  0.97443000  0.42317000  1.0
  H  H43  1  0.15741000  0.02558000  0.92318000  1.0
  H  H44  1  0.39240000  0.12475000  0.13910000  1.0
  H  H45  1  0.10760000  0.87525000  0.63910000  1.0
  H  H46  1  0.60760000  0.87525000  0.86090000  1.0
  H  H47  1  0.89240000  0.12475000  0.36090000  1.0
  H  H48  1  0.36918000  0.64019000  0.92689000  1.0
  H  H49  1  0.13083000  0.35981000  0.42690000  1.0
  H  H50  1  0.63082000  0.35982000  0.07311000  1.0
  H  H51  1  0.86919000  0.64018000  0.57310000  1.0
  H  H52  1  0.41370000  0.69495000  0.16966000  1.0
  H  H53  1  0.08629000  0.30505000  0.66966000  1.0
  H  H54  1  0.58630000  0.30506000  0.83034000  1.0
  H  H55  1  0.91371000  0.69495000  0.33033000  1.0
  H  H56  1  0.34909000  0.80142000  0.91002000  1.0
  H  H57  1  0.15091000  0.19858000  0.41003000  1.0
  H  H58  1  0.65091000  0.19859000  0.08998000  1.0
  H  H59  1  0.84909000  0.80141000  0.58997000  1.0
  H  H60  1  0.39260000  0.85427000  0.14189000  1.0
  H  H61  1  0.10740000  0.14573000  0.64189000  1.0
  H  H62  1  0.60741000  0.14574000  0.85812000  1.0
  H  H63  1  0.89260000  0.85427000  0.35811000  1.0
  C  C64  1  0.30787000  0.02233000  0.59416000  1.0
  C  C65  1  0.19214000  0.97768000  0.09416000  1.0
  C  C66  1  0.69213000  0.97767000  0.40584000  1.0
  C  C67  1  0.80786000  0.02232000  0.90585000  1.0
  C  C68  1  0.45428000  0.00720000  0.77407000  1.0
  C  C69  1  0.04571000  0.99280000  0.27407000  1.0
  C  C70  1  0.54572000  0.99279000  0.22593000  1.0
  C  C71  1  0.95428000  0.00719000  0.72593000  1.0
  C  C72  1  0.43476000  0.99532000  0.85833000  1.0
  C  C73  1  0.06523000  0.00469000  0.35832000  1.0
  C  C74  1  0.56524000  0.00469000  0.14167000  1.0
  C  C75  1  0.93476000  0.99531000  0.64168000  1.0
  C  C76  1  0.39194000  0.02101000  0.64568000  1.0
  C  C77  1  0.10806000  0.97900000  0.14568000  1.0
  C  C78  1  0.60806000  0.97899000  0.35431000  1.0
  C  C79  1  0.89194000  0.02100000  0.85432000  1.0
  C  C80  1  0.56297000  0.02949000  0.66478000  1.0
  C  C81  1  0.93703000  0.97051000  0.16478000  1.0
  C  C82  1  0.43703000  0.97050000  0.33522000  1.0
  C  C83  1  0.06296000  0.02949000  0.83523000  1.0
  C  C84  1  0.37693000  0.00881000  0.72468000  1.0
  C  C85  1  0.12306000  0.99120000  0.22468000  1.0
  C  C86  1  0.62306000  0.99118000  0.27532000  1.0
  C  C87  1  0.87693000  0.00880000  0.77532000  1.0
  C  C88  1  0.54693000  0.01736000  0.74465000  1.0
  C  C89  1  0.95306000  0.98265000  0.24465000  1.0
  C  C90  1  0.45307000  0.98264000  0.25535000  1.0
  C  C91  1  0.04692000  0.01735000  0.75535000  1.0
  C  C92  1  0.39044000  0.32458000  0.04884000  1.0
  C  C93  1  0.10956000  0.67542000  0.54883000  1.0
  C  C94  1  0.60956000  0.67543000  0.95117000  1.0
  C  C95  1  0.89044000  0.32458000  0.45117000  1.0
  C  C96  1  0.36243000  0.19787000  0.96427000  1.0
  C  C97  1  0.13758000  0.80213000  0.46428000  1.0
  C  C98  1  0.63757000  0.80214000  0.03573000  1.0
  C  C99  1  0.86243000  0.19787000  0.53573000  1.0
  C  C100  1  0.48384000  0.03140000  0.61599000  1.0
  C  C101  1  0.01616000  0.96861000  0.11599000  1.0
  C  C102  1  0.51616000  0.96860000  0.38401000  1.0
  C  C103  1  0.98382000  0.03138000  0.88401000  1.0
  C  C104  1  0.39685000  0.26451000  0.10967000  1.0
  C  C105  1  0.10315000  0.73548000  0.60967000  1.0
  C  C106  1  0.60315000  0.73549000  0.89033000  1.0
  C  C107  1  0.89685000  0.26451000  0.39034000  1.0
  C  C108  1  0.40961000  0.41951000  0.06583000  1.0
  C  C109  1  0.09039000  0.58049000  0.56583000  1.0
  C  C110  1  0.59039000  0.58050000  0.93418000  1.0
  C  C111  1  0.90962000  0.41951000  0.43418000  1.0
  C  C112  1  0.37210000  0.29002000  0.97448000  1.0
  C  C113  1  0.12790000  0.70998000  0.47448000  1.0
  C  C114  1  0.62790000  0.70998000  0.02552000  1.0
  C  C115  1  0.87210000  0.29002000  0.52552000  1.0
  C  C116  1  0.41017000  0.56437000  0.06665000  1.0
  C  C117  1  0.08983000  0.43562000  0.56665000  1.0
  C  C118  1  0.58983000  0.43563000  0.93336000  1.0
  C  C119  1  0.91017000  0.56438000  0.43335000  1.0
  C  C120  1  0.38703000  0.17393000  0.09401000  1.0
  C  C121  1  0.11297000  0.82607000  0.59402000  1.0
  C  C122  1  0.61297000  0.82608000  0.90598000  1.0
  C  C123  1  0.88702000  0.17392000  0.40599000  1.0
  C  C124  1  0.39104000  0.65469000  0.05061000  1.0
  C  C125  1  0.10896000  0.34531000  0.55062000  1.0
  C  C126  1  0.60896000  0.34532000  0.94939000  1.0
  C  C127  1  0.89105000  0.65469000  0.44938000  1.0
  C  C128  1  0.37184000  0.68464000  0.97646000  1.0
  C  C129  1  0.12816000  0.31536000  0.47646000  1.0
  C  C130  1  0.62816000  0.31537000  0.02354000  1.0
  C  C131  1  0.87185000  0.68464000  0.52354000  1.0
  C  C132  1  0.39827000  0.71616000  0.11164000  1.0
  C  C133  1  0.10173000  0.28384000  0.61164000  1.0
  C  C134  1  0.60173000  0.28385000  0.88837000  1.0
  C  C135  1  0.89827000  0.71616000  0.38835000  1.0
  C  C136  1  0.36222000  0.77428000  0.96666000  1.0
  C  C137  1  0.13778000  0.22572000  0.46666000  1.0
  C  C138  1  0.63779000  0.22573000  0.03335000  1.0
  C  C139  1  0.86222000  0.77427000  0.53334000  1.0
  C  C140  1  0.38721000  0.80410000  0.09648000  1.0
  C  C141  1  0.11278000  0.19589000  0.59649000  1.0
  C  C142  1  0.61279000  0.19590000  0.90352000  1.0
  C  C143  1  0.88722000  0.80410000  0.40351000  1.0
  N  N144  1  0.37083000  0.14122000  0.02244000  1.0
  N  N145  1  0.12917000  0.85877000  0.52244000  1.0
  N  N146  1  0.62917000  0.85878000  0.97755000  1.0
  N  N147  1  0.87083000  0.14122000  0.47756000  1.0
  N  N148  1  0.37041000  0.48738000  0.03094000  1.0
  N  N149  1  0.12959000  0.51262000  0.53095000  1.0
  N  N150  1  0.62959000  0.51262000  0.96906000  1.0
  N  N151  1  0.87041000  0.48738000  0.46906000  1.0
  N  N152  1  0.30237000  0.48105000  0.97170000  1.0
  N  N153  1  0.19763000  0.51895000  0.47171000  1.0
  N  N154  1  0.69763000  0.51896000  0.02830000  1.0
  N  N155  1  0.80238000  0.48104000  0.52830000  1.0
  N  N156  1  0.47077000  0.54393000  0.12062000  1.0
  N  N157  1  0.02922000  0.45606000  0.62061000  1.0
  N  N158  1  0.52922000  0.45607000  0.87939000  1.0
  N  N159  1  0.97078000  0.54393000  0.37938000  1.0
  N  N160  1  0.47080000  0.45427000  0.11984000  1.0
  N  N161  1  0.02919000  0.54573000  0.61983000  1.0
  N  N162  1  0.52919000  0.54573000  0.88017000  1.0
  N  N163  1  0.97081000  0.45427000  0.38017000  1.0
  N  N164  1  0.65295000  0.04224000  0.63368000  1.0
  N  N165  1  0.84704000  0.95777000  0.13368000  1.0
  N  N166  1  0.34705000  0.95777000  0.36632000  1.0
  N  N167  1  0.15294000  0.04223000  0.86632000  1.0
  N  N168  1  0.37002000  0.83268000  0.02516000  1.0
  N  N169  1  0.12998000  0.16732000  0.52516000  1.0
  N  N170  1  0.62999000  0.16733000  0.97485000  1.0
  N  N171  1  0.87002000  0.83267000  0.47484000  1.0
  O  O172  1  0.50181000  0.99636000  0.90695000  1.0
  O  O173  1  0.99818000  0.00365000  0.40695000  1.0
  O  O174  1  0.49821000  0.00366000  0.09304000  1.0
  O  O175  1  0.00181000  0.99636000  0.59305000  1.0
  O  O176  1  0.22611000  0.01963000  0.62607000  1.0
  O  O177  1  0.27390000  0.98040000  0.12607000  1.0
  O  O178  1  0.77390000  0.98037000  0.37392000  1.0
  O  O179  1  0.72610000  0.01961000  0.87393000  1.0
  O  O180  1  0.31844000  0.02565000  0.52132000  1.0
  O  O181  1  0.18156000  0.97436000  0.02133000  1.0
  O  O182  1  0.68157000  0.97435000  0.47866000  1.0
  O  O183  1  0.81844000  0.02564000  0.97868000  1.0
  O  O184  1  0.34734000  0.98487000  0.87954000  1.0
  O  O185  1  0.15265000  0.01513000  0.37954000  1.0
  O  O186  1  0.65266000  0.01513000  0.12046000  1.0
  O  O187  1  0.84735000  0.98487000  0.62046000  1.0
