# generated using pymatgen
data_H11PbC5NO2
_symmetry_space_group_name_H-M   'P 1'
_cell_length_a   9.50245000
_cell_length_b   9.50338000
_cell_length_c   10.25728703
_cell_angle_alpha   99.22886241
_cell_angle_beta   115.35540511
_cell_angle_gamma   111.37300000
_symmetry_Int_Tables_number   1
_chemical_formula_structural   H11PbC5NO2
_chemical_formula_sum   'H44 Pb4 C20 N4 O8'
_cell_volume   722.28074568
_cell_formula_units_Z   4
loop_
 _symmetry_equiv_pos_site_id
 _symmetry_equiv_pos_as_xyz
  1  'x, y, z'
loop_
 _atom_site_type_symbol
 _atom_site_label
 _atom_site_symmetry_multiplicity
 _atom_site_fract_x
 _atom_site_fract_y
 _atom_site_fract_z
 _atom_site_occupancy
  H  H0  1  0.34032000  0.29232000  0.67493000  1.0
  H  H1  1  0.11751000  0.66560000  0.82518000  1.0
  H  H2  1  0.65967000  0.70767000  0.32506000  1.0
  H  H3  1  0.88249000  0.33440000  0.17482000  1.0
  H  H4  1  0.37213000  0.48418000  0.76912000  1.0
  H  H5  1  0.21534000  0.60329000  0.73109000  1.0
  H  H6  1  0.62787000  0.51582000  0.23087000  1.0
  H  H7  1  0.78467000  0.39671000  0.26891000  1.0
  H  H8  1  0.58964000  0.41831000  0.95050000  1.0
  H  H9  1  0.96798000  0.63928000  0.54959000  1.0
  H  H10  1  0.41035000  0.58168000  0.04949000  1.0
  H  H11  1  0.03202000  0.36072000  0.45041000  1.0
  H  H12  1  0.65819000  0.38397000  0.81832000  1.0
  H  H13  1  0.06570000  0.83996000  0.68170000  1.0
  H  H14  1  0.34180000  0.61602000  0.18167000  1.0
  H  H15  1  0.93432000  0.16005000  0.31831000  1.0
  H  H16  1  0.77923000  0.97737000  0.12160000  1.0
  H  H17  1  0.35555000  0.65748000  0.37818000  1.0
  H  H18  1  0.22078000  0.02263000  0.87840000  1.0
  H  H19  1  0.64445000  0.34251000  0.62181000  1.0
  H  H20  1  0.95664000  0.96270000  0.11223000  1.0
  H  H21  1  0.35025000  0.84421000  0.38746000  1.0
  H  H22  1  0.04337000  0.03729000  0.88777000  1.0
  H  H23  1  0.64976000  0.15579000  0.61254000  1.0
  H  H24  1  0.76382000  0.72061000  0.14088000  1.0
  H  H25  1  0.07973000  0.62296000  0.35928000  1.0
  H  H26  1  0.23616000  0.27939000  0.85912000  1.0
  H  H27  1  0.92028000  0.37705000  0.64073000  1.0
  H  H28  1  0.57536000  0.69228000  0.96856000  1.0
  H  H29  1  0.22394000  0.60700000  0.53163000  1.0
  H  H30  1  0.42464000  0.30773000  0.03144000  1.0
  H  H31  1  0.77606000  0.39300000  0.46837000  1.0
  H  H32  1  0.94322000  0.57963000  0.92737000  1.0
  H  H33  1  0.15227000  0.01590000  0.57260000  1.0
  H  H34  1  0.05678000  0.42036000  0.07263000  1.0
  H  H35  1  0.84774000  0.98410000  0.42740000  1.0
  H  H36  1  0.95823000  0.61857000  0.11064000  1.0
  H  H37  1  0.00803000  0.84764000  0.38937000  1.0
  H  H38  1  0.04177000  0.38143000  0.88936000  1.0
  H  H39  1  0.99198000  0.15236000  0.61063000  1.0
  H  H40  1  0.02406000  0.78254000  0.04713000  1.0
  H  H41  1  0.23548000  0.97702000  0.45285000  1.0
  H  H42  1  0.97594000  0.21745000  0.95287000  1.0
  H  H43  1  0.76452000  0.02298000  0.54715000  1.0
  Pb  Pb44  1  0.69480000  0.71764000  0.67919000  1.0
  Pb  Pb45  1  0.53857000  0.01576000  0.82076000  1.0
  Pb  Pb46  1  0.30521000  0.28237000  0.32083000  1.0
  Pb  Pb47  1  0.46146000  0.98425000  0.17924000  1.0
  C  C48  1  0.43276000  0.42548000  0.72417000  1.0
  C  C49  1  0.20147000  0.70881000  0.77592000  1.0
  C  C50  1  0.56723000  0.57450000  0.27582000  1.0
  C  C51  1  0.79854000  0.29121000  0.22409000  1.0
  C  C52  1  0.60959000  0.45775000  0.86097000  1.0
  C  C53  1  0.09689000  0.74875000  0.63909000  1.0
  C  C54  1  0.39041000  0.54225000  0.13903000  1.0
  C  C55  1  0.90312000  0.25125000  0.36091000  1.0
  C  C56  1  0.81008000  0.91144000  0.04793000  1.0
  C  C57  1  0.36341000  0.76206000  0.45190000  1.0
  C  C58  1  0.18993000  0.08856000  0.95208000  1.0
  C  C59  1  0.63659000  0.23793000  0.54810000  1.0
  C  C60  1  0.71865000  0.73330000  0.02617000  1.0
  C  C61  1  0.20719000  0.69255000  0.47388000  1.0
  C  C62  1  0.28134000  0.26670000  0.97383000  1.0
  C  C63  1  0.79281000  0.30745000  0.52612000  1.0
  C  C64  1  0.92706000  0.65392000  0.00798000  1.0
  C  C65  1  0.14601000  0.91917000  0.49204000  1.0
  C  C66  1  0.07294000  0.34607000  0.99202000  1.0
  C  C67  1  0.85399000  0.08083000  0.50796000  1.0
  N  N68  1  0.74577000  0.62951000  0.92784000  1.0
  N  N69  1  0.20181000  0.81808000  0.57220000  1.0
  N  N70  1  0.25421000  0.37048000  0.07215000  1.0
  N  N71  1  0.79820000  0.18194000  0.42781000  1.0
  O  O72  1  0.45105000  0.47705000  0.60882000  1.0
  O  O73  1  0.36829000  0.84250000  0.89126000  1.0
  O  O74  1  0.54895000  0.52295000  0.39118000  1.0
  O  O75  1  0.63171000  0.15750000  0.10874000  1.0
  O  O76  1  0.74989000  0.93096000  0.90400000  1.0
  O  O77  1  0.52688000  0.84579000  0.59572000  1.0
  O  O78  1  0.25012000  0.06905000  0.09601000  1.0
  O  O79  1  0.47313000  0.15421000  0.40428000  1.0
