# generated using pymatgen
data_ZnH12C14(NO)4
_symmetry_space_group_name_H-M   'P 1'
_cell_length_a   8.05795000
_cell_length_b   11.60170000
_cell_length_c   16.62200000
_cell_angle_alpha   90.00000000
_cell_angle_beta   90.00000000
_cell_angle_gamma   100.11700000
_symmetry_Int_Tables_number   1
_chemical_formula_structural   ZnH12C14(NO)4
_chemical_formula_sum   'Zn4 H48 C56 N16 O16'
_cell_volume   1529.76115185
_cell_formula_units_Z   4
loop_
 _symmetry_equiv_pos_site_id
 _symmetry_equiv_pos_as_xyz
  1  'x, y, z'
loop_
 _atom_site_type_symbol
 _atom_site_label
 _atom_site_symmetry_multiplicity
 _atom_site_fract_x
 _atom_site_fract_y
 _atom_site_fract_z
 _atom_site_occupancy
  Zn  Zn0  1  0.35314000  0.92051000  0.29955000  1.0
  Zn  Zn1  1  0.35314000  0.42051000  0.20045000  1.0
  Zn  Zn2  1  0.64686000  0.07949000  0.70045000  1.0
  Zn  Zn3  1  0.64686000  0.57949000  0.79955000  1.0
  H  H4  1  0.31012000  0.63848000  0.29203000  1.0
  H  H5  1  0.31012000  0.13848000  0.20797000  1.0
  H  H6  1  0.68988000  0.36152000  0.70798000  1.0
  H  H7  1  0.68988000  0.86152000  0.79202000  1.0
  H  H8  1  0.38531000  0.51073000  0.42350000  1.0
  H  H9  1  0.38531000  0.01073000  0.07649000  1.0
  H  H10  1  0.61469000  0.48927000  0.57650000  1.0
  H  H11  1  0.61469000  0.98927000  0.92350000  1.0
  H  H12  1  0.48039000  0.68107000  0.54035000  1.0
  H  H13  1  0.48039000  0.18107000  0.95965000  1.0
  H  H14  1  0.51961000  0.31893000  0.45965000  1.0
  H  H15  1  0.51961000  0.81893000  0.04035000  1.0
  H  H16  1  0.70488000  0.88190000  0.22753000  1.0
  H  H17  1  0.70489000  0.38190000  0.27247000  1.0
  H  H18  1  0.29512000  0.11809000  0.77247000  1.0
  H  H19  1  0.29511000  0.61809000  0.72753000  1.0
  H  H20  1  0.99488000  0.04689000  0.24804000  1.0
  H  H21  1  0.99488000  0.54689000  0.25196000  1.0
  H  H22  1  0.00512000  0.95310000  0.75196000  1.0
  H  H23  1  0.00512000  0.45311000  0.74804000  1.0
  H  H24  1  0.87655000  0.23858000  0.30751000  1.0
  H  H25  1  0.87655000  0.73858000  0.19248000  1.0
  H  H26  1  0.12345000  0.76142000  0.69249000  1.0
  H  H27  1  0.12345000  0.26142000  0.80752000  1.0
  H  H28  1  0.13781000  0.05020000  0.55966000  1.0
  H  H29  1  0.13782000  0.55019000  0.94034000  1.0
  H  H30  1  0.86219000  0.94980000  0.44034000  1.0
  H  H31  1  0.86218000  0.44980000  0.05966000  1.0
  H  H32  1  0.98228000  0.18741000  0.62977000  1.0
  H  H33  1  0.98228000  0.68741000  0.87023000  1.0
  H  H34  1  0.01772000  0.81259000  0.37023000  1.0
  H  H35  1  0.01772000  0.31259000  0.12977000  1.0
  H  H36  1  0.93855000  0.37122000  0.56177000  1.0
  H  H37  1  0.93855000  0.87122000  0.93823000  1.0
  H  H38  1  0.06145000  0.62878000  0.43823000  1.0
  H  H39  1  0.06145000  0.12878000  0.06177000  1.0
  H  H40  1  0.06383000  0.42140000  0.42618000  1.0
  H  H41  1  0.06383000  0.92139000  0.07382000  1.0
  H  H42  1  0.93617000  0.57861000  0.57382000  1.0
  H  H43  1  0.93618000  0.07861000  0.92618000  1.0
  H  H44  1  0.46953000  0.87446000  0.47325000  1.0
  H  H45  1  0.46953000  0.37446000  0.02676000  1.0
  H  H46  1  0.53047000  0.12554000  0.52675000  1.0
  H  H47  1  0.53048000  0.62554000  0.97325000  1.0
  H  H48  1  0.55415000  0.17498000  0.31816000  1.0
  H  H49  1  0.55415000  0.67498000  0.18184000  1.0
  H  H50  1  0.44585000  0.82502000  0.68184000  1.0
  H  H51  1  0.44585000  0.32502000  0.81816000  1.0
  C  C52  1  0.35420000  0.66822000  0.35145000  1.0
  C  C53  1  0.35420000  0.16821000  0.14855000  1.0
  C  C54  1  0.64580000  0.33178000  0.64855000  1.0
  C  C55  1  0.64580000  0.83178000  0.85145000  1.0
  C  C56  1  0.39218000  0.60446000  0.41863000  1.0
  C  C57  1  0.39218000  0.10445000  0.08137000  1.0
  C  C58  1  0.60781000  0.39554000  0.58137000  1.0
  C  C59  1  0.60782000  0.89555000  0.91863000  1.0
  C  C60  1  0.44082000  0.68790000  0.47828000  1.0
  C  C61  1  0.44082000  0.18789000  0.02172000  1.0
  C  C62  1  0.55918000  0.31211000  0.52172000  1.0
  C  C63  1  0.55918000  0.81211000  0.97828000  1.0
  C  C64  1  0.72034000  0.97088000  0.24970000  1.0
  C  C65  1  0.72034000  0.47089000  0.25030000  1.0
  C  C66  1  0.27966000  0.02911000  0.75030000  1.0
  C  C67  1  0.27966000  0.52911000  0.74970000  1.0
  C  C68  1  0.86549000  0.05590000  0.25916000  1.0
  C  C69  1  0.86549000  0.55590000  0.24083000  1.0
  C  C70  1  0.13451000  0.94410000  0.74084000  1.0
  C  C71  1  0.13451000  0.44410000  0.75916000  1.0
  C  C72  1  0.80807000  0.15299000  0.29052000  1.0
  C  C73  1  0.80807000  0.65300000  0.20947000  1.0
  C  C74  1  0.19193000  0.84700000  0.70947000  1.0
  C  C75  1  0.19193000  0.34700000  0.79053000  1.0
  C  C76  1  0.18959000  0.15895000  0.45441000  1.0
  C  C77  1  0.18959000  0.65895000  0.04560000  1.0
  C  C78  1  0.81041000  0.84105000  0.54560000  1.0
  C  C79  1  0.81041000  0.34105000  0.95441000  1.0
  C  C80  1  0.12163000  0.13196000  0.53090000  1.0
  C  C81  1  0.12163000  0.63196000  0.96910000  1.0
  C  C82  1  0.87837000  0.86804000  0.46910000  1.0
  C  C83  1  0.87837000  0.36804000  0.03090000  1.0
  C  C84  1  0.03329000  0.20889000  0.56984000  1.0
  C  C85  1  0.03329000  0.70888000  0.93016000  1.0
  C  C86  1  0.96671000  0.79112000  0.43016000  1.0
  C  C87  1  0.96671000  0.29112000  0.06984000  1.0
  C  C88  1  0.00987000  0.31216000  0.53184000  1.0
  C  C89  1  0.00987000  0.81215000  0.96815000  1.0
  C  C90  1  0.99013000  0.68785000  0.46815000  1.0
  C  C91  1  0.99013000  0.18785000  0.03185000  1.0
  C  C92  1  0.07831000  0.33989000  0.45574000  1.0
  C  C93  1  0.07830000  0.83989000  0.04425000  1.0
  C  C94  1  0.92170000  0.66011000  0.54426000  1.0
  C  C95  1  0.92170000  0.16011000  0.95574000  1.0
  C  C96  1  0.17183000  0.26499000  0.41719000  1.0
  C  C97  1  0.17183000  0.76499000  0.08281000  1.0
  C  C98  1  0.82817000  0.73501000  0.58281000  1.0
  C  C99  1  0.82817000  0.23502000  0.91719000  1.0
  C  C100  1  0.27861000  0.07311000  0.41262000  1.0
  C  C101  1  0.27861000  0.57311000  0.08738000  1.0
  C  C102  1  0.72139000  0.92689000  0.58738000  1.0
  C  C103  1  0.72139000  0.42689000  0.91262000  1.0
  C  C104  1  0.26735000  0.30385000  0.34180000  1.0
  C  C105  1  0.26735000  0.80385000  0.15820000  1.0
  C  C106  1  0.73265000  0.69615000  0.65820000  1.0
  C  C107  1  0.73265000  0.19615000  0.84180000  1.0
  N  N108  1  0.37908000  0.78334000  0.36919000  1.0
  N  N109  1  0.37908000  0.28334000  0.13081000  1.0
  N  N110  1  0.62091000  0.21666000  0.63081000  1.0
  N  N111  1  0.62092000  0.71666000  0.86919000  1.0
  N  N112  1  0.43119000  0.79328000  0.44647000  1.0
  N  N113  1  0.43119000  0.29328000  0.05353000  1.0
  N  N114  1  0.56881000  0.20672000  0.55353000  1.0
  N  N115  1  0.56881000  0.70672000  0.94647000  1.0
  N  N116  1  0.58310000  0.01299000  0.27373000  1.0
  N  N117  1  0.58311000  0.51300000  0.22627000  1.0
  N  N118  1  0.41689000  0.98700000  0.72627000  1.0
  N  N119  1  0.41689000  0.48700000  0.77373000  1.0
  N  N120  1  0.63905000  0.12395000  0.29857000  1.0
  N  N121  1  0.63905000  0.62395000  0.20143000  1.0
  N  N122  1  0.36095000  0.87605000  0.70143000  1.0
  N  N123  1  0.36095000  0.37605000  0.79857000  1.0
  O  O124  1  0.21953000  0.03557000  0.34325000  1.0
  O  O125  1  0.21953000  0.53557000  0.15675000  1.0
  O  O126  1  0.78047000  0.96443000  0.65675000  1.0
  O  O127  1  0.78047000  0.46443000  0.84325000  1.0
  O  O128  1  0.40105000  0.03925000  0.44618000  1.0
  O  O129  1  0.40105000  0.53925000  0.05382000  1.0
  O  O130  1  0.59895000  0.96074000  0.55382000  1.0
  O  O131  1  0.59895000  0.46075000  0.94618000  1.0
  O  O132  1  0.19709000  0.36507000  0.29149000  1.0
  O  O133  1  0.19709000  0.86507000  0.20851000  1.0
  O  O134  1  0.80291000  0.63493000  0.70851000  1.0
  O  O135  1  0.80291000  0.13493000  0.79149000  1.0
  O  O136  1  0.41414000  0.28146000  0.33209000  1.0
  O  O137  1  0.41414000  0.78146000  0.16791000  1.0
  O  O138  1  0.58586000  0.71854000  0.66791000  1.0
  O  O139  1  0.58586000  0.21854000  0.83209000  1.0
