# generated using pymatgen
data_Na3H12C6N7O9
_symmetry_space_group_name_H-M   'P 1'
_cell_length_a   9.40182000
_cell_length_b   9.40180000
_cell_length_c   9.40181000
_cell_angle_alpha   103.03700000
_cell_angle_beta   103.03600000
_cell_angle_gamma   103.03600000
_symmetry_Int_Tables_number   1
_chemical_formula_structural   Na3H12C6N7O9
_chemical_formula_sum   'Na6 H24 C12 N14 O18'
_cell_volume   754.57742322
_cell_formula_units_Z   2
loop_
 _symmetry_equiv_pos_site_id
 _symmetry_equiv_pos_as_xyz
  1  'x, y, z'
loop_
 _atom_site_type_symbol
 _atom_site_label
 _atom_site_symmetry_multiplicity
 _atom_site_fract_x
 _atom_site_fract_y
 _atom_site_fract_z
 _atom_site_occupancy
  Na  Na0  1  0.38115000  0.73357000  0.87222000  1.0
  Na  Na1  1  0.73357000  0.87222000  0.38115000  1.0
  Na  Na2  1  0.87222000  0.38115000  0.73357000  1.0
  Na  Na3  1  0.88115000  0.37222000  0.23357000  1.0
  Na  Na4  1  0.23357000  0.88115000  0.37222000  1.0
  Na  Na5  1  0.37222000  0.23357000  0.88115000  1.0
  H  H6  1  0.58317000  0.54170000  0.72085000  1.0
  H  H7  1  0.54170000  0.72085000  0.58316000  1.0
  H  H8  1  0.72085000  0.58317000  0.54170000  1.0
  H  H9  1  0.08317000  0.22085000  0.04170000  1.0
  H  H10  1  0.04170000  0.08316000  0.22085000  1.0
  H  H11  1  0.22085000  0.04171000  0.08317000  1.0
  H  H12  1  0.67909000  0.60794000  0.92141000  1.0
  H  H13  1  0.60794000  0.92141000  0.67910000  1.0
  H  H14  1  0.92141000  0.67910000  0.60794000  1.0
  H  H15  1  0.17909000  0.42141000  0.10794000  1.0
  H  H16  1  0.10794000  0.17910000  0.42141000  1.0
  H  H17  1  0.42141000  0.10794000  0.17910000  1.0
  H  H18  1  0.73806000  0.01008000  0.95043000  1.0
  H  H19  1  0.01008000  0.95044000  0.73807000  1.0
  H  H20  1  0.95043000  0.73807000  0.01008000  1.0
  H  H21  1  0.23806000  0.45043000  0.51008000  1.0
  H  H22  1  0.51008000  0.23807000  0.45043000  1.0
  H  H23  1  0.45043000  0.51008000  0.23807000  1.0
  H  H24  1  0.76882000  0.87549000  0.05159000  1.0
  H  H25  1  0.87549000  0.05159000  0.76883000  1.0
  H  H26  1  0.05158000  0.76882000  0.87550000  1.0
  H  H27  1  0.26882000  0.55159000  0.37550000  1.0
  H  H28  1  0.37549000  0.26882000  0.55159000  1.0
  H  H29  1  0.55159000  0.37550000  0.26883000  1.0
  C  C30  1  0.67399000  0.63280000  0.81182000  1.0
  C  C31  1  0.63279000  0.81182000  0.67399000  1.0
  C  C32  1  0.81182000  0.67400000  0.63280000  1.0
  C  C33  1  0.17400000  0.31182000  0.13280000  1.0
  C  C34  1  0.13279000  0.17400000  0.31182000  1.0
  C  C35  1  0.31182000  0.13280000  0.17400000  1.0
  C  C36  1  0.76315000  0.90035000  0.94215000  1.0
  C  C37  1  0.90035000  0.94215000  0.76315000  1.0
  C  C38  1  0.94214000  0.76315000  0.90036000  1.0
  C  C39  1  0.26315000  0.44215000  0.40035000  1.0
  C  C40  1  0.40035000  0.26315000  0.44215000  1.0
  C  C41  1  0.44215000  0.40036000  0.26316000  1.0
  N  N42  1  0.63713000  0.77901000  0.82115000  1.0
  N  N43  1  0.77901000  0.82116000  0.63713000  1.0
  N  N44  1  0.82115000  0.63713000  0.77901000  1.0
  N  N45  1  0.13713000  0.32115000  0.27901000  1.0
  N  N46  1  0.27901000  0.13713000  0.32116000  1.0
  N  N47  1  0.32115000  0.27901000  0.13714000  1.0
  N  N48  1  0.91161000  0.91161000  0.91161000  1.0
  N  N49  1  0.41161000  0.41161000  0.41161000  1.0
  N  N50  1  0.42826000  0.79348000  0.19710000  1.0
  N  N51  1  0.79348000  0.19710000  0.42826000  1.0
  N  N52  1  0.19710000  0.42826000  0.79348000  1.0
  N  N53  1  0.92826000  0.69710000  0.29348000  1.0
  N  N54  1  0.29348000  0.92826000  0.69709000  1.0
  N  N55  1  0.69710000  0.29347000  0.92826000  1.0
  O  O56  1  0.29422000  0.77752000  0.11910000  1.0
  O  O57  1  0.77752000  0.11910000  0.29422000  1.0
  O  O58  1  0.11910000  0.29422000  0.77752000  1.0
  O  O59  1  0.79422000  0.61910000  0.27752000  1.0
  O  O60  1  0.27752000  0.79422000  0.61910000  1.0
  O  O61  1  0.61910000  0.27752000  0.79422000  1.0
  O  O62  1  0.53030000  0.77542000  0.13248000  1.0
  O  O63  1  0.77543000  0.13248000  0.53030000  1.0
  O  O64  1  0.13248000  0.53030000  0.77542000  1.0
  O  O65  1  0.03030000  0.63248000  0.27543000  1.0
  O  O66  1  0.27543000  0.03030000  0.63248000  1.0
  O  O67  1  0.63248000  0.27543000  0.03030000  1.0
  O  O68  1  0.46223000  0.82816000  0.34241000  1.0
  O  O69  1  0.82816000  0.34241000  0.46223000  1.0
  O  O70  1  0.34241000  0.46223000  0.82816000  1.0
  O  O71  1  0.96223000  0.84241000  0.32816000  1.0
  O  O72  1  0.32816000  0.96223000  0.84241000  1.0
  O  O73  1  0.84241000  0.32816000  0.96223000  1.0
