# generated using pymatgen
data_Na2H15C8NO9
_symmetry_space_group_name_H-M   'P 1'
_cell_length_a   7.88527000
_cell_length_b   7.95308000
_cell_length_c   11.34530000
_cell_angle_alpha   76.14390000
_cell_angle_beta   73.05950000
_cell_angle_gamma   85.10380000
_symmetry_Int_Tables_number   1
_chemical_formula_structural   Na2H15C8NO9
_chemical_formula_sum   'Na4 H30 C16 N2 O18'
_cell_volume   660.71692051
_cell_formula_units_Z   2
loop_
 _symmetry_equiv_pos_site_id
 _symmetry_equiv_pos_as_xyz
  1  'x, y, z'
loop_
 _atom_site_type_symbol
 _atom_site_label
 _atom_site_symmetry_multiplicity
 _atom_site_fract_x
 _atom_site_fract_y
 _atom_site_fract_z
 _atom_site_occupancy
  Na  Na0  1  0.02758000  0.62488000  0.35188000  1.0
  Na  Na1  1  0.97242000  0.37511000  0.64812000  1.0
  Na  Na2  1  0.73069000  0.93100000  0.43148000  1.0
  Na  Na3  1  0.26932000  0.06899000  0.56852000  1.0
  H  H4  1  0.65763000  0.58804000  0.39736000  1.0
  H  H5  1  0.34237000  0.41195000  0.60263000  1.0
  H  H6  1  0.68620000  0.55526000  0.53517000  1.0
  H  H7  1  0.31380000  0.44473000  0.46483000  1.0
  H  H8  1  0.98573000  0.02794000  0.20628000  1.0
  H  H9  1  0.01427000  0.97205000  0.79372000  1.0
  H  H10  1  0.09628000  0.00886000  0.30575000  1.0
  H  H11  1  0.90372000  0.99113000  0.69425000  1.0
  H  H12  1  0.87798000  0.28020000  0.44192000  1.0
  H  H13  1  0.12202000  0.71979000  0.55808000  1.0
  H  H14  1  0.08644000  0.24862000  0.40286000  1.0
  H  H15  1  0.91356000  0.75138000  0.59715000  1.0
  H  H16  1  0.99477000  0.66118000  0.07838000  1.0
  H  H17  1  0.00523000  0.33881000  0.92162000  1.0
  H  H18  1  0.83754000  0.56608000  0.18971000  1.0
  H  H19  1  0.16246000  0.43392000  0.81028000  1.0
  H  H20  1  0.63319000  0.32136000  0.38520000  1.0
  H  H21  1  0.36681000  0.67864000  0.61480000  1.0
  H  H22  1  0.60003000  0.19648000  0.52497000  1.0
  H  H23  1  0.39997000  0.80352000  0.47503000  1.0
  H  H24  1  0.79679000  0.68334000  0.81264000  1.0
  H  H25  1  0.20320000  0.31665000  0.18736000  1.0
  H  H26  1  0.75406000  0.52601000  0.03421000  1.0
  H  H27  1  0.24594000  0.47400000  0.96579000  1.0
  H  H28  1  0.26309000  0.80582000  0.14222000  1.0
  H  H29  1  0.73692000  0.19419000  0.85777000  1.0
  H  H30  1  0.19971000  0.03905000  0.98406000  1.0
  H  H31  1  0.80029000  0.96096000  0.01595000  1.0
  H  H32  1  0.30570000  0.05828000  0.82658000  1.0
  H  H33  1  0.69429000  0.94173000  0.17342000  1.0
  C  C34  1  0.59754000  0.93722000  0.71528000  1.0
  C  C35  1  0.40246000  0.06280000  0.28472000  1.0
  C  C36  1  0.48360000  0.57357000  0.24029000  1.0
  C  C37  1  0.51641000  0.42643000  0.75971000  1.0
  C  C38  1  0.55547000  0.83613000  0.84895000  1.0
  C  C39  1  0.44453000  0.16388000  0.15105000  1.0
  C  C40  1  0.68068000  0.71262000  0.88523000  1.0
  C  C41  1  0.31932000  0.28739000  0.11476000  1.0
  C  C42  1  0.65858000  0.62539000  0.00985000  1.0
  C  C43  1  0.34141000  0.37462000  0.99015000  1.0
  C  C44  1  0.50769000  0.66110000  0.10369000  1.0
  C  C45  1  0.49230000  0.33891000  0.89631000  1.0
  C  C46  1  0.37984000  0.77832000  0.06940000  1.0
  C  C47  1  0.62016000  0.22169000  0.93060000  1.0
  C  C48  1  0.39852000  0.86579000  0.94295000  1.0
  C  C49  1  0.60147000  0.13421000  0.05706000  1.0
  N  N50  1  0.26343000  0.97737000  0.91422000  1.0
  N  N51  1  0.73656000  0.02264000  0.08578000  1.0
  O  O52  1  0.70716000  0.63895000  0.45117000  1.0
  O  O53  1  0.29285000  0.36104000  0.54883000  1.0
  O  O54  1  0.00916000  0.95010000  0.28053000  1.0
  O  O55  1  0.99084000  0.04989000  0.71947000  1.0
  O  O56  1  0.99239000  0.32229000  0.44448000  1.0
  O  O57  1  0.00761000  0.67771000  0.55552000  1.0
  O  O58  1  0.96553000  0.59589000  0.16545000  1.0
  O  O59  1  0.03447000  0.40410000  0.83454000  1.0
  O  O60  1  0.68021000  0.22025000  0.43790000  1.0
  O  O61  1  0.31979000  0.77975000  0.56210000  1.0
  O  O62  1  0.75215000  0.91600000  0.64059000  1.0
  O  O63  1  0.24785000  0.08401000  0.35941000  1.0
  O  O64  1  0.48370000  0.04480000  0.67843000  1.0
  O  O65  1  0.51631000  0.95523000  0.32157000  1.0
  O  O66  1  0.62329000  0.50610000  0.27147000  1.0
  O  O67  1  0.37672000  0.49389000  0.72852000  1.0
  O  O68  1  0.33144000  0.57096000  0.31788000  1.0
  O  O69  1  0.66856000  0.42904000  0.68212000  1.0
