# generated using pymatgen
data_Al2H19C31N3(ClO5)2
_symmetry_space_group_name_H-M   'P 1'
_cell_length_a   6.63587000
_cell_length_b   20.94270000
_cell_length_c   21.52090000
_cell_angle_alpha   90.00150000
_cell_angle_beta   90.00640000
_cell_angle_gamma   98.40570000
_symmetry_Int_Tables_number   1
_chemical_formula_structural   Al2H19C31N3(ClO5)2
_chemical_formula_sum   'Al4 H38 C62 N6 Cl4 O20'
_cell_volume   2958.69670780
_cell_formula_units_Z   2
loop_
 _symmetry_equiv_pos_site_id
 _symmetry_equiv_pos_as_xyz
  1  'x, y, z'
loop_
 _atom_site_type_symbol
 _atom_site_label
 _atom_site_symmetry_multiplicity
 _atom_site_fract_x
 _atom_site_fract_y
 _atom_site_fract_z
 _atom_site_occupancy
  Al  Al0  1  0.95373000  0.68546000  0.49871000  1.0
  Al  Al1  1  0.04638000  0.31457000  0.99875000  1.0
  Al  Al2  1  0.45322000  0.68831000  0.49942000  1.0
  Al  Al3  1  0.54694000  0.31171000  0.99942000  1.0
  H  H4  1  0.12034000  0.50071000  0.07325000  1.0
  H  H5  1  0.87948000  0.49944000  0.57330000  1.0
  H  H6  1  0.05629000  0.65130000  0.23527000  1.0
  H  H7  1  0.94276000  0.34891000  0.73545000  1.0
  H  H8  1  0.15454000  0.59885000  0.14136000  1.0
  H  H9  1  0.84480000  0.40134000  0.64148000  1.0
  H  H10  1  0.44598000  0.48180000  0.44789000  1.0
  H  H11  1  0.55447000  0.51820000  0.94794000  1.0
  H  H12  1  0.58921000  0.39211000  0.27655000  1.0
  H  H13  1  0.41042000  0.60799000  0.77671000  1.0
  H  H14  1  0.43822000  0.38309000  0.38156000  1.0
  H  H15  1  0.56195000  0.61696000  0.88167000  1.0
  H  H16  1  0.86930000  0.64846000  0.33388000  1.0
  H  H17  1  0.12990000  0.35168000  0.83403000  1.0
  H  H18  1  0.47232000  0.80332000  0.34686000  1.0
  H  H19  1  0.52774000  0.19672000  0.84691000  1.0
  H  H20  1  0.41542000  0.09251000  0.22574000  1.0
  H  H21  1  0.58505000  0.90767000  0.72561000  1.0
  H  H22  1  0.43934000  0.18306000  0.14766000  1.0
  H  H23  1  0.56117000  0.81715000  0.64750000  1.0
  H  H24  1  0.00220000  0.05044000  0.16791000  1.0
  H  H25  1  0.99788000  0.94957000  0.66792000  1.0
  H  H26  1  0.09589000  0.96345000  0.33092000  1.0
  H  H27  1  0.90426000  0.03655000  0.83091000  1.0
  H  H28  1  0.02990000  0.14228000  0.09174000  1.0
  H  H29  1  0.97025000  0.85776000  0.59172000  1.0
  H  H30  1  0.51496000  0.38795000  0.12963000  1.0
  H  H31  1  0.21996000  0.41532000  0.16138000  1.0
  H  H32  1  0.34823000  0.48274000  0.20291000  1.0
  H  H33  1  0.30081000  0.40622000  0.23954000  1.0
  H  H34  1  0.48481000  0.61210000  0.62980000  1.0
  H  H35  1  0.77967000  0.58474000  0.66161000  1.0
  H  H36  1  0.65135000  0.51734000  0.70314000  1.0
  H  H37  1  0.69886000  0.59387000  0.73975000  1.0
  H  H38  1  0.19198000  0.65530000  0.42451000  1.0
  H  H39  1  0.80816000  0.34473000  0.92453000  1.0
  H  H40  1  0.72541000  0.72125000  0.57203000  1.0
  H  H41  1  0.27478000  0.27877000  0.07206000  1.0
  C  C42  1  0.15859000  0.60164000  0.57665000  1.0
  C  C43  1  0.84147000  0.39842000  0.07662000  1.0
  C  C44  1  0.24747000  0.77759000  0.57044000  1.0
  C  C45  1  0.75276000  0.22248000  0.07049000  1.0
  C  C46  1  0.75065000  0.77413000  0.42408000  1.0
  C  C47  1  0.24938000  0.22589000  0.92410000  1.0
  C  C48  1  0.65369000  0.59752000  0.42761000  1.0
  C  C49  1  0.34636000  0.40253000  0.92768000  1.0
  C  C50  1  0.04006000  0.55708000  0.15069000  1.0
  C  C51  1  0.95934000  0.44310000  0.65082000  1.0
  C  C52  1  0.85698000  0.45265000  0.12071000  1.0
  C  C53  1  0.14284000  0.54747000  0.62082000  1.0
  C  C54  1  0.51784000  0.48474000  0.40222000  1.0
  C  C55  1  0.48224000  0.51529000  0.90232000  1.0
  C  C56  1  0.51032000  0.42991000  0.36442000  1.0
  C  C57  1  0.48968000  0.57014000  0.86455000  1.0
  C  C58  1  0.59325000  0.43508000  0.30526000  1.0
  C  C59  1  0.40646000  0.56501000  0.80543000  1.0
  C  C60  1  0.68832000  0.49499000  0.28128000  1.0
  C  C61  1  0.31120000  0.50511000  0.78144000  1.0
  C  C62  1  0.72096000  0.54899000  0.32295000  1.0
  C  C63  1  0.27853000  0.45110000  0.82309000  1.0
  C  C64  1  0.76967000  0.50179000  0.21871000  1.0
  C  C65  1  0.22975000  0.49833000  0.71888000  1.0
  C  C66  1  0.92015000  0.55593000  0.20518000  1.0
  C  C67  1  0.07912000  0.44422000  0.70534000  1.0
  C  C68  1  0.94950000  0.60862000  0.24805000  1.0
  C  C69  1  0.04967000  0.39156000  0.74823000  1.0
  C  C70  1  0.84719000  0.60676000  0.30317000  1.0
  C  C71  1  0.15209000  0.39337000  0.80333000  1.0
  C  C72  1  0.71298000  0.45551000  0.16971000  1.0
  C  C73  1  0.28666000  0.54461000  0.66989000  1.0
  C  C74  1  0.01823000  0.50382000  0.11245000  1.0
  C  C75  1  0.98144000  0.49635000  0.61255000  1.0
  C  C76  1  0.62816000  0.54282000  0.38271000  1.0
  C  C77  1  0.37169000  0.45723000  0.88281000  1.0
  C  C78  1  0.73653000  0.16806000  0.11566000  1.0
  C  C79  1  0.26377000  0.83204000  0.61559000  1.0
  C  C80  1  0.89657000  0.13117000  0.12159000  1.0
  C  C81  1  0.10364000  0.86889000  0.62155000  1.0
  C  C82  1  0.88197000  0.08050000  0.16365000  1.0
  C  C83  1  0.11822000  0.91954000  0.66362000  1.0
  C  C84  1  0.70738000  0.06716000  0.20136000  1.0
  C  C85  1  0.29287000  0.93292000  0.70131000  1.0
  C  C86  1  0.54807000  0.10412000  0.19573000  1.0
  C  C87  1  0.45233000  0.89603000  0.69562000  1.0
  C  C88  1  0.56195000  0.15404000  0.15269000  1.0
  C  C89  1  0.43848000  0.84612000  0.65256000  1.0
  C  C90  1  0.61397000  0.88973000  0.30134000  1.0
  C  C91  1  0.38613000  0.11031000  0.80137000  1.0
  C  C92  1  0.60875000  0.83900000  0.34327000  1.0
  C  C93  1  0.39132000  0.16104000  0.84330000  1.0
  C  C94  1  0.79188000  0.93604000  0.29732000  1.0
  C  C95  1  0.20825000  0.06399000  0.79733000  1.0
  C  C96  1  0.77374000  0.83181000  0.38213000  1.0
  C  C97  1  0.22630000  0.16820000  0.88216000  1.0
  C  C98  1  0.95070000  0.87818000  0.37803000  1.0
  C  C99  1  0.04938000  0.12182000  0.87804000  1.0
  C  C100  1  0.95847000  0.92831000  0.33526000  1.0
  C  C101  1  0.04166000  0.07170000  0.83527000  1.0
  C  C102  1  0.34129000  0.43067000  0.19505000  1.0
  C  C103  1  0.65835000  0.56940000  0.69527000  1.0
  N  N104  1  0.67371000  0.01667000  0.24550000  1.0
  N  N105  1  0.32651000  0.98340000  0.74546000  1.0
  N  N106  1  0.82693000  0.98876000  0.25619000  1.0
  N  N107  1  0.17324000  0.01127000  0.75618000  1.0
  N  N108  1  0.53097000  0.41560000  0.16900000  1.0
  N  N109  1  0.46874000  0.58450000  0.66920000  1.0
  Cl  Cl110  1  0.40533000  0.89088000  0.25371000  1.0
  Cl  Cl111  1  0.59480000  0.10919000  0.75374000  1.0
  Cl  Cl112  1  0.16241000  0.87800000  0.42474000  1.0
  Cl  Cl113  1  0.83771000  0.12199000  0.92474000  1.0
  O  O114  1  0.41240000  0.76221000  0.54881000  1.0
  O  O115  1  0.58777000  0.23780000  0.04881000  1.0
  O  O116  1  0.99429000  0.61487000  0.55206000  1.0
  O  O117  1  0.00581000  0.38520000  0.05207000  1.0
  O  O118  1  0.83459000  0.62440000  0.43925000  1.0
  O  O119  1  0.16551000  0.37561000  0.93931000  1.0
  O  O120  1  0.06873000  0.74968000  0.55747000  1.0
  O  O121  1  0.93149000  0.25039000  0.05753000  1.0
  O  O122  1  0.91208000  0.75521000  0.44370000  1.0
  O  O123  1  0.08796000  0.24478000  0.94375000  1.0
  O  O124  1  0.33591000  0.63407000  0.56612000  1.0
  O  O125  1  0.66430000  0.36591000  0.06610000  1.0
  O  O126  1  0.20336000  0.68421000  0.46000000  1.0
  O  O127  1  0.79676000  0.31581000  0.96001000  1.0
  O  O128  1  0.56909000  0.74733000  0.43539000  1.0
  O  O129  1  0.43095000  0.25270000  0.93539000  1.0
  O  O130  1  0.49338000  0.61348000  0.45205000  1.0
  O  O131  1  0.50671000  0.38655000  0.95210000  1.0
  O  O132  1  0.70506000  0.69012000  0.53841000  1.0
  O  O133  1  0.29510000  0.30991000  0.03843000  1.0
