# generated using pymatgen
data_MoH14C7NO4
_symmetry_space_group_name_H-M   'P 1'
_cell_length_a   8.21052000
_cell_length_b   8.32907000
_cell_length_c   8.62566000
_cell_angle_alpha   106.89700000
_cell_angle_beta   114.56900000
_cell_angle_gamma   92.39240000
_symmetry_Int_Tables_number   1
_chemical_formula_structural   MoH14C7NO4
_chemical_formula_sum   'Mo2 H28 C14 N2 O8'
_cell_volume   504.26813927
_cell_formula_units_Z   2
loop_
 _symmetry_equiv_pos_site_id
 _symmetry_equiv_pos_as_xyz
  1  'x, y, z'
loop_
 _atom_site_type_symbol
 _atom_site_label
 _atom_site_symmetry_multiplicity
 _atom_site_fract_x
 _atom_site_fract_y
 _atom_site_fract_z
 _atom_site_occupancy
  Mo  Mo0  1  0.10791000  0.04223000  0.13420000  1.0
  Mo  Mo1  1  0.89209000  0.95775000  0.86578000  1.0
  H  H2  1  0.71326000  0.32400000  0.33048000  1.0
  H  H3  1  0.28677000  0.67599000  0.66952000  1.0
  H  H4  1  0.53970000  0.13968000  0.17483000  1.0
  H  H5  1  0.46032000  0.86032000  0.82518000  1.0
  H  H6  1  0.56447000  0.31287000  0.10402000  1.0
  H  H7  1  0.43554000  0.68712000  0.89598000  1.0
  H  H8  1  0.93486000  0.52944000  0.18785000  1.0
  H  H9  1  0.06513000  0.47058000  0.81217000  1.0
  H  H10  1  0.78371000  0.44016000  0.94950000  1.0
  H  H11  1  0.21627000  0.55983000  0.05052000  1.0
  H  H12  1  0.70911000  0.57063000  0.10058000  1.0
  H  H13  1  0.29089000  0.42939000  0.89945000  1.0
  H  H14  1  0.56187000  0.14819000  0.45311000  1.0
  H  H15  1  0.43813000  0.85182000  0.54689000  1.0
  H  H16  1  0.60685000  0.15407000  0.67468000  1.0
  H  H17  1  0.39314000  0.84593000  0.32531000  1.0
  H  H18  1  0.12221000  0.14950000  0.57501000  1.0
  H  H19  1  0.87778000  0.85050000  0.42499000  1.0
  H  H20  1  0.33783000  0.13711000  0.74343000  1.0
  H  H21  1  0.66216000  0.86290000  0.25657000  1.0
  H  H22  1  0.20499000  0.95635000  0.54431000  1.0
  H  H23  1  0.79501000  0.04366000  0.45569000  1.0
  H  H24  1  0.22618000  0.37659000  0.51803000  1.0
  H  H25  1  0.77381000  0.62342000  0.48196000  1.0
  H  H26  1  0.41199000  0.37592000  0.46247000  1.0
  H  H27  1  0.58800000  0.62409000  0.53753000  1.0
  H  H28  1  0.45448000  0.40278000  0.69045000  1.0
  H  H29  1  0.54550000  0.59723000  0.30954000  1.0
  C  C30  1  0.77062000  0.15973000  0.12374000  1.0
  C  C31  1  0.22940000  0.84026000  0.87626000  1.0
  C  C32  1  0.64108000  0.24037000  0.18893000  1.0
  C  C33  1  0.35893000  0.75962000  0.81106000  1.0
  C  C34  1  0.89037000  0.70905000  0.04542000  1.0
  C  C35  1  0.10962000  0.29095000  0.95458000  1.0
  C  C36  1  0.82730000  0.55217000  0.07239000  1.0
  C  C37  1  0.17268000  0.44784000  0.92762000  1.0
  C  C38  1  0.49176000  0.90329000  0.47023000  1.0
  C  C39  1  0.50825000  0.09671000  0.52977000  1.0
  C  C40  1  0.24599000  0.09552000  0.59608000  1.0
  C  C41  1  0.75401000  0.90449000  0.40392000  1.0
  C  C42  1  0.35824000  0.33665000  0.54565000  1.0
  C  C43  1  0.64175000  0.66336000  0.45435000  1.0
  N  N44  1  0.66800000  0.84926000  0.50307000  1.0
  N  N45  1  0.33200000  0.15074000  0.49693000  1.0
  O  O46  1  0.93643000  0.16959000  0.23635000  1.0
  O  O47  1  0.06358000  0.83040000  0.76365000  1.0
  O  O48  1  0.28947000  0.92199000  0.04734000  1.0
  O  O49  1  0.71055000  0.07799000  0.95265000  1.0
  O  O50  1  0.02900000  0.81935000  0.17593000  1.0
  O  O51  1  0.97101000  0.18064000  0.82407000  1.0
  O  O52  1  0.19808000  0.26844000  0.10742000  1.0
  O  O53  1  0.80192000  0.73155000  0.89257000  1.0
