# generated using pymatgen
data_CdH8C10(SeN3)2
_symmetry_space_group_name_H-M   'P 1'
_cell_length_a   5.75960000
_cell_length_b   8.66180000
_cell_length_c   14.28110000
_cell_angle_alpha   102.49160000
_cell_angle_beta   89.99820000
_cell_angle_gamma   89.99650000
_symmetry_Int_Tables_number   1
_chemical_formula_structural   CdH8C10(SeN3)2
_chemical_formula_sum   'Cd2 H16 C20 Se4 N12'
_cell_volume   695.59709148
_cell_formula_units_Z   2
loop_
 _symmetry_equiv_pos_site_id
 _symmetry_equiv_pos_as_xyz
  1  'x, y, z'
loop_
 _atom_site_type_symbol
 _atom_site_label
 _atom_site_symmetry_multiplicity
 _atom_site_fract_x
 _atom_site_fract_y
 _atom_site_fract_z
 _atom_site_occupancy
  Cd  Cd0  1  0.50000000  0.00000000  0.50000000  1.0
  Cd  Cd1  1  0.00000000  0.00000000  0.00000000  1.0
  H  H2  1  0.95136000  0.82359000  0.37677000  1.0
  H  H3  1  0.45132000  0.17639000  0.12322000  1.0
  H  H4  1  0.04864000  0.17639000  0.62322000  1.0
  H  H5  1  0.54867000  0.82360000  0.87678000  1.0
  H  H6  1  0.87773000  0.33691000  0.30797000  1.0
  H  H7  1  0.37759000  0.66308000  0.19202000  1.0
  H  H8  1  0.12227000  0.66308000  0.69204000  1.0
  H  H9  1  0.62242000  0.33692000  0.80798000  1.0
  H  H10  1  0.46753000  0.36254000  0.37200000  1.0
  H  H11  1  0.96740000  0.63746000  0.12799000  1.0
  H  H12  1  0.53246000  0.63747000  0.62801000  1.0
  H  H13  1  0.03261000  0.36254000  0.87201000  1.0
  H  H14  1  0.32265000  0.63994000  0.44352000  1.0
  H  H15  1  0.82259000  0.36006000  0.05647000  1.0
  H  H16  1  0.67734000  0.36008000  0.55647000  1.0
  H  H17  1  0.17741000  0.63994000  0.94353000  1.0
  C  C18  1  0.00532000  0.89943000  0.59746000  1.0
  C  C19  1  0.50533000  0.10061000  0.90254000  1.0
  C  C20  1  0.99467000  0.10058000  0.40254000  1.0
  C  C21  1  0.49470000  0.89941000  0.09747000  1.0
  C  C22  1  0.84394000  0.72015000  0.37670000  1.0
  C  C23  1  0.34388000  0.27984000  0.12329000  1.0
  C  C24  1  0.15607000  0.27984000  0.62329000  1.0
  C  C25  1  0.65612000  0.72016000  0.87671000  1.0
  C  C26  1  0.80230000  0.45237000  0.33891000  1.0
  C  C27  1  0.30218000  0.54762000  0.16108000  1.0
  C  C28  1  0.19769000  0.54763000  0.66109000  1.0
  C  C29  1  0.69782000  0.45238000  0.83892000  1.0
  C  C30  1  0.57640000  0.46619000  0.37438000  1.0
  C  C31  1  0.07630000  0.53380000  0.12560000  1.0
  C  C32  1  0.42360000  0.53380000  0.62562000  1.0
  C  C33  1  0.92371000  0.46621000  0.87440000  1.0
  C  C34  1  0.49570000  0.61770000  0.41284000  1.0
  C  C35  1  0.99562000  0.38229000  0.08716000  1.0
  C  C36  1  0.50429000  0.38230000  0.58715000  1.0
  C  C37  1  0.00438000  0.61771000  0.91284000  1.0
  Se  Se38  1  0.74188000  0.93924000  0.66630000  1.0
  Se  Se39  1  0.24190000  0.06074000  0.83370000  1.0
  Se  Se40  1  0.25809000  0.06075000  0.33370000  1.0
  Se  Se41  1  0.75810000  0.93924000  0.16629000  1.0
  N  N42  1  0.17856000  0.87579000  0.55212000  1.0
  N  N43  1  0.67853000  0.12427000  0.94787000  1.0
  N  N44  1  0.82146000  0.12423000  0.44787000  1.0
  N  N45  1  0.32148000  0.87576000  0.05213000  1.0
  N  N46  1  0.62926000  0.74580000  0.41393000  1.0
  N  N47  1  0.12922000  0.25419000  0.08606000  1.0
  N  N48  1  0.37074000  0.25421000  0.58606000  1.0
  N  N49  1  0.87078000  0.74581000  0.91394000  1.0
  N  N50  1  0.93764000  0.57894000  0.34048000  1.0
  N  N51  1  0.43756000  0.42103000  0.15951000  1.0
  N  N52  1  0.06235000  0.42104000  0.65953000  1.0
  N  N53  1  0.56243000  0.57896000  0.84049000  1.0
