# generated using pymatgen
data_MnH7C7N8
_symmetry_space_group_name_H-M   'P 1'
_cell_length_a   7.63619000
_cell_length_b   8.40466000
_cell_length_c   17.25250000
_cell_angle_alpha   95.99430000
_cell_angle_beta   90.00690000
_cell_angle_gamma   117.01000000
_symmetry_Int_Tables_number   1
_chemical_formula_structural   MnH7C7N8
_chemical_formula_sum   'Mn4 H28 C28 N32'
_cell_volume   979.67917073
_cell_formula_units_Z   4
loop_
 _symmetry_equiv_pos_site_id
 _symmetry_equiv_pos_as_xyz
  1  'x, y, z'
loop_
 _atom_site_type_symbol
 _atom_site_label
 _atom_site_symmetry_multiplicity
 _atom_site_fract_x
 _atom_site_fract_y
 _atom_site_fract_z
 _atom_site_occupancy
  Mn  Mn0  1  0.75571000  0.77513000  0.72894000  1.0
  Mn  Mn1  1  0.98059000  0.22524000  0.77109000  1.0
  Mn  Mn2  1  0.24453000  0.22500000  0.26931000  1.0
  Mn  Mn3  1  0.01961000  0.77486000  0.23063000  1.0
  H  H4  1  0.53430000  0.39526000  0.62705000  1.0
  H  H5  1  0.13823000  0.60511000  0.87309000  1.0
  H  H6  1  0.46428000  0.60575000  0.37194000  1.0
  H  H7  1  0.85913000  0.39410000  0.12796000  1.0
  H  H8  1  0.26192000  0.23743000  0.52293000  1.0
  H  H9  1  0.02335000  0.76232000  0.97731000  1.0
  H  H10  1  0.73648000  0.76410000  0.47594000  1.0
  H  H11  1  0.97314000  0.23612000  0.02391000  1.0
  H  H12  1  0.11148000  0.41573000  0.46901000  1.0
  H  H13  1  0.69476000  0.58337000  0.03119000  1.0
  H  H14  1  0.88821000  0.58701000  0.52988000  1.0
  H  H15  1  0.30182000  0.41352000  0.96997000  1.0
  H  H16  1  0.20979000  0.73047000  0.53124000  1.0
  H  H17  1  0.47884000  0.26871000  0.96882000  1.0
  H  H18  1  0.79084000  0.27225000  0.46768000  1.0
  H  H19  1  0.51895000  0.72825000  0.03225000  1.0
  H  H20  1  0.47073000  0.15065000  0.67327000  1.0
  H  H21  1  0.32043000  0.84888000  0.82673000  1.0
  H  H22  1  0.52974000  0.85107000  0.32679000  1.0
  H  H23  1  0.67862000  0.14920000  0.17323000  1.0
  H  H24  1  0.23016000  0.97155000  0.65255000  1.0
  H  H25  1  0.25826000  0.02761000  0.84749000  1.0
  H  H26  1  0.77039000  0.03032000  0.34646000  1.0
  H  H27  1  0.74029000  0.97011000  0.15353000  1.0
  H  H28  1  0.39762000  0.02942000  0.57703000  1.0
  H  H29  1  0.36840000  0.97007000  0.92297000  1.0
  H  H30  1  0.60481000  0.97347000  0.42271000  1.0
  H  H31  1  0.63131000  0.02682000  0.07731000  1.0
  C  C32  1  0.45203000  0.46116000  0.60623000  1.0
  C  C33  1  0.99012000  0.53894000  0.89388000  1.0
  C  C34  1  0.54674000  0.53995000  0.39271000  1.0
  C  C35  1  0.00733000  0.46009000  0.10719000  1.0
  C  C36  1  0.30376000  0.37557000  0.54733000  1.0
  C  C37  1  0.92725000  0.62418000  0.95287000  1.0
  C  C38  1  0.69511000  0.62607000  0.45154000  1.0
  C  C39  1  0.06972000  0.37417000  0.04831000  1.0
  C  C40  1  0.21856000  0.47456000  0.51846000  1.0
  C  C41  1  0.74322000  0.52485000  0.98171000  1.0
  C  C42  1  0.78121000  0.52781000  0.48041000  1.0
  C  C43  1  0.25396000  0.47260000  0.01946000  1.0
  C  C44  1  0.27295000  0.64934000  0.55278000  1.0
  C  C45  1  0.62303000  0.35010000  0.94729000  1.0
  C  C46  1  0.72725000  0.35310000  0.44616000  1.0
  C  C47  1  0.37458000  0.64730000  0.05376000  1.0
  C  C48  1  0.41092000  0.71963000  0.61621000  1.0
  C  C49  1  0.69092000  0.28019000  0.88381000  1.0
  C  C50  1  0.58869000  0.28195000  0.38293000  1.0
  C  C51  1  0.30705000  0.71822000  0.11703000  1.0
  C  C52  1  0.45791000  0.89195000  0.66325000  1.0
  C  C53  1  0.56580000  0.10785000  0.83674000  1.0
  C  C54  1  0.54187000  0.10932000  0.33636000  1.0
  C  C55  1  0.43267000  0.89080000  0.16363000  1.0
  C  C56  1  0.38629000  0.01834000  0.63978000  1.0
  C  C57  1  0.36798000  0.98115000  0.86022000  1.0
  C  C58  1  0.61465000  0.98377000  0.35987000  1.0
  C  C59  1  0.63094000  0.01651000  0.14014000  1.0
  N  N60  1  0.50600000  0.62877000  0.63958000  1.0
  N  N61  1  0.87676000  0.37134000  0.86045000  1.0
  N  N62  1  0.49274000  0.37212000  0.35946000  1.0
  N  N63  1  0.12101000  0.62789000  0.14049000  1.0
  N  N64  1  0.56274000  0.92000000  0.72746000  1.0
  N  N65  1  0.64263000  0.08002000  0.77250000  1.0
  N  N66  1  0.43584000  0.08011000  0.27239000  1.0
  N  N67  1  0.35580000  0.91991000  0.22761000  1.0
  N  N68  1  0.94224000  0.02592000  0.66982000  1.0
  N  N69  1  0.91659000  0.97446000  0.83019000  1.0
  N  N70  1  0.05871000  0.97676000  0.33075000  1.0
  N  N71  1  0.08192000  0.02313000  0.16919000  1.0
  N  N72  1  0.88350000  0.04113000  0.60728000  1.0
  N  N73  1  0.84264000  0.95921000  0.89274000  1.0
  N  N74  1  0.11832000  0.96266000  0.39328000  1.0
  N  N75  1  0.15561000  0.03724000  0.10667000  1.0
  N  N76  1  0.82443000  0.05446000  0.54714000  1.0
  N  N77  1  0.77029000  0.94588000  0.95286000  1.0
  N  N78  1  0.17777000  0.94992000  0.45343000  1.0
  N  N79  1  0.22777000  0.04994000  0.04651000  1.0
  N  N80  1  0.92895000  0.65541000  0.68602000  1.0
  N  N81  1  0.27359000  0.34533000  0.81401000  1.0
  N  N82  1  0.06934000  0.34134000  0.30695000  1.0
  N  N83  1  0.72810000  0.65820000  0.19293000  1.0
  N  N84  1  0.96329000  0.53280000  0.69140000  1.0
  N  N85  1  0.43069000  0.46759000  0.80860000  1.0
  N  N86  1  0.04450000  0.47067000  0.30643000  1.0
  N  N87  1  0.57374000  0.52918000  0.19354000  1.0
  N  N88  1  0.00401000  0.41355000  0.69319000  1.0
  N  N89  1  0.59083000  0.58654000  0.80677000  1.0
  N  N90  1  0.01372000  0.59672000  0.30901000  1.0
  N  N91  1  0.41672000  0.40344000  0.19103000  1.0
