# generated using pymatgen
data_CdH34C26(NO)2
_symmetry_space_group_name_H-M   'P 1'
_cell_length_a   8.36576000
_cell_length_b   13.26980000
_cell_length_c   25.77200000
_cell_angle_alpha   89.99880000
_cell_angle_beta   92.77700000
_cell_angle_gamma   89.99990000
_symmetry_Int_Tables_number   1
_chemical_formula_structural   CdH34C26(NO)2
_chemical_formula_sum   'Cd4 H136 C104 N8 O8'
_cell_volume   2857.64051656
_cell_formula_units_Z   4
loop_
 _symmetry_equiv_pos_site_id
 _symmetry_equiv_pos_as_xyz
  1  'x, y, z'
loop_
 _atom_site_type_symbol
 _atom_site_label
 _atom_site_symmetry_multiplicity
 _atom_site_fract_x
 _atom_site_fract_y
 _atom_site_fract_z
 _atom_site_occupancy
  Cd  Cd0  1  0.21791000  0.67389000  0.26012000  1.0
  Cd  Cd1  1  0.78207000  0.17391000  0.23986000  1.0
  Cd  Cd2  1  0.78208000  0.32611000  0.73987000  1.0
  Cd  Cd3  1  0.21795000  0.82611000  0.76014000  1.0
  H  H4  1  0.71951000  0.48462000  0.33974000  1.0
  H  H5  1  0.28048000  0.98462000  0.16025000  1.0
  H  H6  1  0.28049000  0.51538000  0.66026000  1.0
  H  H7  1  0.71953000  0.01538000  0.83974000  1.0
  H  H8  1  0.74729000  0.41009000  0.39677000  1.0
  H  H9  1  0.25271000  0.91008000  0.10322000  1.0
  H  H10  1  0.25273000  0.58991000  0.60322000  1.0
  H  H11  1  0.74731000  0.08993000  0.89678000  1.0
  H  H12  1  0.68561000  0.35259000  0.33638000  1.0
  H  H13  1  0.31436000  0.85257000  0.16361000  1.0
  H  H14  1  0.31441000  0.64742000  0.66362000  1.0
  H  H15  1  0.68563000  0.14742000  0.83639000  1.0
  H  H16  1  0.90843000  0.23073000  0.34595000  1.0
  H  H17  1  0.09159000  0.73074000  0.15406000  1.0
  H  H18  1  0.09159000  0.76927000  0.65405000  1.0
  H  H19  1  0.90842000  0.26927000  0.84594000  1.0
  H  H20  1  0.98296000  0.28675000  0.40544000  1.0
  H  H21  1  0.01704000  0.78672000  0.09457000  1.0
  H  H22  1  0.01706000  0.71327000  0.59457000  1.0
  H  H23  1  0.98297000  0.21328000  0.90543000  1.0
  H  H24  1  0.11122000  0.27014000  0.35311000  1.0
  H  H25  1  0.88878000  0.77012000  0.14690000  1.0
  H  H26  1  0.88883000  0.72988000  0.64689000  1.0
  H  H27  1  0.11121000  0.22988000  0.85309000  1.0
  H  H28  1  0.84335000  0.66746000  0.24485000  1.0
  H  H29  1  0.15665000  0.16748000  0.25513000  1.0
  H  H30  1  0.15666000  0.33254000  0.75515000  1.0
  H  H31  1  0.84335000  0.83251000  0.74486000  1.0
  H  H32  1  0.88644000  0.72371000  0.30543000  1.0
  H  H33  1  0.11355000  0.22370000  0.19454000  1.0
  H  H34  1  0.11354000  0.27630000  0.69457000  1.0
  H  H35  1  0.88649000  0.77629000  0.80545000  1.0
  H  H36  1  0.76057000  0.61485000  0.30136000  1.0
  H  H37  1  0.23942000  0.11485000  0.19861000  1.0
  H  H38  1  0.23943000  0.38516000  0.69865000  1.0
  H  H39  1  0.76058000  0.88516000  0.80138000  1.0
  H  H40  1  0.54285000  0.68869000  0.25385000  1.0
  H  H41  1  0.45715000  0.18871000  0.24614000  1.0
  H  H42  1  0.45714000  0.31128000  0.74614000  1.0
  H  H43  1  0.54287000  0.81129000  0.75387000  1.0
  H  H44  1  0.45145000  0.80409000  0.23312000  1.0
  H  H45  1  0.54857000  0.30409000  0.26688000  1.0
  H  H46  1  0.54855000  0.19590000  0.76688000  1.0
  H  H47  1  0.45145000  0.69591000  0.73313000  1.0
  H  H48  1  0.44912000  0.69823000  0.19039000  1.0
  H  H49  1  0.55092000  0.19823000  0.30960000  1.0
  H  H50  1  0.55090000  0.30176000  0.80960000  1.0
  H  H51  1  0.44913000  0.80176000  0.69042000  1.0
  H  H52  1  0.08537000  0.85759000  0.44488000  1.0
  H  H53  1  0.91450000  0.35759000  0.05511000  1.0
  H  H54  1  0.91465000  0.14243000  0.55512000  1.0
  H  H55  1  0.08542000  0.64243000  0.94489000  1.0
  H  H56  1  0.52599000  0.72191000  0.40174000  1.0
  H  H57  1  0.47394000  0.22188000  0.09827000  1.0
  H  H58  1  0.47400000  0.27811000  0.59826000  1.0
  H  H59  1  0.52600000  0.77811000  0.90175000  1.0
  H  H60  1  0.85597000  0.72322000  0.44975000  1.0
  H  H61  1  0.14394000  0.22324000  0.05023000  1.0
  H  H62  1  0.14404000  0.27680000  0.55026000  1.0
  H  H63  1  0.85600000  0.77679000  0.94976000  1.0
  H  H64  1  0.82789000  0.64666000  0.39374000  1.0
  H  H65  1  0.17208000  0.14668000  0.10623000  1.0
  H  H66  1  0.17211000  0.35335000  0.60626000  1.0
  H  H67  1  0.82789000  0.85335000  0.89376000  1.0
  H  H68  1  0.82398000  0.78040000  0.38782000  1.0
  H  H69  1  0.17592000  0.28043000  0.11216000  1.0
  H  H70  1  0.17603000  0.21961000  0.61218000  1.0
  H  H71  1  0.82407000  0.71959000  0.88784000  1.0
  H  H72  1  0.34825000  0.95882000  0.44626000  1.0
  H  H73  1  0.65163000  0.45879000  0.05375000  1.0
  H  H74  1  0.65177000  0.04119000  0.55374000  1.0
  H  H75  1  0.34827000  0.54121000  0.94628000  1.0
  H  H76  1  0.52880000  0.89377000  0.43388000  1.0
  H  H77  1  0.47108000  0.39372000  0.06609000  1.0
  H  H78  1  0.47124000  0.10623000  0.56612000  1.0
  H  H79  1  0.52882000  0.60624000  0.93390000  1.0
  H  H80  1  0.43135000  0.87245000  0.49241000  1.0
  H  H81  1  0.56857000  0.37244000  0.00757000  1.0
  H  H82  1  0.56864000  0.12755000  0.50759000  1.0
  H  H83  1  0.43141000  0.62757000  0.99243000  1.0
  H  H84  1  0.41850000  0.49617000  0.38937000  1.0
  H  H85  1  0.58152000  0.99615000  0.11062000  1.0
  H  H86  1  0.58153000  0.50383000  0.61061000  1.0
  H  H87  1  0.41850000  0.00385000  0.88940000  1.0
  H  H88  1  0.52059000  0.57673000  0.34653000  1.0
  H  H89  1  0.47938000  0.07667000  0.15346000  1.0
  H  H90  1  0.47940000  0.42328000  0.65345000  1.0
  H  H91  1  0.52063000  0.92330000  0.84656000  1.0
  H  H92  1  0.33966000  0.51564000  0.32548000  1.0
  H  H93  1  0.66036000  0.01559000  0.17451000  1.0
  H  H94  1  0.66032000  0.48440000  0.67451000  1.0
  H  H95  1  0.33971000  0.98440000  0.82550000  1.0
  H  H96  1  0.83863000  0.56004000  0.09447000  1.0
  H  H97  1  0.16139000  0.06007000  0.40551000  1.0
  H  H98  1  0.16136000  0.43993000  0.90551000  1.0
  H  H99  1  0.83861000  0.93993000  0.59449000  1.0
  H  H100  1  0.33288000  0.48831000  0.12894000  1.0
  H  H101  1  0.66711000  0.98839000  0.37106000  1.0
  H  H102  1  0.66712000  0.51162000  0.87106000  1.0
  H  H103  1  0.33291000  0.01162000  0.62895000  1.0
  H  H104  1  0.66899000  0.44491000  0.16844000  1.0
  H  H105  1  0.33098000  0.94492000  0.33155000  1.0
  H  H106  1  0.33100000  0.55509000  0.83156000  1.0
  H  H107  1  0.66902000  0.05508000  0.66845000  1.0
  H  H108  1  0.65741000  0.57845000  0.17222000  1.0
  H  H109  1  0.34260000  0.07845000  0.32777000  1.0
  H  H110  1  0.34258000  0.42154000  0.82778000  1.0
  H  H111  1  0.65741000  0.92155000  0.67223000  1.0
  H  H112  1  0.70965000  0.50634000  0.22860000  1.0
  H  H113  1  0.29036000  0.00634000  0.27139000  1.0
  H  H114  1  0.29036000  0.49366000  0.77140000  1.0
  H  H115  1  0.70963000  0.99365000  0.72861000  1.0
  H  H116  1  0.19176000  0.63739000  0.05242000  1.0
  H  H117  1  0.80826000  0.13743000  0.44758000  1.0
  H  H118  1  0.80821000  0.36256000  0.94757000  1.0
  H  H119  1  0.19176000  0.86257000  0.55243000  1.0
  H  H120  1  0.02318000  0.57088000  0.02648000  1.0
  H  H121  1  0.97682000  0.07091000  0.47351000  1.0
  H  H122  1  0.97680000  0.42905000  0.97352000  1.0
  H  H123  1  0.02320000  0.92908000  0.52649000  1.0
  H  H124  1  0.21205000  0.50935000  0.03465000  1.0
  H  H125  1  0.78794000  0.00938000  0.46534000  1.0
  H  H126  1  0.78792000  0.49061000  0.96534000  1.0
  H  H127  1  0.21208000  0.99062000  0.53466000  1.0
  H  H128  1  0.36818000  0.37230000  0.20881000  1.0
  H  H129  1  0.63183000  0.87234000  0.29120000  1.0
  H  H130  1  0.63181000  0.62769000  0.79120000  1.0
  H  H131  1  0.36815000  0.12768000  0.70881000  1.0
  H  H132  1  0.26808000  0.40691000  0.26486000  1.0
  H  H133  1  0.73191000  0.90693000  0.23515000  1.0
  H  H134  1  0.73191000  0.59308000  0.73515000  1.0
  H  H135  1  0.26810000  0.09306000  0.76486000  1.0
  H  H136  1  0.40593000  0.49148000  0.23740000  1.0
  H  H137  1  0.59404000  0.99149000  0.26260000  1.0
  H  H138  1  0.59405000  0.50851000  0.76261000  1.0
  H  H139  1  0.40597000  0.00852000  0.73740000  1.0
  C  C140  1  0.01702000  0.58522000  0.29351000  1.0
  C  C141  1  0.98296000  0.08523000  0.20647000  1.0
  C  C142  1  0.98298000  0.41479000  0.70649000  1.0
  C  C143  1  0.01705000  0.91477000  0.79353000  1.0
  C  C144  1  0.03806000  0.47360000  0.37332000  1.0
  C  C145  1  0.96193000  0.97360000  0.12667000  1.0
  C  C146  1  0.96194000  0.52641000  0.62666000  1.0
  C  C147  1  0.03808000  0.02641000  0.87333000  1.0
  C  C148  1  0.93859000  0.39323000  0.34334000  1.0
  C  C149  1  0.06140000  0.89324000  0.15665000  1.0
  C  C150  1  0.06143000  0.60676000  0.65666000  1.0
  C  C151  1  0.93861000  0.10676000  0.84335000  1.0
  C  C152  1  0.95872000  0.39927000  0.28499000  1.0
  C  C153  1  0.04127000  0.89927000  0.21500000  1.0
  C  C154  1  0.04126000  0.60075000  0.71501000  1.0
  C  C155  1  0.95874000  0.10073000  0.78500000  1.0
  C  C156  1  0.76114000  0.41148000  0.35462000  1.0
  C  C157  1  0.23887000  0.91147000  0.14538000  1.0
  C  C158  1  0.23888000  0.58853000  0.64538000  1.0
  C  C159  1  0.76113000  0.08853000  0.85463000  1.0
  C  C160  1  0.98849000  0.28846000  0.36306000  1.0
  C  C161  1  0.01150000  0.78844000  0.13694000  1.0
  C  C162  1  0.01154000  0.71156000  0.63694000  1.0
  C  C163  1  0.98850000  0.21156000  0.86306000  1.0
  C  C164  1  0.86749000  0.65089000  0.28615000  1.0
  C  C165  1  0.13249000  0.15089000  0.21383000  1.0
  C  C166  1  0.13250000  0.34912000  0.71386000  1.0
  C  C167  1  0.86753000  0.84911000  0.78616000  1.0
  C  C168  1  0.44200000  0.72183000  0.23108000  1.0
  C  C169  1  0.55801000  0.22184000  0.26891000  1.0
  C  C170  1  0.55800000  0.27815000  0.76892000  1.0
  C  C171  1  0.44202000  0.77816000  0.73110000  1.0
  C  C172  1  0.14283000  0.64240000  0.37713000  1.0
  C  C173  1  0.85713000  0.14241000  0.12287000  1.0
  C  C174  1  0.85718000  0.35760000  0.62288000  1.0
  C  C175  1  0.14286000  0.85759000  0.87714000  1.0
  C  C176  1  0.06052000  0.71844000  0.40286000  1.0
  C  C177  1  0.93941000  0.21845000  0.09712000  1.0
  C  C178  1  0.93948000  0.28157000  0.59713000  1.0
  C  C179  1  0.06056000  0.78156000  0.90288000  1.0
  C  C180  1  0.14975000  0.79758000  0.42582000  1.0
  C  C181  1  0.85016000  0.29757000  0.07416000  1.0
  C  C182  1  0.85026000  0.20244000  0.57418000  1.0
  C  C183  1  0.14979000  0.70244000  0.92584000  1.0
  C  C184  1  0.31644000  0.80176000  0.42490000  1.0
  C  C185  1  0.68346000  0.30175000  0.07511000  1.0
  C  C186  1  0.68357000  0.19824000  0.57512000  1.0
  C  C187  1  0.31648000  0.69825000  0.92490000  1.0
  C  C188  1  0.39531000  0.72212000  0.40142000  1.0
  C  C189  1  0.60462000  0.22209000  0.09857000  1.0
  C  C190  1  0.60467000  0.27789000  0.59858000  1.0
  C  C191  1  0.39535000  0.77789000  0.90143000  1.0
  C  C192  1  0.31155000  0.64143000  0.37826000  1.0
  C  C193  1  0.68841000  0.14140000  0.12172000  1.0
  C  C194  1  0.68845000  0.35860000  0.62173000  1.0
  C  C195  1  0.31158000  0.85861000  0.87828000  1.0
  C  C196  1  0.88225000  0.71666000  0.40850000  1.0
  C  C197  1  0.11772000  0.21668000  0.09147000  1.0
  C  C198  1  0.11777000  0.28335000  0.59150000  1.0
  C  C199  1  0.88226000  0.78335000  0.90852000  1.0
  C  C200  1  0.41093000  0.88635000  0.45050000  1.0
  C  C201  1  0.58897000  0.38632000  0.04949000  1.0
  C  C202  1  0.58909000  0.11367000  0.54951000  1.0
  C  C203  1  0.41097000  0.61366000  0.95051000  1.0
  C  C204  1  0.40233000  0.55302000  0.35844000  1.0
  C  C205  1  0.59768000  0.05301000  0.14155000  1.0
  C  C206  1  0.59768000  0.44699000  0.64155000  1.0
  C  C207  1  0.40235000  0.94699000  0.85847000  1.0
  C  C208  1  0.02323000  0.49434000  0.20963000  1.0
  C  C209  1  0.97677000  0.99437000  0.29036000  1.0
  C  C210  1  0.97679000  0.50566000  0.79037000  1.0
  C  C211  1  0.02322000  0.00563000  0.70964000  1.0
  C  C212  1  0.89703000  0.51665000  0.17345000  1.0
  C  C213  1  0.10297000  0.01667000  0.32653000  1.0
  C  C214  1  0.10297000  0.48335000  0.82655000  1.0
  C  C215  1  0.89704000  0.98334000  0.67346000  1.0
  C  C216  1  0.93503000  0.53803000  0.12229000  1.0
  C  C217  1  0.06499000  0.03805000  0.37770000  1.0
  C  C218  1  0.06495000  0.46196000  0.87770000  1.0
  C  C219  1  0.93503000  0.96194000  0.62230000  1.0
  C  C220  1  0.09146000  0.53308000  0.10597000  1.0
  C  C221  1  0.90853000  0.03312000  0.39402000  1.0
  C  C222  1  0.90851000  0.46689000  0.89402000  1.0
  C  C223  1  0.09149000  0.96688000  0.60598000  1.0
  C  C224  1  0.21103000  0.49882000  0.14146000  1.0
  C  C225  1  0.78895000  0.99885000  0.35853000  1.0
  C  C226  1  0.78894000  0.50115000  0.85853000  1.0
  C  C227  1  0.21107000  0.00115000  0.64147000  1.0
  C  C228  1  0.17968000  0.47813000  0.19316000  1.0
  C  C229  1  0.82031000  0.97816000  0.30683000  1.0
  C  C230  1  0.82032000  0.52187000  0.80683000  1.0
  C  C231  1  0.17968000  0.02185000  0.69317000  1.0
  C  C232  1  0.72429000  0.51219000  0.18676000  1.0
  C  C233  1  0.27571000  0.01219000  0.31323000  1.0
  C  C234  1  0.27570000  0.48781000  0.81324000  1.0
  C  C235  1  0.72433000  0.98780000  0.68677000  1.0
  C  C236  1  0.13120000  0.56372000  0.05204000  1.0
  C  C237  1  0.86880000  0.06376000  0.44795000  1.0
  C  C238  1  0.86878000  0.43623000  0.94795000  1.0
  C  C239  1  0.13121000  0.93624000  0.55205000  1.0
  C  C240  1  0.31158000  0.43559000  0.22831000  1.0
  C  C241  1  0.68842000  0.93562000  0.27169000  1.0
  C  C242  1  0.68839000  0.56441000  0.77169000  1.0
  C  C243  1  0.31159000  0.06439000  0.72831000  1.0
  N  N244  1  0.05681000  0.56404000  0.34878000  1.0
  N  N245  1  0.94319000  0.06405000  0.15120000  1.0
  N  N246  1  0.94321000  0.43597000  0.65121000  1.0
  N  N247  1  0.05683000  0.93597000  0.84880000  1.0
  N  N248  1  0.99582000  0.48960000  0.26451000  1.0
  N  N249  1  0.00418000  0.98961000  0.23548000  1.0
  N  N250  1  0.00417000  0.51042000  0.73550000  1.0
  N  N251  1  0.99584000  0.01040000  0.76452000  1.0
  O  O252  1  0.09334000  0.45775000  0.41798000  1.0
  O  O253  1  0.90669000  0.95773000  0.08201000  1.0
  O  O254  1  0.90669000  0.54227000  0.58202000  1.0
  O  O255  1  0.09335000  0.04228000  0.91799000  1.0
  O  O256  1  0.94677000  0.32296000  0.25634000  1.0
  O  O257  1  0.05321000  0.82296000  0.24366000  1.0
  O  O258  1  0.05325000  0.67704000  0.74366000  1.0
  O  O259  1  0.94676000  0.17703000  0.75634000  1.0
