# generated using pymatgen
data_ZnPH4C6NO5
_symmetry_space_group_name_H-M   'P 1'
_cell_length_a   5.06908000
_cell_length_b   8.44587000
_cell_length_c   9.68627000
_cell_angle_alpha   90.00080000
_cell_angle_beta   90.00040000
_cell_angle_gamma   91.43350000
_symmetry_Int_Tables_number   1
_chemical_formula_structural   ZnPH4C6NO5
_chemical_formula_sum   'Zn2 P2 H8 C12 N2 O10'
_cell_volume   414.56646420
_cell_formula_units_Z   2
loop_
 _symmetry_equiv_pos_site_id
 _symmetry_equiv_pos_as_xyz
  1  'x, y, z'
loop_
 _atom_site_type_symbol
 _atom_site_label
 _atom_site_symmetry_multiplicity
 _atom_site_fract_x
 _atom_site_fract_y
 _atom_site_fract_z
 _atom_site_occupancy
  Zn  Zn0  1  0.32135000  0.11922000  0.64640000  1.0
  Zn  Zn1  1  0.82136000  0.61922000  0.35360000  1.0
  P  P2  1  0.81549000  0.91666000  0.55468000  1.0
  P  P3  1  0.31549000  0.41666000  0.44532000  1.0
  H  H4  1  0.24093000  0.68599000  0.56950000  1.0
  H  H5  1  0.74093000  0.18599000  0.43051000  1.0
  H  H6  1  0.63001000  0.84977000  0.84393000  1.0
  H  H7  1  0.13003000  0.34976000  0.15607000  1.0
  H  H8  1  0.19844000  0.50630000  0.96907000  1.0
  H  H9  1  0.69849000  0.00631000  0.03093000  1.0
  H  H10  1  0.35017000  0.50517000  0.73588000  1.0
  H  H11  1  0.85020000  0.00518000  0.26412000  1.0
  C  C12  1  0.13270000  0.68737000  0.66666667  1.0
  C  C13  1  0.63271000  0.18738000  0.33333333  1.0
  C  C14  1  0.92028000  0.78391000  0.69144000  1.0
  C  C15  1  0.42031000  0.28392000  0.30856000  1.0
  C  C16  1  0.80034000  0.77720000  0.82172000  1.0
  C  C17  1  0.30036000  0.27720000  0.17828000  1.0
  C  C18  1  0.90080000  0.67981000  0.92519000  1.0
  C  C19  1  0.40085000  0.17981000  0.07481000  1.0
  C  C20  1  0.11394000  0.58573000  0.89443000  1.0
  C  C21  1  0.61398000  0.08574000  0.10557000  1.0
  C  C22  1  0.78071000  0.67513000  0.06805000  1.0
  C  C23  1  0.28073000  0.17513000  0.93195000  1.0
  N  N24  1  0.21683000  0.58906000  0.76633000  1.0
  N  N25  1  0.71686000  0.08906000  0.23368000  1.0
  O  O26  1  0.96648000  0.07410000  0.57682000  1.0
  O  O27  1  0.46649000  0.57409000  0.42318000  1.0
  O  O28  1  0.51831000  0.93806000  0.56985000  1.0
  O  O29  1  0.01831000  0.43806000  0.43014000  1.0
  O  O30  1  0.89406000  0.83908000  0.41666000  1.0
  O  O31  1  0.39404000  0.33909000  0.58335000  1.0
  O  O32  1  0.91049000  0.59328000  0.15704000  1.0
  O  O33  1  0.41053000  0.09328000  0.84295000  1.0
  O  O34  1  0.57532000  0.74910000  0.08992000  1.0
  O  O35  1  0.07535000  0.24908000  0.91008000  1.0
