# generated using pymatgen
data_ZnH9C11(NO)2
_symmetry_space_group_name_H-M   'P 1'
_cell_length_a   7.50864000
_cell_length_b   10.81890000
_cell_length_c   13.98400057
_cell_angle_alpha   105.29689651
_cell_angle_beta   105.57735883
_cell_angle_gamma   89.98840000
_symmetry_Int_Tables_number   1
_chemical_formula_structural   ZnH9C11(NO)2
_chemical_formula_sum   'Zn4 H36 C44 N8 O8'
_cell_volume   1052.44377320
_cell_formula_units_Z   4
loop_
 _symmetry_equiv_pos_site_id
 _symmetry_equiv_pos_as_xyz
  1  'x, y, z'
loop_
 _atom_site_type_symbol
 _atom_site_label
 _atom_site_symmetry_multiplicity
 _atom_site_fract_x
 _atom_site_fract_y
 _atom_site_fract_z
 _atom_site_occupancy
  Zn  Zn0  1  0.62859000  0.27050000  0.57041000  1.0
  Zn  Zn1  1  0.05827000  0.22954000  0.42954000  1.0
  Zn  Zn2  1  0.37141000  0.72950000  0.42959000  1.0
  Zn  Zn3  1  0.94173000  0.77046000  0.57046000  1.0
  H  H4  1  0.35122000  0.33405000  0.27435000  1.0
  H  H5  1  0.07684000  0.16592000  0.72547000  1.0
  H  H6  1  0.64878000  0.66595000  0.72565000  1.0
  H  H7  1  0.92316000  0.83408000  0.27453000  1.0
  H  H8  1  0.27136000  0.35500000  0.09455000  1.0
  H  H9  1  0.17685000  0.14512000  0.90532000  1.0
  H  H10  1  0.72864000  0.64500000  0.90545000  1.0
  H  H11  1  0.82315000  0.85488000  0.09468000  1.0
  H  H12  1  0.78471000  0.09427000  0.21137000  1.0
  H  H13  1  0.57323000  0.40576000  0.78845000  1.0
  H  H14  1  0.21529000  0.90573000  0.78863000  1.0
  H  H15  1  0.42677000  0.59424000  0.21155000  1.0
  H  H16  1  0.64963000  0.01440000  0.95051000  1.0
  H  H17  1  0.69892000  0.48564000  0.04942000  1.0
  H  H18  1  0.35037000  0.98560000  0.04949000  1.0
  H  H19  1  0.30108000  0.51436000  0.95058000  1.0
  H  H20  1  0.85792000  0.05169000  0.05353000  1.0
  H  H21  1  0.80430000  0.44840000  0.94645000  1.0
  H  H22  1  0.14208000  0.94831000  0.94647000  1.0
  H  H23  1  0.19570000  0.55160000  0.05355000  1.0
  H  H24  1  0.78990000  0.15498000  0.97246000  1.0
  H  H25  1  0.81723000  0.34504000  0.02744000  1.0
  H  H26  1  0.21010000  0.84502000  0.02754000  1.0
  H  H27  1  0.18277000  0.65496000  0.97256000  1.0
  H  H28  1  0.96110000  0.42547000  0.76964000  1.0
  H  H29  1  0.19156000  0.07442000  0.23031000  1.0
  H  H30  1  0.03890000  0.57453000  0.23036000  1.0
  H  H31  1  0.80844000  0.92558000  0.76969000  1.0
  H  H32  1  0.11747000  0.65622000  0.76753000  1.0
  H  H33  1  0.34989000  0.84355000  0.23240000  1.0
  H  H34  1  0.88253000  0.34378000  0.23247000  1.0
  H  H35  1  0.65011000  0.15645000  0.76760000  1.0
  H  H36  1  0.69078000  0.51249000  0.49167000  1.0
  H  H37  1  0.19941000  0.98754000  0.50835000  1.0
  H  H38  1  0.30922000  0.48751000  0.50833000  1.0
  H  H39  1  0.80059000  0.01246000  0.49165000  1.0
  C  C40  1  0.63392000  0.21008000  0.36356000  1.0
  C  C41  1  0.27009000  0.28997000  0.63627000  1.0
  C  C42  1  0.36608000  0.78993000  0.63644000  1.0
  C  C43  1  0.72991000  0.71003000  0.36373000  1.0
  C  C44  1  0.57561000  0.21478000  0.25394000  1.0
  C  C45  1  0.32161000  0.28521000  0.74586000  1.0
  C  C46  1  0.42439000  0.78522000  0.74606000  1.0
  C  C47  1  0.67839000  0.71479000  0.25414000  1.0
  C  C48  1  0.42813000  0.28659000  0.22087000  1.0
  C  C49  1  0.20727000  0.21340000  0.77893000  1.0
  C  C50  1  0.57187000  0.71341000  0.77913000  1.0
  C  C51  1  0.79273000  0.78660000  0.22107000  1.0
  C  C52  1  0.38529000  0.29850000  0.12074000  1.0
  C  C53  1  0.26448000  0.20157000  0.87908000  1.0
  C  C54  1  0.61471000  0.70150000  0.87926000  1.0
  C  C55  1  0.73552000  0.79843000  0.12092000  1.0
  C  C56  1  0.48801000  0.24109000  0.05259000  1.0
  C  C57  1  0.43531000  0.25908000  0.94722000  1.0
  C  C58  1  0.51199000  0.75891000  0.94741000  1.0
  C  C59  1  0.56469000  0.74092000  0.05278000  1.0
  C  C60  1  0.63295000  0.16440000  0.08417000  1.0
  C  C61  1  0.54873000  0.33572000  0.91567000  1.0
  C  C62  1  0.36705000  0.83560000  0.91583000  1.0
  C  C63  1  0.45128000  0.66428000  0.08433000  1.0
  C  C64  1  0.67340000  0.15253000  0.18486000  1.0
  C  C65  1  0.48838000  0.34749000  0.81495000  1.0
  C  C66  1  0.32660000  0.84747000  0.81514000  1.0
  C  C67  1  0.51162000  0.65251000  0.18505000  1.0
  C  C68  1  0.73844000  0.09307000  0.01162000  1.0
  C  C69  1  0.72664000  0.40699000  0.98829000  1.0
  C  C70  1  0.26156000  0.90693000  0.98838000  1.0
  C  C71  1  0.27337000  0.59301000  0.01172000  1.0
  C  C72  1  0.92560000  0.47870000  0.71226000  1.0
  C  C73  1  0.21351000  0.02122000  0.28772000  1.0
  C  C74  1  0.07440000  0.52129000  0.28774000  1.0
  C  C75  1  0.78649000  0.97878000  0.71228000  1.0
  C  C76  1  0.00417000  0.59290000  0.71098000  1.0
  C  C77  1  0.29316000  0.90692000  0.28894000  1.0
  C  C78  1  0.99583000  0.40710000  0.28902000  1.0
  C  C79  1  0.70683000  0.09308000  0.71105000  1.0
  C  C80  1  0.78534000  0.51940000  0.56702000  1.0
  C  C81  1  0.21855000  0.98058000  0.43298000  1.0
  C  C82  1  0.21466000  0.48060000  0.43298000  1.0
  C  C83  1  0.78145000  0.01943000  0.56702000  1.0
  N  N84  1  0.78766000  0.43291000  0.62092000  1.0
  N  N85  1  0.16699000  0.06710000  0.37907000  1.0
  N  N86  1  0.21234000  0.56709000  0.37908000  1.0
  N  N87  1  0.83300000  0.93290000  0.62092000  1.0
  N  N88  1  0.91444000  0.61830000  0.61851000  1.0
  N  N89  1  0.29595000  0.88158000  0.38144000  1.0
  N  N90  1  0.08556000  0.38170000  0.38149000  1.0
  N  N91  1  0.70406000  0.11842000  0.61856000  1.0
  O  O92  1  0.52473000  0.25096000  0.41888000  1.0
  O  O93  1  0.10543000  0.24929000  0.58108000  1.0
  O  O94  1  0.47527000  0.74904000  0.58112000  1.0
  O  O95  1  0.89457000  0.75071000  0.41892000  1.0
  O  O96  1  0.78924000  0.16717000  0.39838000  1.0
  O  O97  1  0.39045000  0.33276000  0.60132000  1.0
  O  O98  1  0.21076000  0.83283000  0.60162000  1.0
  O  O99  1  0.60955000  0.66724000  0.39868000  1.0
