# generated using pymatgen
data_CoH6C3(N2Cl)2
_symmetry_space_group_name_H-M   'P 1'
_cell_length_a   6.63596000
_cell_length_b   7.34219000
_cell_length_c   8.62624000
_cell_angle_alpha   108.24700000
_cell_angle_beta   105.06500000
_cell_angle_gamma   106.67600000
_symmetry_Int_Tables_number   1
_chemical_formula_structural   CoH6C3(N2Cl)2
_chemical_formula_sum   'Co2 H12 C6 N8 Cl4'
_cell_volume   352.98284056
_cell_formula_units_Z   2
loop_
 _symmetry_equiv_pos_site_id
 _symmetry_equiv_pos_as_xyz
  1  'x, y, z'
loop_
 _atom_site_type_symbol
 _atom_site_label
 _atom_site_symmetry_multiplicity
 _atom_site_fract_x
 _atom_site_fract_y
 _atom_site_fract_z
 _atom_site_occupancy
  Co  Co0  1  0.00000000  0.99999000  0.99999000  1.0
  Co  Co1  1  0.49998000  0.99999000  0.99999000  1.0
  H  H2  1  0.44573000  0.67759000  0.44166000  1.0
  H  H3  1  0.55424000  0.32241000  0.55837000  1.0
  H  H4  1  0.38711000  0.67091000  0.22701000  1.0
  H  H5  1  0.61288000  0.32910000  0.77298000  1.0
  H  H6  1  0.42741000  0.45641000  0.26473000  1.0
  H  H7  1  0.57259000  0.54356000  0.73526000  1.0
  H  H8  1  0.92490000  0.77510000  0.50852000  1.0
  H  H9  1  0.07512000  0.22491000  0.49148000  1.0
  H  H10  1  0.07429000  0.88188000  0.38910000  1.0
  H  H11  1  0.92575000  0.11812000  0.61092000  1.0
  H  H12  1  0.21981000  0.81884000  0.55721000  1.0
  H  H13  1  0.78019000  0.18115000  0.44278000  1.0
  C  C14  1  0.11137000  0.47051000  0.25515000  1.0
  C  C15  1  0.88861000  0.52949000  0.74485000  1.0
  C  C16  1  0.35684000  0.57353000  0.29991000  1.0
  C  C17  1  0.64323000  0.42649000  0.70010000  1.0
  C  C18  1  0.05561000  0.77404000  0.45323000  1.0
  C  C19  1  0.94439000  0.22594000  0.54676000  1.0
  N  N20  1  0.98413000  0.56213000  0.32224000  1.0
  N  N21  1  0.01588000  0.43786000  0.67775000  1.0
  N  N22  1  0.76512000  0.42605000  0.25019000  1.0
  N  N23  1  0.23485000  0.57396000  0.74981000  1.0
  N  N24  1  0.75939000  0.25397000  0.14083000  1.0
  N  N25  1  0.24059000  0.74604000  0.85916000  1.0
  N  N26  1  0.96961000  0.27384000  0.14110000  1.0
  N  N27  1  0.03038000  0.72619000  0.85891000  1.0
  Cl  Cl28  1  0.28878000  0.16499000  0.90289000  1.0
  Cl  Cl29  1  0.71121000  0.83502000  0.09712000  1.0
  Cl  Cl30  1  0.32438000  0.04571000  0.23876000  1.0
  Cl  Cl31  1  0.67562000  0.95429000  0.76124000  1.0
