# generated using pymatgen
data_CuH24C40(NO)6
_symmetry_space_group_name_H-M   'P 1'
_cell_length_a   8.90285000
_cell_length_b   9.95641000
_cell_length_c   11.53158218
_cell_angle_alpha   100.76628797
_cell_angle_beta   105.21348411
_cell_angle_gamma   115.90700000
_symmetry_Int_Tables_number   1
_chemical_formula_structural   CuH24C40(NO)6
_chemical_formula_sum   'Cu1 H24 C40 N6 O6'
_cell_volume   831.99114809
_cell_formula_units_Z   1
loop_
 _symmetry_equiv_pos_site_id
 _symmetry_equiv_pos_as_xyz
  1  'x, y, z'
loop_
 _atom_site_type_symbol
 _atom_site_label
 _atom_site_symmetry_multiplicity
 _atom_site_fract_x
 _atom_site_fract_y
 _atom_site_fract_z
 _atom_site_occupancy
  Cu  Cu0  1  0.00000000  0.50000000  0.00000000  1.0
  H  H1  1  0.00009000  0.20664000  0.99692000  1.0
  H  H2  1  0.99990000  0.79336000  0.00308000  1.0
  H  H3  1  0.82985000  0.96191000  0.04987000  1.0
  H  H4  1  0.17015000  0.03809000  0.95013000  1.0
  H  H5  1  0.61546000  0.95380000  0.15236000  1.0
  H  H6  1  0.38454000  0.04619000  0.84764000  1.0
  H  H7  1  0.73343000  0.41524000  0.12751000  1.0
  H  H8  1  0.26658000  0.58477000  0.87250000  1.0
  H  H9  1  0.39609000  0.44433000  0.33378000  1.0
  H  H10  1  0.60390000  0.55567000  0.66622000  1.0
  H  H11  1  0.17735000  0.44875000  0.42954000  1.0
  H  H12  1  0.82264000  0.55124000  0.57045000  1.0
  H  H13  1  0.93116000  0.94106000  0.34899000  1.0
  H  H14  1  0.06884000  0.05894000  0.65101000  1.0
  H  H15  1  0.15013000  0.93847000  0.25617000  1.0
  H  H16  1  0.84987000  0.06153000  0.74383000  1.0
  H  H17  1  0.01073000  0.36907000  0.75592000  1.0
  H  H18  1  0.98927000  0.63093000  0.24408000  1.0
  H  H19  1  0.46711000  0.12357000  0.46828000  1.0
  H  H20  1  0.53290000  0.87644000  0.53172000  1.0
  H  H21  1  0.36800000  0.20217000  0.64238000  1.0
  H  H22  1  0.63201000  0.79784000  0.35762000  1.0
  H  H23  1  0.59615000  0.36127000  0.86473000  1.0
  H  H24  1  0.40385000  0.63874000  0.13527000  1.0
  C  C25  1  0.90018000  0.19412000  0.03859000  1.0
  C  C26  1  0.09981000  0.80587000  0.96140000  1.0
  C  C27  1  0.80886000  0.06196000  0.07039000  1.0
  C  C28  1  0.19114000  0.93805000  0.92961000  1.0
  C  C29  1  0.68795000  0.05705000  0.12738000  1.0
  C  C30  1  0.31205000  0.94295000  0.87263000  1.0
  C  C31  1  0.65968000  0.18620000  0.15089000  1.0
  C  C32  1  0.34032000  0.81380000  0.84911000  1.0
  C  C33  1  0.75470000  0.31461000  0.11363000  1.0
  C  C34  1  0.24531000  0.68539000  0.88638000  1.0
  C  C35  1  0.53492000  0.18828000  0.20452000  1.0
  C  C36  1  0.46509000  0.81172000  0.79549000  1.0
  C  C37  1  0.42036000  0.19014000  0.24302000  1.0
  C  C38  1  0.57964000  0.80986000  0.75698000  1.0
  C  C39  1  0.28925000  0.19142000  0.28966000  1.0
  C  C40  1  0.71075000  0.80858000  0.71034000  1.0
  C  C41  1  0.29387000  0.33518000  0.33764000  1.0
  C  C42  1  0.70613000  0.66481000  0.66235000  1.0
  C  C43  1  0.17181000  0.33739000  0.39083000  1.0
  C  C44  1  0.82818000  0.66260000  0.60916000  1.0
  C  C45  1  0.03995000  0.19599000  0.39678000  1.0
  C  C46  1  0.96005000  0.80399000  0.60321000  1.0
  C  C47  1  0.03294000  0.05180000  0.34670000  1.0
  C  C48  1  0.96706000  0.94820000  0.65330000  1.0
  C  C49  1  0.15555000  0.04995000  0.29402000  1.0
  C  C50  1  0.84445000  0.95005000  0.70598000  1.0
  C  C51  1  0.92077000  0.20179000  0.45544000  1.0
  C  C52  1  0.07923000  0.79820000  0.54456000  1.0
  C  C53  1  0.82510000  0.21293000  0.51098000  1.0
  C  C54  1  0.17490000  0.78706000  0.48902000  1.0
  C  C55  1  0.86783000  0.33270000  0.72745000  1.0
  C  C56  1  0.13217000  0.66729000  0.27255000  1.0
  C  C57  1  0.74832000  0.24393000  0.59842000  1.0
  C  C58  1  0.25167000  0.75607000  0.40158000  1.0
  C  C59  1  0.56387000  0.19346000  0.56668000  1.0
  C  C60  1  0.43613000  0.80654000  0.43332000  1.0
  C  C61  1  0.50867000  0.23579000  0.66266000  1.0
  C  C62  1  0.49133000  0.76420000  0.33733000  1.0
  C  C63  1  0.63563000  0.32553000  0.78803000  1.0
  C  C64  1  0.36437000  0.67447000  0.21197000  1.0
  N  N65  1  0.87105000  0.31715000  0.05896000  1.0
  N  N66  1  0.12894000  0.68285000  0.94104000  1.0
  N  N67  1  0.81200000  0.37132000  0.81870000  1.0
  N  N68  1  0.18801000  0.62869000  0.18131000  1.0
  N  N69  1  0.71987000  0.65733000  0.10435000  1.0
  N  N70  1  0.28013000  0.34267000  0.89565000  1.0
  O  O71  1  0.79821000  0.61595000  0.03838000  1.0
  O  O72  1  0.20179000  0.38405000  0.96162000  1.0
  O  O73  1  0.74497000  0.64621000  0.21487000  1.0
  O  O74  1  0.25503000  0.35379000  0.78513000  1.0
  O  O75  1  0.62044000  0.70912000  0.05864000  1.0
  O  O76  1  0.37957000  0.29090000  0.94137000  1.0
