# generated using pymatgen
data_CuH18C19(NO2)2
_symmetry_space_group_name_H-M   'P 1'
_cell_length_a   9.66057000
_cell_length_b   10.17460000
_cell_length_c   10.81416116
_cell_angle_alpha   64.93238153
_cell_angle_beta   64.04540670
_cell_angle_gamma   88.58870000
_symmetry_Int_Tables_number   1
_chemical_formula_structural   CuH18C19(NO2)2
_chemical_formula_sum   'Cu2 H36 C38 N4 O8'
_cell_volume   848.67850727
_cell_formula_units_Z   2
loop_
 _symmetry_equiv_pos_site_id
 _symmetry_equiv_pos_as_xyz
  1  'x, y, z'
loop_
 _atom_site_type_symbol
 _atom_site_label
 _atom_site_symmetry_multiplicity
 _atom_site_fract_x
 _atom_site_fract_y
 _atom_site_fract_z
 _atom_site_occupancy
  Cu  Cu0  1  0.13765000  0.56090000  0.29467000  1.0
  Cu  Cu1  1  0.86236000  0.43911000  0.70532000  1.0
  H  H2  1  0.30783000  0.87819000  0.02441000  1.0
  H  H3  1  0.69216000  0.12181000  0.97559000  1.0
  H  H4  1  0.58873000  0.99300000  0.82367000  1.0
  H  H5  1  0.41127000  0.00702000  0.17633000  1.0
  H  H6  1  0.79679000  0.83891000  0.82264000  1.0
  H  H7  1  0.20320000  0.16110000  0.17738000  1.0
  H  H8  1  0.86091000  0.58730000  0.94625000  1.0
  H  H9  1  0.13911000  0.41272000  0.05374000  1.0
  H  H10  1  0.76860000  0.32678000  0.14662000  1.0
  H  H11  1  0.23141000  0.67324000  0.85336000  1.0
  H  H12  1  0.53786000  0.11518000  0.37174000  1.0
  H  H13  1  0.46215000  0.88482000  0.62825000  1.0
  H  H14  1  0.24584000  0.03485000  0.55385000  1.0
  H  H15  1  0.75419000  0.96517000  0.44612000  1.0
  H  H16  1  0.07511000  0.22295000  0.53009000  1.0
  H  H17  1  0.92492000  0.77705000  0.46990000  1.0
  H  H18  1  0.86872000  0.93040000  0.18136000  1.0
  H  H19  1  0.13125000  0.06959000  0.81863000  1.0
  H  H20  1  0.86056000  0.89087000  0.03909000  1.0
  H  H21  1  0.13942000  0.10909000  0.96092000  1.0
  H  H22  1  0.70505000  0.63570000  0.24650000  1.0
  H  H23  1  0.29493000  0.36427000  0.75352000  1.0
  H  H24  1  0.71600000  0.67434000  0.38611000  1.0
  H  H25  1  0.28399000  0.32563000  0.61391000  1.0
  H  H26  1  0.55974000  0.83790000  0.18628000  1.0
  H  H27  1  0.44025000  0.16209000  0.81374000  1.0
  H  H28  1  0.57992000  0.89068000  0.31391000  1.0
  H  H29  1  0.42007000  0.10930000  0.68611000  1.0
  H  H30  1  0.41811000  0.64124000  0.53690000  1.0
  H  H31  1  0.58186000  0.35875000  0.46312000  1.0
  H  H32  1  0.39089000  0.59484000  0.40884000  1.0
  H  H33  1  0.60908000  0.40515000  0.59118000  1.0
  H  H34  1  0.29202000  0.86292000  0.46333000  1.0
  H  H35  1  0.70798000  0.13708000  0.53665000  1.0
  H  H36  1  0.26185000  0.80975000  0.33821000  1.0
  H  H37  1  0.73816000  0.19025000  0.66179000  1.0
  C  C38  1  0.40094000  0.81509000  0.02104000  1.0
  C  C39  1  0.59905000  0.18492000  0.97897000  1.0
  C  C40  1  0.55899000  0.87778000  0.90944000  1.0
  C  C41  1  0.44100000  0.12223000  0.09056000  1.0
  C  C42  1  0.67350000  0.79325000  0.90872000  1.0
  C  C43  1  0.32649000  0.20676000  0.09128000  1.0
  C  C44  1  0.62914000  0.64304000  0.02067000  1.0
  C  C45  1  0.37086000  0.35696000  0.97932000  1.0
  C  C46  1  0.73694000  0.54483000  0.03113000  1.0
  C  C47  1  0.26307000  0.45518000  0.96887000  1.0
  C  C48  1  0.68489000  0.40000000  0.14221000  1.0
  C  C49  1  0.31512000  0.60002000  0.85779000  1.0
  C  C50  1  0.52138000  0.34190000  0.24954000  1.0
  C  C51  1  0.47864000  0.65811000  0.75044000  1.0
  C  C52  1  0.45836000  0.19282000  0.36411000  1.0
  C  C53  1  0.54166000  0.80719000  0.63588000  1.0
  C  C54  1  0.29855000  0.14861000  0.46349000  1.0
  C  C55  1  0.70149000  0.85139000  0.53648000  1.0
  C  C56  1  0.20011000  0.25252000  0.44953000  1.0
  C  C57  1  0.79991000  0.74748000  0.55046000  1.0
  C  C58  1  0.41280000  0.43738000  0.24252000  1.0
  C  C59  1  0.58720000  0.56263000  0.75748000  1.0
  C  C60  1  0.46707000  0.58884000  0.12778000  1.0
  C  C61  1  0.53294000  0.41117000  0.87222000  1.0
  C  C62  1  0.00551000  0.77078000  0.13171000  1.0
  C  C63  1  0.99447000  0.22922000  0.86830000  1.0
  C  C64  1  0.86163000  0.84128000  0.15082000  1.0
  C  C65  1  0.13837000  0.15870000  0.84918000  1.0
  C  C66  1  0.71109000  0.72549000  0.27634000  1.0
  C  C67  1  0.28892000  0.27449000  0.72366000  1.0
  C  C68  1  0.56574000  0.79393000  0.29575000  1.0
  C  C69  1  0.43425000  0.20606000  0.70427000  1.0
  C  C70  1  0.41152000  0.68887000  0.42777000  1.0
  C  C71  1  0.58846000  0.31112000  0.57224000  1.0
  C  C72  1  0.27269000  0.76820000  0.44505000  1.0
  C  C73  1  0.72731000  0.23180000  0.55495000  1.0
  C  C74  1  0.11608000  0.66912000  0.57785000  1.0
  C  C75  1  0.88390000  0.33089000  0.42214000  1.0
  N  N76  1  0.35641000  0.67400000  0.12807000  1.0
  N  N77  1  0.64359000  0.32600000  0.87194000  1.0
  N  N78  1  0.25597000  0.39289000  0.34104000  1.0
  N  N79  1  0.74404000  0.60709000  0.65896000  1.0
  O  O80  1  0.03605000  0.73168000  0.24782000  1.0
  O  O81  1  0.96396000  0.26834000  0.75217000  1.0
  O  O82  1  0.08055000  0.75022000  0.01639000  1.0
  O  O83  1  0.91944000  0.24977000  0.98363000  1.0
  O  O84  1  0.04252000  0.69032000  0.69308000  1.0
  O  O85  1  0.95751000  0.30969000  0.30690000  1.0
  O  O86  1  0.07038000  0.56585000  0.55472000  1.0
  O  O87  1  0.92963000  0.43415000  0.44528000  1.0
