# generated using pymatgen
data_Zn4H9C24S4NO13
_symmetry_space_group_name_H-M   'P 1'
_cell_length_a   19.68170000
_cell_length_b   19.68810000
_cell_length_c   33.37310000
_cell_angle_alpha   79.09730000
_cell_angle_beta   79.11240000
_cell_angle_gamma   63.86640000
_symmetry_Int_Tables_number   1
_chemical_formula_structural   Zn4H9C24S4NO13
_chemical_formula_sum   'Zn16 H36 C96 S16 N4 O52'
_cell_volume   11318.27672153
_cell_formula_units_Z   4
loop_
 _symmetry_equiv_pos_site_id
 _symmetry_equiv_pos_as_xyz
  1  'x, y, z'
loop_
 _atom_site_type_symbol
 _atom_site_label
 _atom_site_symmetry_multiplicity
 _atom_site_fract_x
 _atom_site_fract_y
 _atom_site_fract_z
 _atom_site_occupancy
  Zn  Zn0  1  0.60012000  0.94555000  0.52212000  1.0
  Zn  Zn1  1  0.51685000  0.01532000  0.43900000  1.0
  Zn  Zn2  1  0.44108000  0.94057000  0.51741000  1.0
  Zn  Zn3  1  0.44460000  0.09756000  0.52082000  1.0
  Zn  Zn4  1  0.65086000  0.30568000  0.72771000  1.0
  Zn  Zn5  1  0.81060000  0.31032000  0.73391000  1.0
  Zn  Zn6  1  0.73271000  0.23218000  0.80899000  1.0
  Zn  Zn7  1  0.80483000  0.15104000  0.72751000  1.0
  Zn  Zn8  1  0.23462000  0.73270000  0.31043000  1.0
  Zn  Zn9  1  0.30460000  0.65103000  0.22763000  1.0
  Zn  Zn10  1  0.15351000  0.80588000  0.22885000  1.0
  Zn  Zn11  1  0.31165000  0.81027000  0.23357000  1.0
  Zn  Zn12  1  0.93976000  0.43990000  0.01648000  1.0
  Zn  Zn13  1  0.94527000  0.59841000  0.02188000  1.0
  Zn  Zn14  1  0.09880000  0.44544000  0.02207000  1.0
  Zn  Zn15  1  0.01615000  0.51622000  0.93948000  1.0
  H  H16  1  0.75063000  0.04483000  0.64876000  1.0
  H  H17  1  0.54772000  0.25424000  0.64925000  1.0
  H  H18  1  0.69817000  0.99987000  0.60145000  1.0
  H  H19  1  0.40256000  0.90415000  0.30024000  1.0
  H  H20  1  0.30019000  0.79651000  0.40145000  1.0
  H  H21  1  0.44710000  0.95176000  0.35019000  1.0
  H  H22  1  0.48948000  0.71473000  0.59092000  1.0
  H  H23  1  0.76136000  0.53561000  0.65898000  1.0
  H  H24  1  0.45378000  0.22793000  0.35145000  1.0
  H  H25  1  0.29659000  0.52108000  0.39821000  1.0
  H  H26  1  0.72914000  0.95326000  0.35132000  1.0
  H  H27  1  0.02225000  0.79591000  0.39831000  1.0
  H  H28  1  0.22010000  0.19967000  0.59700000  1.0
  H  H29  1  0.02932000  0.05069000  0.65281000  1.0
  H  H30  1  0.95025000  0.44877000  0.84650000  1.0
  H  H31  1  0.84658000  0.35055000  0.95177000  1.0
  H  H32  1  0.90197000  0.39715000  0.80050000  1.0
  H  H33  1  0.52147000  0.29676000  0.89831000  1.0
  H  H34  1  0.22801000  0.45341000  0.85174000  1.0
  H  H35  1  0.89205000  0.91258000  0.78966000  1.0
  H  H36  1  0.85844000  0.83646000  0.95984000  1.0
  H  H37  1  0.20525000  0.49926000  0.10149000  1.0
  H  H38  1  0.99580000  0.70215000  0.10075000  1.0
  H  H39  1  0.25014000  0.55183000  0.14871000  1.0
  H  H40  1  0.52927000  0.55076000  0.15251000  1.0
  H  H41  1  0.72074000  0.69918000  0.09731000  1.0
  H  H42  1  0.26172000  0.03643000  0.15900000  1.0
  H  H43  1  0.98945000  0.21433000  0.09106000  1.0
  H  H44  1  0.45791000  0.20473000  0.58089000  1.0
  H  H45  1  0.45231000  0.27466000  0.60906000  1.0
  H  H46  1  0.35673000  0.85778000  0.48065000  1.0
  H  H47  1  0.31131000  0.80496000  0.46940000  1.0
  H  H48  1  0.76940000  0.26935000  0.89293000  1.0
  H  H49  1  0.77684000  0.28455000  0.94205000  1.0
  H  H50  1  0.04538000  0.79219000  0.16899000  1.0
  H  H51  1  0.97545000  0.79785000  0.14076000  1.0
  C  C52  1  0.68440000  0.93866000  0.43819000  1.0
  C  C53  1  0.42833000  0.93120000  0.43102000  1.0
  C  C54  1  0.56172000  0.81584000  0.56116000  1.0
  C  C55  1  0.31582000  0.06183000  0.56147000  1.0
  C  C56  1  0.56771000  0.07019000  0.57033000  1.0
  C  C57  1  0.43923000  0.18349000  0.43826000  1.0
  C  C58  1  0.68883000  0.43452000  0.68887000  1.0
  C  C59  1  0.82030000  0.31713000  0.82028000  1.0
  C  C60  1  0.56581000  0.31150000  0.81142000  1.0
  C  C61  1  0.81042000  0.06502000  0.81067000  1.0
  C  C62  1  0.68064000  0.18114000  0.67980000  1.0
  C  C63  1  0.93407000  0.18824000  0.68869000  1.0
  C  C64  1  0.31094000  0.56569000  0.31143000  1.0
  C  C65  1  0.17993000  0.68260000  0.17964000  1.0
  C  C66  1  0.06698000  0.81065000  0.31155000  1.0
  C  C67  1  0.18946000  0.93525000  0.18945000  1.0
  C  C68  1  0.32101000  0.81840000  0.31967000  1.0
  C  C69  1  0.43412000  0.68838000  0.18842000  1.0
  C  C70  1  0.81606000  0.56167000  0.06142000  1.0
  C  C71  1  0.06900000  0.56918000  0.07016000  1.0
  C  C72  1  0.06124000  0.31589000  0.06104000  1.0
  C  C73  1  0.18373000  0.43868000  0.93856000  1.0
  C  C74  1  0.92923000  0.43146000  0.93034000  1.0
  C  C75  1  0.93901000  0.68406000  0.93880000  1.0
  C  C76  1  0.59380000  0.10075000  0.59854000  1.0
  C  C77  1  0.65134000  0.15264000  0.65142000  1.0
  C  C78  1  0.54927000  0.17432000  0.61202000  1.0
  C  C79  1  0.69507000  0.08005000  0.63830000  1.0
  C  C80  1  0.58029000  0.19846000  0.63847000  1.0
  C  C81  1  0.66582000  0.05557000  0.61225000  1.0
  C  C82  1  0.39922000  0.90160000  0.40384000  1.0
  C  C83  1  0.34884000  0.84737000  0.34855000  1.0
  C  C84  1  0.35679000  0.85700000  0.41935000  1.0
  C  C85  1  0.39043000  0.89148000  0.33326000  1.0
  C  C86  1  0.33264000  0.83063000  0.39057000  1.0
  C  C87  1  0.41477000  0.91759000  0.36095000  1.0
  C  C88  1  0.54652000  0.69686000  0.59879000  1.0
  C  C89  1  0.70436000  0.55344000  0.65106000  1.0
  C  C90  1  0.58709000  0.74102000  0.58610000  1.0
  C  C91  1  0.66381000  0.50930000  0.66378000  1.0
  C  C92  1  0.66175000  0.62174000  0.62742000  1.0
  C  C93  1  0.58906000  0.62860000  0.62245000  1.0
  C  C94  1  0.42460000  0.27317000  0.37110000  1.0
  C  C95  1  0.32602000  0.47586000  0.37855000  1.0
  C  C96  1  0.41428000  0.25849000  0.41350000  1.0
  C  C97  1  0.33638000  0.49052000  0.33613000  1.0
  C  C98  1  0.35816000  0.39680000  0.39135000  1.0
  C  C99  1  0.39261000  0.35225000  0.35832000  1.0
  C  C100  1  0.77431000  0.92387000  0.37103000  1.0
  C  C101  1  0.97705000  0.82522000  0.37861000  1.0
  C  C102  1  0.75955000  0.91343000  0.41343000  1.0
  C  C103  1  0.99185000  0.83562000  0.33622000  1.0
  C  C104  1  0.89794000  0.85724000  0.39135000  1.0
  C  C105  1  0.85342000  0.89179000  0.35829000  1.0
  C  C106  1  0.19964000  0.15533000  0.60207000  1.0
  C  C107  1  0.05008000  0.09481000  0.64789000  1.0
  C  C108  1  0.24102000  0.08632000  0.58639000  1.0
  C  C109  1  0.00893000  0.16374000  0.66367000  1.0
  C  C110  1  0.11963000  0.09154000  0.62555000  1.0
  C  C111  1  0.13027000  0.15844000  0.62456000  1.0
  C  C112  1  0.84723000  0.34473000  0.84961000  1.0
  C  C113  1  0.90065000  0.40215000  0.90193000  1.0
  C  C114  1  0.83066000  0.33057000  0.89320000  1.0
  C  C115  1  0.91706000  0.41602000  0.85900000  1.0
  C  C116  1  0.85832000  0.36052000  0.91845000  1.0
  C  C117  1  0.89028000  0.38736000  0.83379000  1.0
  C  C118  1  0.47621000  0.32612000  0.87865000  1.0
  C  C119  1  0.27335000  0.42411000  0.87136000  1.0
  C  C120  1  0.49081000  0.33666000  0.83623000  1.0
  C  C121  1  0.25883000  0.41357000  0.91376000  1.0
  C  C122  1  0.35244000  0.39232000  0.85852000  1.0
  C  C123  1  0.39714000  0.35789000  0.89151000  1.0
  C  C124  1  0.87545000  0.91955000  0.82212000  1.0
  C  C125  1  0.87509000  0.82957000  0.92738000  1.0
  C  C126  1  0.83585000  0.99045000  0.83589000  1.0
  C  C127  1  0.91436000  0.75870000  0.91357000  1.0
  C  C128  1  0.86088000  0.88820000  0.89415000  1.0
  C  C129  1  0.88981000  0.86093000  0.85536000  1.0
  C  C130  1  0.14933000  0.65630000  0.15151000  1.0
  C  C131  1  0.09743000  0.59852000  0.09862000  1.0
  C  C132  1  0.07571000  0.70069000  0.13800000  1.0
  C  C133  1  0.16998000  0.55486000  0.11186000  1.0
  C  C134  1  0.05161000  0.66959000  0.11154000  1.0
  C  C135  1  0.19444000  0.58423000  0.13788000  1.0
  C  C136  1  0.55011000  0.59481000  0.14766000  1.0
  C  C137  1  0.70005000  0.65502000  0.10223000  1.0
  C  C138  1  0.50899000  0.66367000  0.16350000  1.0
  C  C139  1  0.74122000  0.58617000  0.08638000  1.0
  C  C140  1  0.63054000  0.65823000  0.12460000  1.0
  C  C141  1  0.61973000  0.59149000  0.12540000  1.0
  C  C142  1  0.20469000  0.05401000  0.15120000  1.0
  C  C143  1  0.04649000  0.19669000  0.09888000  1.0
  C  C144  1  0.16425000  0.00980000  0.16422000  1.0
  C  C145  1  0.08682000  0.24103000  0.08603000  1.0
  C  C146  1  0.08929000  0.12860000  0.12260000  1.0
  C  C147  1  0.16194000  0.12205000  0.12742000  1.0
  S  S148  1  0.67679000  0.70002000  0.60279000  1.0
  S  S149  1  0.57399000  0.55038000  0.64716000  1.0
  S  S150  1  0.36578000  0.34036000  0.43802000  1.0
  S  S151  1  0.38501000  0.40867000  0.31166000  1.0
  S  S152  1  0.84141000  0.86476000  0.43798000  1.0
  S  S153  1  0.90998000  0.88424000  0.31166000  1.0
  S  S154  1  0.19597000  0.02505000  0.59883000  1.0
  S  S155  1  0.05417000  0.22479000  0.65148000  1.0
  S  S156  1  0.40875000  0.38506000  0.81182000  1.0
  S  S157  1  0.34082000  0.36519000  0.93821000  1.0
  S  S158  1  0.81597000  0.98631000  0.88913000  1.0
  S  S159  1  0.93428000  0.76282000  0.86034000  1.0
  S  S160  1  0.55443000  0.72459000  0.15149000  1.0
  S  S161  1  0.69590000  0.52515000  0.09850000  1.0
  S  S162  1  0.07441000  0.05047000  0.14765000  1.0
  S  S163  1  0.17664000  0.20039000  0.10256000  1.0
  N  N164  1  0.47883000  0.22141000  0.60088000  1.0
  N  N165  1  0.33868000  0.83921000  0.46015000  1.0
  N  N166  1  0.79016000  0.28958000  0.91124000  1.0
  N  N167  1  0.02856000  0.77102000  0.14918000  1.0
  O  O168  1  0.50184000  0.99937000  0.49944000  1.0
  O  O169  1  0.68456000  0.92259000  0.47720000  1.0
  O  O170  1  0.46822000  0.96807000  0.41432000  1.0
  O  O171  1  0.49558000  0.84256000  0.54941000  1.0
  O  O172  1  0.62622000  0.97411000  0.41859000  1.0
  O  O173  1  0.60813000  0.84739000  0.55352000  1.0
  O  O174  1  0.41188000  0.91797000  0.47018000  1.0
  O  O175  1  0.34497000  0.99404000  0.55153000  1.0
  O  O176  1  0.50088000  0.11135000  0.55886000  1.0
  O  O177  1  0.34515000  0.11000000  0.55191000  1.0
  O  O178  1  0.61260000  0.00497000  0.55876000  1.0
  O  O179  1  0.47383000  0.12510000  0.41887000  1.0
  O  O180  1  0.42359000  0.18394000  0.47732000  1.0
  O  O181  1  0.75006000  0.25000000  0.74908000  1.0
  O  O182  1  0.64112000  0.40438000  0.69702000  1.0
  O  O183  1  0.83581000  0.33481000  0.78183000  1.0
  O  O184  1  0.62420000  0.27688000  0.83096000  1.0
  O  O185  1  0.75530000  0.40665000  0.70016000  1.0
  O  O186  1  0.56577000  0.32657000  0.77239000  1.0
  O  O187  1  0.78239000  0.27677000  0.83517000  1.0
  O  O188  1  0.77340000  0.12336000  0.83023000  1.0
  O  O189  1  0.74635000  0.13707000  0.69085000  1.0
  O  O190  1  0.82731000  0.06510000  0.77179000  1.0
  O  O191  1  0.63766000  0.24713000  0.69078000  1.0
  O  O192  1  0.90664000  0.25468000  0.70016000  1.0
  O  O193  1  0.90359000  0.14105000  0.69660000  1.0
  O  O194  1  0.25194000  0.74936000  0.25021000  1.0
  O  O195  1  0.27501000  0.62363000  0.33117000  1.0
  O  O196  1  0.24533000  0.63787000  0.19109000  1.0
  O  O197  1  0.06696000  0.82590000  0.27250000  1.0
  O  O198  1  0.32721000  0.56592000  0.27243000  1.0
  O  O199  1  0.12522000  0.77624000  0.33113000  1.0
  O  O200  1  0.13876000  0.74935000  0.19118000  1.0
  O  O201  1  0.14172000  0.90508000  0.19811000  1.0
  O  O202  1  0.33703000  0.83535000  0.28129000  1.0
  O  O203  1  0.25618000  0.90726000  0.20043000  1.0
  O  O204  1  0.28328000  0.77915000  0.33572000  1.0
  O  O205  1  0.40319000  0.64158000  0.19643000  1.0
  O  O206  1  0.40706000  0.75492000  0.19977000  1.0
  O  O207  1  0.00020000  0.49997000  0.99988000  1.0
  O  O208  1  0.84394000  0.49478000  0.05044000  1.0
  O  O209  1  0.00298000  0.61223000  0.05912000  1.0
  O  O210  1  0.10809000  0.34696000  0.05317000  1.0
  O  O211  1  0.84628000  0.60910000  0.05299000  1.0
  O  O212  1  0.99494000  0.34295000  0.04957000  1.0
  O  O213  1  0.11295000  0.50357000  0.05903000  1.0
  O  O214  1  0.18398000  0.42333000  0.97758000  1.0
  O  O215  1  0.96780000  0.46962000  0.91383000  1.0
  O  O216  1  0.12550000  0.47330000  0.91899000  1.0
  O  O217  1  0.91301000  0.41582000  0.96890000  1.0
  O  O218  1  0.92287000  0.68436000  0.97771000  1.0
  O  O219  1  0.97435000  0.62568000  0.91926000  1.0
