# generated using pymatgen
data_Cu2H36C29S3(IN)2
_symmetry_space_group_name_H-M   'P 1'
_cell_length_a   10.61250000
_cell_length_b   13.06320000
_cell_length_c   14.11380000
_cell_angle_alpha   84.12880000
_cell_angle_beta   68.22890000
_cell_angle_gamma   73.64960000
_symmetry_Int_Tables_number   1
_chemical_formula_structural   Cu2H36C29S3(IN)2
_chemical_formula_sum   'Cu4 H72 C58 S6 I4 N4'
_cell_volume   1743.58886525
_cell_formula_units_Z   2
loop_
 _symmetry_equiv_pos_site_id
 _symmetry_equiv_pos_as_xyz
  1  'x, y, z'
loop_
 _atom_site_type_symbol
 _atom_site_label
 _atom_site_symmetry_multiplicity
 _atom_site_fract_x
 _atom_site_fract_y
 _atom_site_fract_z
 _atom_site_occupancy
  Cu  Cu0  1  0.54692000  0.95390000  0.06942000  1.0
  Cu  Cu1  1  0.45308000  0.04610000  0.93058000  1.0
  Cu  Cu2  1  0.56410000  0.51249000  0.39843000  1.0
  Cu  Cu3  1  0.43590000  0.48751000  0.60157000  1.0
  H  H4  1  0.73516000  0.72363000  0.04960000  1.0
  H  H5  1  0.26484000  0.27637000  0.95040000  1.0
  H  H6  1  0.84619000  0.70218000  0.12445000  1.0
  H  H7  1  0.15381000  0.29782000  0.87555000  1.0
  H  H8  1  0.43428000  0.70465000  0.27033000  1.0
  H  H9  1  0.56572000  0.29535000  0.72967000  1.0
  H  H10  1  0.50951000  0.70177000  0.13262000  1.0
  H  H11  1  0.49049000  0.29823000  0.86738000  1.0
  H  H12  1  0.54267000  0.75802000  0.36503000  1.0
  H  H13  1  0.45733000  0.24198000  0.63497000  1.0
  H  H14  1  0.70941000  0.78828000  0.30284000  1.0
  H  H15  1  0.29059000  0.21172000  0.69716000  1.0
  H  H16  1  0.26303000  0.81923000  0.94141000  1.0
  H  H17  1  0.73697000  0.18077000  0.05859000  1.0
  H  H18  1  0.03714000  0.88064000  0.73489000  1.0
  H  H19  1  0.96286000  0.11936000  0.26511000  1.0
  H  H20  1  0.81141000  0.90815000  0.88315000  1.0
  H  H21  1  0.18859000  0.09185000  0.11685000  1.0
  H  H22  1  0.14955000  0.83238000  0.11689000  1.0
  H  H23  1  0.85045000  0.16762000  0.88311000  1.0
  H  H24  1  0.01216000  0.76699000  0.15755000  1.0
  H  H25  1  0.98784000  0.23302000  0.84245000  1.0
  H  H26  1  0.97038000  0.90707000  0.16684000  1.0
  H  H27  1  0.02962000  0.09294000  0.83315000  1.0
  H  H28  1  0.29113000  0.84899000  0.66666667  1.0
  H  H29  1  0.70887000  0.15100000  0.33333333  1.0
  H  H30  1  0.36248000  0.74253000  0.73479000  1.0
  H  H31  1  0.63751000  0.25747000  0.26522000  1.0
  H  H32  1  0.37186000  0.87258000  0.75063000  1.0
  H  H33  1  0.62815000  0.12741000  0.24936000  1.0
  H  H34  1  0.09104000  0.94623000  0.55125000  1.0
  H  H35  1  0.90896000  0.05377000  0.44875000  1.0
  H  H36  1  0.45046000  0.07543000  0.44052000  1.0
  H  H37  1  0.54954000  0.92457000  0.55948000  1.0
  H  H38  1  0.51509000  0.99976000  0.26875000  1.0
  H  H39  1  0.48491000  0.00025000  0.73124000  1.0
  H  H40  1  0.03639000  0.85316000  0.44602000  1.0
  H  H41  1  0.96361000  0.14684000  0.55398000  1.0
  H  H42  1  0.18747000  0.76836000  0.35917000  1.0
  H  H43  1  0.81253000  0.23164000  0.64083000  1.0
  H  H44  1  0.09488000  0.88454000  0.31324000  1.0
  H  H45  1  0.90512000  0.11545000  0.68676000  1.0
  H  H46  1  0.17332000  0.15429000  0.60540000  1.0
  H  H47  1  0.82668000  0.84571000  0.39460000  1.0
  H  H48  1  0.31200000  0.05934000  0.63238000  1.0
  H  H49  1  0.68800000  0.94066000  0.36762000  1.0
  H  H50  1  0.14413000  0.03414000  0.66951000  1.0
  H  H51  1  0.85587000  0.96585000  0.33049000  1.0
  H  H52  1  0.07093000  0.63667000  0.48777000  1.0
  H  H53  1  0.92908000  0.36334000  0.51223000  1.0
  H  H54  1  0.63235000  0.74944000  0.66946000  1.0
  H  H55  1  0.36765000  0.25056000  0.33054000  1.0
  H  H56  1  0.57045000  0.68760000  0.53592000  1.0
  H  H57  1  0.42955000  0.31240000  0.46408000  1.0
  H  H58  1  0.14808000  0.55918000  0.33125000  1.0
  H  H59  1  0.85192000  0.44082000  0.66875000  1.0
  H  H60  1  0.04155000  0.61786000  0.25686000  1.0
  H  H61  1  0.95846000  0.38214000  0.74313000  1.0
  H  H62  1  0.04042000  0.48905000  0.30852000  1.0
  H  H63  1  0.95959000  0.51096000  0.69148000  1.0
  H  H64  1  0.86457000  0.82803000  0.66562000  1.0
  H  H65  1  0.13544000  0.17197000  0.33438000  1.0
  H  H66  1  0.00895000  0.71279000  0.64968000  1.0
  H  H67  1  0.99106000  0.28721000  0.35032000  1.0
  H  H68  1  0.83905000  0.71629000  0.74324000  1.0
  H  H69  1  0.16095000  0.28371000  0.25676000  1.0
  H  H70  1  0.37801000  0.37456000  0.17289000  1.0
  H  H71  1  0.62199000  0.62544000  0.82712000  1.0
  H  H72  1  0.51712000  0.41789000  0.07767000  1.0
  H  H73  1  0.48287000  0.58211000  0.92234000  1.0
  H  H74  1  0.35095000  0.51238000  0.13750000  1.0
  H  H75  1  0.64905000  0.48762000  0.86250000  1.0
  C  C76  1  0.74482000  0.74681000  0.11864000  1.0
  C  C77  1  0.25518000  0.25319000  0.88136000  1.0
  C  C78  1  0.49774000  0.74043000  0.20209000  1.0
  C  C79  1  0.50225000  0.25957000  0.79790000  1.0
  C  C80  1  0.64577000  0.73477000  0.30375000  1.0
  C  C81  1  0.35423000  0.26523000  0.69625000  1.0
  C  C82  1  0.91115000  0.87568000  0.99481000  1.0
  C  C83  1  0.08885000  0.12432000  0.00518000  1.0
  C  C84  1  0.03876000  0.85018000  0.01307000  1.0
  C  C85  1  0.96124000  0.14982000  0.98693000  1.0
  C  C86  1  0.16374000  0.83652000  0.92838000  1.0
  C  C87  1  0.83626000  0.16348000  0.07162000  1.0
  C  C88  1  0.16651000  0.84627000  0.82773000  1.0
  C  C89  1  0.83349000  0.15373000  0.17227000  1.0
  C  C90  1  0.03812000  0.87253000  0.81236000  1.0
  C  C91  1  0.96189000  0.12746000  0.18764000  1.0
  C  C92  1  0.91134000  0.88776000  0.89516000  1.0
  C  C93  1  0.08866000  0.11224000  0.10484000  1.0
  C  C94  1  0.04328000  0.83852000  0.11893000  1.0
  C  C95  1  0.95672000  0.16149000  0.88107000  1.0
  C  C96  1  0.30486000  0.82741000  0.74003000  1.0
  C  C97  1  0.69514000  0.17259000  0.25997000  1.0
  C  C98  1  0.34026000  0.93018000  0.31441000  1.0
  C  C99  1  0.65974000  0.06982000  0.68559000  1.0
  C  C100  1  0.21887000  0.91443000  0.39362000  1.0
  C  C101  1  0.78112000  0.08557000  0.60639000  1.0
  C  C102  1  0.18459000  0.95837000  0.48928000  1.0
  C  C103  1  0.81541000  0.04162000  0.51071000  1.0
  C  C104  1  0.26516000  0.01690000  0.50788000  1.0
  C  C105  1  0.73483000  0.98310000  0.49212000  1.0
  C  C106  1  0.38618000  0.03010000  0.42776000  1.0
  C  C107  1  0.61382000  0.96989000  0.57224000  1.0
  C  C108  1  0.42264000  0.98785000  0.33184000  1.0
  C  C109  1  0.57736000  0.01214000  0.66816000  1.0
  C  C110  1  0.12925000  0.85234000  0.37728000  1.0
  C  C111  1  0.87075000  0.14766000  0.62272000  1.0
  C  C112  1  0.22128000  0.06823000  0.60950000  1.0
  C  C113  1  0.77872000  0.93177000  0.39050000  1.0
  C  C114  1  0.78584000  0.63287000  0.43410000  1.0
  C  C115  1  0.21417000  0.36713000  0.56590000  1.0
  C  C116  1  0.92877000  0.61679000  0.41955000  1.0
  C  C117  1  0.07124000  0.38321000  0.58045000  1.0
  C  C118  1  0.96048000  0.64949000  0.49767000  1.0
  C  C119  1  0.03953000  0.35051000  0.50233000  1.0
  C  C120  1  0.85663000  0.69889000  0.58712000  1.0
  C  C121  1  0.14338000  0.30111000  0.41288000  1.0
  C  C122  1  0.71549000  0.71145000  0.60027000  1.0
  C  C123  1  0.28452000  0.28855000  0.39973000  1.0
  C  C124  1  0.68044000  0.67818000  0.52501000  1.0
  C  C125  1  0.31957000  0.32181000  0.47499000  1.0
  C  C126  1  0.04616000  0.56798000  0.32391000  1.0
  C  C127  1  0.95384000  0.43202000  0.67609000  1.0
  C  C128  1  0.89536000  0.74009000  0.66536000  1.0
  C  C129  1  0.10465000  0.25991000  0.33464000  1.0
  C  C130  1  0.47633000  0.46099000  0.22734000  1.0
  C  C131  1  0.52365000  0.53901000  0.77267000  1.0
  C  C132  1  0.42788000  0.44095000  0.14966000  1.0
  C  C133  1  0.57211000  0.55905000  0.85034000  1.0
  S  S134  1  0.74972000  0.89153000  0.10024000  1.0
  S  S135  1  0.25028000  0.10848000  0.89976000  1.0
  S  S136  1  0.38652000  0.87865000  0.19096000  1.0
  S  S137  1  0.61348000  0.12135000  0.80904000  1.0
  S  S138  1  0.73930000  0.59896000  0.33485000  1.0
  S  S139  1  0.26070000  0.40104000  0.66515000  1.0
  I  I140  1  0.45193000  0.16131000  0.07985000  1.0
  I  I141  1  0.54807000  0.83869000  0.92015000  1.0
  I  I142  1  0.33039000  0.65340000  0.50963000  1.0
  I  I143  1  0.66962000  0.34661000  0.49037000  1.0
  N  N144  1  0.63152000  0.73204000  0.20727000  1.0
  N  N145  1  0.36848000  0.26796000  0.79273000  1.0
  N  N146  1  0.51462000  0.47667000  0.29061000  1.0
  N  N147  1  0.48536000  0.52333000  0.70940000  1.0
