# generated using pymatgen
data_ZnH14C13(NCl)2
_symmetry_space_group_name_H-M   'P 1'
_cell_length_a   5.29403000
_cell_length_b   9.71012000
_cell_length_c   13.16360000
_cell_angle_alpha   89.99700000
_cell_angle_beta   89.99820000
_cell_angle_gamma   91.31730000
_symmetry_Int_Tables_number   1
_chemical_formula_structural   ZnH14C13(NCl)2
_chemical_formula_sum   'Zn2 H28 C26 N4 Cl4'
_cell_volume   676.50479300
_cell_formula_units_Z   2
loop_
 _symmetry_equiv_pos_site_id
 _symmetry_equiv_pos_as_xyz
  1  'x, y, z'
loop_
 _atom_site_type_symbol
 _atom_site_label
 _atom_site_symmetry_multiplicity
 _atom_site_fract_x
 _atom_site_fract_y
 _atom_site_fract_z
 _atom_site_occupancy
  Zn  Zn0  1  0.57587000  0.28821000  0.25000000  1.0
  Zn  Zn1  1  0.42412000  0.71179000  0.75000000  1.0
  H  H2  1  0.03869000  0.42314000  0.34869000  1.0
  H  H3  1  0.96125000  0.57688000  0.84871000  1.0
  H  H4  1  0.96130000  0.57687000  0.65131000  1.0
  H  H5  1  0.03871000  0.42313000  0.15129000  1.0
  H  H6  1  0.29266000  0.38918000  0.50479000  1.0
  H  H7  1  0.70729000  0.61083000  0.00481000  1.0
  H  H8  1  0.70734000  0.61083000  0.49521000  1.0
  H  H9  1  0.29269000  0.38917000  0.99519000  1.0
  H  H10  1  0.77556000  0.05837000  0.58770000  1.0
  H  H11  1  0.22444000  0.94161000  0.08769000  1.0
  H  H12  1  0.22444000  0.94163000  0.41229000  1.0
  H  H13  1  0.77556000  0.05838000  0.91231000  1.0
  H  H14  1  0.53781000  0.10612000  0.42613000  1.0
  H  H15  1  0.46221000  0.89386000  0.92611000  1.0
  H  H16  1  0.46220000  0.89388000  0.57387000  1.0
  H  H17  1  0.53779000  0.10614000  0.07388000  1.0
  H  H18  1  0.38818000  0.24362000  0.65132000  1.0
  H  H19  1  0.61182000  0.75637000  0.15134000  1.0
  H  H20  1  0.61183000  0.75638000  0.34868000  1.0
  H  H21  1  0.38818000  0.24364000  0.84867000  1.0
  H  H22  1  0.23394000  0.07942000  0.65931000  1.0
  H  H23  1  0.76605000  0.92058000  0.15931000  1.0
  H  H24  1  0.76607000  0.92059000  0.34069000  1.0
  H  H25  1  0.23397000  0.07942000  0.84070000  1.0
  H  H26  1  0.86917000  0.18976000  0.75000000  1.0
  H  H27  1  0.13084000  0.81024000  0.25000000  1.0
  H  H28  1  0.04181000  0.34784000  0.74999000  1.0
  H  H29  1  0.95820000  0.65216000  0.25001000  1.0
  C  C30  1  0.98406000  0.34358000  0.40339000  1.0
  C  C31  1  0.01591000  0.65642000  0.90340000  1.0
  C  C32  1  0.01593000  0.65642000  0.59662000  1.0
  C  C33  1  0.98407000  0.34357000  0.09660000  1.0
  C  C34  1  0.12596000  0.32386000  0.49089000  1.0
  C  C35  1  0.87400000  0.67614000  0.99090000  1.0
  C  C36  1  0.87403000  0.67614000  0.50911000  1.0
  C  C37  1  0.12598000  0.32386000  0.00910000  1.0
  C  C38  1  0.05635000  0.21940000  0.55928000  1.0
  C  C39  1  0.94366000  0.78060000  0.05929000  1.0
  C  C40  1  0.94366000  0.78061000  0.44072000  1.0
  C  C41  1  0.05635000  0.21940000  0.94071000  1.0
  C  C42  1  0.83842000  0.14039000  0.53628000  1.0
  C  C43  1  0.16157000  0.85959000  0.03627000  1.0
  C  C44  1  0.16158000  0.85961000  0.46372000  1.0
  C  C45  1  0.83843000  0.14039000  0.96372000  1.0
  C  C46  1  0.70647000  0.16565000  0.44767000  1.0
  C  C47  1  0.29352000  0.83433000  0.94767000  1.0
  C  C48  1  0.29353000  0.83435000  0.55233000  1.0
  C  C49  1  0.70648000  0.16565000  0.05233000  1.0
  C  C50  1  0.20256000  0.19095000  0.65411000  1.0
  C  C51  1  0.79744000  0.80904000  0.15412000  1.0
  C  C52  1  0.79745000  0.80905000  0.34589000  1.0
  C  C53  1  0.20258000  0.19096000  0.84589000  1.0
  C  C54  1  0.06137000  0.23546000  0.75000000  1.0
  C  C55  1  0.93865000  0.76454000  0.25000000  1.0
  N  N56  1  0.77846000  0.26503000  0.38135000  1.0
  N  N57  1  0.22152000  0.73497000  0.88135000  1.0
  N  N58  1  0.22154000  0.73497000  0.61865000  1.0
  N  N59  1  0.77847000  0.26503000  0.11865000  1.0
  Cl  Cl60  1  0.29369000  0.10919000  0.25000000  1.0
  Cl  Cl61  1  0.70630000  0.89080000  0.75000000  1.0
  Cl  Cl62  1  0.45079000  0.50791000  0.25000000  1.0
  Cl  Cl63  1  0.54922000  0.49209000  0.75000000  1.0
