# generated using pymatgen
data_Al2P3H6(CO)9
_symmetry_space_group_name_H-M   'P 1'
_cell_length_a   4.99490000
_cell_length_b   8.67317000
_cell_length_c   19.02460000
_cell_angle_alpha   80.00290000
_cell_angle_beta   84.03350000
_cell_angle_gamma   89.07860000
_symmetry_Int_Tables_number   1
_chemical_formula_structural   Al2P3H6(CO)9
_chemical_formula_sum   'Al4 P6 H12 C18 O18'
_cell_volume   807.26405443
_cell_formula_units_Z   2
loop_
 _symmetry_equiv_pos_site_id
 _symmetry_equiv_pos_as_xyz
  1  'x, y, z'
loop_
 _atom_site_type_symbol
 _atom_site_label
 _atom_site_symmetry_multiplicity
 _atom_site_fract_x
 _atom_site_fract_y
 _atom_site_fract_z
 _atom_site_occupancy
  Al  Al0  1  0.12494000  0.88854000  0.75069000  1.0
  Al  Al1  1  0.87506000  0.11146000  0.24931000  1.0
  Al  Al2  1  0.56869000  0.32487000  0.71580000  1.0
  Al  Al3  1  0.43131000  0.67513000  0.28420000  1.0
  P  P4  1  0.36044000  0.31051000  0.30019000  1.0
  P  P5  1  0.63956000  0.68949000  0.69981000  1.0
  P  P6  1  0.11085000  0.21248000  0.64252000  1.0
  P  P7  1  0.88915000  0.78752000  0.35748000  1.0
  P  P8  1  0.58390000  0.02570000  0.82959000  1.0
  P  P9  1  0.41610000  0.97430000  0.17041000  1.0
  H  H10  1  0.82362000  0.11610000  0.53226000  1.0
  H  H11  1  0.17638000  0.88390000  0.46774000  1.0
  H  H12  1  0.64287000  0.40298000  0.41125000  1.0
  H  H13  1  0.35713000  0.59702000  0.58875000  1.0
  H  H14  1  0.76244000  0.79682000  0.94512000  1.0
  H  H15  1  0.23757000  0.20318000  0.05488000  1.0
  H  H16  1  0.31347000  0.22844000  0.92215000  1.0
  H  H17  1  0.68653000  0.77156000  0.07785000  1.0
  H  H18  1  0.55314000  0.36483000  0.54321000  1.0
  H  H19  1  0.44686000  0.63517000  0.45679000  1.0
  H  H20  1  0.91715000  0.15042000  0.40042000  1.0
  H  H21  1  0.08285000  0.84958000  0.59958000  1.0
  C  C22  1  0.41228000  0.31907000  0.51206000  1.0
  C  C23  1  0.58772000  0.68094000  0.48794000  1.0
  C  C24  1  0.18096000  0.23924000  0.54684000  1.0
  C  C25  1  0.81904000  0.76076000  0.45316000  1.0
  C  C26  1  0.00383000  0.17875000  0.50597000  1.0
  C  C27  1  0.99617000  0.82126000  0.49403000  1.0
  C  C28  1  0.05606000  0.19831000  0.43153000  1.0
  C  C29  1  0.94394000  0.80169000  0.56847000  1.0
  C  C30  1  0.28540000  0.28007000  0.39663000  1.0
  C  C31  1  0.71460000  0.71993000  0.60337000  1.0
  C  C32  1  0.46286000  0.34006000  0.43770000  1.0
  C  C33  1  0.53714000  0.65995000  0.56230000  1.0
  C  C34  1  0.54136000  0.01398000  0.92523000  1.0
  C  C35  1  0.45864000  0.98602000  0.07477000  1.0
  C  C36  1  0.64663000  0.88552000  0.96920000  1.0
  C  C37  1  0.35337000  0.11448000  0.03080000  1.0
  C  C38  1  0.39452000  0.12851000  0.95640000  1.0
  C  C39  1  0.60548000  0.87149000  0.04360000  1.0
  O  O40  1  0.65034000  0.25826000  0.28540000  1.0
  O  O41  1  0.34966000  0.74173000  0.71461000  1.0
  O  O42  1  0.15259000  0.22581000  0.26869000  1.0
  O  O43  1  0.84741000  0.77419000  0.73131000  1.0
  O  O44  1  0.34035000  0.48940000  0.27296000  1.0
  O  O45  1  0.65965000  0.51060000  0.72704000  1.0
  O  O46  1  0.18446000  0.04465000  0.67352000  1.0
  O  O47  1  0.81554000  0.95535000  0.32648000  1.0
  O  O48  1  0.27524000  0.33401000  0.67065000  1.0
  O  O49  1  0.72476000  0.66599000  0.32935000  1.0
  O  O50  1  0.52192000  0.19909000  0.79796000  1.0
  O  O51  1  0.47808000  0.80091000  0.20204000  1.0
  O  O52  1  0.87685000  0.98674000  0.80784000  1.0
  O  O53  1  0.12315000  0.01326000  0.19216000  1.0
  O  O54  1  0.37857000  0.91538000  0.81025000  1.0
  O  O55  1  0.62143000  0.08462000  0.18974000  1.0
  O  O56  1  0.80870000  0.24580000  0.65730000  1.0
  O  O57  1  0.19130000  0.75420000  0.34270000  1.0
