# generated using pymatgen
data_Zn3H19C22N2O13
_symmetry_space_group_name_H-M   'P 1'
_cell_length_a   18.65970000
_cell_length_b   18.70490000
_cell_length_c   18.87750000
_cell_angle_alpha   109.41300000
_cell_angle_beta   108.76300000
_cell_angle_gamma   109.74900000
_symmetry_Int_Tables_number   1
_chemical_formula_structural   Zn3H19C22N2O13
_chemical_formula_sum   'Zn6 H38 C44 N4 O26'
_cell_volume   5102.10540435
_cell_formula_units_Z   2
loop_
 _symmetry_equiv_pos_site_id
 _symmetry_equiv_pos_as_xyz
  1  'x, y, z'
loop_
 _atom_site_type_symbol
 _atom_site_label
 _atom_site_symmetry_multiplicity
 _atom_site_fract_x
 _atom_site_fract_y
 _atom_site_fract_z
 _atom_site_occupancy
  Zn  Zn0  1  0.47982000  0.54498000  0.55626000  1.0
  Zn  Zn1  1  0.48440000  0.43210000  0.42812000  1.0
  Zn  Zn2  1  0.05428000  0.98125000  0.56914000  1.0
  Zn  Zn3  1  0.93235000  0.97975000  0.44504000  1.0
  Zn  Zn4  1  0.06182000  0.55705000  0.98905000  1.0
  Zn  Zn5  1  0.93134000  0.44049000  0.99157000  1.0
  H  H6  1  0.65290000  0.79168000  0.40680000  1.0
  H  H7  1  0.27161000  0.50854000  0.31908000  1.0
  H  H8  1  0.07998000  0.13062000  0.33922000  1.0
  H  H9  1  0.21127000  0.19297000  0.52503000  1.0
  H  H10  1  0.24234000  0.33787000  0.52163000  1.0
  H  H11  1  0.69110000  0.40295000  0.80665000  1.0
  H  H12  1  0.82449000  0.51573000  0.77177000  1.0
  H  H13  1  0.68813000  0.41333000  0.61616000  1.0
  H  H14  1  0.91982000  0.64160000  0.15330000  1.0
  H  H15  1  0.63745000  0.82432000  0.55883000  1.0
  H  H16  1  0.07836000  0.78891000  0.37505000  1.0
  H  H17  1  0.16912000  0.40144000  0.86591000  1.0
  H  H18  1  0.98069000  0.26640000  0.80418000  1.0
  H  H19  1  0.17198000  0.25847000  0.79733000  1.0
  H  H20  1  0.98222000  0.20160000  0.67728000  1.0
  H  H21  1  0.81880000  0.70817000  0.48457000  1.0
  H  H22  1  0.63420000  0.62637000  0.38453000  1.0
  H  H23  1  0.22216000  0.47523000  0.10653000  1.0
  H  H24  1  0.11387000  0.40992000  0.18790000  1.0
  H  H25  1  0.31397000  0.41980000  0.18118000  1.0
  H  H26  1  0.29269000  0.25836000  0.35228000  1.0
  H  H27  1  0.23206000  0.11902000  0.23965000  1.0
  H  H28  1  0.12730000  0.09722000  0.22750000  1.0
  H  H29  1  0.19476000  0.07718000  0.30072000  1.0
  H  H30  1  0.59987000  0.45775000  0.78561000  1.0
  H  H31  1  0.16114000  0.78935000  0.19627000  1.0
  H  H32  1  0.20393000  0.92924000  0.28806000  1.0
  H  H33  1  0.15150000  0.89286000  0.34355000  1.0
  H  H34  1  0.09006000  0.89299000  0.25006000  1.0
  H  H35  1  0.88670000  0.80483000  0.28589000  1.0
  H  H36  1  0.79605000  0.76606000  0.14477000  1.0
  H  H37  1  0.78765000  0.66165000  0.11606000  1.0
  H  H38  1  0.86928000  0.74245000  0.11289000  1.0
  H  H39  1  0.88744000  0.94405000  0.68769000  1.0
  H  H40  1  0.77751000  0.72791000  0.68329000  1.0
  H  H41  1  0.91998000  0.74196000  0.73121000  1.0
  H  H42  1  0.93001000  0.84129000  0.73367000  1.0
  H  H43  1  0.92425000  0.75992000  0.64571000  1.0
  C  C44  1  0.37344000  0.47530000  0.35361000  1.0
  C  C45  1  0.77708000  0.73228000  0.50044000  1.0
  C  C46  1  0.67605000  0.68887000  0.44458000  1.0
  C  C47  1  0.66557000  0.70627000  0.52653000  1.0
  C  C48  1  0.21031000  0.45417000  0.15125000  1.0
  C  C49  1  0.13419000  0.43860000  0.15121000  1.0
  C  C50  1  0.27794000  0.44579000  0.20685000  1.0
  C  C51  1  0.30204000  0.47591000  0.29091000  1.0
  C  C52  1  0.14140000  0.17101000  0.40006000  1.0
  C  C53  1  0.14840000  0.15645000  0.46629000  1.0
  C  C54  1  0.21759000  0.23711000  0.40636000  1.0
  C  C55  1  0.60084000  0.63540000  0.52855000  1.0
  C  C56  1  0.26620000  0.32087000  0.47667000  1.0
  C  C57  1  0.71270000  0.43628000  0.77329000  1.0
  C  C58  1  0.79861000  0.47804000  0.79970000  1.0
  C  C59  1  0.64666000  0.43927000  0.70850000  1.0
  C  C60  1  0.64409000  0.43146000  0.63341000  1.0
  C  C61  1  0.01815000  0.86016000  0.42140000  1.0
  C  C62  1  0.85505000  0.88365000  0.50479000  1.0
  C  C63  1  0.03314000  0.11627000  0.64084000  1.0
  C  C64  1  0.07885000  0.08755000  0.46530000  1.0
  C  C65  1  0.03041000  0.40353000  0.88582000  1.0
  C  C66  1  0.58376000  0.44349000  0.57201000  1.0
  C  C67  1  0.07305000  0.45599000  0.09701000  1.0
  C  C68  1  0.03484000  0.64516000  0.11165000  1.0
  C  C69  1  0.86395000  0.48037000  0.87157000  1.0
  C  C70  1  0.97771000  0.70522000  0.20129000  1.0
  C  C71  1  0.04721000  0.72010000  0.18674000  1.0
  C  C72  1  0.96740000  0.76195000  0.26732000  1.0
  C  C73  1  0.02577000  0.80314000  0.35533000  1.0
  C  C74  1  0.11006000  0.33737000  0.82920000  1.0
  C  C75  1  0.03792000  0.33049000  0.83465000  1.0
  C  C76  1  0.11151000  0.26111000  0.77678000  1.0
  C  C77  1  0.34509000  0.38848000  0.49210000  1.0
  C  C78  1  0.04013000  0.19550000  0.70163000  1.0
  C  C79  1  0.67685000  0.79783000  0.54093000  1.0
  C  C80  1  0.68535000  0.77936000  0.45720000  1.0
  C  C81  1  0.78621000  0.82272000  0.51150000  1.0
  C  C82  1  0.77777000  0.84180000  0.59626000  1.0
  C  C83  1  0.76820000  0.74915000  0.58361000  1.0
  C  C84  1  0.19514000  0.12176000  0.27447000  1.0
  C  C85  1  0.14358000  0.88168000  0.27984000  1.0
  C  C86  1  0.83396000  0.73231000  0.14855000  1.0
  C  C87  1  0.89920000  0.77004000  0.69135000  1.0
  N  N88  1  0.23604000  0.21133000  0.34162000  1.0
  N  N89  1  0.12529000  0.79468000  0.22626000  1.0
  N  N90  1  0.89399000  0.76738000  0.23804000  1.0
  N  N91  1  0.80384000  0.72458000  0.64334000  1.0
  O  O92  1  0.39950000  0.52461000  0.43224000  1.0
  O  O93  1  0.95521000  0.87800000  0.40021000  1.0
  O  O94  1  0.93375000  0.91112000  0.55848000  1.0
  O  O95  1  0.83119000  0.90417000  0.44588000  1.0
  O  O96  1  0.08418000  0.08774000  0.66773000  1.0
  O  O97  1  0.97402000  0.08159000  0.56348000  1.0
  O  O98  1  0.10516000  0.06481000  0.52039000  1.0
  O  O99  1  0.99780000  0.05494000  0.41084000  1.0
  O  O100  1  0.08709000  0.48294000  0.91263000  1.0
  O  O101  1  0.96687000  0.38280000  0.90117000  1.0
  O  O102  1  0.10365000  0.51234000  0.07587000  1.0
  O  O103  1  0.40396000  0.42596000  0.32595000  1.0
  O  O104  1  0.99110000  0.41234000  0.07357000  1.0
  O  O105  1  0.08932000  0.66452000  0.08338000  1.0
  O  O106  1  0.97281000  0.56925000  0.08039000  1.0
  O  O107  1  0.94382000  0.53150000  0.89830000  1.0
  O  O108  1  0.83573000  0.43220000  0.90279000  1.0
  O  O109  1  0.57188000  0.65454000  0.58176000  1.0
  O  O110  1  0.57878000  0.55827000  0.47626000  1.0
  O  O111  1  0.55884000  0.49655000  0.60097000  1.0
  O  O112  1  0.56155000  0.40042000  0.49156000  1.0
  O  O113  1  0.38015000  0.46704000  0.55526000  1.0
  O  O114  1  0.37838000  0.36894000  0.44291000  1.0
  O  O115  1  0.07407000  0.89404000  0.50231000  1.0
  O  O116  1  0.58478000  0.44904000  0.72783000  1.0
  O  O117  1  0.82587000  0.92201000  0.67145000  1.0
