# generated using pymatgen
data_ZnH4C6N3O2
_symmetry_space_group_name_H-M   'P 1'
_cell_length_a   13.27450000
_cell_length_b   13.27460000
_cell_length_c   27.66240000
_cell_angle_alpha   90.00010000
_cell_angle_beta   89.99970000
_cell_angle_gamma   89.99890000
_symmetry_Int_Tables_number   1
_chemical_formula_structural   ZnH4C6N3O2
_chemical_formula_sum   'Zn16 H64 C96 N48 O32'
_cell_volume   4874.49323704
_cell_formula_units_Z   16
loop_
 _symmetry_equiv_pos_site_id
 _symmetry_equiv_pos_as_xyz
  1  'x, y, z'
loop_
 _atom_site_type_symbol
 _atom_site_label
 _atom_site_symmetry_multiplicity
 _atom_site_fract_x
 _atom_site_fract_y
 _atom_site_fract_z
 _atom_site_occupancy
  Zn  Zn0  1  0.91877000  0.97631000  0.05507000  1.0
  Zn  Zn1  1  0.47631000  0.08122000  0.05507000  1.0
  Zn  Zn2  1  0.58122000  0.52368000  0.05507000  1.0
  Zn  Zn3  1  0.02368000  0.41877000  0.05507000  1.0
  Zn  Zn4  1  0.41878000  0.02369000  0.44493000  1.0
  Zn  Zn5  1  0.52368000  0.58123000  0.44493000  1.0
  Zn  Zn6  1  0.08122000  0.47631000  0.44493000  1.0
  Zn  Zn7  1  0.97631000  0.91877000  0.44493000  1.0
  Zn  Zn8  1  0.08122000  0.02368000  0.94493000  1.0
  Zn  Zn9  1  0.52368000  0.91878000  0.94493000  1.0
  Zn  Zn10  1  0.41878000  0.47632000  0.94493000  1.0
  Zn  Zn11  1  0.97631000  0.58122000  0.94493000  1.0
  Zn  Zn12  1  0.58122000  0.97632000  0.55507000  1.0
  Zn  Zn13  1  0.47632000  0.41878000  0.55507000  1.0
  Zn  Zn14  1  0.91878000  0.52369000  0.55507000  1.0
  Zn  Zn15  1  0.02368000  0.08122000  0.55507000  1.0
  H  H16  1  0.82327000  0.07471000  0.22131000  1.0
  H  H17  1  0.57470000  0.17672000  0.22131000  1.0
  H  H18  1  0.67674000  0.42530000  0.22131000  1.0
  H  H19  1  0.92530000  0.32330000  0.22131000  1.0
  H  H20  1  0.32328000  0.92531000  0.27869000  1.0
  H  H21  1  0.42531000  0.67672000  0.27869000  1.0
  H  H22  1  0.17674000  0.57470000  0.27868000  1.0
  H  H23  1  0.07470000  0.82329000  0.27868000  1.0
  H  H24  1  0.17673000  0.92531000  0.77868000  1.0
  H  H25  1  0.42530000  0.82327000  0.77868000  1.0
  H  H26  1  0.32329000  0.57470000  0.77869000  1.0
  H  H27  1  0.07470000  0.67671000  0.77869000  1.0
  H  H28  1  0.67670000  0.07470000  0.72131000  1.0
  H  H29  1  0.57470000  0.32326000  0.72132000  1.0
  H  H30  1  0.82327000  0.42530000  0.72132000  1.0
  H  H31  1  0.92530000  0.17673000  0.72131000  1.0
  H  H32  1  0.04498000  0.84854000  0.18959000  1.0
  H  H33  1  0.34853000  0.95503000  0.18959000  1.0
  H  H34  1  0.45502000  0.65147000  0.18959000  1.0
  H  H35  1  0.15149000  0.54498000  0.18958000  1.0
  H  H36  1  0.54498000  0.15148000  0.31041000  1.0
  H  H37  1  0.65149000  0.45502000  0.31042000  1.0
  H  H38  1  0.95503000  0.34854000  0.31041000  1.0
  H  H39  1  0.84851000  0.04498000  0.31042000  1.0
  H  H40  1  0.95502000  0.15147000  0.81041000  1.0
  H  H41  1  0.65146000  0.04498000  0.81041000  1.0
  H  H42  1  0.54498000  0.34851000  0.81042000  1.0
  H  H43  1  0.84852000  0.45502000  0.81042000  1.0
  H  H44  1  0.45502000  0.84851000  0.68958000  1.0
  H  H45  1  0.34854000  0.54498000  0.68959000  1.0
  H  H46  1  0.04498000  0.65146000  0.68959000  1.0
  H  H47  1  0.15148000  0.95503000  0.68958000  1.0
  H  H48  1  0.70423000  0.06121000  0.09559000  1.0
  H  H49  1  0.56121000  0.29576000  0.09559000  1.0
  H  H50  1  0.79576000  0.43879000  0.09559000  1.0
  H  H51  1  0.93878000  0.20423000  0.09559000  1.0
  H  H52  1  0.20424000  0.93879000  0.40441000  1.0
  H  H53  1  0.43878000  0.79577000  0.40441000  1.0
  H  H54  1  0.29577000  0.56122000  0.40441000  1.0
  H  H55  1  0.06122000  0.70423000  0.40441000  1.0
  H  H56  1  0.29577000  0.93879000  0.90441000  1.0
  H  H57  1  0.43879000  0.70423000  0.90441000  1.0
  H  H58  1  0.20423000  0.56121000  0.90441000  1.0
  H  H59  1  0.06121000  0.79577000  0.90441000  1.0
  H  H60  1  0.79577000  0.06121000  0.59559000  1.0
  H  H61  1  0.56122000  0.20424000  0.59559000  1.0
  H  H62  1  0.70423000  0.43879000  0.59559000  1.0
  H  H63  1  0.93879000  0.29577000  0.59559000  1.0
  H  H64  1  0.76546000  0.91043000  0.96489000  1.0
  H  H65  1  0.41044000  0.23454000  0.96489000  1.0
  H  H66  1  0.73453000  0.58956000  0.96489000  1.0
  H  H67  1  0.08955000  0.26546000  0.96489000  1.0
  H  H68  1  0.26546000  0.08956000  0.53511000  1.0
  H  H69  1  0.58955000  0.73454000  0.53512000  1.0
  H  H70  1  0.23453000  0.41045000  0.53512000  1.0
  H  H71  1  0.91045000  0.76546000  0.53511000  1.0
  H  H72  1  0.23452000  0.08956000  0.03511000  1.0
  H  H73  1  0.58956000  0.76546000  0.03511000  1.0
  H  H74  1  0.26547000  0.41044000  0.03511000  1.0
  H  H75  1  0.91044000  0.73454000  0.03511000  1.0
  H  H76  1  0.73453000  0.91045000  0.46489000  1.0
  H  H77  1  0.41045000  0.26547000  0.46489000  1.0
  H  H78  1  0.76547000  0.58956000  0.46489000  1.0
  H  H79  1  0.08955000  0.23453000  0.46488000  1.0
  C  C80  1  0.91675000  0.98131000  0.14784000  1.0
  C  C81  1  0.48132000  0.08324000  0.14785000  1.0
  C  C82  1  0.58325000  0.51869000  0.14785000  1.0
  C  C83  1  0.01870000  0.41676000  0.14784000  1.0
  C  C84  1  0.41675000  0.01870000  0.35215000  1.0
  C  C85  1  0.51870000  0.58325000  0.35216000  1.0
  C  C86  1  0.08326000  0.48132000  0.35215000  1.0
  C  C87  1  0.98131000  0.91675000  0.35215000  1.0
  C  C88  1  0.08325000  0.01869000  0.85215000  1.0
  C  C89  1  0.51868000  0.91674000  0.85215000  1.0
  C  C90  1  0.41675000  0.48131000  0.85215000  1.0
  C  C91  1  0.98130000  0.58326000  0.85215000  1.0
  C  C92  1  0.58324000  0.98131000  0.64784000  1.0
  C  C93  1  0.48132000  0.41674000  0.64785000  1.0
  C  C94  1  0.91675000  0.51868000  0.64785000  1.0
  C  C95  1  0.01869000  0.08325000  0.64785000  1.0
  C  C96  1  0.93286000  0.96346000  0.20051000  1.0
  C  C97  1  0.46346000  0.06712000  0.20051000  1.0
  C  C98  1  0.56714000  0.53654000  0.20051000  1.0
  C  C99  1  0.03655000  0.43289000  0.20050000  1.0
  C  C100  1  0.43288000  0.03655000  0.29949000  1.0
  C  C101  1  0.53655000  0.56712000  0.29950000  1.0
  C  C102  1  0.06714000  0.46347000  0.29949000  1.0
  C  C103  1  0.96346000  0.93289000  0.29949000  1.0
  C  C104  1  0.06713000  0.03655000  0.79949000  1.0
  C  C105  1  0.53654000  0.93287000  0.79949000  1.0
  C  C106  1  0.43288000  0.46345000  0.79949000  1.0
  C  C107  1  0.96345000  0.56712000  0.79950000  1.0
  C  C108  1  0.56711000  0.96345000  0.70051000  1.0
  C  C109  1  0.46347000  0.43286000  0.70051000  1.0
  C  C110  1  0.93287000  0.53654000  0.70051000  1.0
  C  C111  1  0.03654000  0.06713000  0.70051000  1.0
  C  C112  1  0.87755000  0.01939000  0.23439000  1.0
  C  C113  1  0.51940000  0.12244000  0.23439000  1.0
  C  C114  1  0.62245000  0.48061000  0.23439000  1.0
  C  C115  1  0.98061000  0.37757000  0.23438000  1.0
  C  C116  1  0.37756000  0.98060000  0.26562000  1.0
  C  C117  1  0.48061000  0.62244000  0.26562000  1.0
  C  C118  1  0.12245000  0.51940000  0.26561000  1.0
  C  C119  1  0.01940000  0.87756000  0.26561000  1.0
  C  C120  1  0.12244000  0.98061000  0.76561000  1.0
  C  C121  1  0.48061000  0.87755000  0.76561000  1.0
  C  C122  1  0.37757000  0.51940000  0.76562000  1.0
  C  C123  1  0.01940000  0.62244000  0.76562000  1.0
  C  C124  1  0.62242000  0.01940000  0.73438000  1.0
  C  C125  1  0.51940000  0.37755000  0.73439000  1.0
  C  C126  1  0.87756000  0.48061000  0.73439000  1.0
  C  C127  1  0.98060000  0.12244000  0.73438000  1.0
  C  C128  1  0.00330000  0.89191000  0.21639000  1.0
  C  C129  1  0.39191000  0.99670000  0.21639000  1.0
  C  C130  1  0.49670000  0.60809000  0.21640000  1.0
  C  C131  1  0.10811000  0.50330000  0.21639000  1.0
  C  C132  1  0.50330000  0.10810000  0.28361000  1.0
  C  C133  1  0.60811000  0.49670000  0.28361000  1.0
  C  C134  1  0.99670000  0.39192000  0.28361000  1.0
  C  C135  1  0.89190000  0.00331000  0.28360000  1.0
  C  C136  1  0.99670000  0.10810000  0.78361000  1.0
  C  C137  1  0.60808000  0.00331000  0.78361000  1.0
  C  C138  1  0.50330000  0.39189000  0.78361000  1.0
  C  C139  1  0.89190000  0.49670000  0.78361000  1.0
  C  C140  1  0.49669000  0.89190000  0.71639000  1.0
  C  C141  1  0.39192000  0.50330000  0.71639000  1.0
  C  C142  1  0.00331000  0.60808000  0.71639000  1.0
  C  C143  1  0.10810000  0.99670000  0.71639000  1.0
  C  C144  1  0.69577000  0.02524000  0.06057000  1.0
  C  C145  1  0.52524000  0.30422000  0.06057000  1.0
  C  C146  1  0.80422000  0.47476000  0.06057000  1.0
  C  C147  1  0.97475000  0.19577000  0.06057000  1.0
  C  C148  1  0.19577000  0.97476000  0.43943000  1.0
  C  C149  1  0.47476000  0.80423000  0.43943000  1.0
  C  C150  1  0.30422000  0.52525000  0.43943000  1.0
  C  C151  1  0.02525000  0.69577000  0.43943000  1.0
  C  C152  1  0.30422000  0.97475000  0.93943000  1.0
  C  C153  1  0.47476000  0.69578000  0.93943000  1.0
  C  C154  1  0.19578000  0.52524000  0.93943000  1.0
  C  C155  1  0.02525000  0.80422000  0.93943000  1.0
  C  C156  1  0.80422000  0.02524000  0.56057000  1.0
  C  C157  1  0.52524000  0.19578000  0.56057000  1.0
  C  C158  1  0.69578000  0.47476000  0.56057000  1.0
  C  C159  1  0.97476000  0.30423000  0.56057000  1.0
  C  C160  1  0.72688000  0.94840000  0.99431000  1.0
  C  C161  1  0.44840000  0.27312000  0.99431000  1.0
  C  C162  1  0.77312000  0.55159000  0.99431000  1.0
  C  C163  1  0.05159000  0.22688000  0.99431000  1.0
  C  C164  1  0.22688000  0.05159000  0.50569000  1.0
  C  C165  1  0.55158000  0.77312000  0.50569000  1.0
  C  C166  1  0.27312000  0.44841000  0.50569000  1.0
  C  C167  1  0.94841000  0.72688000  0.50569000  1.0
  C  C168  1  0.27311000  0.05158000  0.00569000  1.0
  C  C169  1  0.55158000  0.72688000  0.00569000  1.0
  C  C170  1  0.22688000  0.44841000  0.00569000  1.0
  C  C171  1  0.94841000  0.77312000  0.00569000  1.0
  C  C172  1  0.77312000  0.94841000  0.49431000  1.0
  C  C173  1  0.44841000  0.22689000  0.49431000  1.0
  C  C174  1  0.72688000  0.55160000  0.49431000  1.0
  C  C175  1  0.05159000  0.27312000  0.49431000  1.0
  N  N176  1  0.77168000  0.98245000  0.03510000  1.0
  N  N177  1  0.48245000  0.22831000  0.03511000  1.0
  N  N178  1  0.72831000  0.51755000  0.03510000  1.0
  N  N179  1  0.01754000  0.27168000  0.03510000  1.0
  N  N180  1  0.27168000  0.01755000  0.46489000  1.0
  N  N181  1  0.51753000  0.72832000  0.46490000  1.0
  N  N182  1  0.22831000  0.48245000  0.46490000  1.0
  N  N183  1  0.98246000  0.77168000  0.46490000  1.0
  N  N184  1  0.22831000  0.01754000  0.96490000  1.0
  N  N185  1  0.51754000  0.77169000  0.96490000  1.0
  N  N186  1  0.27169000  0.48245000  0.96490000  1.0
  N  N187  1  0.98245000  0.72831000  0.96489000  1.0
  N  N188  1  0.72831000  0.98245000  0.53510000  1.0
  N  N189  1  0.48246000  0.27169000  0.53510000  1.0
  N  N190  1  0.77169000  0.51755000  0.53510000  1.0
  N  N191  1  0.01754000  0.22832000  0.53510000  1.0
  N  N192  1  0.62857000  0.96811000  0.99424000  1.0
  N  N193  1  0.46812000  0.37142000  0.99424000  1.0
  N  N194  1  0.87142000  0.53188000  0.99424000  1.0
  N  N195  1  0.03187000  0.12857000  0.99424000  1.0
  N  N196  1  0.12857000  0.03188000  0.50576000  1.0
  N  N197  1  0.53187000  0.87143000  0.50576000  1.0
  N  N198  1  0.37143000  0.46813000  0.50576000  1.0
  N  N199  1  0.96813000  0.62857000  0.50576000  1.0
  N  N200  1  0.37142000  0.03187000  0.00576000  1.0
  N  N201  1  0.53187000  0.62858000  0.00576000  1.0
  N  N202  1  0.12857000  0.46812000  0.00576000  1.0
  N  N203  1  0.96812000  0.87142000  0.00576000  1.0
  N  N204  1  0.87142000  0.96813000  0.49424000  1.0
  N  N205  1  0.46812000  0.12858000  0.49424000  1.0
  N  N206  1  0.62857000  0.53188000  0.49424000  1.0
  N  N207  1  0.03187000  0.37143000  0.49424000  1.0
  N  N208  1  0.60872000  0.01728000  0.03687000  1.0
  N  N209  1  0.51729000  0.39127000  0.03687000  1.0
  N  N210  1  0.89127000  0.48271000  0.03687000  1.0
  N  N211  1  0.98271000  0.10873000  0.03687000  1.0
  N  N212  1  0.10873000  0.98271000  0.46313000  1.0
  N  N213  1  0.48271000  0.89128000  0.46313000  1.0
  N  N214  1  0.39127000  0.51729000  0.46313000  1.0
  N  N215  1  0.01729000  0.60872000  0.46313000  1.0
  N  N216  1  0.39127000  0.98271000  0.96313000  1.0
  N  N217  1  0.48271000  0.60873000  0.96313000  1.0
  N  N218  1  0.10873000  0.51728000  0.96313000  1.0
  N  N219  1  0.01729000  0.89127000  0.96313000  1.0
  N  N220  1  0.89127000  0.01729000  0.53687000  1.0
  N  N221  1  0.51729000  0.10873000  0.53687000  1.0
  N  N222  1  0.60873000  0.48272000  0.53687000  1.0
  N  N223  1  0.98271000  0.39127000  0.53687000  1.0
  O  O224  1  0.86681000  0.05598000  0.13311000  1.0
  O  O225  1  0.55598000  0.13318000  0.13311000  1.0
  O  O226  1  0.63319000  0.44403000  0.13311000  1.0
  O  O227  1  0.94403000  0.36682000  0.13310000  1.0
  O  O228  1  0.36682000  0.94404000  0.36690000  1.0
  O  O229  1  0.44403000  0.63319000  0.36690000  1.0
  O  O230  1  0.13319000  0.55598000  0.36689000  1.0
  O  O231  1  0.05597000  0.86682000  0.36689000  1.0
  O  O232  1  0.13318000  0.94402000  0.86689000  1.0
  O  O233  1  0.44402000  0.86681000  0.86690000  1.0
  O  O234  1  0.36682000  0.55598000  0.86689000  1.0
  O  O235  1  0.05597000  0.63319000  0.86690000  1.0
  O  O236  1  0.63318000  0.05597000  0.63310000  1.0
  O  O237  1  0.55599000  0.36680000  0.63311000  1.0
  O  O238  1  0.86681000  0.44402000  0.63311000  1.0
  O  O239  1  0.94402000  0.13318000  0.63310000  1.0
  O  O240  1  0.95687000  0.91704000  0.11776000  1.0
  O  O241  1  0.41705000  0.04311000  0.11777000  1.0
  O  O242  1  0.54312000  0.58296000  0.11777000  1.0
  O  O243  1  0.08297000  0.45688000  0.11776000  1.0
  O  O244  1  0.45689000  0.08297000  0.38224000  1.0
  O  O245  1  0.58297000  0.54312000  0.38224000  1.0
  O  O246  1  0.04313000  0.41704000  0.38223000  1.0
  O  O247  1  0.91704000  0.95687000  0.38224000  1.0
  O  O248  1  0.04312000  0.08295000  0.88223000  1.0
  O  O249  1  0.58296000  0.95687000  0.88224000  1.0
  O  O250  1  0.45688000  0.41704000  0.88224000  1.0
  O  O251  1  0.91704000  0.54312000  0.88224000  1.0
  O  O252  1  0.54312000  0.91703000  0.61776000  1.0
  O  O253  1  0.41705000  0.45687000  0.61777000  1.0
  O  O254  1  0.95688000  0.58295000  0.61777000  1.0
  O  O255  1  0.08296000  0.04313000  0.61776000  1.0
