# generated using pymatgen
data_CuH12C16(N3O)2
_symmetry_space_group_name_H-M   'P 1'
_cell_length_a   7.45135000
_cell_length_b   10.77440000
_cell_length_c   11.63730000
_cell_angle_alpha   64.49470000
_cell_angle_beta   76.56090000
_cell_angle_gamma   88.91700000
_symmetry_Int_Tables_number   1
_chemical_formula_structural   CuH12C16(N3O)2
_chemical_formula_sum   'Cu2 H24 C32 N12 O4'
_cell_volume   816.63247350
_cell_formula_units_Z   2
loop_
 _symmetry_equiv_pos_site_id
 _symmetry_equiv_pos_as_xyz
  1  'x, y, z'
loop_
 _atom_site_type_symbol
 _atom_site_label
 _atom_site_symmetry_multiplicity
 _atom_site_fract_x
 _atom_site_fract_y
 _atom_site_fract_z
 _atom_site_occupancy
  Cu  Cu0  1  0.04113000  0.89805000  0.79951000  1.0
  Cu  Cu1  1  0.95887000  0.10195000  0.20049000  1.0
  H  H2  1  0.20045000  0.16735000  0.39364000  1.0
  H  H3  1  0.79955000  0.83265000  0.60636000  1.0
  H  H4  1  0.26917000  0.68668000  0.77695000  1.0
  H  H5  1  0.73083000  0.31331000  0.22305000  1.0
  H  H6  1  0.43541000  0.62294000  0.59978000  1.0
  H  H7  1  0.56459000  0.37706000  0.40022000  1.0
  H  H8  1  0.45835000  0.79276000  0.36401000  1.0
  H  H9  1  0.54165000  0.20724000  0.63599000  1.0
  H  H10  1  0.33513000  0.02403000  0.31776000  1.0
  H  H11  1  0.66487000  0.97596000  0.68224000  1.0
  H  H12  1  0.20385000  0.37275000  0.40223000  1.0
  H  H13  1  0.79614000  0.62725000  0.59777000  1.0
  H  H14  1  0.16841000  0.50274000  0.53693000  1.0
  H  H15  1  0.83159000  0.49726000  0.46307000  1.0
  H  H16  1  0.09004000  0.36840000  0.78608000  1.0
  H  H17  1  0.90997000  0.63160000  0.21391000  1.0
  H  H18  1  0.04630000  0.11138000  0.88298000  1.0
  H  H19  1  0.95371000  0.88862000  0.11702000  1.0
  H  H20  1  0.65317000  0.49038000  0.02290000  1.0
  H  H21  1  0.34683000  0.50962000  0.97710000  1.0
  H  H22  1  0.87209000  0.44110000  0.96717000  1.0
  H  H23  1  0.12791000  0.55890000  0.03284000  1.0
  H  H24  1  0.69603000  0.46824000  0.87678000  1.0
  H  H25  1  0.30397000  0.53176000  0.12322000  1.0
  C  C26  1  0.28783000  0.75701000  0.67352000  1.0
  C  C27  1  0.71217000  0.24299000  0.32649000  1.0
  C  C28  1  0.37759000  0.72220000  0.57492000  1.0
  C  C29  1  0.62241000  0.27780000  0.42508000  1.0
  C  C30  1  0.39195000  0.81806000  0.44404000  1.0
  C  C31  1  0.60805000  0.18193000  0.55597000  1.0
  C  C32  1  0.32303000  0.94484000  0.41761000  1.0
  C  C33  1  0.67697000  0.05516000  0.58239000  1.0
  C  C34  1  0.23656000  0.97451000  0.52347000  1.0
  C  C35  1  0.76344000  0.02549000  0.47653000  1.0
  C  C36  1  0.14556000  0.17341000  0.57157000  1.0
  C  C37  1  0.85443000  0.82659000  0.42842000  1.0
  C  C38  1  0.16508000  0.31916000  0.50915000  1.0
  C  C39  1  0.83492000  0.68084000  0.49084000  1.0
  C  C40  1  0.14625000  0.39038000  0.58510000  1.0
  C  C41  1  0.85375000  0.60962000  0.41490000  1.0
  C  C42  1  0.10433000  0.31678000  0.72243000  1.0
  C  C43  1  0.89567000  0.68323000  0.27757000  1.0
  C  C44  1  0.08176000  0.17418000  0.77714000  1.0
  C  C45  1  0.91824000  0.82582000  0.22286000  1.0
  C  C46  1  0.66302000  0.86618000  0.97629000  1.0
  C  C47  1  0.33698000  0.13382000  0.02371000  1.0
  C  C48  1  0.48624000  0.80332000  0.04820000  1.0
  C  C49  1  0.51376000  0.19668000  0.95180000  1.0
  C  C50  1  0.34168000  0.83782000  0.98465000  1.0
  C  C51  1  0.65833000  0.16218000  0.01535000  1.0
  C  C52  1  0.45592000  0.70016000  0.17842000  1.0
  C  C53  1  0.54408000  0.29985000  0.82157000  1.0
  C  C54  1  0.82569000  0.65514000  0.85529000  1.0
  C  C55  1  0.17431000  0.34486000  0.14472000  1.0
  C  C56  1  0.75999000  0.50351000  0.93446000  1.0
  C  C57  1  0.24001000  0.49649000  0.06554000  1.0
  N  N58  1  0.21399000  0.87906000  0.64914000  1.0
  N  N59  1  0.78601000  0.12094000  0.35086000  1.0
  N  N60  1  0.17773000  0.10413000  0.49416000  1.0
  N  N61  1  0.82226000  0.89587000  0.50585000  1.0
  N  N62  1  0.10077000  0.10357000  0.70367000  1.0
  N  N63  1  0.89923000  0.89643000  0.29633000  1.0
  N  N64  1  0.81135000  0.92154000  0.91436000  1.0
  N  N65  1  0.18865000  0.07846000  0.08564000  1.0
  N  N66  1  0.22279000  0.86851000  0.92993000  1.0
  N  N67  1  0.77721000  0.13148000  0.07007000  1.0
  N  N68  1  0.43100000  0.61317000  0.28649000  1.0
  N  N69  1  0.56899000  0.38684000  0.71351000  1.0
  O  O70  1  0.96011000  0.69742000  0.88648000  1.0
  O  O71  1  0.03989000  0.30258000  0.11353000  1.0
  O  O72  1  0.74721000  0.73105000  0.76803000  1.0
  O  O73  1  0.25280000  0.26896000  0.23197000  1.0
