# generated using pymatgen
data_CdH13C12N3Cl2
_symmetry_space_group_name_H-M   'P 1'
_cell_length_a   8.89934000
_cell_length_b   9.00119000
_cell_length_c   9.42031000
_cell_angle_alpha   68.06950000
_cell_angle_beta   86.90930000
_cell_angle_gamma   74.85940000
_symmetry_Int_Tables_number   1
_chemical_formula_structural   CdH13C12N3Cl2
_chemical_formula_sum   'Cd2 H26 C24 N6 Cl4'
_cell_volume   674.90379066
_cell_formula_units_Z   2
loop_
 _symmetry_equiv_pos_site_id
 _symmetry_equiv_pos_as_xyz
  1  'x, y, z'
loop_
 _atom_site_type_symbol
 _atom_site_label
 _atom_site_symmetry_multiplicity
 _atom_site_fract_x
 _atom_site_fract_y
 _atom_site_fract_z
 _atom_site_occupancy
  Cd  Cd0  1  0.50000000  0.50000000  0.50000000  1.0
  Cd  Cd1  1  0.50000000  0.50000000  0.00000000  1.0
  H  H2  1  0.62138000  0.23277000  0.27835000  1.0
  H  H3  1  0.37862000  0.76723000  0.72165000  1.0
  H  H4  1  0.17750000  0.55133000  0.78914000  1.0
  H  H5  1  0.82250000  0.44867000  0.21086000  1.0
  H  H6  1  0.96997000  0.40145000  0.80351000  1.0
  H  H7  1  0.03003000  0.59854000  0.19649000  1.0
  H  H8  1  0.98327000  0.13686000  0.02512000  1.0
  H  H9  1  0.01673000  0.86314000  0.97488000  1.0
  H  H10  1  0.19329000  0.03628000  0.23455000  1.0
  H  H11  1  0.80671000  0.96372000  0.76545000  1.0
  H  H12  1  0.36808000  0.27744000  0.31602000  1.0
  H  H13  1  0.63192000  0.72257000  0.68398000  1.0
  H  H14  1  0.42018000  0.06932000  0.32750000  1.0
  H  H15  1  0.57982000  0.93068000  0.67250000  1.0
  H  H16  1  0.74943000  0.14642000  0.07315000  1.0
  H  H17  1  0.25057000  0.85358000  0.92685000  1.0
  H  H18  1  0.58015000  0.09180000  0.04866000  1.0
  H  H19  1  0.41985000  0.90820000  0.95134000  1.0
  H  H20  1  0.51872000  0.83662000  0.23760000  1.0
  H  H21  1  0.48128000  0.16338000  0.76240000  1.0
  H  H22  1  0.83971000  0.50695000  0.58438000  1.0
  H  H23  1  0.16029000  0.49305000  0.41562000  1.0
  H  H24  1  0.01008000  0.70829000  0.52789000  1.0
  H  H25  1  0.98992000  0.29171000  0.47211000  1.0
  H  H26  1  0.91835000  0.98633000  0.32247000  1.0
  H  H27  1  0.08165000  0.01367000  0.67753000  1.0
  C  C28  1  0.28857000  0.24629000  0.12252000  1.0
  C  C29  1  0.71143000  0.75371000  0.87748000  1.0
  C  C30  1  0.17312000  0.43907000  0.88739000  1.0
  C  C31  1  0.82688000  0.56093000  0.11261000  1.0
  C  C32  1  0.06062000  0.35459000  0.89407000  1.0
  C  C33  1  0.93938000  0.64541000  0.10593000  1.0
  C  C34  1  0.06746000  0.20757000  0.01915000  1.0
  C  C35  1  0.93254000  0.79243000  0.98084000  1.0
  C  C36  1  0.18290000  0.15157000  0.13520000  1.0
  C  C37  1  0.81710000  0.84843000  0.86480000  1.0
  C  C38  1  0.40964000  0.19854000  0.24914000  1.0
  C  C39  1  0.59036000  0.80146000  0.75086000  1.0
  C  C40  1  0.65248000  0.10073000  0.13456000  1.0
  C  C41  1  0.34752000  0.89927000  0.86544000  1.0
  C  C42  1  0.71200000  0.93453000  0.26064000  1.0
  C  C43  1  0.28800000  0.06547000  0.73936000  1.0
  C  C44  1  0.62751000  0.81527000  0.29970000  1.0
  C  C45  1  0.37249000  0.18473000  0.70030000  1.0
  C  C46  1  0.80858000  0.62962000  0.49365000  1.0
  C  C47  1  0.19142000  0.37038000  0.50635000  1.0
  C  C48  1  0.90042000  0.74076000  0.46334000  1.0
  C  C49  1  0.09959000  0.25924000  0.53666000  1.0
  C  C50  1  0.85002000  0.89585000  0.34665000  1.0
  C  C51  1  0.14998000  0.10415000  0.65335000  1.0
  N  N52  1  0.28385000  0.38606000  0.99951000  1.0
  N  N53  1  0.71615000  0.61394000  0.00049000  1.0
  N  N54  1  0.55951000  0.22834000  0.19021000  1.0
  N  N55  1  0.44049000  0.77166000  0.80979000  1.0
  N  N56  1  0.67375000  0.66741000  0.41454000  1.0
  N  N57  1  0.32625000  0.33259000  0.58546000  1.0
  Cl  Cl58  1  0.36645000  0.61307000  0.21338000  1.0
  Cl  Cl59  1  0.63355000  0.38693000  0.78662000  1.0
  Cl  Cl60  1  0.28548000  0.75740000  0.52261000  1.0
  Cl  Cl61  1  0.71452000  0.24260000  0.47739000  1.0
