# generated using pymatgen
data_NiH12C18(SN)2
_symmetry_space_group_name_H-M   'P 1'
_cell_length_a   3.64514000
_cell_length_b   12.84970000
_cell_length_c   14.38640000
_cell_angle_alpha   90.00040000
_cell_angle_beta   90.00010000
_cell_angle_gamma   88.15390000
_symmetry_Int_Tables_number   1
_chemical_formula_structural   NiH12C18(SN)2
_chemical_formula_sum   'Ni2 H24 C36 S4 N4'
_cell_volume   673.49419941
_cell_formula_units_Z   2
loop_
 _symmetry_equiv_pos_site_id
 _symmetry_equiv_pos_as_xyz
  1  'x, y, z'
loop_
 _atom_site_type_symbol
 _atom_site_label
 _atom_site_symmetry_multiplicity
 _atom_site_fract_x
 _atom_site_fract_y
 _atom_site_fract_z
 _atom_site_occupancy
  Ni  Ni0  1  0.49999000  0.00000000  0.00000000  1.0
  Ni  Ni1  1  0.49999000  0.50000000  0.49999000  1.0
  H  H2  1  0.29047000  0.01632000  0.79778000  1.0
  H  H3  1  0.70956000  0.48367000  0.29777000  1.0
  H  H4  1  0.70956000  0.98368000  0.20221000  1.0
  H  H5  1  0.29045000  0.51634000  0.70222000  1.0
  H  H6  1  0.26145000  0.89378000  0.66250000  1.0
  H  H7  1  0.73855000  0.60622000  0.16250000  1.0
  H  H8  1  0.73860000  0.10622000  0.33749000  1.0
  H  H9  1  0.26144000  0.39379000  0.83750000  1.0
  H  H10  1  0.49871000  0.71003000  0.68206000  1.0
  H  H11  1  0.50130000  0.78996000  0.18205000  1.0
  H  H12  1  0.50134000  0.28997000  0.31795000  1.0
  H  H13  1  0.49869000  0.21005000  0.81795000  1.0
  H  H14  1  0.81541000  0.57725000  0.78462000  1.0
  H  H15  1  0.18462000  0.92275000  0.28462000  1.0
  H  H16  1  0.18457000  0.42275000  0.21538000  1.0
  H  H17  1  0.81539000  0.07725000  0.71539000  1.0
  H  H18  1  0.13151000  0.53444000  0.93426000  1.0
  H  H19  1  0.86855000  0.96555000  0.43427000  1.0
  H  H20  1  0.86845000  0.46556000  0.06574000  1.0
  H  H21  1  0.13149000  0.03444000  0.56574000  1.0
  H  H22  1  0.20752000  0.67049000  0.05412000  1.0
  H  H23  1  0.79248000  0.82950000  0.55412000  1.0
  H  H24  1  0.79246000  0.32952000  0.94588000  1.0
  H  H25  1  0.20752000  0.17048000  0.44589000  1.0
  C  C26  1  0.41139000  0.93772000  0.80207000  1.0
  C  C27  1  0.58865000  0.56227000  0.30206000  1.0
  C  C28  1  0.58863000  0.06229000  0.19793000  1.0
  C  C29  1  0.41134000  0.43773000  0.69793000  1.0
  C  C30  1  0.39238000  0.86818000  0.72695000  1.0
  C  C31  1  0.60766000  0.63181000  0.22695000  1.0
  C  C32  1  0.60763000  0.13183000  0.27305000  1.0
  C  C33  1  0.39233000  0.36820000  0.77305000  1.0
  C  C34  1  0.52338000  0.76702000  0.73780000  1.0
  C  C35  1  0.47668000  0.73298000  0.23779000  1.0
  C  C36  1  0.47663000  0.23298000  0.26221000  1.0
  C  C37  1  0.52335000  0.26703000  0.76220000  1.0
  C  C38  1  0.69495000  0.73739000  0.82246000  1.0
  C  C39  1  0.30506000  0.76261000  0.32247000  1.0
  C  C40  1  0.30505000  0.26261000  0.17753000  1.0
  C  C41  1  0.69494000  0.23739000  0.67754000  1.0
  C  C42  1  0.84106000  0.63563000  0.83889000  1.0
  C  C43  1  0.15896000  0.86437000  0.33888000  1.0
  C  C44  1  0.15892000  0.36438000  0.16110000  1.0
  C  C45  1  0.84105000  0.13562000  0.66112000  1.0
  C  C46  1  0.01511000  0.61244000  0.92195000  1.0
  C  C47  1  0.98491000  0.88755000  0.42196000  1.0
  C  C48  1  0.98488000  0.38756000  0.07805000  1.0
  C  C49  1  0.01507000  0.11244000  0.57805000  1.0
  C  C50  1  0.05614000  0.68923000  0.99066000  1.0
  C  C51  1  0.94390000  0.81076000  0.49065000  1.0
  C  C52  1  0.94385000  0.31077000  0.00934000  1.0
  C  C53  1  0.05608000  0.18922000  0.50934000  1.0
  C  C54  1  0.91534000  0.79052000  0.97823000  1.0
  C  C55  1  0.08468000  0.70947000  0.47822000  1.0
  C  C56  1  0.08465000  0.20948000  0.02178000  1.0
  C  C57  1  0.91532000  0.29053000  0.52178000  1.0
  C  C58  1  0.72128000  0.81432000  0.89379000  1.0
  C  C59  1  0.27877000  0.68568000  0.39379000  1.0
  C  C60  1  0.27869000  0.18568000  0.10621000  1.0
  C  C61  1  0.72125000  0.31432000  0.60621000  1.0
  S  S62  1  0.98266000  0.88970000  0.05828000  1.0
  S  S63  1  0.01733000  0.61030000  0.55827000  1.0
  S  S64  1  0.01734000  0.11031000  0.94172000  1.0
  S  S65  1  0.98265000  0.38969000  0.44173000  1.0
  N  N66  1  0.56485000  0.91194000  0.88326000  1.0
  N  N67  1  0.43515000  0.58804000  0.38326000  1.0
  N  N68  1  0.43515000  0.08805000  0.11674000  1.0
  N  N69  1  0.56484000  0.41195000  0.61674000  1.0
