# generated using pymatgen
data_ZnH10C20I2N4F
_symmetry_space_group_name_H-M   'P 1'
_cell_length_a   15.27710000
_cell_length_b   15.36840000
_cell_length_c   17.33430000
_cell_angle_alpha   107.33400000
_cell_angle_beta   105.54100000
_cell_angle_gamma   110.83300000
_symmetry_Int_Tables_number   1
_chemical_formula_structural   ZnH10C20I2N4F
_chemical_formula_sum   'Zn4 H40 C80 I8 N16 F4'
_cell_volume   3296.76522111
_cell_formula_units_Z   4
loop_
 _symmetry_equiv_pos_site_id
 _symmetry_equiv_pos_as_xyz
  1  'x, y, z'
loop_
 _atom_site_type_symbol
 _atom_site_label
 _atom_site_symmetry_multiplicity
 _atom_site_fract_x
 _atom_site_fract_y
 _atom_site_fract_z
 _atom_site_occupancy
  Zn  Zn0  1  0.99579000  0.62054000  0.10462000  1.0
  Zn  Zn1  1  0.01759000  0.39016000  0.89284000  1.0
  Zn  Zn2  1  0.15784000  0.64335000  0.00958000  1.0
  Zn  Zn3  1  0.86388000  0.36550000  0.99717000  1.0
  H  H4  1  0.86873000  0.70685000  0.01252000  1.0
  H  H5  1  0.02028000  0.16601000  0.84970000  1.0
  H  H6  1  0.03963000  0.84883000  0.73414000  1.0
  H  H7  1  0.05083000  0.15682000  0.10804000  1.0
  H  H8  1  0.91411000  0.84994000  0.48330000  1.0
  H  H9  1  0.13478000  0.21081000  0.66688000  1.0
  H  H10  1  0.85691000  0.66242000  0.44287000  1.0
  H  H11  1  0.25062000  0.40065000  0.73095000  1.0
  H  H12  1  0.70646000  0.52920000  0.29957000  1.0
  H  H13  1  0.37414000  0.49772000  0.89065000  1.0
  H  H14  1  0.82115000  0.90262000  0.38030000  1.0
  H  H15  1  0.14448000  0.11907000  0.76307000  1.0
  H  H16  1  0.48123000  0.59321000  0.22135000  1.0
  H  H17  1  0.51770000  0.39039000  0.96331000  1.0
  H  H18  1  0.41730000  0.25117000  0.50749000  1.0
  H  H19  1  0.59022000  0.98741000  0.51357000  1.0
  H  H20  1  0.20892000  0.87319000  0.73222000  1.0
  H  H21  1  0.07906000  0.23663000  0.26552000  1.0
  H  H22  1  0.31782000  0.54875000  0.70191000  1.0
  H  H23  1  0.93419000  0.52804000  0.33810000  1.0
  H  H24  1  0.94303000  0.55003000  0.48747000  1.0
  H  H25  1  0.31569000  0.53857000  0.55679000  1.0
  H  H26  1  0.35984000  0.93678000  0.87257000  1.0
  H  H27  1  0.94307000  0.15669000  0.31371000  1.0
  H  H28  1  0.34004000  0.97130000  0.01557000  1.0
  H  H29  1  0.77699000  0.00140000  0.20146000  1.0
  H  H30  1  0.17078000  0.94588000  0.01683000  1.0
  H  H31  1  0.74982000  0.92083000  0.04404000  1.0
  H  H32  1  0.64282000  0.33557000  0.01729000  1.0
  H  H33  1  0.35641000  0.65718000  0.13893000  1.0
  H  H34  1  0.02921000  0.38622000  0.70220000  1.0
  H  H35  1  0.17223000  0.65428000  0.27873000  1.0
  H  H36  1  0.82549000  0.66725000  0.17472000  1.0
  H  H37  1  0.17143000  0.32512000  0.98439000  1.0
  H  H38  1  0.66864000  0.35608000  0.85758000  1.0
  H  H39  1  0.36244000  0.86597000  0.17216000  1.0
  H  H40  1  0.06934000  0.72310000  0.87574000  1.0
  H  H41  1  0.82284000  0.13650000  0.98912000  1.0
  H  H42  1  0.01833000  0.01725000  0.84494000  1.0
  H  H43  1  0.87277000  0.84797000  0.01319000  1.0
  C  C44  1  0.92224000  0.70056000  0.98343000  1.0
  C  C45  1  0.97031000  0.17243000  0.88297000  1.0
  C  C46  1  0.72148000  0.33740000  0.74672000  1.0
  C  C47  1  0.29158000  0.88779000  0.27007000  1.0
  C  C48  1  0.16692000  0.54190000  0.75868000  1.0
  C  C49  1  0.05978000  0.50471000  0.26837000  1.0
  C  C50  1  0.69496000  0.50325000  0.10080000  1.0
  C  C51  1  0.30419000  0.48634000  0.07157000  1.0
  C  C52  1  0.98227000  0.97802000  0.87974000  1.0
  C  C53  1  0.90062000  0.88149000  0.97183000  1.0
  C  C54  1  0.93273000  0.01976000  0.92550000  1.0
  C  C55  1  0.95049000  0.83984000  0.92645000  1.0
  C  C56  1  0.90139000  0.97534000  0.98077000  1.0
  C  C57  1  0.00141000  0.89756000  0.88719000  1.0
  C  C58  1  0.10550000  0.87597000  0.79585000  1.0
  C  C59  1  0.99027000  0.12386000  0.12862000  1.0
  C  C60  1  0.28548000  0.92481000  0.87345000  1.0
  C  C61  1  0.93022000  0.12310000  0.24413000  1.0
  C  C62  1  0.81632000  0.68595000  0.39797000  1.0
  C  C63  1  0.25385000  0.36022000  0.77278000  1.0
  C  C64  1  0.73203000  0.61131000  0.31786000  1.0
  C  C65  1  0.32326000  0.41464000  0.86223000  1.0
  C  C66  1  0.82294000  0.36053000  0.75914000  1.0
  C  C67  1  0.18767000  0.82879000  0.24972000  1.0
  C  C68  1  0.67746000  0.63903000  0.25891000  1.0
  C  C69  1  0.33034000  0.36449000  0.91771000  1.0
  C  C70  1  0.71177000  0.74528000  0.28333000  1.0
  C  C71  1  0.26449000  0.25765000  0.88018000  1.0
  C  C72  1  0.79623000  0.82097000  0.36334000  1.0
  C  C73  1  0.19379000  0.20229000  0.79066000  1.0
  C  C74  1  0.84833000  0.79089000  0.42076000  1.0
  C  C75  1  0.18888000  0.25396000  0.73693000  1.0
  C  C76  1  0.48885000  0.54713000  0.16446000  1.0
  C  C77  1  0.50935000  0.43280000  0.02131000  1.0
  C  C78  1  0.40085000  0.48199000  0.08376000  1.0
  C  C79  1  0.59805000  0.49941000  0.10159000  1.0
  C  C80  1  0.41266000  0.42450000  0.01034000  1.0
  C  C81  1  0.58699000  0.55910000  0.17415000  1.0
  C  C82  1  0.20088000  0.88991000  0.79489000  1.0
  C  C83  1  0.00645000  0.16773000  0.21729000  1.0
  C  C84  1  0.37683000  0.96261000  0.35733000  1.0
  C  C85  1  0.63237000  0.27357000  0.65989000  1.0
  C  C86  1  0.47486000  0.23057000  0.53664000  1.0
  C  C87  1  0.53357000  0.00730000  0.48162000  1.0
  C  C88  1  0.22369000  0.61045000  0.84961000  1.0
  C  C89  1  0.97881000  0.42073000  0.18880000  1.0
  C  C90  1  0.55506000  0.29769000  0.61993000  1.0
  C  C91  1  0.45207000  0.93765000  0.40044000  1.0
  C  C92  1  0.62179000  0.17793000  0.61051000  1.0
  C  C93  1  0.38709000  0.05915000  0.40326000  1.0
  C  C94  1  0.54181000  0.10531000  0.52593000  1.0
  C  C95  1  0.46693000  0.13351000  0.48839000  1.0
  C  C96  1  0.17225000  0.55062000  0.67776000  1.0
  C  C97  1  0.07602000  0.51916000  0.35967000  1.0
  C  C98  1  0.00406000  0.54315000  0.46938000  1.0
  C  C99  1  0.25250000  0.54190000  0.57309000  1.0
  C  C100  1  0.99875000  0.53021000  0.38626000  1.0
  C  C101  1  0.25373000  0.54780000  0.65424000  1.0
  C  C102  1  0.15915000  0.52291000  0.42084000  1.0
  C  C103  1  0.09321000  0.55438000  0.61815000  1.0
  C  C104  1  0.16872000  0.53730000  0.50873000  1.0
  C  C105  1  0.08747000  0.54611000  0.53260000  1.0
  C  C106  1  0.27449000  0.94415000  0.95356000  1.0
  C  C107  1  0.83696000  0.03633000  0.18108000  1.0
  C  C108  1  0.17970000  0.92987000  0.95449000  1.0
  C  C109  1  0.82124000  0.99129000  0.09220000  1.0
  C  C110  1  0.70154000  0.41632000  0.05214000  1.0
  C  C111  1  0.29574000  0.57767000  0.09810000  1.0
  C  C112  1  0.09394000  0.89624000  0.87558000  1.0
  C  C113  1  0.89863000  0.03310000  0.06516000  1.0
  C  C114  1  0.08960000  0.45804000  0.75872000  1.0
  C  C115  1  0.10714000  0.57693000  0.23948000  1.0
  C  C116  1  0.79473000  0.58524000  0.13376000  1.0
  C  C117  1  0.20188000  0.40832000  0.01731000  1.0
  C  C118  1  0.72864000  0.36233000  0.83395000  1.0
  C  C119  1  0.29614000  0.84474000  0.18827000  1.0
  C  C120  1  0.02436000  0.70888000  0.91370000  1.0
  C  C121  1  0.86977000  0.15771000  0.95404000  1.0
  C  C122  1  0.96206000  0.75217000  0.93597000  1.0
  C  C123  1  0.92442000  0.11056000  0.92130000  1.0
  I  I124  1  0.63848000  0.79494000  0.19651000  1.0
  I  I125  1  0.27133000  0.17624000  0.95822000  1.0
  I  I126  1  0.43461000  0.78718000  0.34499000  1.0
  I  I127  1  0.56427000  0.44081000  0.69016000  1.0
  I  I128  1  0.97880000  0.57547000  0.65678000  1.0
  I  I129  1  0.27057000  0.50008000  0.37894000  1.0
  I  I130  1  0.36610000  0.74265000  0.91414000  1.0
  I  I131  1  0.85498000  0.29102000  0.17169000  1.0
  N  N132  1  0.96118000  0.63617000  0.99175000  1.0
  N  N133  1  0.94555000  0.24956000  0.89272000  1.0
  N  N134  1  0.88537000  0.39563000  0.84397000  1.0
  N  N135  1  0.13434000  0.75676000  0.16549000  1.0
  N  N136  1  0.18101000  0.57278000  0.89907000  1.0
  N  N137  1  0.98135000  0.44045000  0.11883000  1.0
  N  N138  1  0.79635000  0.44392000  0.05526000  1.0
  N  N139  1  0.19651000  0.55542000  0.06031000  1.0
  N  N140  1  0.09850000  0.47641000  0.84176000  1.0
  N  N141  1  0.05829000  0.53854000  0.14978000  1.0
  N  N142  1  0.85496000  0.54914000  0.10563000  1.0
  N  N143  1  0.13822000  0.45101000  0.01058000  1.0
  N  N144  1  0.82627000  0.39606000  0.89084000  1.0
  N  N145  1  0.20298000  0.76748000  0.12638000  1.0
  N  N146  1  0.02490000  0.64148000  0.94903000  1.0
  N  N147  1  0.88292000  0.24071000  0.93739000  1.0
  F  F148  1  0.31616000  0.08505000  0.36494000  1.0
  F  F149  1  0.69137000  0.14892000  0.64589000  1.0
  F  F150  1  0.85826000  0.34769000  0.69564000  1.0
  F  F151  1  0.13998000  0.83536000  0.30457000  1.0
