# generated using pymatgen
data_Al2H14C26NO10
_symmetry_space_group_name_H-M   'P 1'
_cell_length_a   6.68350000
_cell_length_b   20.77490000
_cell_length_c   23.74350000
_cell_angle_alpha   89.93670000
_cell_angle_beta   90.06640000
_cell_angle_gamma   89.62830000
_symmetry_Int_Tables_number   1
_chemical_formula_structural   Al2H14C26NO10
_chemical_formula_sum   'Al4 H28 C52 N2 O20'
_cell_volume   3296.68865261
_cell_formula_units_Z   2
loop_
 _symmetry_equiv_pos_site_id
 _symmetry_equiv_pos_as_xyz
  1  'x, y, z'
loop_
 _atom_site_type_symbol
 _atom_site_label
 _atom_site_symmetry_multiplicity
 _atom_site_fract_x
 _atom_site_fract_y
 _atom_site_fract_z
 _atom_site_occupancy
  Al  Al0  1  0.25900000  0.24947000  0.74779000  1.0
  Al  Al1  1  0.73467000  0.74890000  0.24822000  1.0
  Al  Al2  1  0.75856000  0.24923000  0.74716000  1.0
  Al  Al3  1  0.23471000  0.74862000  0.24803000  1.0
  H  H4  1  0.76334000  0.41261000  0.47755000  1.0
  H  H5  1  0.23488000  0.58641000  0.51842000  1.0
  H  H6  1  0.09026000  0.44863000  0.40842000  1.0
  H  H7  1  0.90813000  0.55040000  0.58756000  1.0
  H  H8  1  0.65974000  0.54466000  0.49046000  1.0
  H  H9  1  0.33859000  0.45437000  0.50555000  1.0
  H  H10  1  0.66899000  0.53257000  0.03970000  1.0
  H  H11  1  0.32033000  0.46365000  0.95717000  1.0
  H  H12  1  0.67731000  0.45286000  0.96105000  1.0
  H  H13  1  0.31218000  0.54330000  0.03588000  1.0
  H  H14  1  0.74956000  0.07619000  0.51055000  1.0
  H  H15  1  0.17920000  0.92912000  0.48049000  1.0
  H  H16  1  0.82499000  0.03845000  0.96215000  1.0
  H  H17  1  0.16969000  0.95914000  0.03280000  1.0
  H  H18  1  0.81367000  0.95796000  0.04033000  1.0
  H  H19  1  0.18103000  0.03960000  0.95458000  1.0
  H  H20  1  0.77453000  0.96680000  0.38855000  1.0
  H  H21  1  0.03254000  0.03792000  0.37969000  1.0
  H  H22  1  0.03075000  0.05442000  0.45269000  1.0
  H  H23  1  0.85588000  0.09462000  0.40753000  1.0
  H  H24  1  0.01485000  0.97579000  0.55135000  1.0
  H  H25  1  0.90457000  0.04360000  0.61744000  1.0
  H  H26  1  0.05763000  0.10296000  0.58533000  1.0
  H  H27  1  0.15182000  0.05670000  0.64258000  1.0
  H  H28  1  0.50745000  0.33124000  0.73096000  1.0
  H  H29  1  0.48642000  0.66763000  0.26640000  1.0
  H  H30  1  0.01108000  0.16550000  0.73855000  1.0
  H  H31  1  0.98340000  0.83353000  0.24474000  1.0
  C  C32  1  0.51171000  0.17139000  0.67127000  1.0
  C  C33  1  0.48097000  0.82880000  0.32257000  1.0
  C  C34  1  0.50811000  0.17302000  0.82398000  1.0
  C  C35  1  0.48474000  0.82448000  0.17083000  1.0
  C  C36  1  0.00494000  0.32593000  0.82367000  1.0
  C  C37  1  0.98728000  0.67078000  0.17288000  1.0
  C  C38  1  0.00968000  0.32706000  0.67099000  1.0
  C  C39  1  0.98456000  0.67262000  0.32561000  1.0
  C  C40  1  0.05012000  0.47057000  0.44874000  1.0
  C  C41  1  0.94819000  0.52840000  0.54724000  1.0
  C  C42  1  0.86765000  0.45171000  0.48624000  1.0
  C  C43  1  0.13066000  0.54728000  0.50973000  1.0
  C  C44  1  0.00829000  0.37142000  0.62432000  1.0
  C  C45  1  0.98688000  0.62815000  0.37215000  1.0
  C  C46  1  0.18791000  0.47479000  0.50184000  1.0
  C  C47  1  0.81038000  0.52419000  0.49416000  1.0
  C  C48  1  0.00588000  0.45455000  0.54053000  1.0
  C  C49  1  0.99232000  0.54445000  0.45549000  1.0
  C  C50  1  0.00828000  0.40952000  0.58524000  1.0
  C  C51  1  0.98898000  0.58964000  0.41093000  1.0
  C  C52  1  0.81525000  0.47303000  0.97770000  1.0
  C  C53  1  0.17416000  0.52319000  0.01920000  1.0
  C  C54  1  0.99926000  0.45319000  0.95404000  1.0
  C  C55  1  0.99015000  0.54312000  0.04281000  1.0
  C  C56  1  0.17864000  0.47897000  0.97555000  1.0
  C  C57  1  0.81075000  0.51729000  0.02132000  1.0
  C  C58  1  0.00312000  0.40847000  0.90919000  1.0
  C  C59  1  0.98672000  0.58802000  0.08753000  1.0
  C  C60  1  0.98638000  0.62645000  0.12624000  1.0
  C  C61  1  0.00471000  0.37021000  0.87035000  1.0
  C  C62  1  0.63631000  0.99937000  0.45882000  1.0
  C  C63  1  0.29369000  0.00525000  0.53299000  1.0
  C  C64  1  0.46948000  0.95698000  0.45197000  1.0
  C  C65  1  0.46227000  0.04636000  0.54085000  1.0
  C  C66  1  0.30510000  0.96113000  0.48816000  1.0
  C  C67  1  0.62701000  0.04298000  0.50329000  1.0
  C  C68  1  0.47084000  0.91202000  0.40756000  1.0
  C  C69  1  0.47740000  0.09035000  0.58578000  1.0
  C  C70  1  0.50424000  0.12819000  0.62436000  1.0
  C  C71  1  0.47930000  0.87407000  0.36839000  1.0
  C  C72  1  0.67616000  0.97616000  0.02127000  1.0
  C  C73  1  0.31850000  0.02143000  0.97369000  1.0
  C  C74  1  0.49107000  0.95348000  0.04161000  1.0
  C  C75  1  0.50361000  0.04414000  0.95335000  1.0
  C  C76  1  0.31223000  0.97683000  0.01710000  1.0
  C  C77  1  0.68244000  0.02077000  0.97787000  1.0
  C  C78  1  0.48585000  0.90823000  0.08610000  1.0
  C  C79  1  0.50867000  0.08940000  0.90884000  1.0
  C  C80  1  0.51021000  0.12802000  0.87022000  1.0
  C  C81  1  0.48380000  0.86946000  0.12462000  1.0
  C  C82  1  0.93437000  0.04846000  0.41548000  1.0
  C  C83  1  0.05804000  0.05471000  0.60466000  1.0
  N  N84  1  0.79679000  0.99543000  0.42258000  1.0
  N  N85  1  0.12458000  0.00468000  0.56609000  1.0
  O  O86  1  0.67688000  0.18787000  0.80306000  1.0
  O  O87  1  0.31519000  0.80873000  0.19080000  1.0
  O  O88  1  0.34251000  0.18585000  0.69325000  1.0
  O  O89  1  0.65191000  0.81344000  0.30258000  1.0
  O  O90  1  0.18097000  0.30785000  0.68800000  1.0
  O  O91  1  0.81329000  0.69181000  0.30852000  1.0
  O  O92  1  0.33677000  0.19296000  0.80804000  1.0
  O  O93  1  0.65574000  0.80538000  0.18791000  1.0
  O  O94  1  0.17512000  0.31107000  0.80325000  1.0
  O  O95  1  0.81733000  0.68632000  0.19313000  1.0
  O  O96  1  0.68356000  0.19069000  0.68740000  1.0
  O  O97  1  0.31046000  0.80913000  0.30604000  1.0
  O  O98  1  0.50822000  0.28798000  0.74626000  1.0
  O  O99  1  0.48558000  0.71036000  0.24995000  1.0
  O  O100  1  0.83467000  0.30669000  0.80681000  1.0
  O  O101  1  0.15832000  0.68936000  0.18982000  1.0
  O  O102  1  0.83988000  0.31178000  0.69127000  1.0
  O  O103  1  0.15400000  0.68817000  0.30525000  1.0
  O  O104  1  0.00950000  0.21106000  0.74706000  1.0
  O  O105  1  0.98404000  0.78707000  0.24756000  1.0
