# generated using pymatgen
data_PrH21C24NCl3O8
_symmetry_space_group_name_H-M   'P 1'
_cell_length_a   9.50612000
_cell_length_b   11.79370000
_cell_length_c   14.34330000
_cell_angle_alpha   82.36000000
_cell_angle_beta   78.25210000
_cell_angle_gamma   76.56370000
_symmetry_Int_Tables_number   1
_chemical_formula_structural   PrH21C24NCl3O8
_chemical_formula_sum   'Pr2 H42 C48 N2 Cl6 O16'
_cell_volume   1525.07928617
_cell_formula_units_Z   2
loop_
 _symmetry_equiv_pos_site_id
 _symmetry_equiv_pos_as_xyz
  1  'x, y, z'
loop_
 _atom_site_type_symbol
 _atom_site_label
 _atom_site_symmetry_multiplicity
 _atom_site_fract_x
 _atom_site_fract_y
 _atom_site_fract_z
 _atom_site_occupancy
  Pr  Pr0  1  0.29388000  0.44875000  0.49747000  1.0
  Pr  Pr1  1  0.70612000  0.55126000  0.50252000  1.0
  H  H2  1  0.91545000  0.59523000  0.19658000  1.0
  H  H3  1  0.08455000  0.40477000  0.80342000  1.0
  H  H4  1  0.02307000  0.61067000  0.02253000  1.0
  H  H5  1  0.97692000  0.38932000  0.97747000  1.0
  H  H6  1  0.43018000  0.38999000  0.08281000  1.0
  H  H7  1  0.56980000  0.61001000  0.91719000  1.0
  H  H8  1  0.32334000  0.37823000  0.25736000  1.0
  H  H9  1  0.67665000  0.62178000  0.74264000  1.0
  H  H10  1  0.70700000  0.34383000  0.79660000  1.0
  H  H11  1  0.29300000  0.65617000  0.20340000  1.0
  H  H12  1  0.68297000  0.24366000  0.96221000  1.0
  H  H13  1  0.31704000  0.75634000  0.03779000  1.0
  H  H14  1  0.29294000  0.14218000  0.92351000  1.0
  H  H15  1  0.70707000  0.85781000  0.07648000  1.0
  H  H16  1  0.32023000  0.24186000  0.75700000  1.0
  H  H17  1  0.67978000  0.75814000  0.24300000  1.0
  H  H18  1  0.55777000  0.20193000  0.24928000  1.0
  H  H19  1  0.44223000  0.79806000  0.75071000  1.0
  H  H20  1  0.73203000  0.12007000  0.10715000  1.0
  H  H21  1  0.26798000  0.87993000  0.89285000  1.0
  H  H22  1  0.07101000  0.26534000  0.17654000  1.0
  H  H23  1  0.92899000  0.73466000  0.82347000  1.0
  H  H24  1  0.89438000  0.34624000  0.31828000  1.0
  H  H25  1  0.10560000  0.65376000  0.68173000  1.0
  H  H26  1  0.15852000  0.69074000  0.50640000  1.0
  H  H27  1  0.84148000  0.30926000  0.49360000  1.0
  H  H28  1  0.01452000  0.64190000  0.51451000  1.0
  H  H29  1  0.98548000  0.35811000  0.48549000  1.0
  H  H30  1  0.10503000  0.28276000  0.67735000  1.0
  H  H31  1  0.89496000  0.71724000  0.32265000  1.0
  H  H32  1  0.90235000  0.08809000  0.71563000  1.0
  H  H33  1  0.09766000  0.91190000  0.28437000  1.0
  H  H34  1  0.97794000  0.17821000  0.77361000  1.0
  H  H35  1  0.02206000  0.82178000  0.22639000  1.0
  H  H36  1  0.04747000  0.02333000  0.78039000  1.0
  H  H37  1  0.95253000  0.97667000  0.21961000  1.0
  H  H38  1  0.17777000  0.93771000  0.62741000  1.0
  H  H39  1  0.82225000  0.06229000  0.37259000  1.0
  H  H40  1  0.26396000  0.03418000  0.53797000  1.0
  H  H41  1  0.73606000  0.96582000  0.46203000  1.0
  H  H42  1  0.07815000  0.02527000  0.54046000  1.0
  H  H43  1  0.92187000  0.97473000  0.45953000  1.0
  C  C44  1  0.04645000  0.47887000  0.34138000  1.0
  C  C45  1  0.95354000  0.52114000  0.65862000  1.0
  C  C46  1  0.11333000  0.48731000  0.23777000  1.0
  C  C47  1  0.88666000  0.51269000  0.76223000  1.0
  C  C48  1  0.02907000  0.55258000  0.17139000  1.0
  C  C49  1  0.97091000  0.44742000  0.82861000  1.0
  C  C50  1  0.08802000  0.56037000  0.07428000  1.0
  C  C51  1  0.91197000  0.43963000  0.92572000  1.0
  C  C52  1  0.23248000  0.50119000  0.04357000  1.0
  C  C53  1  0.76751000  0.49881000  0.95642000  1.0
  C  C54  1  0.31791000  0.43477000  0.10842000  1.0
  C  C55  1  0.68208000  0.56522000  0.89158000  1.0
  C  C56  1  0.25795000  0.42835000  0.20555000  1.0
  C  C57  1  0.74205000  0.57165000  0.79445000  1.0
  C  C58  1  0.52076000  0.36700000  0.67048000  1.0
  C  C59  1  0.47924000  0.63300000  0.32952000  1.0
  C  C60  1  0.51415000  0.29983000  0.76726000  1.0
  C  C61  1  0.48584000  0.70018000  0.23274000  1.0
  C  C62  1  0.61748000  0.29851000  0.82465000  1.0
  C  C63  1  0.38253000  0.70149000  0.17535000  1.0
  C  C64  1  0.60384000  0.24298000  0.91716000  1.0
  C  C65  1  0.39617000  0.75701000  0.08284000  1.0
  C  C66  1  0.48511000  0.18881000  0.95192000  1.0
  C  C67  1  0.51490000  0.81119000  0.04808000  1.0
  C  C68  1  0.38330000  0.18615000  0.89486000  1.0
  C  C69  1  0.61671000  0.81385000  0.10514000  1.0
  C  C70  1  0.39877000  0.24153000  0.80275000  1.0
  C  C71  1  0.60124000  0.75847000  0.19726000  1.0
  C  C72  1  0.61039000  0.33053000  0.37709000  1.0
  C  C73  1  0.38960000  0.66947000  0.62291000  1.0
  C  C74  1  0.71614000  0.27857000  0.29305000  1.0
  C  C75  1  0.28385000  0.72142000  0.70694000  1.0
  C  C76  1  0.67029000  0.21498000  0.23312000  1.0
  C  C77  1  0.32970000  0.78502000  0.76687000  1.0
  C  C78  1  0.76729000  0.16933000  0.15387000  1.0
  C  C79  1  0.23271000  0.83066000  0.84614000  1.0
  C  C80  1  0.91055000  0.18839000  0.13432000  1.0
  C  C81  1  0.08945000  0.81161000  0.86569000  1.0
  C  C82  1  0.95919000  0.25081000  0.19304000  1.0
  C  C83  1  0.04080000  0.74919000  0.80696000  1.0
  C  C84  1  0.86078000  0.29528000  0.27227000  1.0
  C  C85  1  0.13921000  0.70472000  0.72774000  1.0
  C  C86  1  0.15124000  0.21922000  0.62347000  1.0
  C  C87  1  0.84876000  0.78078000  0.37653000  1.0
  C  C88  1  0.00433000  0.10010000  0.73431000  1.0
  C  C89  1  0.99567000  0.89990000  0.26569000  1.0
  C  C90  1  0.16098000  0.02263000  0.58491000  1.0
  C  C91  1  0.83904000  0.97737000  0.41509000  1.0
  N  N92  1  0.11253000  0.11564000  0.64865000  1.0
  N  N93  1  0.88748000  0.88436000  0.35136000  1.0
  Cl  Cl94  1  0.30596000  0.51062000  0.92288000  1.0
  Cl  Cl95  1  0.69403000  0.48937000  0.07711000  1.0
  Cl  Cl96  1  0.46007000  0.12389000  0.06841000  1.0
  Cl  Cl97  1  0.53995000  0.87609000  0.93159000  1.0
  Cl  Cl98  1  0.02994000  0.13221000  0.03474000  1.0
  Cl  Cl99  1  0.97008000  0.86779000  0.96526000  1.0
  O  O100  1  0.91345000  0.53058000  0.36574000  1.0
  O  O101  1  0.08655000  0.46943000  0.63426000  1.0
  O  O102  1  0.12357000  0.41615000  0.40086000  1.0
  O  O103  1  0.87642000  0.58386000  0.59914000  1.0
  O  O104  1  0.61498000  0.43095000  0.64518000  1.0
  O  O105  1  0.38501000  0.56905000  0.35482000  1.0
  O  O106  1  0.42837000  0.35640000  0.62088000  1.0
  O  O107  1  0.57162000  0.64360000  0.37911000  1.0
  O  O108  1  0.65690000  0.38743000  0.43041000  1.0
  O  O109  1  0.34308000  0.61257000  0.56960000  1.0
  O  O110  1  0.47945000  0.31615000  0.39067000  1.0
  O  O111  1  0.52053000  0.68385000  0.60932000  1.0
  O  O112  1  0.10823000  0.65135000  0.47153000  1.0
  O  O113  1  0.89177000  0.34866000  0.52846000  1.0
  O  O114  1  0.23142000  0.24494000  0.54670000  1.0
  O  O115  1  0.76858000  0.75507000  0.45330000  1.0
