# generated using pymatgen
data_ZnH12C24(NO3)2
_symmetry_space_group_name_H-M   'P 1'
_cell_length_a   13.11760000
_cell_length_b   13.23580000
_cell_length_c   22.36160000
_cell_angle_alpha   90.00000000
_cell_angle_beta   90.00000000
_cell_angle_gamma   103.29300000
_symmetry_Int_Tables_number   1
_chemical_formula_structural   ZnH12C24(NO3)2
_chemical_formula_sum   'Zn4 H48 C96 N8 O24'
_cell_volume   3778.44117859
_cell_formula_units_Z   4
loop_
 _symmetry_equiv_pos_site_id
 _symmetry_equiv_pos_as_xyz
  1  'x, y, z'
loop_
 _atom_site_type_symbol
 _atom_site_label
 _atom_site_symmetry_multiplicity
 _atom_site_fract_x
 _atom_site_fract_y
 _atom_site_fract_z
 _atom_site_occupancy
  Zn  Zn0  1  0.22643000  0.12810000  0.82807000  1.0
  Zn  Zn1  1  0.77357000  0.87191000  0.32807000  1.0
  Zn  Zn2  1  0.25405000  0.15550000  0.95478000  1.0
  Zn  Zn3  1  0.74595000  0.84450000  0.45478000  1.0
  H  H4  1  0.11159000  0.97598000  0.73508000  1.0
  H  H5  1  0.88841000  0.02402000  0.23508000  1.0
  H  H6  1  0.10442000  0.96547000  0.62347000  1.0
  H  H7  1  0.89558000  0.03453000  0.12347000  1.0
  H  H8  1  0.31685000  0.26773000  0.61833000  1.0
  H  H9  1  0.68315000  0.73228000  0.11833000  1.0
  H  H10  1  0.31452000  0.26664000  0.73107000  1.0
  H  H11  1  0.68548000  0.73336000  0.23107000  1.0
  H  H12  1  0.47420000  0.11539000  0.45102000  1.0
  H  H13  1  0.52580000  0.88461000  0.95102000  1.0
  H  H14  1  0.48119000  0.12649000  0.33851000  1.0
  H  H15  1  0.51881000  0.87351000  0.83851000  1.0
  H  H16  1  0.96940000  0.13970000  0.33260000  1.0
  H  H17  1  0.03060000  0.86030000  0.83260000  1.0
  H  H18  1  0.96362000  0.12992000  0.44468000  1.0
  H  H19  1  0.03638000  0.87008000  0.94468000  1.0
  H  H20  1  0.31614000  0.30880000  0.16729000  1.0
  H  H21  1  0.68386000  0.69120000  0.66729000  1.0
  H  H22  1  0.32534000  0.30911000  0.05457000  1.0
  H  H23  1  0.67466000  0.69089000  0.55457000  1.0
  H  H24  1  0.16975000  0.99979000  0.04567000  1.0
  H  H25  1  0.83026000  0.00021000  0.54567000  1.0
  H  H26  1  0.15363000  0.98635000  0.15754000  1.0
  H  H27  1  0.84637000  0.01365000  0.65754000  1.0
  H  H28  1  0.23942000  0.44381000  0.77991000  1.0
  H  H29  1  0.76058000  0.55619000  0.27991000  1.0
  H  H30  1  0.23360000  0.62972000  0.76651000  1.0
  H  H31  1  0.76640000  0.37028000  0.26651000  1.0
  H  H32  1  0.26540000  0.48533000  0.96996000  1.0
  H  H33  1  0.73460000  0.51467000  0.46996000  1.0
  H  H34  1  0.23134000  0.80178000  0.81149000  1.0
  H  H35  1  0.76866000  0.19822000  0.31149000  1.0
  H  H36  1  0.25679000  0.84277000  0.00178000  1.0
  H  H37  1  0.74321000  0.15723000  0.50178000  1.0
  H  H38  1  0.26721000  0.65822000  0.01474000  1.0
  H  H39  1  0.73279000  0.34178000  0.51474000  1.0
  H  H40  1  0.90304000  0.12666000  0.81410000  1.0
  H  H41  1  0.09696000  0.87334000  0.31410000  1.0
  H  H42  1  0.74918000  0.15342000  0.01601000  1.0
  H  H43  1  0.25082000  0.84658000  0.51601000  1.0
  H  H44  1  0.93550000  0.13876000  0.00482000  1.0
  H  H45  1  0.06450000  0.86124000  0.50482000  1.0
  H  H46  1  0.73317000  0.13739000  0.76687000  1.0
  H  H47  1  0.26683000  0.86261000  0.26687000  1.0
  H  H48  1  0.54688000  0.15008000  0.77790000  1.0
  H  H49  1  0.45312000  0.84992000  0.27790000  1.0
  H  H50  1  0.57907000  0.16252000  0.96892000  1.0
  H  H51  1  0.42093000  0.83748000  0.46892000  1.0
  C  C52  1  0.15625000  0.03892000  0.70766000  1.0
  C  C53  1  0.84375000  0.96108000  0.20766000  1.0
  C  C54  1  0.15247000  0.03321000  0.64550000  1.0
  C  C55  1  0.84753000  0.96679000  0.14550000  1.0
  C  C56  1  0.21139000  0.11601000  0.61293000  1.0
  C  C57  1  0.78861000  0.88399000  0.11293000  1.0
  C  C58  1  0.27067000  0.20200000  0.64294000  1.0
  C  C59  1  0.72933000  0.79800000  0.14294000  1.0
  C  C60  1  0.27005000  0.20168000  0.70500000  1.0
  C  C61  1  0.72995000  0.79832000  0.20500000  1.0
  C  C62  1  0.11811000  0.11759000  0.51891000  1.0
  C  C63  1  0.88189000  0.88241000  0.01891000  1.0
  C  C64  1  0.12477000  0.12512000  0.45298000  1.0
  C  C65  1  0.87523000  0.87488000  0.95298000  1.0
  C  C66  1  0.22051000  0.12605000  0.42329000  1.0
  C  C67  1  0.77949000  0.87395000  0.92329000  1.0
  C  C68  1  0.31205000  0.11986000  0.45525000  1.0
  C  C69  1  0.68795000  0.88014000  0.95525000  1.0
  C  C70  1  0.30969000  0.11341000  0.52117000  1.0
  C  C71  1  0.69032000  0.88659000  0.02117000  1.0
  C  C72  1  0.40505000  0.12027000  0.42515000  1.0
  C  C73  1  0.59495000  0.87973000  0.92515000  1.0
  C  C74  1  0.40899000  0.12660000  0.36259000  1.0
  C  C75  1  0.59101000  0.87340000  0.86259000  1.0
  C  C76  1  0.32001000  0.13246000  0.33013000  1.0
  C  C77  1  0.67999000  0.86754000  0.83013000  1.0
  C  C78  1  0.22438000  0.13219000  0.35970000  1.0
  C  C79  1  0.77562000  0.86780000  0.85970000  1.0
  C  C80  1  0.13220000  0.13707000  0.32769000  1.0
  C  C81  1  0.86780000  0.86293000  0.82769000  1.0
  C  C82  1  0.03963000  0.13701000  0.35793000  1.0
  C  C83  1  0.96037000  0.86299000  0.85793000  1.0
  C  C84  1  0.03606000  0.13126000  0.42058000  1.0
  C  C85  1  0.96394000  0.86874000  0.92058000  1.0
  C  C86  1  0.13378000  0.14125000  0.26167000  1.0
  C  C87  1  0.86622000  0.85875000  0.76167000  1.0
  C  C88  1  0.32577000  0.13832000  0.26422000  1.0
  C  C89  1  0.67423000  0.86168000  0.76422000  1.0
  C  C90  1  0.23543000  0.14676000  0.17025000  1.0
  C  C91  1  0.76457000  0.85324000  0.67025000  1.0
  C  C92  1  0.28343000  0.23895000  0.14168000  1.0
  C  C93  1  0.71657000  0.76105000  0.64168000  1.0
  C  C94  1  0.28915000  0.23937000  0.07959000  1.0
  C  C95  1  0.71086000  0.76063000  0.57959000  1.0
  C  C96  1  0.20166000  0.06587000  0.07449000  1.0
  C  C97  1  0.79834000  0.93413000  0.57449000  1.0
  C  C98  1  0.19287000  0.05896000  0.13640000  1.0
  C  C99  1  0.80713000  0.94104000  0.63640000  1.0
  C  C100  1  0.25324000  0.34204000  0.88354000  1.0
  C  C101  1  0.74676000  0.65796000  0.38354000  1.0
  C  C102  1  0.25326000  0.45469000  0.87610000  1.0
  C  C103  1  0.74674000  0.54531000  0.37609000  1.0
  C  C104  1  0.24438000  0.49571000  0.81814000  1.0
  C  C105  1  0.75562000  0.50429000  0.31814000  1.0
  C  C106  1  0.24081000  0.59807000  0.81098000  1.0
  C  C107  1  0.75919000  0.40193000  0.31098000  1.0
  C  C108  1  0.24528000  0.66447000  0.86129000  1.0
  C  C109  1  0.75472000  0.33553000  0.36129000  1.0
  C  C110  1  0.25510000  0.62341000  0.91995000  1.0
  C  C111  1  0.74490000  0.37659000  0.41995000  1.0
  C  C112  1  0.25904000  0.51806000  0.92576000  1.0
  C  C113  1  0.74096000  0.48194000  0.42576000  1.0
  C  C114  1  0.23900000  0.76925000  0.85562000  1.0
  C  C115  1  0.76100000  0.23075000  0.35562000  1.0
  C  C116  1  0.24234000  0.83184000  0.90552000  1.0
  C  C117  1  0.75766000  0.16816000  0.40552000  1.0
  C  C118  1  0.25339000  0.79144000  0.96341000  1.0
  C  C119  1  0.74661000  0.20856000  0.46341000  1.0
  C  C120  1  0.25944000  0.68972000  0.97030000  1.0
  C  C121  1  0.74056000  0.31028000  0.47030000  1.0
  C  C122  1  0.23450000  0.94239000  0.89863000  1.0
  C  C123  1  0.76550000  0.05761000  0.39863000  1.0
  C  C124  1  0.03937000  0.12265000  0.90204000  1.0
  C  C125  1  0.96063000  0.87735000  0.40204000  1.0
  C  C126  1  0.92799000  0.13049000  0.90843000  1.0
  C  C127  1  0.07201000  0.86951000  0.40843000  1.0
  C  C128  1  0.86776000  0.13200000  0.85783000  1.0
  C  C129  1  0.13224000  0.86800000  0.35783000  1.0
  C  C130  1  0.76292000  0.14133000  0.86230000  1.0
  C  C131  1  0.23708000  0.85867000  0.36230000  1.0
  C  C132  1  0.71928000  0.14884000  0.92064000  1.0
  C  C133  1  0.28072000  0.85116000  0.42064000  1.0
  C  C134  1  0.78301000  0.14723000  0.97192000  1.0
  C  C135  1  0.21699000  0.85277000  0.47192000  1.0
  C  C136  1  0.88512000  0.13878000  0.96605000  1.0
  C  C137  1  0.11487000  0.86122000  0.46605000  1.0
  C  C138  1  0.69929000  0.14270000  0.81105000  1.0
  C  C139  1  0.30071000  0.85730000  0.31105000  1.0
  C  C140  1  0.59688000  0.15029000  0.81683000  1.0
  C  C141  1  0.40312000  0.84971000  0.31683000  1.0
  C  C142  1  0.55373000  0.15775000  0.87443000  1.0
  C  C143  1  0.44627000  0.84225000  0.37443000  1.0
  C  C144  1  0.61416000  0.15718000  0.92515000  1.0
  C  C145  1  0.38584000  0.84282000  0.42515000  1.0
  C  C146  1  0.44116000  0.16260000  0.88069000  1.0
  C  C147  1  0.55884000  0.83740000  0.38069000  1.0
  N  N148  1  0.21426000  0.12136000  0.73667000  1.0
  N  N149  1  0.78574000  0.87864000  0.23667000  1.0
  N  N150  1  0.21250000  0.11486000  0.54877000  1.0
  N  N151  1  0.78750000  0.88514000  0.04877000  1.0
  N  N152  1  0.23108000  0.14217000  0.23448000  1.0
  N  N153  1  0.76892000  0.85783000  0.73448000  1.0
  N  N154  1  0.24999000  0.15417000  0.04680000  1.0
  N  N155  1  0.75001000  0.84583000  0.54680000  1.0
  O  O156  1  0.03746000  0.11553000  0.54738000  1.0
  O  O157  1  0.96254000  0.88447000  0.04738000  1.0
  O  O158  1  0.38585000  0.10761000  0.55180000  1.0
  O  O159  1  0.61415000  0.89240000  0.05180000  1.0
  O  O160  1  0.05689000  0.14426000  0.23070000  1.0
  O  O161  1  0.94311000  0.85574000  0.73070000  1.0
  O  O162  1  0.40545000  0.13935000  0.23522000  1.0
  O  O163  1  0.59455000  0.86065000  0.73522000  1.0
  O  O164  1  0.40860000  0.17524000  0.93322000  1.0
  O  O165  1  0.59140000  0.82476000  0.43322000  1.0
  O  O166  1  0.38679000  0.15151000  0.83296000  1.0
  O  O167  1  0.61321000  0.84849000  0.33296000  1.0
  O  O168  1  0.07176000  0.11065000  0.84935000  1.0
  O  O169  1  0.92824000  0.88935000  0.34935000  1.0
  O  O170  1  0.09314000  0.12924000  0.94979000  1.0
  O  O171  1  0.90685000  0.87076000  0.44979000  1.0
  O  O172  1  0.24359000  0.99682000  0.94613000  1.0
  O  O173  1  0.75641000  0.00318000  0.44613000  1.0
  O  O174  1  0.21861000  0.97338000  0.84619000  1.0
  O  O175  1  0.78139000  0.02662000  0.34619000  1.0
  O  O176  1  0.26161000  0.30934000  0.93655000  1.0
  O  O177  1  0.73838000  0.69066000  0.43655000  1.0
  O  O178  1  0.24322000  0.28739000  0.83608000  1.0
  O  O179  1  0.75678000  0.71261000  0.33608000  1.0
