# generated using pymatgen
data_ZnH8C10(NCl)2
_symmetry_space_group_name_H-M   'P 1'
_cell_length_a   4.52963000
_cell_length_b   8.42254000
_cell_length_c   14.89166463
_cell_angle_alpha   101.66294556
_cell_angle_beta   98.66418923
_cell_angle_gamma   105.43480000
_symmetry_Int_Tables_number   1
_chemical_formula_structural   ZnH8C10(NCl)2
_chemical_formula_sum   'Zn2 H16 C20 N4 Cl4'
_cell_volume   523.60651594
_cell_formula_units_Z   2
loop_
 _symmetry_equiv_pos_site_id
 _symmetry_equiv_pos_as_xyz
  1  'x, y, z'
loop_
 _atom_site_type_symbol
 _atom_site_label
 _atom_site_symmetry_multiplicity
 _atom_site_fract_x
 _atom_site_fract_y
 _atom_site_fract_z
 _atom_site_occupancy
  Zn  Zn0  1  0.55043000  0.85647000  0.34939000  1.0
  Zn  Zn1  1  0.15517000  0.35525000  0.84884000  1.0
  H  H2  1  0.15797000  0.51836000  0.35922000  1.0
  H  H3  1  0.22004000  0.01665000  0.85958000  1.0
  H  H4  1  0.84035000  0.39605000  0.46365000  1.0
  H  H5  1  0.51864000  0.89476000  0.96458000  1.0
  H  H6  1  0.15657000  0.90058000  0.65468000  1.0
  H  H7  1  0.89803000  0.40076000  0.15378000  1.0
  H  H8  1  0.47316000  0.99645000  0.54382000  1.0
  H  H9  1  0.56580000  0.49613000  0.04287000  1.0
  H  H10  1  0.23415000  0.21591000  0.65441000  1.0
  H  H11  1  0.14226000  0.71673000  0.15479000  1.0
  H  H12  1  0.55163000  0.31214000  0.54386000  1.0
  H  H13  1  0.81026000  0.81232000  0.04391000  1.0
  H  H14  1  0.87135000  0.81573000  0.73592000  1.0
  H  H15  1  0.17507000  0.31577000  0.23606000  1.0
  H  H16  1  0.55105000  0.69332000  0.83976000  1.0
  H  H17  1  0.47679000  0.19410000  0.34035000  1.0
  C  C18  1  0.14700000  0.59778000  0.42527000  1.0
  C  C19  1  0.37600000  0.09651000  0.92540000  1.0
  C  C20  1  0.96642000  0.53164000  0.48410000  1.0
  C  C21  1  0.54922000  0.03063000  0.98442000  1.0
  C  C22  1  0.95482000  0.63870000  0.56813000  1.0
  C  C23  1  0.75171000  0.13824000  0.06806000  1.0
  C  C24  1  0.14377000  0.80914000  0.59004000  1.0
  C  C25  1  0.75489000  0.30895000  0.08945000  1.0
  C  C26  1  0.32145000  0.86566000  0.52800000  1.0
  C  C27  1  0.57108000  0.36510000  0.02737000  1.0
  C  C28  1  0.38634000  0.34663000  0.67047000  1.0
  C  C29  1  0.13426000  0.84726000  0.17083000  1.0
  C  C30  1  0.56470000  0.40336000  0.60862000  1.0
  C  C31  1  0.95031000  0.90351000  0.10883000  1.0
  C  C32  1  0.75498000  0.57357000  0.63088000  1.0
  C  C33  1  0.94938000  0.07352000  0.13100000  1.0
  C  C34  1  0.74387000  0.68032000  0.71508000  1.0
  C  C35  1  0.14860000  0.18047000  0.21531000  1.0
  C  C36  1  0.56217000  0.61408000  0.77368000  1.0
  C  C37  1  0.32311000  0.11469000  0.27410000  1.0
  N  N38  1  0.31907000  0.76278000  0.44575000  1.0
  N  N39  1  0.38866000  0.26173000  0.94543000  1.0
  N  N40  1  0.38855000  0.44926000  0.75281000  1.0
  N  N41  1  0.31457000  0.95009000  0.25321000  1.0
  Cl  Cl42  1  0.92421000  0.09231000  0.44018000  1.0
  Cl  Cl43  1  0.10377000  0.59132000  0.93929000  1.0
  Cl  Cl44  1  0.60190000  0.62038000  0.25913000  1.0
  Cl  Cl45  1  0.78026000  0.11944000  0.75869000  1.0
