# generated using pymatgen
data_ZnH20C19NO4
_symmetry_space_group_name_H-M   'P 1'
_cell_length_a   10.37320000
_cell_length_b   10.90220000
_cell_length_c   11.71210000
_cell_angle_alpha   83.96500000
_cell_angle_beta   81.41940000
_cell_angle_gamma   85.30610000
_symmetry_Int_Tables_number   1
_chemical_formula_structural   ZnH20C19NO4
_chemical_formula_sum   'Zn2 H40 C38 N2 O8'
_cell_volume   1299.49543416
_cell_formula_units_Z   2
loop_
 _symmetry_equiv_pos_site_id
 _symmetry_equiv_pos_as_xyz
  1  'x, y, z'
loop_
 _atom_site_type_symbol
 _atom_site_label
 _atom_site_symmetry_multiplicity
 _atom_site_fract_x
 _atom_site_fract_y
 _atom_site_fract_z
 _atom_site_occupancy
  Zn  Zn0  1  0.64696000  0.49374000  0.49791000  1.0
  Zn  Zn1  1  0.35279000  0.47267000  0.51978000  1.0
  H  H2  1  0.45111000  0.11771000  0.42396000  1.0
  H  H3  1  0.31456000  0.98196000  0.84951000  1.0
  H  H4  1  0.20925000  0.86104000  0.85175000  1.0
  H  H5  1  0.34042000  0.83989000  0.93510000  1.0
  H  H6  1  0.40068000  0.72902000  0.75565000  1.0
  H  H7  1  0.50243000  0.85139000  0.75170000  1.0
  H  H8  1  0.35215000  0.98641000  0.62947000  1.0
  H  H9  1  0.26262000  0.85482000  0.62636000  1.0
  H  H10  1  0.76360000  0.40369000  0.68762000  1.0
  H  H11  1  0.71785000  0.40214000  0.90119000  1.0
  H  H12  1  0.81674000  0.55145000  0.00236000  1.0
  H  H13  1  0.59393000  0.88667000  0.38470000  1.0
  H  H14  1  0.97100000  0.69900000  0.88887000  1.0
  H  H15  1  0.02187000  0.69766000  0.67626000  1.0
  H  H16  1  0.26968000  0.60538000  0.31958000  1.0
  H  H17  1  0.32652000  0.80421000  0.20983000  1.0
  H  H18  1  0.19172000  0.99839000  0.25394000  1.0
  H  H19  1  0.99660000  0.98970000  0.40679000  1.0
  H  H20  1  0.93986000  0.79171000  0.51701000  1.0
  H  H21  1  0.03218000  0.70566000  0.17879000  1.0
  H  H22  1  0.95302000  0.60048000  0.11182000  1.0
  H  H23  1  0.89491000  0.75861000  0.10838000  1.0
  H  H24  1  0.76698000  0.97638000  0.87397000  1.0
  H  H25  1  0.74519000  0.64508000  0.26060000  1.0
  H  H26  1  0.84123000  0.73215000  0.32946000  1.0
  H  H27  1  0.00104000  0.52467000  0.32987000  1.0
  H  H28  1  0.85676000  0.45511000  0.31364000  1.0
  H  H29  1  0.11814000  0.11981000  0.68154000  1.0
  H  H30  1  0.99390000  0.13526000  0.59093000  1.0
  H  H31  1  0.14086000  0.04393000  0.55260000  1.0
  H  H32  1  0.14548000  0.24982000  0.43218000  1.0
  H  H33  1  0.26803000  0.23532000  0.52403000  1.0
  H  H34  1  0.12223000  0.35408000  0.66844000  1.0
  H  H35  1  0.75706000  0.86898000  0.77217000  1.0
  H  H36  1  0.99374000  0.35823000  0.58285000  1.0
  H  H37  1  0.88134000  0.97517000  0.74502000  1.0
  H  H38  1  0.70436000  0.15240000  0.73254000  1.0
  H  H39  1  0.58519000  0.04268000  0.75427000  1.0
  H  H40  1  0.70965000  0.94624000  0.57245000  1.0
  H  H41  1  0.80214000  0.07904000  0.54807000  1.0
  C  C42  1  0.46547000  0.71306000  0.50873000  1.0
  C  C43  1  0.60127000  0.11332000  0.52562000  1.0
  C  C44  1  0.52846000  0.92481000  0.45662000  1.0
  C  C45  1  0.52359000  0.05838000  0.46680000  1.0
  C  C46  1  0.06875000  0.56658000  0.49562000  1.0
  C  C47  1  0.92437000  0.55377000  0.53954000  1.0
  C  C48  1  0.70671000  0.04471000  0.58687000  1.0
  C  C49  1  0.68773000  0.05712000  0.71808000  1.0
  C  C50  1  0.77813000  0.96458000  0.78089000  1.0
  C  C51  1  0.36006000  0.88495000  0.63234000  1.0
  C  C52  1  0.40084000  0.83040000  0.74924000  1.0
  C  C53  1  0.58122000  0.25071000  0.52807000  1.0
  C  C54  1  0.31156000  0.88096000  0.85207000  1.0
  C  C55  1  0.88976000  0.55546000  0.66634000  1.0
  C  C56  1  0.80603000  0.47073000  0.73113000  1.0
  C  C57  1  0.78166000  0.46903000  0.85141000  1.0
  C  C58  1  0.83841000  0.55247000  0.90828000  1.0
  C  C59  1  0.92415000  0.63534000  0.84477000  1.0
  C  C60  1  0.95178000  0.63529000  0.72469000  1.0
  C  C61  1  0.10468000  0.68475000  0.42979000  1.0
  C  C62  1  0.21185000  0.68993000  0.34086000  1.0
  C  C63  1  0.24288000  0.80204000  0.27850000  1.0
  C  C64  1  0.51669000  0.45306000  0.28784000  1.0
  C  C65  1  0.16691000  0.91062000  0.30279000  1.0
  C  C66  1  0.05779000  0.90592000  0.38862000  1.0
  C  C67  1  0.02608000  0.79379000  0.45109000  1.0
  C  C68  1  0.89367000  0.53542000  0.34463000  1.0
  C  C69  1  0.84554000  0.65442000  0.27613000  1.0
  C  C70  1  0.93635000  0.68115000  0.16243000  1.0
  C  C71  1  0.10017000  0.35832000  0.57882000  1.0
  C  C72  1  0.16180000  0.24266000  0.52353000  1.0
  C  C73  1  0.10039000  0.12898000  0.59062000  1.0
  C  C74  1  0.43881000  0.46068000  0.73304000  1.0
  C  C75  1  0.51294000  0.43974000  0.16659000  1.0
  C  C76  1  0.44439000  0.44606000  0.85649000  1.0
  C  C77  1  0.48854000  0.43720000  0.06767000  1.0
  C  C78  1  0.46362000  0.43933000  0.95768000  1.0
  C  C79  1  0.45423000  0.84654000  0.52985000  1.0
  N  N80  1  0.15044000  0.47368000  0.51803000  1.0
  N  N81  1  0.84428000  0.53530000  0.46939000  1.0
  O  O82  1  0.57592000  0.66754000  0.46209000  1.0
  O  O83  1  0.46728000  0.30023000  0.52154000  1.0
  O  O84  1  0.36319000  0.65389000  0.53932000  1.0
  O  O85  1  0.68170000  0.30963000  0.53527000  1.0
  O  O86  1  0.62558000  0.45216000  0.32421000  1.0
  O  O87  1  0.33386000  0.43593000  0.69876000  1.0
  O  O88  1  0.40261000  0.46700000  0.34540000  1.0
  O  O89  1  0.54137000  0.49894000  0.67083000  1.0
