# generated using pymatgen
data_ZnH12C14(NO3)2
_symmetry_space_group_name_H-M   'P 1'
_cell_length_a   4.88463000
_cell_length_b   11.41067359
_cell_length_c   12.16190000
_cell_angle_alpha   88.04304612
_cell_angle_beta   89.94570000
_cell_angle_gamma   77.67606190
_symmetry_Int_Tables_number   1
_chemical_formula_structural   ZnH12C14(NO3)2
_chemical_formula_sum   'Zn2 H24 C28 N4 O12'
_cell_volume   661.84619260
_cell_formula_units_Z   2
loop_
 _symmetry_equiv_pos_site_id
 _symmetry_equiv_pos_as_xyz
  1  'x, y, z'
loop_
 _atom_site_type_symbol
 _atom_site_label
 _atom_site_symmetry_multiplicity
 _atom_site_fract_x
 _atom_site_fract_y
 _atom_site_fract_z
 _atom_site_occupancy
  Zn  Zn0  1  0.06096000  0.99996000  0.24988000  1.0
  Zn  Zn1  1  0.93904000  0.00004000  0.75012000  1.0
  H  H2  1  0.66580000  0.89607000  0.31447000  1.0
  H  H3  1  0.56210000  0.10397000  0.18549000  1.0
  H  H4  1  0.33421000  0.10392000  0.68553000  1.0
  H  H5  1  0.43790000  0.89602000  0.81451000  1.0
  H  H6  1  0.82506000  0.33132000  0.60363000  1.0
  H  H7  1  0.15743000  0.66874000  0.89633000  1.0
  H  H8  1  0.17493000  0.66868000  0.39637000  1.0
  H  H9  1  0.84257000  0.33126000  0.10367000  1.0
  H  H10  1  0.54913000  0.18043000  0.56067000  1.0
  H  H11  1  0.73035000  0.81937000  0.93915000  1.0
  H  H12  1  0.45088000  0.81956000  0.43933000  1.0
  H  H13  1  0.26965000  0.18063000  0.06085000  1.0
  H  H14  1  0.43632000  0.32071000  0.22642000  1.0
  H  H15  1  0.75677000  0.67968000  0.27363000  1.0
  H  H16  1  0.56367000  0.67929000  0.77358000  1.0
  H  H17  1  0.24323000  0.32032000  0.72637000  1.0
  H  H18  1  0.71859000  0.47048000  0.26869000  1.0
  H  H19  1  0.18889000  0.53005000  0.23141000  1.0
  H  H20  1  0.28139000  0.52952000  0.73131000  1.0
  H  H21  1  0.81111000  0.46995000  0.76858000  1.0
  H  H22  1  0.80973000  0.91911000  0.43196000  1.0
  H  H23  1  0.72914000  0.08103000  0.06796000  1.0
  H  H24  1  0.19027000  0.08089000  0.56804000  1.0
  H  H25  1  0.27087000  0.91897000  0.93203000  1.0
  C  C26  1  0.30899000  0.14866000  0.36494000  1.0
  C  C27  1  0.45756000  0.85118000  0.13507000  1.0
  C  C28  1  0.69101000  0.85134000  0.63506000  1.0
  C  C29  1  0.54245000  0.14882000  0.86493000  1.0
  C  C30  1  0.47232000  0.24056000  0.39113000  1.0
  C  C31  1  0.71320000  0.75955000  0.10881000  1.0
  C  C32  1  0.52768000  0.75944000  0.60887000  1.0
  C  C33  1  0.28680000  0.24046000  0.89119000  1.0
  C  C34  1  0.73854000  0.32920000  0.52152000  1.0
  C  C35  1  0.06850000  0.67096000  0.97845000  1.0
  C  C36  1  0.26146000  0.67080000  0.47848000  1.0
  C  C37  1  0.93151000  0.32904000  0.02155000  1.0
  C  C38  1  0.78983000  0.41065000  0.43847000  1.0
  C  C39  1  0.20089000  0.58962000  0.06155000  1.0
  C  C40  1  0.21016000  0.58935000  0.56153000  1.0
  C  C41  1  0.79912000  0.41038000  0.93845000  1.0
  C  C42  1  0.58169000  0.24529000  0.49734000  1.0
  C  C43  1  0.82769000  0.75471000  0.00261000  1.0
  C  C44  1  0.41831000  0.75471000  0.50266000  1.0
  C  C45  1  0.17231000  0.24529000  0.99739000  1.0
  C  C46  1  0.52212000  0.32258000  0.30884000  1.0
  C  C47  1  0.84479000  0.67779000  0.19119000  1.0
  C  C48  1  0.47788000  0.67742000  0.69116000  1.0
  C  C49  1  0.15521000  0.32222000  0.80881000  1.0
  C  C50  1  0.67931000  0.40675000  0.33240000  1.0
  C  C51  1  0.08621000  0.59369000  0.16770000  1.0
  C  C52  1  0.32068000  0.59325000  0.66760000  1.0
  C  C53  1  0.91379000  0.40631000  0.83230000  1.0
  N  N54  1  0.94800000  0.49951000  0.45230000  1.0
  N  N55  1  0.44717000  0.50048000  0.04769000  1.0
  N  N56  1  0.05199000  0.50049000  0.54770000  1.0
  N  N57  1  0.55283000  0.49953000  0.95231000  1.0
  O  O58  1  0.26447000  0.13511000  0.26079000  1.0
  O  O59  1  0.39948000  0.86478000  0.23925000  1.0
  O  O60  1  0.73553000  0.86489000  0.73920000  1.0
  O  O61  1  0.60052000  0.13522000  0.76075000  1.0
  O  O62  1  0.21854000  0.08526000  0.43705000  1.0
  O  O63  1  0.30324000  0.91433000  0.06307000  1.0
  O  O64  1  0.78145000  0.91474000  0.56295000  1.0
  O  O65  1  0.69677000  0.08567000  0.93693000  1.0
  O  O66  1  0.82628000  0.92190000  0.34930000  1.0
  O  O67  1  0.74844000  0.07819000  0.15062000  1.0
  O  O68  1  0.17372000  0.07810000  0.65070000  1.0
  O  O69  1  0.25156000  0.92181000  0.84938000  1.0
