# generated using pymatgen
data_ZnH14C13NO4
_symmetry_space_group_name_H-M   'P 1'
_cell_length_a   6.19338000
_cell_length_b   12.06870000
_cell_length_c   12.25970000
_cell_angle_alpha   68.37500000
_cell_angle_beta   79.53800000
_cell_angle_gamma   89.48130000
_symmetry_Int_Tables_number   1
_chemical_formula_structural   ZnH14C13NO4
_chemical_formula_sum   'Zn2 H28 C26 N2 O8'
_cell_volume   836.02474476
_cell_formula_units_Z   2
loop_
 _symmetry_equiv_pos_site_id
 _symmetry_equiv_pos_as_xyz
  1  'x, y, z'
loop_
 _atom_site_type_symbol
 _atom_site_label
 _atom_site_symmetry_multiplicity
 _atom_site_fract_x
 _atom_site_fract_y
 _atom_site_fract_z
 _atom_site_occupancy
  Zn  Zn0  1  0.48816000  0.40582000  0.95789000  1.0
  Zn  Zn1  1  0.51186000  0.59418000  0.04210000  1.0
  H  H2  1  0.31527000  0.74173000  0.65909000  1.0
  H  H3  1  0.68473000  0.25826000  0.34091000  1.0
  H  H4  1  0.09865000  0.57532000  0.67747000  1.0
  H  H5  1  0.90136000  0.42468000  0.32251000  1.0
  H  H6  1  0.00882000  0.75209000  0.52686000  1.0
  H  H7  1  0.99117000  0.24792000  0.47313000  1.0
  H  H8  1  0.75943000  0.66549000  0.60151000  1.0
  H  H9  1  0.24058000  0.33453000  0.39847000  1.0
  H  H10  1  0.67064000  0.79791000  0.71978000  1.0
  H  H11  1  0.32935000  0.20209000  0.28022000  1.0
  H  H12  1  0.71589000  0.88221000  0.56416000  1.0
  H  H13  1  0.28412000  0.11781000  0.43583000  1.0
  H  H14  1  0.10306000  0.93628000  0.56702000  1.0
  H  H15  1  0.89696000  0.06372000  0.43299000  1.0
  H  H16  1  0.91631000  0.98190000  0.66697000  1.0
  H  H17  1  0.08369000  0.01810000  0.33304000  1.0
  H  H18  1  0.97890000  0.80301000  0.83879000  1.0
  H  H19  1  0.02112000  0.19699000  0.16121000  1.0
  H  H20  1  0.23352000  0.88091000  0.75842000  1.0
  H  H21  1  0.76648000  0.11907000  0.24160000  1.0
  H  H22  1  0.52260000  0.14342000  0.06737000  1.0
  H  H23  1  0.47739000  0.85659000  0.93263000  1.0
  H  H24  1  0.29761000  0.95968000  0.10485000  1.0
  H  H25  1  0.70237000  0.04031000  0.89518000  1.0
  H  H26  1  0.88341000  0.18522000  0.87383000  1.0
  H  H27  1  0.11660000  0.81478000  0.12616000  1.0
  H  H28  1  0.12258000  0.35720000  0.84944000  1.0
  H  H29  1  0.87743000  0.64280000  0.15056000  1.0
  C  C30  1  0.28437000  0.63644000  0.84112000  1.0
  C  C31  1  0.71563000  0.36355000  0.15888000  1.0
  C  C32  1  0.17880000  0.71444000  0.73769000  1.0
  C  C33  1  0.82119000  0.28555000  0.26231000  1.0
  C  C34  1  0.00993000  0.63941000  0.71032000  1.0
  C  C35  1  0.99006000  0.36059000  0.28966000  1.0
  C  C36  1  0.88965000  0.71982000  0.61232000  1.0
  C  C37  1  0.11036000  0.28019000  0.38767000  1.0
  C  C38  1  0.79714000  0.82791000  0.63740000  1.0
  C  C39  1  0.20287000  0.17210000  0.36259000  1.0
  C  C40  1  0.98100000  0.90253000  0.65134000  1.0
  C  C41  1  0.01901000  0.09747000  0.34866000  1.0
  C  C42  1  0.09415000  0.82847000  0.75316000  1.0
  C  C43  1  0.90587000  0.17152000  0.24684000  1.0
  C  C44  1  0.84028000  0.56580000  0.82026000  1.0
  C  C45  1  0.15968000  0.43421000  0.17973000  1.0
  C  C46  1  0.38169000  0.14677000  0.02445000  1.0
  C  C47  1  0.61829000  0.85323000  0.97556000  1.0
  C  C48  1  0.25296000  0.04493000  0.04526000  1.0
  C  C49  1  0.74704000  0.95506000  0.95474000  1.0
  C  C50  1  0.06981000  0.05354000  0.99030000  1.0
  C  C51  1  0.93018000  0.94647000  0.00970000  1.0
  C  C52  1  0.02457000  0.16868000  0.91789000  1.0
  C  C53  1  0.97543000  0.83132000  0.08211000  1.0
  C  C54  1  0.15967000  0.26686000  0.90193000  1.0
  C  C55  1  0.84032000  0.73314000  0.09808000  1.0
  N  N56  1  0.33767000  0.25610000  0.95296000  1.0
  N  N57  1  0.66235000  0.74390000  0.04703000  1.0
  O  O58  1  0.31994000  0.53085000  0.84614000  1.0
  O  O59  1  0.68005000  0.46914000  0.15386000  1.0
  O  O60  1  0.33601000  0.68248000  0.91188000  1.0
  O  O61  1  0.66397000  0.31750000  0.08812000  1.0
  O  O62  1  0.77768000  0.61073000  0.89851000  1.0
  O  O63  1  0.22230000  0.38925000  0.10146000  1.0
  O  O64  1  0.76471000  0.46561000  0.82460000  1.0
  O  O65  1  0.23530000  0.53438000  0.17538000  1.0
