# generated using pymatgen
data_Ho2CuH4C10N4O9
_symmetry_space_group_name_H-M   'P 1'
_cell_length_a   6.73783000
_cell_length_b   16.13539855
_cell_length_c   16.14280000
_cell_angle_alpha   117.94064764
_cell_angle_beta   98.14940000
_cell_angle_gamma   97.87247518
_symmetry_Int_Tables_number   1
_chemical_formula_structural   Ho2CuH4C10N4O9
_chemical_formula_sum   'Ho6 Cu3 H12 C30 N12 O27'
_cell_volume   1492.68895810
_cell_formula_units_Z   3
loop_
 _symmetry_equiv_pos_site_id
 _symmetry_equiv_pos_as_xyz
  1  'x, y, z'
loop_
 _atom_site_type_symbol
 _atom_site_label
 _atom_site_symmetry_multiplicity
 _atom_site_fract_x
 _atom_site_fract_y
 _atom_site_fract_z
 _atom_site_occupancy
  Ho  Ho0  1  0.27332000  0.15345000  0.06456000  1.0
  Ho  Ho1  1  0.12162000  0.90989000  0.84707000  1.0
  Ho  Ho2  1  0.20695000  0.93685000  0.09001000  1.0
  Ho  Ho3  1  0.72669000  0.84654000  0.93546000  1.0
  Ho  Ho4  1  0.87838000  0.09010000  0.15294000  1.0
  Ho  Ho5  1  0.79306000  0.06314000  0.91000000  1.0
  Cu  Cu6  1  0.49999000  0.50000000  0.99999000  1.0
  Cu  Cu7  1  1.00000000  0.50000000  0.50000000  1.0
  Cu  Cu8  1  0.50000000  0.00000000  0.49999000  1.0
  H  H9  1  0.84621000  0.42582000  0.90155000  1.0
  H  H10  1  0.97140000  0.27051000  0.85993000  1.0
  H  H11  1  0.42231000  0.47551000  0.57233000  1.0
  H  H12  1  0.70455000  0.58854000  0.72704000  1.0
  H  H13  1  0.94514000  0.09785000  0.52402000  1.0
  H  H14  1  0.11113000  0.13969000  0.41022000  1.0
  H  H15  1  0.15373000  0.57417000  0.09841000  1.0
  H  H16  1  0.02856000  0.72948000  0.14004000  1.0
  H  H17  1  0.57771000  0.52449000  0.42767000  1.0
  H  H18  1  0.29548000  0.41147000  0.27297000  1.0
  H  H19  1  0.05486000  0.90216000  0.47598000  1.0
  H  H20  1  0.88886000  0.86031000  0.58977000  1.0
  C  C21  1  0.61524000  0.24383000  0.97297000  1.0
  C  C22  1  0.53969000  0.32821000  0.99104000  1.0
  C  C23  1  0.78226000  0.37292000  0.92026000  1.0
  C  C24  1  0.85018000  0.28849000  0.89921000  1.0
  C  C25  1  0.36322000  0.35438000  0.03612000  1.0
  C  C26  1  0.37326000  0.72803000  0.75494000  1.0
  C  C27  1  0.21260000  0.66222000  0.67108000  1.0
  C  C28  1  0.41137000  0.54687000  0.62553000  1.0
  C  C29  1  0.56462000  0.60994000  0.70952000  1.0
  C  C30  1  0.00918000  0.68128000  0.64544000  1.0
  C  C31  1  0.64108000  0.02726000  0.27105000  1.0
  C  C32  1  0.54771000  0.00920000  0.33732000  1.0
  C  C33  1  0.86201000  0.07947000  0.45254000  1.0
  C  C34  1  0.95056000  0.10055000  0.38916000  1.0
  C  C35  1  0.32596000  0.96435000  0.31857000  1.0
  C  C36  1  0.38475000  0.75618000  0.02703000  1.0
  C  C37  1  0.46028000  0.67178000  0.00894000  1.0
  C  C38  1  0.21771000  0.62707000  0.07971000  1.0
  C  C39  1  0.14979000  0.71150000  0.10077000  1.0
  C  C40  1  0.63678000  0.64563000  0.96389000  1.0
  C  C41  1  0.62675000  0.27197000  0.24507000  1.0
  C  C42  1  0.78742000  0.33778000  0.32893000  1.0
  C  C43  1  0.58866000  0.45313000  0.37448000  1.0
  C  C44  1  0.43539000  0.39006000  0.29048000  1.0
  C  C45  1  0.99083000  0.31870000  0.35456000  1.0
  C  C46  1  0.35892000  0.97275000  0.72895000  1.0
  C  C47  1  0.45229000  0.99082000  0.66268000  1.0
  C  C48  1  0.13800000  0.92054000  0.54746000  1.0
  C  C49  1  0.04945000  0.89946000  0.61083000  1.0
  C  C50  1  0.67405000  0.03566000  0.68144000  1.0
  N  N51  1  0.76995000  0.22641000  0.92429000  1.0
  N  N52  1  0.62709000  0.38954000  0.96496000  1.0
  N  N53  1  0.54636000  0.69688000  0.77166000  1.0
  N  N54  1  0.23886000  0.57507000  0.60954000  1.0
  N  N55  1  0.84459000  0.07560000  0.30210000  1.0
  N  N56  1  0.66190000  0.03497000  0.42456000  1.0
  N  N57  1  0.23004000  0.77359000  0.07570000  1.0
  N  N58  1  0.37286000  0.61045000  0.03501000  1.0
  N  N59  1  0.45366000  0.30312000  0.22835000  1.0
  N  N60  1  0.76116000  0.42493000  0.39046000  1.0
  N  N61  1  0.15540000  0.92441000  0.69790000  1.0
  N  N62  1  0.33809000  0.96504000  0.57543000  1.0
  O  O63  1  0.54897000  0.18257000  0.99693000  1.0
  O  O64  1  0.26255000  0.30169000  0.06015000  1.0
  O  O65  1  0.32051000  0.43497000  0.04759000  1.0
  O  O66  1  0.20948000  0.09301000  0.16064000  1.0
  O  O67  1  0.36810000  0.81299000  0.81668000  1.0
  O  O68  1  0.96098000  0.75779000  0.69828000  1.0
  O  O69  1  0.88550000  0.61247000  0.56503000  1.0
  O  O70  1  0.12150000  0.06695000  0.90771000  1.0
  O  O71  1  0.55033000  0.00358000  0.18593000  1.0
  O  O72  1  0.20045000  0.94065000  0.24205000  1.0
  O  O73  1  0.27242000  0.95270000  0.38763000  1.0
  O  O74  1  0.05167000  0.83992000  0.93339000  1.0
  O  O75  1  0.45105000  0.81745000  0.00309000  1.0
  O  O76  1  0.73747000  0.69832000  0.93987000  1.0
  O  O77  1  0.67949000  0.56503000  0.95241000  1.0
  O  O78  1  0.79052000  0.90699000  0.83938000  1.0
  O  O79  1  0.63188000  0.18700000  0.18332000  1.0
  O  O80  1  0.03901000  0.24221000  0.30173000  1.0
  O  O81  1  0.11451000  0.38753000  0.43499000  1.0
  O  O82  1  0.87851000  0.93304000  0.09232000  1.0
  O  O83  1  0.44966000  0.99642000  0.81406000  1.0
  O  O84  1  0.79955000  0.05935000  0.75795000  1.0
  O  O85  1  0.72758000  0.04729000  0.61235000  1.0
  O  O86  1  0.94835000  0.16007000  0.06662000  1.0
  O  O87  1  0.39779000  0.00017000  0.99881000  1.0
  O  O88  1  0.60222000  0.99981000  0.00119000  1.0
  O  O89  1  0.00001000  0.00000000  0.00002000  1.0
