# generated using pymatgen
data_CuH18C18SBr2N6O
_symmetry_space_group_name_H-M   'P 1'
_cell_length_a   8.45775000
_cell_length_b   15.10010000
_cell_length_c   21.02510000
_cell_angle_alpha   90.00050000
_cell_angle_beta   90.00450000
_cell_angle_gamma   89.99890000
_symmetry_Int_Tables_number   1
_chemical_formula_structural   CuH18C18SBr2N6O
_chemical_formula_sum   'Cu4 H72 C72 S4 Br8 N24 O4'
_cell_volume   2685.17587045
_cell_formula_units_Z   4
loop_
 _symmetry_equiv_pos_site_id
 _symmetry_equiv_pos_as_xyz
  1  'x, y, z'
loop_
 _atom_site_type_symbol
 _atom_site_label
 _atom_site_symmetry_multiplicity
 _atom_site_fract_x
 _atom_site_fract_y
 _atom_site_fract_z
 _atom_site_occupancy
  Cu  Cu0  1  0.19528000  0.00321000  0.89896000  1.0
  Cu  Cu1  1  0.80469000  0.99680000  0.39900000  1.0
  Cu  Cu2  1  0.69525000  0.49677000  0.89896000  1.0
  Cu  Cu3  1  0.30471000  0.50322000  0.39898000  1.0
  H  H4  1  0.92680000  0.83273000  0.34349000  1.0
  H  H5  1  0.07317000  0.16724000  0.84345000  1.0
  H  H6  1  0.42682000  0.66729000  0.34348000  1.0
  H  H7  1  0.57315000  0.33273000  0.84345000  1.0
  H  H8  1  0.88689000  0.66951000  0.35865000  1.0
  H  H9  1  0.11307000  0.33050000  0.85860000  1.0
  H  H10  1  0.38688000  0.83051000  0.35864000  1.0
  H  H11  1  0.61308000  0.16949000  0.85862000  1.0
  H  H12  1  0.70150000  0.61821000  0.44520000  1.0
  H  H13  1  0.29841000  0.38179000  0.94517000  1.0
  H  H14  1  0.20149000  0.88180000  0.44519000  1.0
  H  H15  1  0.79846000  0.11821000  0.94517000  1.0
  H  H16  1  0.63198000  0.97773000  0.49543000  1.0
  H  H17  1  0.36793000  0.02227000  0.99541000  1.0
  H  H18  1  0.13203000  0.52228000  0.49541000  1.0
  H  H19  1  0.86794000  0.47772000  0.99540000  1.0
  H  H20  1  0.44973000  0.93150000  0.58215000  1.0
  H  H21  1  0.55023000  0.06848000  0.08212000  1.0
  H  H22  1  0.94974000  0.56849000  0.58212000  1.0
  H  H23  1  0.05022000  0.43151000  0.08212000  1.0
  H  H24  1  0.52594000  0.65692000  0.53264000  1.0
  H  H25  1  0.47405000  0.34309000  0.03263000  1.0
  H  H26  1  0.02594000  0.84308000  0.53264000  1.0
  H  H27  1  0.97407000  0.15690000  0.03263000  1.0
  H  H28  1  0.96350000  0.74354000  0.75989000  1.0
  H  H29  1  0.03648000  0.25644000  0.25992000  1.0
  H  H30  1  0.46352000  0.75646000  0.75988000  1.0
  H  H31  1  0.53648000  0.24357000  0.25993000  1.0
  H  H32  1  0.94333000  0.64730000  0.80863000  1.0
  H  H33  1  0.05669000  0.35268000  0.30865000  1.0
  H  H34  1  0.44337000  0.85269000  0.80863000  1.0
  H  H35  1  0.55669000  0.14733000  0.30865000  1.0
  H  H36  1  0.21318000  0.61666000  0.88124000  1.0
  H  H37  1  0.78678000  0.38336000  0.38123000  1.0
  H  H38  1  0.71322000  0.88332000  0.88124000  1.0
  H  H39  1  0.28677000  0.11666000  0.38123000  1.0
  H  H40  1  0.36081000  0.69608000  0.96690000  1.0
  H  H41  1  0.63919000  0.30396000  0.46690000  1.0
  H  H42  1  0.86081000  0.80389000  0.96691000  1.0
  H  H43  1  0.13919000  0.19608000  0.46690000  1.0
  H  H44  1  0.34676000  0.86234000  0.97112000  1.0
  H  H45  1  0.65329000  0.13771000  0.47116000  1.0
  H  H46  1  0.84671000  0.63762000  0.97112000  1.0
  H  H47  1  0.15332000  0.36232000  0.47116000  1.0
  H  H48  1  0.06319000  0.87181000  0.81033000  1.0
  H  H49  1  0.93678000  0.12819000  0.31036000  1.0
  H  H50  1  0.56318000  0.62818000  0.81032000  1.0
  H  H51  1  0.43680000  0.37181000  0.31036000  1.0
  H  H52  1  0.79932000  0.04147000  0.80552000  1.0
  H  H53  1  0.20076000  0.95853000  0.30555000  1.0
  H  H54  1  0.29926000  0.45842000  0.80539000  1.0
  H  H55  1  0.70076000  0.54150000  0.30554000  1.0
  H  H56  1  0.87295000  0.02837000  0.72657000  1.0
  H  H57  1  0.12705000  0.97165000  0.22661000  1.0
  H  H58  1  0.37304000  0.47160000  0.72648000  1.0
  H  H59  1  0.62706000  0.52838000  0.22661000  1.0
  H  H60  1  0.90376000  0.13081000  0.76874000  1.0
  H  H61  1  0.09622000  0.86920000  0.26878000  1.0
  H  H62  1  0.40388000  0.36913000  0.76863000  1.0
  H  H63  1  0.59621000  0.63082000  0.26878000  1.0
  H  H64  1  0.37604000  0.58225000  0.59072000  1.0
  H  H65  1  0.62395000  0.41774000  0.09070000  1.0
  H  H66  1  0.87602000  0.91775000  0.59072000  1.0
  H  H67  1  0.12398000  0.08226000  0.09070000  1.0
  H  H68  1  0.51739000  0.61190000  0.64278000  1.0
  H  H69  1  0.48260000  0.38811000  0.14275000  1.0
  H  H70  1  0.01739000  0.88810000  0.64277000  1.0
  H  H71  1  0.98262000  0.11190000  0.14275000  1.0
  H  H72  1  0.12931000  0.03062000  0.77289000  1.0
  H  H73  1  0.87072000  0.96940000  0.27297000  1.0
  H  H74  1  0.62931000  0.46938000  0.77288000  1.0
  H  H75  1  0.37072000  0.53063000  0.27296000  1.0
  C  C76  1  0.85005000  0.80783000  0.38097000  1.0
  C  C77  1  0.14993000  0.19218000  0.88094000  1.0
  C  C78  1  0.35007000  0.69218000  0.38096000  1.0
  C  C79  1  0.64991000  0.30781000  0.88094000  1.0
  C  C80  1  0.82519000  0.71645000  0.38933000  1.0
  C  C81  1  0.17481000  0.28358000  0.88930000  1.0
  C  C82  1  0.32519000  0.78357000  0.38932000  1.0
  C  C83  1  0.67481000  0.21641000  0.88930000  1.0
  C  C84  1  0.72584000  0.68836000  0.43717000  1.0
  C  C85  1  0.27414000  0.31167000  0.93714000  1.0
  C  C86  1  0.22583000  0.81165000  0.43716000  1.0
  C  C87  1  0.77415000  0.18833000  0.93714000  1.0
  C  C88  1  0.65199000  0.75193000  0.47689000  1.0
  C  C89  1  0.34798000  0.24810000  0.97684000  1.0
  C  C90  1  0.15199000  0.74809000  0.47688000  1.0
  C  C91  1  0.84799000  0.25190000  0.97684000  1.0
  C  C92  1  0.68324000  0.84353000  0.46557000  1.0
  C  C93  1  0.31674000  0.15650000  0.96555000  1.0
  C  C94  1  0.18326000  0.65649000  0.46555000  1.0
  C  C95  1  0.81673000  0.34350000  0.96554000  1.0
  C  C96  1  0.60832000  0.90782000  0.50426000  1.0
  C  C97  1  0.39167000  0.09220000  0.00424000  1.0
  C  C98  1  0.10833000  0.59220000  0.50423000  1.0
  C  C99  1  0.89167000  0.40780000  0.00423000  1.0
  C  C100  1  0.50791000  0.88252000  0.55219000  1.0
  C  C101  1  0.49210000  0.11748000  0.05217000  1.0
  C  C102  1  0.00790000  0.61749000  0.55217000  1.0
  C  C103  1  0.99210000  0.38252000  0.05217000  1.0
  C  C104  1  0.47608000  0.79119000  0.56417000  1.0
  C  C105  1  0.52396000  0.20879000  0.06416000  1.0
  C  C106  1  0.97606000  0.70882000  0.56416000  1.0
  C  C107  1  0.02397000  0.29121000  0.06416000  1.0
  C  C108  1  0.54811000  0.72738000  0.52658000  1.0
  C  C109  1  0.45189000  0.27261000  0.02655000  1.0
  C  C110  1  0.04810000  0.77263000  0.52657000  1.0
  C  C111  1  0.95191000  0.22739000  0.02655000  1.0
  C  C112  1  0.36493000  0.77196000  0.61501000  1.0
  C  C113  1  0.63510000  0.22803000  0.11499000  1.0
  C  C114  1  0.86492000  0.72804000  0.61500000  1.0
  C  C115  1  0.13510000  0.27197000  0.11499000  1.0
  C  C116  1  0.21993000  0.70785000  0.68847000  1.0
  C  C117  1  0.78006000  0.29215000  0.18846000  1.0
  C  C118  1  0.71995000  0.79215000  0.68846000  1.0
  C  C119  1  0.28007000  0.20786000  0.18847000  1.0
  C  C120  1  0.02781000  0.69458000  0.78818000  1.0
  C  C121  1  0.97220000  0.30540000  0.28820000  1.0
  C  C122  1  0.52784000  0.80541000  0.78818000  1.0
  C  C123  1  0.47220000  0.19460000  0.28820000  1.0
  C  C124  1  0.12447000  0.73784000  0.83918000  1.0
  C  C125  1  0.87551000  0.26215000  0.33919000  1.0
  C  C126  1  0.62450000  0.76214000  0.83917000  1.0
  C  C127  1  0.37552000  0.23786000  0.33919000  1.0
  C  C128  1  0.21030000  0.68883000  0.88391000  1.0
  C  C129  1  0.78967000  0.31117000  0.38391000  1.0
  C  C130  1  0.71032000  0.81115000  0.88391000  1.0
  C  C131  1  0.28966000  0.18884000  0.38392000  1.0
  C  C132  1  0.29211000  0.73300000  0.93190000  1.0
  C  C133  1  0.70786000  0.26701000  0.43190000  1.0
  C  C134  1  0.79211000  0.76698000  0.93190000  1.0
  C  C135  1  0.20786000  0.23302000  0.43190000  1.0
  C  C136  1  0.28604000  0.82501000  0.93409000  1.0
  C  C137  1  0.71397000  0.17501000  0.43411000  1.0
  C  C138  1  0.78601000  0.67497000  0.93408000  1.0
  C  C139  1  0.21398000  0.32501000  0.43411000  1.0
  C  C140  1  0.12625000  0.83009000  0.84416000  1.0
  C  C141  1  0.87374000  0.16991000  0.34419000  1.0
  C  C142  1  0.62624000  0.66990000  0.84415000  1.0
  C  C143  1  0.37375000  0.33010000  0.34419000  1.0
  C  C144  1  0.89687000  0.05810000  0.77334000  1.0
  C  C145  1  0.10316000  0.94192000  0.27337000  1.0
  C  C146  1  0.39691000  0.44185000  0.77324000  1.0
  C  C147  1  0.60315000  0.55811000  0.27337000  1.0
  S  S148  1  0.14278000  0.62437000  0.73524000  1.0
  S  S149  1  0.85726000  0.37563000  0.23524000  1.0
  S  S150  1  0.64280000  0.87563000  0.73523000  1.0
  S  S151  1  0.35726000  0.12438000  0.23524000  1.0
  Br  Br152  1  0.41794000  0.02501000  0.82161000  1.0
  Br  Br153  1  0.58224000  0.97501000  0.32153000  1.0
  Br  Br154  1  0.91788000  0.47499000  0.82160000  1.0
  Br  Br155  1  0.08222000  0.52500000  0.32154000  1.0
  Br  Br156  1  0.00200000  0.98413000  0.98691000  1.0
  Br  Br157  1  0.99784000  0.01589000  0.48699000  1.0
  Br  Br158  1  0.50200000  0.51588000  0.98692000  1.0
  Br  Br159  1  0.49789000  0.48415000  0.48696000  1.0
  N  N160  1  0.78236000  0.86901000  0.41744000  1.0
  N  N161  1  0.21761000  0.13099000  0.91741000  1.0
  N  N162  1  0.28238000  0.63101000  0.41742000  1.0
  N  N163  1  0.71759000  0.36900000  0.91741000  1.0
  N  N164  1  0.27681000  0.83363000  0.64295000  1.0
  N  N165  1  0.72321000  0.16637000  0.14294000  1.0
  N  N166  1  0.77682000  0.66636000  0.64294000  1.0
  N  N167  1  0.22319000  0.33363000  0.14294000  1.0
  N  N168  1  0.18532000  0.79383000  0.68914000  1.0
  N  N169  1  0.81467000  0.20617000  0.18914000  1.0
  N  N170  1  0.68535000  0.70616000  0.68913000  1.0
  N  N171  1  0.31466000  0.29384000  0.18914000  1.0
  N  N172  1  0.33100000  0.69061000  0.64260000  1.0
  N  N173  1  0.66900000  0.30939000  0.14258000  1.0
  N  N174  1  0.83100000  0.80939000  0.64259000  1.0
  N  N175  1  0.16901000  0.19061000  0.14258000  1.0
  N  N176  1  0.39776000  0.60648000  0.63543000  1.0
  N  N177  1  0.60223000  0.39352000  0.13541000  1.0
  N  N178  1  0.89775000  0.89351000  0.63543000  1.0
  N  N179  1  0.10225000  0.10649000  0.13541000  1.0
  N  N180  1  0.20478000  0.87257000  0.89075000  1.0
  N  N181  1  0.79522000  0.12747000  0.39078000  1.0
  N  N182  1  0.70476000  0.62741000  0.89075000  1.0
  N  N183  1  0.29524000  0.37255000  0.39078000  1.0
  O  O184  1  0.03845000  0.02185000  0.80101000  1.0
  O  O185  1  0.96163000  0.97818000  0.30106000  1.0
  O  O186  1  0.53838000  0.47811000  0.80097000  1.0
  O  O187  1  0.46163000  0.52183000  0.30105000  1.0
