# generated using pymatgen
data_ZnH6C19N(ClO4)2
_symmetry_space_group_name_H-M   'P 1'
_cell_length_a   11.81870000
_cell_length_b   16.97930000
_cell_length_c   17.80220000
_cell_angle_alpha   89.99920000
_cell_angle_beta   91.16900000
_cell_angle_gamma   89.99900000
_symmetry_Int_Tables_number   1
_chemical_formula_structural   ZnH6C19N(ClO4)2
_chemical_formula_sum   'Zn2 H12 C38 N2 Cl4 O16'
_cell_volume   3571.68184628
_cell_formula_units_Z   2
loop_
 _symmetry_equiv_pos_site_id
 _symmetry_equiv_pos_as_xyz
  1  'x, y, z'
loop_
 _atom_site_type_symbol
 _atom_site_label
 _atom_site_symmetry_multiplicity
 _atom_site_fract_x
 _atom_site_fract_y
 _atom_site_fract_z
 _atom_site_occupancy
  Zn  Zn0  1  0.50000000  0.41290000  0.50000000  1.0
  Zn  Zn1  1  0.49999000  0.58706000  0.50000000  1.0
  H  H2  1  0.64672000  0.13163000  0.57491000  1.0
  H  H3  1  0.36681000  0.69453000  0.96049000  1.0
  H  H4  1  0.63390000  0.30657000  0.96100000  1.0
  H  H5  1  0.63323000  0.69453000  0.03951000  1.0
  H  H6  1  0.38344000  0.86814000  0.40447000  1.0
  H  H7  1  0.35328000  0.13163000  0.42509000  1.0
  H  H8  1  0.61655000  0.86814000  0.59552000  1.0
  H  H9  1  0.46388000  0.37877000  0.26408000  1.0
  H  H10  1  0.46534000  0.62677000  0.73728000  1.0
  H  H11  1  0.53615000  0.37877000  0.73592000  1.0
  H  H12  1  0.53467000  0.62676000  0.26273000  1.0
  H  H13  1  0.36615000  0.30659000  0.03899000  1.0
  C  C14  1  0.50135000  0.50346000  0.64368000  1.0
  C  C15  1  0.50055000  0.50112000  0.88682000  1.0
  C  C16  1  0.49974000  0.50059000  0.03418000  1.0
  C  C17  1  0.50034000  0.50058000  0.96582000  1.0
  C  C18  1  0.71708000  0.49600000  0.49664000  1.0
  C  C19  1  0.28291000  0.49599000  0.50337000  1.0
  C  C20  1  0.58162000  0.16146000  0.54166000  1.0
  C  C21  1  0.43503000  0.83832000  0.44694000  1.0
  C  C22  1  0.41837000  0.16146000  0.45834000  1.0
  C  C23  1  0.56497000  0.83832000  0.55305000  1.0
  C  C24  1  0.57813000  0.24342000  0.53980000  1.0
  C  C25  1  0.49866000  0.50346000  0.35632000  1.0
  C  C26  1  0.43768000  0.75635000  0.44932000  1.0
  C  C27  1  0.42187000  0.24342000  0.46020000  1.0
  C  C28  1  0.56231000  0.75635000  0.55067000  1.0
  C  C29  1  0.50000000  0.03576000  0.50000000  1.0
  C  C30  1  0.50000000  0.96401000  0.49999000  1.0
  C  C31  1  0.83932000  0.49508000  0.49712000  1.0
  C  C32  1  0.16067000  0.49508000  0.50288000  1.0
  C  C33  1  0.94290000  0.49441000  0.49901000  1.0
  C  C34  1  0.05709000  0.49441000  0.50099000  1.0
  C  C35  1  0.50000000  0.11908000  0.50000000  1.0
  C  C36  1  0.47917000  0.43276000  0.23284000  1.0
  C  C37  1  0.50000000  0.88068000  0.50000000  1.0
  C  C38  1  0.47636000  0.43147000  0.15455000  1.0
  C  C39  1  0.47759000  0.57162000  0.84612000  1.0
  C  C40  1  0.52370000  0.43148000  0.84545000  1.0
  C  C41  1  0.52246000  0.57161000  0.15388000  1.0
  C  C42  1  0.45068000  0.35414000  0.11798000  1.0
  C  C43  1  0.45320000  0.64813000  0.88399000  1.0
  C  C44  1  0.54937000  0.35415000  0.88202000  1.0
  C  C45  1  0.54685000  0.64813000  0.11601000  1.0
  C  C46  1  0.48045000  0.57210000  0.76789000  1.0
  C  C47  1  0.52087000  0.43277000  0.76716000  1.0
  C  C48  1  0.51957000  0.57210000  0.23211000  1.0
  C  C49  1  0.49935000  0.50281000  0.27209000  1.0
  C  C50  1  0.50067000  0.50281000  0.72791000  1.0
  C  C51  1  0.49951000  0.50111000  0.11318000  1.0
  N  N52  1  0.50000000  0.28517000  0.50000000  1.0
  N  N53  1  0.50000000  0.71464000  0.50000000  1.0
  Cl  Cl54  1  0.67864000  0.29317000  0.59112000  1.0
  Cl  Cl55  1  0.35684000  0.70670000  0.38443000  1.0
  Cl  Cl56  1  0.32136000  0.29317000  0.40887000  1.0
  Cl  Cl57  1  0.64316000  0.70670000  0.61557000  1.0
  O  O58  1  0.52963000  0.43970000  0.61159000  1.0
  O  O59  1  0.37674000  0.36006000  0.05875000  1.0
  O  O60  1  0.49631000  0.71078000  0.86640000  1.0
  O  O61  1  0.37560000  0.64176000  0.93893000  1.0
  O  O62  1  0.51080000  0.29125000  0.85995000  1.0
  O  O63  1  0.62330000  0.36005000  0.94126000  1.0
  O  O64  1  0.50374000  0.71078000  0.13361000  1.0
  O  O65  1  0.62443000  0.64176000  0.06107000  1.0
  O  O66  1  0.52579000  0.56794000  0.38846000  1.0
  O  O67  1  0.47037000  0.43969000  0.38841000  1.0
  O  O68  1  0.47420000  0.56794000  0.61154000  1.0
  O  O69  1  0.66813000  0.43183000  0.47811000  1.0
  O  O70  1  0.32902000  0.56055000  0.48462000  1.0
  O  O71  1  0.33186000  0.43183000  0.52189000  1.0
  O  O72  1  0.67097000  0.56055000  0.51538000  1.0
  O  O73  1  0.48926000  0.29124000  0.14003000  1.0
