# generated using pymatgen
data_ZnSiH16C24N8(O4F3)2
_symmetry_space_group_name_H-M   'P 1'
_cell_length_a   7.64459000
_cell_length_b   13.73280000
_cell_length_c   13.73280000
_cell_angle_alpha   89.01170000
_cell_angle_beta   82.19790000
_cell_angle_gamma   82.19240000
_symmetry_Int_Tables_number   1
_chemical_formula_structural   ZnSiH16C24N8(O4F3)2
_chemical_formula_sum   'Zn1 Si1 H16 C24 N8 O8 F6'
_cell_volume   1415.10368004
_cell_formula_units_Z   1
loop_
 _symmetry_equiv_pos_site_id
 _symmetry_equiv_pos_as_xyz
  1  'x, y, z'
loop_
 _atom_site_type_symbol
 _atom_site_label
 _atom_site_symmetry_multiplicity
 _atom_site_fract_x
 _atom_site_fract_y
 _atom_site_fract_z
 _atom_site_occupancy
  Zn  Zn0  1  0.49998000  0.49888000  0.50113000  1.0
  Si  Si1  1  0.99999000  0.49942000  0.50058000  1.0
  H  H2  1  0.27101000  0.57041000  0.34591000  1.0
  H  H3  1  0.28095000  0.57919000  0.16758000  1.0
  H  H4  1  0.82414000  0.42888000  0.14308000  1.0
  H  H5  1  0.79505000  0.43412000  0.32506000  1.0
  H  H6  1  0.20678000  0.43087000  0.85783000  1.0
  H  H7  1  0.68094000  0.57738000  0.83438000  1.0
  H  H8  1  0.69656000  0.56834000  0.65577000  1.0
  H  H9  1  0.23415000  0.43599000  0.67569000  1.0
  H  H10  1  0.30344000  0.34425000  0.43165000  1.0
  H  H11  1  0.31909000  0.16564000  0.42259000  1.0
  H  H12  1  0.79320000  0.14217000  0.56917000  1.0
  H  H13  1  0.76582000  0.32430000  0.56405000  1.0
  H  H14  1  0.17579000  0.85697000  0.57102000  1.0
  H  H15  1  0.71907000  0.83241000  0.42084000  1.0
  H  H16  1  0.72898000  0.65408000  0.42963000  1.0
  H  H17  1  0.20488000  0.67498000  0.56580000  1.0
  C  C18  1  0.39213000  0.54035000  0.29863000  1.0
  C  C19  1  0.39716000  0.54260000  0.19725000  1.0
  C  C20  1  0.55157000  0.50030000  0.13748000  1.0
  C  C21  1  0.69829000  0.46106000  0.18442000  1.0
  C  C22  1  0.68302000  0.46283000  0.28650000  1.0
  C  C23  1  0.56356000  0.49767000  0.02994000  1.0
  C  C24  1  0.43449000  0.49911000  0.97135000  1.0
  C  C25  1  0.31789000  0.46228000  0.81661000  1.0
  C  C26  1  0.44628000  0.50063000  0.86373000  1.0
  C  C27  1  0.58189000  0.54161000  0.80426000  1.0
  C  C28  1  0.58877000  0.53917000  0.70282000  1.0
  C  C29  1  0.33287000  0.46389000  0.71449000  1.0
  C  C30  1  0.41124000  0.29719000  0.46082000  1.0
  C  C31  1  0.41812000  0.19575000  0.45837000  1.0
  C  C32  1  0.55372000  0.13627000  0.49939000  1.0
  C  C33  1  0.68210000  0.18339000  0.53774000  1.0
  C  C34  1  0.66711000  0.28552000  0.53613000  1.0
  C  C35  1  0.56548000  0.02865000  0.50091000  1.0
  C  C36  1  0.43642000  0.97007000  0.50229000  1.0
  C  C37  1  0.30166000  0.81561000  0.53887000  1.0
  C  C38  1  0.44841000  0.86253000  0.49967000  1.0
  C  C39  1  0.60283000  0.80276000  0.45739000  1.0
  C  C40  1  0.60785000  0.70138000  0.45965000  1.0
  C  C41  1  0.31692000  0.71353000  0.53711000  1.0
  N  N42  1  0.53161000  0.50056000  0.34279000  1.0
  N  N43  1  0.46748000  0.50052000  0.65851000  1.0
  N  N44  1  0.53250000  0.34150000  0.49950000  1.0
  N  N45  1  0.46835000  0.65723000  0.49942000  1.0
  N  N46  1  0.75021000  0.49312000  0.97988000  1.0
  N  N47  1  0.24821000  0.50067000  0.02102000  1.0
  N  N48  1  0.75173000  0.97896000  0.49947000  1.0
  N  N49  1  0.24977000  0.02013000  0.50671000  1.0
  O  O50  1  0.81283000  0.57163000  0.97458000  1.0
  O  O51  1  0.82767000  0.41234000  0.94983000  1.0
  O  O52  1  0.15580000  0.58190000  0.02656000  1.0
  O  O53  1  0.20058000  0.42176000  0.05059000  1.0
  O  O54  1  0.84431000  0.97338000  0.41829000  1.0
  O  O55  1  0.79918000  0.94943000  0.57843000  1.0
  O  O56  1  0.18733000  0.02545000  0.42815000  1.0
  O  O57  1  0.17217000  0.05019000  0.58745000  1.0
  F  F58  1  0.22603000  0.50403000  0.50520000  1.0
  F  F59  1  0.77395000  0.49477000  0.49598000  1.0
  F  F60  1  0.99996000  0.58824000  0.41174000  1.0
  F  F61  1  0.00003000  0.41113000  0.58887000  1.0
  F  F62  1  0.05234000  0.41171000  0.41112000  1.0
  F  F63  1  0.94764000  0.58887000  0.58828000  1.0
