# generated using pymatgen
data_ZnH9C18SN3O7F2
_symmetry_space_group_name_H-M   'P 1'
_cell_length_a   11.02670000
_cell_length_b   15.95870000
_cell_length_c   17.29820000
_cell_angle_alpha   83.47340000
_cell_angle_beta   89.64770000
_cell_angle_gamma   88.17640000
_symmetry_Int_Tables_number   1
_chemical_formula_structural   ZnH9C18SN3O7F2
_chemical_formula_sum   'Zn2 H18 C36 S2 N6 O14 F4'
_cell_volume   3022.72629629
_cell_formula_units_Z   2
loop_
 _symmetry_equiv_pos_site_id
 _symmetry_equiv_pos_as_xyz
  1  'x, y, z'
loop_
 _atom_site_type_symbol
 _atom_site_label
 _atom_site_symmetry_multiplicity
 _atom_site_fract_x
 _atom_site_fract_y
 _atom_site_fract_z
 _atom_site_occupancy
  Zn  Zn0  1  0.50193000  0.41311000  0.49845000  1.0
  Zn  Zn1  1  0.49309000  0.59049000  0.49092000  1.0
  H  H2  1  0.60890000  0.71842000  0.57000000  1.0
  H  H3  1  0.60777000  0.87527000  0.57014000  1.0
  H  H4  1  0.32672000  0.89243000  0.39423000  1.0
  H  H5  1  0.65691000  0.10891000  0.59804000  1.0
  H  H6  1  0.37565000  0.12785000  0.42288000  1.0
  H  H7  1  0.37838000  0.28662000  0.42263000  1.0
  H  H8  1  0.51337000  0.62048000  0.73351000  1.0
  H  H9  1  0.51445000  0.61532000  0.87923000  1.0
  H  H10  1  0.51334000  0.34362000  0.89638000  1.0
  H  H11  1  0.49173000  0.65772000  0.09417000  1.0
  H  H12  1  0.51190000  0.38624000  0.10878000  1.0
  H  H13  1  0.50690000  0.37954000  0.25473000  1.0
  H  H14  1  0.21954000  0.59393000  0.61458000  1.0
  H  H15  1  0.77011000  0.61144000  0.60421000  1.0
  H  H16  1  0.88482000  0.41254000  0.42783000  1.0
  H  H17  1  0.11210000  0.40547000  0.43090000  1.0
  H  H18  1  0.22274000  0.80334000  0.65013000  1.0
  H  H19  1  0.76108000  0.63189000  0.80043000  1.0
  C  C20  1  0.50637000  0.49453000  0.64573000  1.0
  C  C21  1  0.73359000  0.51072000  0.49725000  1.0
  C  C22  1  0.49490000  0.50417000  0.34398000  1.0
  C  C23  1  0.26153000  0.49487000  0.50389000  1.0
  C  C24  1  0.54920000  0.75959000  0.53167000  1.0
  C  C25  1  0.54794000  0.84622000  0.53192000  1.0
  C  C26  1  0.46710000  0.89529000  0.48153000  1.0
  C  C27  1  0.39043000  0.85610000  0.43362000  1.0
  C  C28  1  0.39966000  0.76852000  0.43830000  1.0
  C  C29  1  0.59406000  0.14588000  0.55848000  1.0
  C  C30  1  0.51650000  0.10745000  0.51073000  1.0
  C  C31  1  0.43635000  0.15725000  0.46032000  1.0
  C  C32  1  0.43757000  0.24386000  0.46003000  1.0
  C  C33  1  0.58740000  0.23358000  0.55314000  1.0
  C  C34  1  0.51254000  0.48650000  0.73279000  1.0
  C  C35  1  0.51512000  0.56047000  0.77043000  1.0
  C  C36  1  0.51609000  0.55787000  0.85073000  1.0
  C  C37  1  0.51444000  0.47902000  0.89659000  1.0
  C  C38  1  0.51407000  0.40454000  0.86094000  1.0
  C  C39  1  0.51307000  0.40907000  0.78030000  1.0
  C  C40  1  0.49498000  0.59645000  0.12910000  1.0
  C  C41  1  0.50253000  0.52243000  0.09275000  1.0
  C  C42  1  0.50631000  0.44320000  0.13794000  1.0
  C  C43  1  0.50324000  0.43985000  0.21819000  1.0
  C  C44  1  0.49612000  0.51320000  0.25675000  1.0
  C  C45  1  0.49166000  0.59107000  0.20979000  1.0
  C  C46  1  0.12574000  0.49723000  0.51064000  1.0
  C  C47  1  0.06133000  0.55076000  0.55879000  1.0
  C  C48  1  0.06153000  0.44729000  0.46590000  1.0
  C  C49  1  0.12112000  0.59775000  0.61137000  1.0
  C  C50  1  0.05861000  0.64820000  0.65875000  1.0
  C  C51  1  0.86897000  0.50622000  0.50626000  1.0
  C  C52  1  0.93428000  0.45152000  0.46390000  1.0
  C  C53  1  0.93132000  0.55556000  0.55629000  1.0
  C  C54  1  0.86871000  0.60744000  0.60599000  1.0
  C  C55  1  0.92893000  0.65328000  0.65596000  1.0
  S  S56  1  0.15256000  0.69991000  0.72193000  1.0
  S  S57  1  0.83368000  0.71841000  0.71055000  1.0
  N  N58  1  0.47599000  0.72100000  0.48487000  1.0
  N  N59  1  0.45537000  0.98465000  0.47451000  1.0
  N  N60  1  0.52708000  0.01814000  0.51770000  1.0
  N  N61  1  0.51266000  0.28185000  0.50612000  1.0
  N  N62  1  0.51155000  0.46713000  0.97871000  1.0
  N  N63  1  0.50607000  0.53483000  0.01058000  1.0
  O  O64  1  0.49147000  0.42773000  0.61365000  1.0
  O  O65  1  0.51546000  0.56861000  0.61041000  1.0
  O  O66  1  0.68147000  0.58339000  0.48943000  1.0
  O  O67  1  0.68314000  0.44025000  0.49682000  1.0
  O  O68  1  0.48815000  0.57129000  0.37705000  1.0
  O  O69  1  0.50117000  0.42907000  0.37843000  1.0
  O  O70  1  0.31322000  0.42474000  0.49329000  1.0
  O  O71  1  0.31360000  0.56442000  0.50732000  1.0
  O  O72  1  0.14879000  0.79696000  0.68161000  1.0
  O  O73  1  0.09616000  0.69965000  0.79652000  1.0
  O  O74  1  0.27563000  0.66858000  0.71363000  1.0
  O  O75  1  0.83218000  0.66771000  0.79655000  1.0
  O  O76  1  0.89064000  0.79664000  0.71646000  1.0
  O  O77  1  0.71187000  0.71741000  0.68026000  1.0
  F  F78  1  0.32773000  0.72800000  0.39382000  1.0
  F  F79  1  0.66070000  0.27329000  0.59729000  1.0
  F  F80  1  0.51269000  0.33454000  0.74957000  1.0
  F  F81  1  0.48421000  0.66518000  0.24120000  1.0
