# generated using pymatgen
data_Cu5H18C26I5N4
_symmetry_space_group_name_H-M   'P 1'
_cell_length_a   9.99397000
_cell_length_b   14.46000000
_cell_length_c   15.17260000
_cell_angle_alpha   118.12200000
_cell_angle_beta   95.77820000
_cell_angle_gamma   103.51700000
_symmetry_Int_Tables_number   1
_chemical_formula_structural   Cu5H18C26I5N4
_chemical_formula_sum   'Cu10 H36 C52 I10 N8'
_cell_volume   1822.49741113
_cell_formula_units_Z   2
loop_
 _symmetry_equiv_pos_site_id
 _symmetry_equiv_pos_as_xyz
  1  'x, y, z'
loop_
 _atom_site_type_symbol
 _atom_site_label
 _atom_site_symmetry_multiplicity
 _atom_site_fract_x
 _atom_site_fract_y
 _atom_site_fract_z
 _atom_site_occupancy
  Cu  Cu0  1  0.94120000  0.57458000  0.53541000  1.0
  Cu  Cu1  1  0.92569000  0.61488000  0.73893000  1.0
  Cu  Cu2  1  0.73878000  0.72132000  0.78008000  1.0
  Cu  Cu3  1  0.67510000  0.51422000  0.75118000  1.0
  Cu  Cu4  1  0.84865000  0.68135000  0.90941000  1.0
  Cu  Cu5  1  0.05880000  0.42542000  0.46459000  1.0
  Cu  Cu6  1  0.07431000  0.38512000  0.26107000  1.0
  Cu  Cu7  1  0.26122000  0.27868000  0.21991000  1.0
  Cu  Cu8  1  0.32490000  0.48578000  0.24882000  1.0
  Cu  Cu9  1  0.15135000  0.31866000  0.09059000  1.0
  H  H10  1  0.10451000  0.80858000  0.68589000  1.0
  H  H11  1  0.30647000  0.94515000  0.68334000  1.0
  H  H12  1  0.18320000  0.74504000  0.35017000  1.0
  H  H13  1  0.98668000  0.61817000  0.36641000  1.0
  H  H14  1  0.25669000  0.94215000  0.39818000  1.0
  H  H15  1  0.42106000  0.74369000  0.51887000  1.0
  H  H16  1  0.50591000  0.66117000  0.61267000  1.0
  H  H17  1  0.80171000  0.96050000  0.83701000  1.0
  H  H18  1  0.72110000  0.05990000  0.75674000  1.0
  H  H19  1  0.09106000  0.08894000  0.93135000  1.0
  H  H20  1  0.05621000  0.98004000  0.74184000  1.0
  H  H21  1  0.08621000  0.28157000  0.73790000  1.0
  H  H22  1  0.11460000  0.37722000  0.92774000  1.0
  H  H23  1  0.87128000  0.93004000  0.59802000  1.0
  H  H24  1  0.18586000  0.27440000  0.51798000  1.0
  H  H25  1  0.40841000  0.43072000  0.59871000  1.0
  H  H26  1  0.57599000  0.30935000  0.76727000  1.0
  H  H27  1  0.35369000  0.14991000  0.69890000  1.0
  H  H28  1  0.89549000  0.19142000  0.31411000  1.0
  H  H29  1  0.69353000  0.05485000  0.31666000  1.0
  H  H30  1  0.81680000  0.25496000  0.64982000  1.0
  H  H31  1  0.01332000  0.38183000  0.63359000  1.0
  H  H32  1  0.74331000  0.05785000  0.60182000  1.0
  H  H33  1  0.57894000  0.25632000  0.48113000  1.0
  H  H34  1  0.49409000  0.33883000  0.38733000  1.0
  H  H35  1  0.19829000  0.03950000  0.16299000  1.0
  H  H36  1  0.27889000  0.94010000  0.24326000  1.0
  H  H37  1  0.90894000  0.91106000  0.06865000  1.0
  H  H38  1  0.94379000  0.01997000  0.25816000  1.0
  H  H39  1  0.91379000  0.71843000  0.26210000  1.0
  H  H40  1  0.88541000  0.62278000  0.07226000  1.0
  H  H41  1  0.12872000  0.06996000  0.40198000  1.0
  H  H42  1  0.81414000  0.72560000  0.48201000  1.0
  H  H43  1  0.59159000  0.56928000  0.40129000  1.0
  H  H44  1  0.42401000  0.69066000  0.23273000  1.0
  H  H45  1  0.64631000  0.85009000  0.30110000  1.0
  C  C46  1  0.12523000  0.79875000  0.61317000  1.0
  C  C47  1  0.23774000  0.87408000  0.61106000  1.0
  C  C48  1  0.26366000  0.85589000  0.51595000  1.0
  C  C49  1  0.16804000  0.76471000  0.42647000  1.0
  C  C50  1  0.05844000  0.69287000  0.43492000  1.0
  C  C51  1  0.38749000  0.92734000  0.50816000  1.0
  C  C52  1  0.36521000  0.96548000  0.44049000  1.0
  C  C53  1  0.52624000  0.96068000  0.56827000  1.0
  C  C54  1  0.56455000  0.91054000  0.62833000  1.0
  C  C55  1  0.50345000  0.79695000  0.59032000  1.0
  C  C56  1  0.55214000  0.74932000  0.64195000  1.0
  C  C57  1  0.71633000  0.91621000  0.76681000  1.0
  C  C58  1  0.67137000  0.97077000  0.72072000  1.0
  C  C59  1  0.08942000  0.12848000  0.88540000  1.0
  C  C60  1  0.07026000  0.06822000  0.77938000  1.0
  C  C61  1  0.07046000  0.12161000  0.72252000  1.0
  C  C62  1  0.08789000  0.23532000  0.77736000  1.0
  C  C63  1  0.10375000  0.28942000  0.88337000  1.0
  C  C64  1  0.04313000  0.05914000  0.60901000  1.0
  C  C65  1  0.93038000  0.95919000  0.55433000  1.0
  C  C66  1  0.11688000  0.10028000  0.55327000  1.0
  C  C67  1  0.24787000  0.19742000  0.60191000  1.0
  C  C68  1  0.26791000  0.27797000  0.57346000  1.0
  C  C69  1  0.39354000  0.36608000  0.61821000  1.0
  C  C70  1  0.48542000  0.29876000  0.71273000  1.0
  C  C71  1  0.36104000  0.21006000  0.67411000  1.0
  C  C72  1  0.87477000  0.20125000  0.38683000  1.0
  C  C73  1  0.76226000  0.12592000  0.38894000  1.0
  C  C74  1  0.73634000  0.14411000  0.48405000  1.0
  C  C75  1  0.83196000  0.23529000  0.57353000  1.0
  C  C76  1  0.94156000  0.30714000  0.56508000  1.0
  C  C77  1  0.61251000  0.07266000  0.49184000  1.0
  C  C78  1  0.63479000  0.03452000  0.55951000  1.0
  C  C79  1  0.47376000  0.03932000  0.43173000  1.0
  C  C80  1  0.43545000  0.08946000  0.37167000  1.0
  C  C81  1  0.49655000  0.20305000  0.40968000  1.0
  C  C82  1  0.44786000  0.25068000  0.35805000  1.0
  C  C83  1  0.28367000  0.08379000  0.23319000  1.0
  C  C84  1  0.32863000  0.02922000  0.27928000  1.0
  C  C85  1  0.91058000  0.87152000  0.11460000  1.0
  C  C86  1  0.92974000  0.93178000  0.22063000  1.0
  C  C87  1  0.92954000  0.87839000  0.27748000  1.0
  C  C88  1  0.91211000  0.76468000  0.22264000  1.0
  C  C89  1  0.89625000  0.71058000  0.11663000  1.0
  C  C90  1  0.95687000  0.94086000  0.39099000  1.0
  C  C91  1  0.06962000  0.04080000  0.44567000  1.0
  C  C92  1  0.88313000  0.89972000  0.44673000  1.0
  C  C93  1  0.75213000  0.80258000  0.39809000  1.0
  C  C94  1  0.73209000  0.72202000  0.42654000  1.0
  C  C95  1  0.60646000  0.63392000  0.38179000  1.0
  C  C96  1  0.51458000  0.70124000  0.28727000  1.0
  C  C97  1  0.63896000  0.78994000  0.32589000  1.0
  I  I98  1  0.70069000  0.53018000  0.58098000  1.0
  I  I99  1  0.15234000  0.58798000  0.66835000  1.0
  I  I100  1  0.01044000  0.83607000  0.87223000  1.0
  I  I101  1  0.89471000  0.48881000  0.83981000  1.0
  I  I102  1  0.56141000  0.66426000  0.87465000  1.0
  I  I103  1  0.29931000  0.46982000  0.41902000  1.0
  I  I104  1  0.84766000  0.41202000  0.33165000  1.0
  I  I105  1  0.98956000  0.16393000  0.12777000  1.0
  I  I106  1  0.10529000  0.51119000  0.16019000  1.0
  I  I107  1  0.43859000  0.33574000  0.12535000  1.0
  N  N108  1  0.03822000  0.70702000  0.52652000  1.0
  N  N109  1  0.66021000  0.80625000  0.72724000  1.0
  N  N110  1  0.10537000  0.23750000  0.93741000  1.0
  N  N111  1  0.50263000  0.37695000  0.68612000  1.0
  N  N112  1  0.96178000  0.29298000  0.47348000  1.0
  N  N113  1  0.33979000  0.19375000  0.27276000  1.0
  N  N114  1  0.89464000  0.76250000  0.06259000  1.0
  N  N115  1  0.49737000  0.62305000  0.31388000  1.0
