# generated using pymatgen
data_Mg5H38C52(N2O9)2
_symmetry_space_group_name_H-M   'P 1'
_cell_length_a   9.79605000
_cell_length_b   10.10270000
_cell_length_c   14.16850000
_cell_angle_alpha   73.89950000
_cell_angle_beta   73.41180000
_cell_angle_gamma   70.02740000
_symmetry_Int_Tables_number   1
_chemical_formula_structural   Mg5H38C52(N2O9)2
_chemical_formula_sum   'Mg5 H38 C52 N4 O18'
_cell_volume   1237.60435257
_cell_formula_units_Z   1
loop_
 _symmetry_equiv_pos_site_id
 _symmetry_equiv_pos_as_xyz
  1  'x, y, z'
loop_
 _atom_site_type_symbol
 _atom_site_label
 _atom_site_symmetry_multiplicity
 _atom_site_fract_x
 _atom_site_fract_y
 _atom_site_fract_z
 _atom_site_occupancy
  Mg  Mg0  1  0.20516000  0.43426000  0.00782000  1.0
  Mg  Mg1  1  0.79484000  0.56574000  0.99218000  1.0
  Mg  Mg2  1  0.50000000  0.50000000  0.00000000  1.0
  Mg  Mg3  1  0.53615000  0.15366000  0.98630000  1.0
  Mg  Mg4  1  0.46385000  0.84634000  0.01370000  1.0
  H  H5  1  0.55760000  0.59365000  0.12022000  1.0
  H  H6  1  0.44240000  0.40635000  0.87978000  1.0
  H  H7  1  0.59133000  0.98549000  0.69315000  1.0
  H  H8  1  0.40867000  0.01451000  0.30685000  1.0
  H  H9  1  0.69009000  0.02702000  0.50868000  1.0
  H  H10  1  0.30991000  0.97298000  0.49132000  1.0
  H  H11  1  0.73288000  0.58585000  0.51233000  1.0
  H  H12  1  0.26712000  0.41415000  0.48767000  1.0
  H  H13  1  0.63424000  0.54815000  0.69663000  1.0
  H  H14  1  0.36576000  0.45185000  0.30336000  1.0
  H  H15  1  0.68979000  0.06718000  0.35771000  1.0
  H  H16  1  0.31021000  0.93282000  0.64229000  1.0
  H  H17  1  0.80829000  0.09759000  0.17707000  1.0
  H  H18  1  0.19171000  0.90241000  0.82293000  1.0
  H  H19  1  0.89223000  0.60847000  0.37972000  1.0
  H  H20  1  0.10777000  0.39153000  0.62028000  1.0
  H  H21  1  0.99810000  0.65889000  0.19805000  1.0
  H  H22  1  0.00190000  0.34112000  0.80195000  1.0
  H  H23  1  0.66473000  0.38830000  0.26811000  1.0
  H  H24  1  0.33527000  0.61171000  0.73189000  1.0
  H  H25  1  0.56428000  0.31940000  0.44990000  1.0
  H  H26  1  0.43572000  0.68060000  0.55010000  1.0
  H  H27  1  0.99287000  0.25581000  0.50972000  1.0
  H  H28  1  0.00713000  0.74419000  0.49028000  1.0
  H  H29  1  0.09139000  0.32326000  0.32728000  1.0
  H  H30  1  0.90862000  0.67674000  0.67272000  1.0
  H  H31  1  0.82758000  0.06422000  0.82307000  1.0
  H  H32  1  0.17242000  0.93578000  0.17693000  1.0
  H  H33  1  0.92798000  0.11358000  0.64063000  1.0
  H  H34  1  0.07202000  0.88642000  0.35937000  1.0
  H  H35  1  0.47879000  0.34831000  0.60332000  1.0
  H  H36  1  0.52121000  0.65169000  0.39668000  1.0
  H  H37  1  0.39614000  0.27621000  0.78684000  1.0
  H  H38  1  0.60386000  0.72379000  0.21316000  1.0
  H  H39  1  0.91740000  0.23648000  0.97971000  1.0
  H  H40  1  0.08260000  0.76352000  0.02029000  1.0
  H  H41  1  0.15868000  0.06097000  0.99324000  1.0
  H  H42  1  0.84132000  0.93903000  0.00677000  1.0
  C  C43  1  0.54774000  0.74002000  0.81754000  1.0
  C  C44  1  0.45226000  0.25998000  0.18246000  1.0
  C  C45  1  0.60499000  0.76518000  0.70577000  1.0
  C  C46  1  0.39501000  0.23482000  0.29423000  1.0
  C  C47  1  0.62134000  0.89969000  0.65209000  1.0
  C  C48  1  0.37865000  0.10031000  0.34791000  1.0
  C  C49  1  0.67576000  0.92220000  0.54878000  1.0
  C  C50  1  0.32425000  0.07780000  0.45122000  1.0
  C  C51  1  0.71702000  0.81048000  0.49596000  1.0
  C  C52  1  0.28298000  0.18952000  0.50404000  1.0
  C  C53  1  0.70152000  0.67503000  0.55080000  1.0
  C  C54  1  0.29848000  0.32497000  0.44920000  1.0
  C  C55  1  0.64584000  0.65300000  0.65413000  1.0
  C  C56  1  0.35416000  0.34700000  0.34587000  1.0
  C  C57  1  0.78006000  0.83407000  0.38682000  1.0
  C  C58  1  0.21994000  0.16593000  0.61318000  1.0
  C  C59  1  0.75867000  0.97279000  0.32657000  1.0
  C  C60  1  0.24133000  0.02721000  0.67343000  1.0
  C  C61  1  0.82487000  0.99017000  0.22464000  1.0
  C  C62  1  0.17513000  0.00983000  0.77536000  1.0
  C  C63  1  0.86801000  0.71935000  0.33845000  1.0
  C  C64  1  0.13199000  0.28065000  0.66155000  1.0
  C  C65  1  0.92917000  0.74765000  0.23595000  1.0
  C  C66  1  0.07083000  0.25235000  0.76405000  1.0
  C  C67  1  0.94363000  0.40781000  0.17585000  1.0
  C  C68  1  0.05637000  0.59219000  0.82415000  1.0
  C  C69  1  0.88427000  0.36153000  0.28618000  1.0
  C  C70  1  0.11573000  0.63847000  0.71382000  1.0
  C  C71  1  0.73555000  0.36022000  0.32190000  1.0
  C  C72  1  0.26445000  0.63978000  0.67810000  1.0
  C  C73  1  0.67969000  0.32157000  0.42445000  1.0
  C  C74  1  0.32031000  0.67843000  0.57555000  1.0
  C  C75  1  0.77085000  0.28218000  0.49447000  1.0
  C  C76  1  0.22915000  0.71782000  0.50553000  1.0
  C  C77  1  0.92006000  0.28331000  0.45753000  1.0
  C  C78  1  0.07994000  0.71669000  0.54247000  1.0
  C  C79  1  0.97602000  0.32205000  0.35515000  1.0
  C  C80  1  0.02398000  0.67795000  0.64485000  1.0
  C  C81  1  0.75294000  0.12466000  0.77179000  1.0
  C  C82  1  0.24706000  0.87534000  0.22821000  1.0
  C  C83  1  0.80920000  0.15579000  0.66888000  1.0
  C  C84  1  0.19080000  0.84421000  0.33112000  1.0
  C  C85  1  0.71342000  0.24041000  0.60358000  1.0
  C  C86  1  0.28658000  0.75959000  0.39642000  1.0
  C  C87  1  0.56121000  0.28294000  0.64809000  1.0
  C  C88  1  0.43879000  0.71706000  0.35191000  1.0
  C  C89  1  0.51417000  0.24416000  0.75169000  1.0
  C  C90  1  0.48583000  0.75583000  0.24831000  1.0
  C  C91  1  0.79917000  0.27035000  0.97507000  1.0
  C  C92  1  0.20083000  0.72965000  0.02493000  1.0
  C  C93  1  0.22397000  0.13170000  0.99150000  1.0
  C  C94  1  0.77603000  0.86830000  0.00850000  1.0
  N  N95  1  0.90981000  0.88052000  0.17881000  1.0
  N  N96  1  0.09019000  0.11948000  0.82119000  1.0
  N  N97  1  0.60778000  0.16893000  0.81423000  1.0
  N  N98  1  0.39222000  0.83107000  0.18577000  1.0
  O  O99  1  0.51403000  0.62282000  0.85794000  1.0
  O  O100  1  0.48597000  0.37718000  0.14206000  1.0
  O  O101  1  0.53828000  0.83578000  0.86317000  1.0
  O  O102  1  0.46171000  0.16422000  0.13683000  1.0
  O  O103  1  0.07792000  0.41167000  0.14813000  1.0
  O  O104  1  0.92209000  0.58833000  0.85187000  1.0
  O  O105  1  0.85420000  0.44201000  0.11781000  1.0
  O  O106  1  0.14580000  0.55799000  0.88218000  1.0
  O  O107  1  0.73967000  0.17571000  0.98091000  1.0
  O  O108  1  0.26033000  0.82430000  0.01909000  1.0
  O  O109  1  0.73302000  0.40545000  0.96372000  1.0
  O  O110  1  0.26698000  0.59455000  0.03628000  1.0
  O  O111  1  0.36265000  0.07057000  0.99148000  1.0
  O  O112  1  0.63735000  0.92943000  0.00852000  1.0
  O  O113  1  0.15951000  0.26315000  0.98899000  1.0
  O  O114  1  0.84049000  0.73685000  0.01101000  1.0
  O  O115  1  0.57268000  0.63347000  0.04848000  1.0
  O  O116  1  0.42732000  0.36653000  0.95152000  1.0
