# generated using pymatgen
data_ZnCrH18C14(NO)4
_symmetry_space_group_name_H-M   'P 1'
_cell_length_a   6.79233000
_cell_length_b   9.37947000
_cell_length_c   9.37947000
_cell_angle_alpha   84.33710000
_cell_angle_beta   88.33150000
_cell_angle_gamma   88.33140000
_symmetry_Int_Tables_number   1
_chemical_formula_structural   ZnCrH18C14(NO)4
_chemical_formula_sum   'Zn1 Cr1 H18 C14 N4 O4'
_cell_volume   594.17625026
_cell_formula_units_Z   1
loop_
 _symmetry_equiv_pos_site_id
 _symmetry_equiv_pos_as_xyz
  1  'x, y, z'
loop_
 _atom_site_type_symbol
 _atom_site_label
 _atom_site_symmetry_multiplicity
 _atom_site_fract_x
 _atom_site_fract_y
 _atom_site_fract_z
 _atom_site_occupancy
  Zn  Zn0  1  0.50000000  0.88516000  0.11484000  1.0
  Cr  Cr1  1  0.00000000  0.80913000  0.19087000  1.0
  H  H2  1  0.29688000  0.70949000  0.39726000  1.0
  H  H3  1  0.70311000  0.60274000  0.29051000  1.0
  H  H4  1  0.50808000  0.67194000  0.50384000  1.0
  H  H5  1  0.49191000  0.49616000  0.32806000  1.0
  H  H6  1  0.26380000  0.96873000  0.39501000  1.0
  H  H7  1  0.73620000  0.60499000  0.03128000  1.0
  H  H8  1  0.48198000  0.06984000  0.38257000  1.0
  H  H9  1  0.51802000  0.61743000  0.93016000  1.0
  H  H10  1  0.12553000  0.93255000  0.62946000  1.0
  H  H11  1  0.87447000  0.37054000  0.06746000  1.0
  H  H12  1  0.16830000  0.89730000  0.89740000  1.0
  H  H13  1  0.83171000  0.10260000  0.10271000  1.0
  H  H14  1  0.77338000  0.90521000  0.85143000  1.0
  H  H15  1  0.22662000  0.14856000  0.09478000  1.0
  H  H16  1  0.75857000  0.94271000  0.58169000  1.0
  H  H17  1  0.24144000  0.41831000  0.05729000  1.0
  H  H18  1  0.67443000  0.85763000  0.36216000  1.0
  H  H19  1  0.32557000  0.63784000  0.14237000  1.0
  C  C20  1  0.45903000  0.70868000  0.39486000  1.0
  C  C21  1  0.54097000  0.60514000  0.29132000  1.0
  C  C22  1  0.41994000  0.96615000  0.42333000  1.0
  C  C23  1  0.58006000  0.57667000  0.03386000  1.0
  C  C24  1  0.43864000  0.94427000  0.58404000  1.0
  C  C25  1  0.56136000  0.41596000  0.05573000  1.0
  C  C26  1  0.27197000  0.92924000  0.67463000  1.0
  C  C27  1  0.72803000  0.32538000  0.07076000  1.0
  C  C28  1  0.29401000  0.90833000  0.82236000  1.0
  C  C29  1  0.70600000  0.17764000  0.09167000  1.0
  C  C30  1  0.63373000  0.91354000  0.79601000  1.0
  C  C31  1  0.36627000  0.20398000  0.08646000  1.0
  C  C32  1  0.62342000  0.93516000  0.64772000  1.0
  C  C33  1  0.37658000  0.35228000  0.06483000  1.0
  N  N34  1  0.52353000  0.85486000  0.34795000  1.0
  N  N35  1  0.47647000  0.65205000  0.14514000  1.0
  N  N36  1  0.47179000  0.90089000  0.88250000  1.0
  N  N37  1  0.52821000  0.11750000  0.09911000  1.0
  O  O38  1  0.19109000  0.91194000  0.13948000  1.0
  O  O39  1  0.80892000  0.86052000  0.08806000  1.0
  O  O40  1  0.94038000  0.82893000  0.35956000  1.0
  O  O41  1  0.05962000  0.64044000  0.17107000  1.0
