# generated using pymatgen
data_CdH23C22(NO2)2
_symmetry_space_group_name_H-M   'P 1'
_cell_length_a   10.68970000
_cell_length_b   12.52515581
_cell_length_c   19.14960000
_cell_angle_alpha   101.36875557
_cell_angle_beta   90.01080000
_cell_angle_gamma   115.24627313
_symmetry_Int_Tables_number   1
_chemical_formula_structural   CdH23C22(NO2)2
_chemical_formula_sum   'Cd4 H92 C88 N8 O16'
_cell_volume   2263.25185783
_cell_formula_units_Z   4
loop_
 _symmetry_equiv_pos_site_id
 _symmetry_equiv_pos_as_xyz
  1  'x, y, z'
loop_
 _atom_site_type_symbol
 _atom_site_label
 _atom_site_symmetry_multiplicity
 _atom_site_fract_x
 _atom_site_fract_y
 _atom_site_fract_z
 _atom_site_occupancy
  Cd  Cd0  1  0.52596000  0.91708000  0.06357000  1.0
  Cd  Cd1  1  0.60898000  0.08280000  0.43645000  1.0
  Cd  Cd2  1  0.47405000  0.08292000  0.93643000  1.0
  Cd  Cd3  1  0.39102000  0.91720000  0.56355000  1.0
  H  H4  1  0.68946000  0.80070000  0.18779000  1.0
  H  H5  1  0.88884000  0.19939000  0.31212000  1.0
  H  H6  1  0.31053000  0.19929000  0.81221000  1.0
  H  H7  1  0.11117000  0.80061000  0.68789000  1.0
  H  H8  1  0.76461000  0.72462000  0.12564000  1.0
  H  H9  1  0.04009000  0.27540000  0.37427000  1.0
  H  H10  1  0.23539000  0.27538000  0.87436000  1.0
  H  H11  1  0.95991000  0.72460000  0.62573000  1.0
  H  H12  1  0.61514000  0.73966000  0.09789000  1.0
  H  H13  1  0.87562000  0.26037000  0.40202000  1.0
  H  H14  1  0.38486000  0.26034000  0.90211000  1.0
  H  H15  1  0.12438000  0.73963000  0.59798000  1.0
  H  H16  1  0.21755000  0.13563000  0.10171000  1.0
  H  H17  1  0.08209000  0.86436000  0.39836000  1.0
  H  H18  1  0.78245000  0.86437000  0.89829000  1.0
  H  H19  1  0.91791000  0.13564000  0.60164000  1.0
  H  H20  1  0.23518000  0.30129000  0.04386000  1.0
  H  H21  1  0.93410000  0.69872000  0.45616000  1.0
  H  H22  1  0.76482000  0.69871000  0.95614000  1.0
  H  H23  1  0.06590000  0.30128000  0.54384000  1.0
  H  H24  1  0.02346000  0.31675000  0.00334000  1.0
  H  H25  1  0.70692000  0.68332000  0.49664000  1.0
  H  H26  1  0.97654000  0.68325000  0.99665000  1.0
  H  H27  1  0.29308000  0.31668000  0.50336000  1.0
  H  H28  1  0.78742000  0.16372000  0.01694000  1.0
  H  H29  1  0.62391000  0.83631000  0.48295000  1.0
  H  H30  1  0.21258000  0.83628000  0.98306000  1.0
  H  H31  1  0.37608000  0.16369000  0.51705000  1.0
  H  H32  1  0.13499000  0.94844000  0.13167000  1.0
  H  H33  1  0.18668000  0.05143000  0.36839000  1.0
  H  H34  1  0.86501000  0.05156000  0.86833000  1.0
  H  H35  1  0.81332000  0.94857000  0.63161000  1.0
  H  H36  1  0.99089000  0.80987000  0.12834000  1.0
  H  H37  1  0.18126000  0.19009000  0.37175000  1.0
  H  H38  1  0.00911000  0.19013000  0.87166000  1.0
  H  H39  1  0.81874000  0.80991000  0.62825000  1.0
  H  H40  1  0.93635000  0.88819000  0.24977000  1.0
  H  H41  1  0.04861000  0.11209000  0.25030000  1.0
  H  H42  1  0.06365000  0.11181000  0.75023000  1.0
  H  H43  1  0.95138000  0.88790000  0.74970000  1.0
  H  H44  1  0.10135000  0.88866000  0.24992000  1.0
  H  H45  1  0.21292000  0.11118000  0.25012000  1.0
  H  H46  1  0.89865000  0.11134000  0.75008000  1.0
  H  H47  1  0.78708000  0.88882000  0.74988000  1.0
  H  H48  1  0.09945000  0.64866000  0.14490000  1.0
  H  H49  1  0.45082000  0.35134000  0.35508000  1.0
  H  H50  1  0.90055000  0.35134000  0.85510000  1.0
  H  H51  1  0.54918000  0.64866000  0.64492000  1.0
  H  H52  1  0.06556000  0.62589000  0.36705000  1.0
  H  H53  1  0.43950000  0.37394000  0.13291000  1.0
  H  H54  1  0.93444000  0.37411000  0.63295000  1.0
  H  H55  1  0.56050000  0.62606000  0.86709000  1.0
  H  H56  1  0.43393000  0.89104000  0.30321000  1.0
  H  H57  1  0.54302000  0.10893000  0.19686000  1.0
  H  H58  1  0.56607000  0.10896000  0.69679000  1.0
  H  H59  1  0.45698000  0.89107000  0.80314000  1.0
  H  H60  1  0.90995000  0.43851000  0.32494000  1.0
  H  H61  1  0.47157000  0.56155000  0.17508000  1.0
  H  H62  1  0.09005000  0.56149000  0.67506000  1.0
  H  H63  1  0.52843000  0.43845000  0.82492000  1.0
  H  H64  1  0.74547000  0.39562000  0.27972000  1.0
  H  H65  1  0.35006000  0.60452000  0.22028000  1.0
  H  H66  1  0.25453000  0.60438000  0.72028000  1.0
  H  H67  1  0.64994000  0.39548000  0.77972000  1.0
  H  H68  1  0.83342000  0.54167000  0.33606000  1.0
  H  H69  1  0.29191000  0.45847000  0.16391000  1.0
  H  H70  1  0.16658000  0.45833000  0.66394000  1.0
  H  H71  1  0.70809000  0.54153000  0.83609000  1.0
  H  H72  1  0.98999000  0.37851000  0.20238000  1.0
  H  H73  1  0.61147000  0.62153000  0.29768000  1.0
  H  H74  1  0.01001000  0.62149000  0.79762000  1.0
  H  H75  1  0.38853000  0.37847000  0.70232000  1.0
  H  H76  1  0.97153000  0.44152000  0.13018000  1.0
  H  H77  1  0.52996000  0.55844000  0.36986000  1.0
  H  H78  1  0.02847000  0.55848000  0.86982000  1.0
  H  H79  1  0.47004000  0.44156000  0.63014000  1.0
  H  H80  1  0.82164000  0.33861000  0.16205000  1.0
  H  H81  1  0.48294000  0.66135000  0.33795000  1.0
  H  H82  1  0.17836000  0.66139000  0.83795000  1.0
  H  H83  1  0.51706000  0.33865000  0.66205000  1.0
  H  H84  1  0.71890000  0.49224000  0.18203000  1.0
  H  H85  1  0.22675000  0.50784000  0.31797000  1.0
  H  H86  1  0.28110000  0.50776000  0.81797000  1.0
  H  H87  1  0.77325000  0.49216000  0.68203000  1.0
  H  H88  1  0.86675000  0.59322000  0.14763000  1.0
  H  H89  1  0.27367000  0.40683000  0.35233000  1.0
  H  H90  1  0.13325000  0.40678000  0.85237000  1.0
  H  H91  1  0.72633000  0.59317000  0.64767000  1.0
  H  H92  1  0.81990000  0.64139000  0.23343000  1.0
  H  H93  1  0.17859000  0.35865000  0.26656000  1.0
  H  H94  1  0.18010000  0.35861000  0.76657000  1.0
  H  H95  1  0.82140000  0.64135000  0.73344000  1.0
  C  C96  1  0.71366000  0.78512000  0.13196000  1.0
  C  C97  1  0.92867000  0.21490000  0.36793000  1.0
  C  C98  1  0.28634000  0.21488000  0.86804000  1.0
  C  C99  1  0.07133000  0.78510000  0.63208000  1.0
  C  C100  1  0.80228000  0.90060000  0.11140000  1.0
  C  C101  1  0.90180000  0.09940000  0.38848000  1.0
  C  C102  1  0.19772000  0.09940000  0.88860000  1.0
  C  C103  1  0.09820000  0.90060000  0.61152000  1.0
  C  C104  1  0.99142000  0.05717000  0.09233000  1.0
  C  C105  1  0.93444000  0.94284000  0.40764000  1.0
  C  C106  1  0.00858000  0.94283000  0.90767000  1.0
  C  C107  1  0.06556000  0.05716000  0.59236000  1.0
  C  C108  1  0.87026000  0.06441000  0.06872000  1.0
  C  C109  1  0.80600000  0.93560000  0.43118000  1.0
  C  C110  1  0.12974000  0.93560000  0.93129000  1.0
  C  C111  1  0.19400000  0.06440000  0.56882000  1.0
  C  C112  1  0.12436000  0.14170000  0.08431000  1.0
  C  C113  1  0.98284000  0.85831000  0.41574000  1.0
  C  C114  1  0.87564000  0.85830000  0.91570000  1.0
  C  C115  1  0.01716000  0.14169000  0.58426000  1.0
  C  C116  1  0.13281000  0.23464000  0.05183000  1.0
  C  C117  1  0.89836000  0.76536000  0.44818000  1.0
  C  C118  1  0.86719000  0.76536000  0.94817000  1.0
  C  C119  1  0.10164000  0.23464000  0.55182000  1.0
  C  C120  1  0.01270000  0.24270000  0.02845000  1.0
  C  C121  1  0.77024000  0.75734000  0.47153000  1.0
  C  C122  1  0.98730000  0.75730000  0.97155000  1.0
  C  C123  1  0.22976000  0.24266000  0.52847000  1.0
  C  C124  1  0.87979000  0.15798000  0.03625000  1.0
  C  C125  1  0.72204000  0.84205000  0.46366000  1.0
  C  C126  1  0.12021000  0.84202000  0.96375000  1.0
  C  C127  1  0.27796000  0.15795000  0.53634000  1.0
  C  C128  1  0.03180000  0.90737000  0.15069000  1.0
  C  C129  1  0.12463000  0.09259000  0.34935000  1.0
  C  C130  1  0.96820000  0.09263000  0.84931000  1.0
  C  C131  1  0.87537000  0.90741000  0.65065000  1.0
  C  C132  1  0.04096000  0.93275000  0.23244000  1.0
  C  C133  1  0.10844000  0.06729000  0.26760000  1.0
  C  C134  1  0.95903000  0.06725000  0.76756000  1.0
  C  C135  1  0.89155000  0.93270000  0.73239000  1.0
  C  C136  1  0.35621000  0.82696000  0.16198000  1.0
  C  C137  1  0.52929000  0.17298000  0.33804000  1.0
  C  C138  1  0.64378000  0.17304000  0.83802000  1.0
  C  C139  1  0.47071000  0.82702000  0.66196000  1.0
  C  C140  1  0.27242000  0.77376000  0.21925000  1.0
  C  C141  1  0.49869000  0.22620000  0.28076000  1.0
  C  C142  1  0.72758000  0.22624000  0.78075000  1.0
  C  C143  1  0.50131000  0.77380000  0.71924000  1.0
  C  C144  1  0.13937000  0.67874000  0.20125000  1.0
  C  C145  1  0.46065000  0.32125000  0.29874000  1.0
  C  C146  1  0.86063000  0.32126000  0.79875000  1.0
  C  C147  1  0.53935000  0.67875000  0.70126000  1.0
  C  C148  1  0.06119000  0.62236000  0.25337000  1.0
  C  C149  1  0.43883000  0.37763000  0.24662000  1.0
  C  C150  1  0.93881000  0.37764000  0.74663000  1.0
  C  C151  1  0.56117000  0.62237000  0.75338000  1.0
  C  C152  1  0.12070000  0.66558000  0.32409000  1.0
  C  C153  1  0.45501000  0.33431000  0.17590000  1.0
  C  C154  1  0.87930000  0.33442000  0.67591000  1.0
  C  C155  1  0.54499000  0.66569000  0.82410000  1.0
  C  C156  1  0.25337000  0.76235000  0.34324000  1.0
  C  C157  1  0.49098000  0.23754000  0.15677000  1.0
  C  C158  1  0.74663000  0.23765000  0.65676000  1.0
  C  C159  1  0.50902000  0.76246000  0.84323000  1.0
  C  C160  1  0.33024000  0.81658000  0.29057000  1.0
  C  C161  1  0.51373000  0.18337000  0.20946000  1.0
  C  C162  1  0.66976000  0.18342000  0.70943000  1.0
  C  C163  1  0.48628000  0.81663000  0.79054000  1.0
  C  C164  1  0.30591000  0.80493000  0.42065000  1.0
  C  C165  1  0.50102000  0.19504000  0.07936000  1.0
  C  C166  1  0.69409000  0.19507000  0.57935000  1.0
  C  C167  1  0.49898000  0.80496000  0.92064000  1.0
  C  C168  1  0.91612000  0.51832000  0.23223000  1.0
  C  C169  1  0.39787000  0.48171000  0.26775000  1.0
  C  C170  1  0.08388000  0.48168000  0.76776000  1.0
  C  C171  1  0.60212000  0.51829000  0.73225000  1.0
  C  C172  1  0.84790000  0.47140000  0.29728000  1.0
  C  C173  1  0.37663000  0.52869000  0.20271000  1.0
  C  C174  1  0.15210000  0.52860000  0.70272000  1.0
  C  C175  1  0.62337000  0.47131000  0.79729000  1.0
  C  C176  1  0.92562000  0.41340000  0.17858000  1.0
  C  C177  1  0.51221000  0.58658000  0.32145000  1.0
  C  C178  1  0.07438000  0.58660000  0.82142000  1.0
  C  C179  1  0.48779000  0.41342000  0.67855000  1.0
  C  C180  1  0.82499000  0.56424000  0.19666000  1.0
  C  C181  1  0.26084000  0.43582000  0.30331000  1.0
  C  C182  1  0.17501000  0.43576000  0.80334000  1.0
  C  C183  1  0.73916000  0.56418000  0.69669000  1.0
  N  N184  1  0.94468000  0.95279000  0.11935000  1.0
  N  N185  1  0.99207000  0.04723000  0.38063000  1.0
  N  N186  1  0.05531000  0.04721000  0.88065000  1.0
  N  N187  1  0.00793000  0.95277000  0.61938000  1.0
  N  N188  1  0.75508000  0.96596000  0.08182000  1.0
  N  N189  1  0.78924000  0.03402000  0.41802000  1.0
  N  N190  1  0.24492000  0.03404000  0.91818000  1.0
  N  N191  1  0.21077000  0.96598000  0.58198000  1.0
  O  O192  1  0.23402000  0.75084000  0.46603000  1.0
  O  O193  1  0.48353000  0.24935000  0.03402000  1.0
  O  O194  1  0.76598000  0.24916000  0.53397000  1.0
  O  O195  1  0.51647000  0.75065000  0.96598000  1.0
  O  O196  1  0.42389000  0.89946000  0.44073000  1.0
  O  O197  1  0.52441000  0.10048000  0.05923000  1.0
  O  O198  1  0.57611000  0.10054000  0.55927000  1.0
  O  O199  1  0.47559000  0.89952000  0.94077000  1.0
  O  O200  1  0.48767000  0.88734000  0.17744000  1.0
  O  O201  1  0.60045000  0.11265000  0.32260000  1.0
  O  O202  1  0.51233000  0.11266000  0.82256000  1.0
  O  O203  1  0.39955000  0.88735000  0.67740000  1.0
  O  O204  1  0.29671000  0.80973000  0.10030000  1.0
  O  O205  1  0.48698000  0.19016000  0.39970000  1.0
  O  O206  1  0.70330000  0.19028000  0.89969000  1.0
  O  O207  1  0.51303000  0.80985000  0.60030000  1.0
