# generated using pymatgen
data_Cd3HC5N5O
_symmetry_space_group_name_H-M   'P 1'
_cell_length_a   10.70200000
_cell_length_b   11.90550000
_cell_length_c   12.13870000
_cell_angle_alpha   90.00370000
_cell_angle_beta   90.00330000
_cell_angle_gamma   71.28300000
_symmetry_Int_Tables_number   1
_chemical_formula_structural   Cd3HC5N5O
_chemical_formula_sum   'Cd12 H4 C20 N20 O4'
_cell_volume   1464.83101752
_cell_formula_units_Z   4
loop_
 _symmetry_equiv_pos_site_id
 _symmetry_equiv_pos_as_xyz
  1  'x, y, z'
loop_
 _atom_site_type_symbol
 _atom_site_label
 _atom_site_symmetry_multiplicity
 _atom_site_fract_x
 _atom_site_fract_y
 _atom_site_fract_z
 _atom_site_occupancy
  Cd  Cd0  1  0.47675000  0.01760000  0.64948000  1.0
  Cd  Cd1  1  0.67694000  0.19206000  0.01283000  1.0
  Cd  Cd2  1  0.24018000  0.48861000  0.78058000  1.0
  Cd  Cd3  1  0.02319000  0.98239000  0.14947000  1.0
  Cd  Cd4  1  0.82302000  0.80791000  0.51285000  1.0
  Cd  Cd5  1  0.25981000  0.51141000  0.28055000  1.0
  Cd  Cd6  1  0.52327000  0.98243000  0.35053000  1.0
  Cd  Cd7  1  0.32308000  0.80792000  0.98716000  1.0
  Cd  Cd8  1  0.75979000  0.51144000  0.21940000  1.0
  Cd  Cd9  1  0.97679000  0.01757000  0.85048000  1.0
  Cd  Cd10  1  0.17695000  0.19211000  0.48713000  1.0
  Cd  Cd11  1  0.74019000  0.48856000  0.71946000  1.0
  H  H12  1  0.32131000  0.96400000  0.47425000  1.0
  H  H13  1  0.17864000  0.03609000  0.97428000  1.0
  H  H14  1  0.67867000  0.03607000  0.52577000  1.0
  H  H15  1  0.82135000  0.96389000  0.02571000  1.0
  C  C16  1  0.36844000  0.20787000  0.69299000  1.0
  C  C17  1  0.71010000  0.36292000  0.02546000  1.0
  C  C18  1  0.52581000  0.53358000  0.72869000  1.0
  C  C19  1  0.61996000  0.10676000  0.87246000  1.0
  C  C20  1  0.43696000  0.87971000  0.75064000  1.0
  C  C21  1  0.13166000  0.79215000  0.19301000  1.0
  C  C22  1  0.78985000  0.63708000  0.52553000  1.0
  C  C23  1  0.97418000  0.46643000  0.22863000  1.0
  C  C24  1  0.88001000  0.89309000  0.37243000  1.0
  C  C25  1  0.06294000  0.12021000  0.25075000  1.0
  C  C26  1  0.63162000  0.79213000  0.30703000  1.0
  C  C27  1  0.28992000  0.63706000  0.97452000  1.0
  C  C28  1  0.47421000  0.46644000  0.27128000  1.0
  C  C29  1  0.38004000  0.89319000  0.12757000  1.0
  C  C30  1  0.56307000  0.12028000  0.24936000  1.0
  C  C31  1  0.86838000  0.20786000  0.80704000  1.0
  C  C32  1  0.21003000  0.36299000  0.47457000  1.0
  C  C33  1  0.02581000  0.53361000  0.77133000  1.0
  C  C34  1  0.12001000  0.10692000  0.62758000  1.0
  C  C35  1  0.93698000  0.87972000  0.74932000  1.0
  N  N36  1  0.32451000  0.30110000  0.73393000  1.0
  N  N37  1  0.72551000  0.45368000  0.04624000  1.0
  N  N38  1  0.41519000  0.53819000  0.72631000  1.0
  N  N39  1  0.61670000  0.05004000  0.79454000  1.0
  N  N40  1  0.41340000  0.82897000  0.82608000  1.0
  N  N41  1  0.17554000  0.69891000  0.23391000  1.0
  N  N42  1  0.77445000  0.54632000  0.54631000  1.0
  N  N43  1  0.08481000  0.46181000  0.22627000  1.0
  N  N44  1  0.88331000  0.94981000  0.29453000  1.0
  N  N45  1  0.08656000  0.17102000  0.32610000  1.0
  N  N46  1  0.67557000  0.69893000  0.26604000  1.0
  N  N47  1  0.27450000  0.54631000  0.95374000  1.0
  N  N48  1  0.58485000  0.46178000  0.27368000  1.0
  N  N49  1  0.38332000  0.94992000  0.20548000  1.0
  N  N50  1  0.58662000  0.17103000  0.17392000  1.0
  N  N51  1  0.82445000  0.30107000  0.76607000  1.0
  N  N52  1  0.22545000  0.45372000  0.45369000  1.0
  N  N53  1  0.91521000  0.53815000  0.77373000  1.0
  N  N54  1  0.11666000  0.05016000  0.70544000  1.0
  N  N55  1  0.91347000  0.82895000  0.67387000  1.0
  O  O56  1  0.36117000  0.02693000  0.47570000  1.0
  O  O57  1  0.13884000  0.97312000  0.97570000  1.0
  O  O58  1  0.63882000  0.97313000  0.52430000  1.0
  O  O59  1  0.86117000  0.02685000  0.02426000  1.0
