# generated using pymatgen
data_Zn4H15C30S3N3O13
_symmetry_space_group_name_H-M   'P 1'
_cell_length_a   20.39690000
_cell_length_b   20.45650000
_cell_length_c   20.64170054
_cell_angle_alpha   61.76148384
_cell_angle_beta   60.72460652
_cell_angle_gamma   61.34170000
_symmetry_Int_Tables_number   1
_chemical_formula_structural   Zn4H15C30S3N3O13
_chemical_formula_sum   'Zn8 H30 C60 S6 N6 O26'
_cell_volume   6263.82547721
_cell_formula_units_Z   2
loop_
 _symmetry_equiv_pos_site_id
 _symmetry_equiv_pos_as_xyz
  1  'x, y, z'
loop_
 _atom_site_type_symbol
 _atom_site_label
 _atom_site_symmetry_multiplicity
 _atom_site_fract_x
 _atom_site_fract_y
 _atom_site_fract_z
 _atom_site_occupancy
  Zn  Zn0  1  0.91494000  0.11265000  0.95942000  1.0
  Zn  Zn1  1  0.97724000  0.95508000  0.91823000  1.0
  Zn  Zn2  1  0.96085000  0.93681000  0.08788000  1.0
  Zn  Zn3  1  0.09445000  0.99819000  0.93386000  1.0
  Zn  Zn4  1  0.50026000  0.38987000  0.52610000  1.0
  Zn  Zn5  1  0.54276000  0.53213000  0.50442000  1.0
  Zn  Zn6  1  0.36854000  0.55813000  0.50924000  1.0
  Zn  Zn7  1  0.52480000  0.52318000  0.36295000  1.0
  H  H8  1  0.82778000  0.02174000  0.81768000  1.0
  H  H9  1  0.74330000  0.40314000  0.65245000  1.0
  H  H10  1  0.64050000  0.44414000  0.66597000  1.0
  H  H11  1  0.67343000  0.39026000  0.74850000  1.0
  H  H12  1  0.78041000  0.26141000  0.78971000  1.0
  H  H13  1  0.82357000  0.00236000  0.28062000  1.0
  H  H14  1  0.61308000  0.42372000  0.20692000  1.0
  H  H15  1  0.70703000  0.37726000  0.14624000  1.0
  H  H16  1  0.62065000  0.36403000  0.16099000  1.0
  H  H17  1  0.75452000  0.23707000  0.12679000  1.0
  H  H18  1  0.96766000  0.32224000  0.83239000  1.0
  H  H19  1  0.39585000  0.24318000  0.68485000  1.0
  H  H20  1  0.33482000  0.18800000  0.76814000  1.0
  H  H21  1  0.35380000  0.19291000  0.67299000  1.0
  H  H22  1  0.20887000  0.16646000  0.80107000  1.0
  H  H23  1  0.85285000  0.81904000  0.98338000  1.0
  H  H24  1  0.79460000  0.65367000  0.34808000  1.0
  H  H25  1  0.70472000  0.73268000  0.36029000  1.0
  H  H26  1  0.70199000  0.63490000  0.40576000  1.0
  H  H27  1  0.82820000  0.77276000  0.21944000  1.0
  H  H28  1  0.30311000  0.85194000  0.81886000  1.0
  H  H29  1  0.16193000  0.72276000  0.70019000  1.0
  H  H30  1  0.17267000  0.80982000  0.62241000  1.0
  H  H31  1  0.22045000  0.71823000  0.60323000  1.0
  H  H32  1  0.14380000  0.83671000  0.74988000  1.0
  H  H33  1  0.25236000  0.92856000  0.02461000  1.0
  H  H34  1  0.20740000  0.62923000  0.40920000  1.0
  H  H35  1  0.13133000  0.71292000  0.37682000  1.0
  H  H36  1  0.17935000  0.63533000  0.33665000  1.0
  H  H37  1  0.11939000  0.78592000  0.23202000  1.0
  C  C38  1  0.86092000  0.10600000  0.85625000  1.0
  C  C39  1  0.80948000  0.13878000  0.80876000  1.0
  C  C40  1  0.79916000  0.08422000  0.79349000  1.0
  C  C41  1  0.72246000  0.18113000  0.72163000  1.0
  C  C42  1  0.65191000  0.31307000  0.65129000  1.0
  C  C43  1  0.60348000  0.37312000  0.60159000  1.0
  C  C44  1  0.68779000  0.31898000  0.68960000  1.0
  C  C45  1  0.68551000  0.39334000  0.68922000  1.0
  C  C46  1  0.72884000  0.24220000  0.73145000  1.0
  C  C47  1  0.77310000  0.21886000  0.77820000  1.0
  C  C48  1  0.84429000  0.08447000  0.12931000  1.0
  C  C49  1  0.79417000  0.11676000  0.19626000  1.0
  C  C50  1  0.79066000  0.06459000  0.27281000  1.0
  C  C51  1  0.71021000  0.16333000  0.32544000  1.0
  C  C52  1  0.63008000  0.29671000  0.33614000  1.0
  C  C53  1  0.58118000  0.35968000  0.37261000  1.0
  C  C54  1  0.66152000  0.29933000  0.25872000  1.0
  C  C55  1  0.64955000  0.37042000  0.18988000  1.0
  C  C56  1  0.70849000  0.22190000  0.25175000  1.0
  C  C57  1  0.75222000  0.19650000  0.18551000  1.0
  C  C58  1  0.05607000  0.16829000  0.86952000  1.0
  C  C59  1  0.08549000  0.23678000  0.82193000  1.0
  C  C60  1  0.03119000  0.31382000  0.80734000  1.0
  C  C61  1  0.13099000  0.36612000  0.73339000  1.0
  C  C62  1  0.26688000  0.37504000  0.66337000  1.0
  C  C63  1  0.33152000  0.40919000  0.61195000  1.0
  C  C64  1  0.27025000  0.29747000  0.70372000  1.0
  C  C65  1  0.34296000  0.22702000  0.70753000  1.0
  C  C66  1  0.19152000  0.29176000  0.74427000  1.0
  C  C67  1  0.16672000  0.22563000  0.79018000  1.0
  C  C68  1  0.89761000  0.84966000  0.06558000  1.0
  C  C69  1  0.84646000  0.80067000  0.09839000  1.0
  C  C70  1  0.82849000  0.79088000  0.04594000  1.0
  C  C71  1  0.75367000  0.71556000  0.14501000  1.0
  C  C72  1  0.68572000  0.64264000  0.27862000  1.0
  C  C73  1  0.63520000  0.59418000  0.34102000  1.0
  C  C74  1  0.72690000  0.67825000  0.28151000  1.0
  C  C75  1  0.73206000  0.67414000  0.35322000  1.0
  C  C76  1  0.76683000  0.72091000  0.20395000  1.0
  C  C77  1  0.81504000  0.76535000  0.17855000  1.0
  C  C78  1  0.14790000  0.89887000  0.83842000  1.0
  C  C79  1  0.21590000  0.84962000  0.78945000  1.0
  C  C80  1  0.29395000  0.82958000  0.78633000  1.0
  C  C81  1  0.34530000  0.75697000  0.70700000  1.0
  C  C82  1  0.35324000  0.69257000  0.62659000  1.0
  C  C83  1  0.38828000  0.64191000  0.57777000  1.0
  C  C84  1  0.27536000  0.73668000  0.65688000  1.0
  C  C85  1  0.20415000  0.74704000  0.64448000  1.0
  C  C86  1  0.27006000  0.77389000  0.70424000  1.0
  C  C87  1  0.20375000  0.82157000  0.74769000  1.0
  C  C88  1  0.11562000  0.90098000  0.08897000  1.0
  C  C89  1  0.17885000  0.86076000  0.12470000  1.0
  C  C90  1  0.24871000  0.88248000  0.08079000  1.0
  C  C91  1  0.30536000  0.79341000  0.17239000  1.0
  C  C92  1  0.32488000  0.68916000  0.29350000  1.0
  C  C93  1  0.36585000  0.63098000  0.35045000  1.0
  C  C94  1  0.24959000  0.70763000  0.29484000  1.0
  C  C95  1  0.18898000  0.66900000  0.35812000  1.0
  C  C96  1  0.23774000  0.76771000  0.22375000  1.0
  C  C97  1  0.17298000  0.80289000  0.19748000  1.0
  S  S98  1  0.66561000  0.21701000  0.66471000  1.0
  S  S99  1  0.65486000  0.20258000  0.40150000  1.0
  S  S100  1  0.17055000  0.44181000  0.67438000  1.0
  S  S101  1  0.69421000  0.65891000  0.18409000  1.0
  S  S102  1  0.42093000  0.69578000  0.65294000  1.0
  S  S103  1  0.38273000  0.74204000  0.20842000  1.0
  N  N104  1  0.75580000  0.10405000  0.75166000  1.0
  N  N105  1  0.74959000  0.08652000  0.33690000  1.0
  N  N106  1  0.05269000  0.37806000  0.76374000  1.0
  N  N107  1  0.78295000  0.74937000  0.06790000  1.0
  N  N108  1  0.35815000  0.78371000  0.74634000  1.0
  N  N109  1  0.31146000  0.84980000  0.10324000  1.0
  O  O110  1  0.98364000  0.00216000  0.97720000  1.0
  O  O111  1  0.90948000  0.03693000  0.85682000  1.0
  O  O112  1  0.85319000  0.14730000  0.89208000  1.0
  O  O113  1  0.59979000  0.44479000  0.57611000  1.0
  O  O114  1  0.56895000  0.34567000  0.58723000  1.0
  O  O115  1  0.88143000  0.01093000  0.14693000  1.0
  O  O116  1  0.84624000  0.13235000  0.06066000  1.0
  O  O117  1  0.56639000  0.43136000  0.32939000  1.0
  O  O118  1  0.55789000  0.33576000  0.44740000  1.0
  O  O119  1  0.10913000  0.10057000  0.87408000  1.0
  O  O120  1  0.98109000  0.18236000  0.90124000  1.0
  O  O121  1  0.30984000  0.48421000  0.58801000  1.0
  O  O122  1  0.40284000  0.36271000  0.59449000  1.0
  O  O123  1  0.90903000  0.86295000  0.11328000  1.0
  O  O124  1  0.92606000  0.87473000  0.99105000  1.0
  O  O125  1  0.61221000  0.56479000  0.31619000  1.0
  O  O126  1  0.61763000  0.58512000  0.41267000  1.0
  O  O127  1  0.16462000  0.92861000  0.86847000  1.0
  O  O128  1  0.07818000  0.90712000  0.84703000  1.0
  O  O129  1  0.34290000  0.63451000  0.55728000  1.0
  O  O130  1  0.46352000  0.60858000  0.56057000  1.0
  O  O131  1  0.12974000  0.95411000  0.02309000  1.0
  O  O132  1  0.05316000  0.88057000  0.12486000  1.0
  O  O133  1  0.32524000  0.60963000  0.42295000  1.0
  O  O134  1  0.44175000  0.60805000  0.32048000  1.0
  O  O135  1  0.48348000  0.50258000  0.47644000  1.0
