# generated using pymatgen
data_AgH13C13(NO)4
_symmetry_space_group_name_H-M   'P 1'
_cell_length_a   7.01639000
_cell_length_b   8.58328000
_cell_length_c   22.61000000
_cell_angle_alpha   90.00000000
_cell_angle_beta   94.16520000
_cell_angle_gamma   90.00000000
_symmetry_Int_Tables_number   1
_chemical_formula_structural   AgH13C13(NO)4
_chemical_formula_sum   'Ag4 H52 C52 N16 O16'
_cell_volume   1358.06006004
_cell_formula_units_Z   4
loop_
 _symmetry_equiv_pos_site_id
 _symmetry_equiv_pos_as_xyz
  1  'x, y, z'
loop_
 _atom_site_type_symbol
 _atom_site_label
 _atom_site_symmetry_multiplicity
 _atom_site_fract_x
 _atom_site_fract_y
 _atom_site_fract_z
 _atom_site_occupancy
  Ag  Ag0  1  0.43211000  0.52845000  0.30159000  1.0
  Ag  Ag1  1  0.56788000  0.02845000  0.19841000  1.0
  Ag  Ag2  1  0.56789000  0.47155000  0.69841000  1.0
  Ag  Ag3  1  0.43211000  0.97155000  0.80159000  1.0
  H  H4  1  0.12925000  0.46871000  0.74197000  1.0
  H  H5  1  0.87075000  0.96871000  0.75803000  1.0
  H  H6  1  0.87074000  0.53129000  0.25803000  1.0
  H  H7  1  0.12925000  0.03129000  0.24197000  1.0
  H  H8  1  0.40440000  0.48686000  0.43303000  1.0
  H  H9  1  0.59560000  0.98687000  0.06697000  1.0
  H  H10  1  0.59560000  0.51313000  0.56697000  1.0
  H  H11  1  0.40440000  0.01313000  0.93303000  1.0
  H  H12  1  0.37499000  0.64628000  0.52344000  1.0
  H  H13  1  0.62500000  0.14628000  0.97656000  1.0
  H  H14  1  0.62501000  0.35372000  0.47656000  1.0
  H  H15  1  0.37500000  0.85372000  0.02344000  1.0
  H  H16  1  0.12003000  0.40306000  0.52374000  1.0
  H  H17  1  0.87997000  0.90306000  0.97626000  1.0
  H  H18  1  0.87997000  0.59694000  0.47626000  1.0
  H  H19  1  0.12003000  0.09694000  0.02374000  1.0
  H  H20  1  0.22600000  0.21795000  0.69999000  1.0
  H  H21  1  0.77400000  0.71795000  0.80001000  1.0
  H  H22  1  0.77400000  0.78204000  0.30001000  1.0
  H  H23  1  0.22600000  0.28205000  0.19999000  1.0
  H  H24  1  0.26434000  0.86222000  0.32347000  1.0
  H  H25  1  0.73566000  0.36223000  0.17653000  1.0
  H  H26  1  0.73566000  0.13777000  0.67653000  1.0
  H  H27  1  0.26434000  0.63778000  0.82347000  1.0
  H  H28  1  0.22173000  0.03682000  0.40926000  1.0
  H  H29  1  0.77827000  0.53683000  0.09074000  1.0
  H  H30  1  0.77827000  0.96317000  0.59074000  1.0
  H  H31  1  0.22173000  0.46318000  0.90926000  1.0
  H  H32  1  0.01990000  0.65298000  0.56612000  1.0
  H  H33  1  0.98011000  0.15298000  0.93388000  1.0
  H  H34  1  0.98011000  0.34702000  0.43388000  1.0
  H  H35  1  0.01989000  0.84702000  0.06612000  1.0
  H  H36  1  0.84165000  0.72783000  0.68521000  1.0
  H  H37  1  0.15835000  0.22783000  0.81479000  1.0
  H  H38  1  0.15835000  0.27217000  0.31479000  1.0
  H  H39  1  0.84165000  0.77217000  0.18521000  1.0
  H  H40  1  0.02937000  0.83025000  0.65426000  1.0
  H  H41  1  0.97063000  0.33025000  0.84574000  1.0
  H  H42  1  0.97063000  0.16975000  0.34574000  1.0
  H  H43  1  0.02937000  0.66975000  0.15426000  1.0
  H  H44  1  0.06302000  0.75147000  0.72717000  1.0
  H  H45  1  0.93697000  0.25147000  0.77283000  1.0
  H  H46  1  0.93697000  0.24853000  0.27283000  1.0
  H  H47  1  0.06302000  0.74853000  0.22717000  1.0
  H  H48  1  0.29457000  0.07338000  0.62044000  1.0
  H  H49  1  0.70543000  0.57338000  0.87956000  1.0
  H  H50  1  0.70543000  0.92662000  0.37956000  1.0
  H  H51  1  0.29457000  0.42662000  0.12044000  1.0
  H  H52  1  0.34333000  0.88684000  0.56385000  1.0
  H  H53  1  0.65667000  0.38684000  0.93615000  1.0
  H  H54  1  0.65667000  0.11316000  0.43615000  1.0
  H  H55  1  0.34333000  0.61316000  0.06385000  1.0
  C  C56  1  0.12734000  0.45567000  0.69389000  1.0
  C  C57  1  0.87266000  0.95567000  0.80611000  1.0
  C  C58  1  0.87266000  0.54432000  0.30611000  1.0
  C  C59  1  0.12734000  0.04433000  0.19389000  1.0
  C  C60  1  0.22075000  0.09338000  0.53060000  1.0
  C  C61  1  0.77925000  0.59338000  0.96940000  1.0
  C  C62  1  0.77926000  0.90663000  0.46940000  1.0
  C  C63  1  0.22075000  0.40663000  0.03060000  1.0
  C  C64  1  0.36806000  0.61001000  0.42960000  1.0
  C  C65  1  0.63194000  0.11002000  0.07040000  1.0
  C  C66  1  0.63195000  0.38999000  0.57040000  1.0
  C  C67  1  0.36806000  0.88999000  0.92960000  1.0
  C  C68  1  0.35143000  0.69913000  0.47978000  1.0
  C  C69  1  0.64858000  0.19914000  0.02022000  1.0
  C  C70  1  0.64858000  0.30087000  0.52022000  1.0
  C  C71  1  0.35143000  0.80087000  0.97978000  1.0
  C  C72  1  0.12126000  0.41717000  0.57141000  1.0
  C  C73  1  0.87874000  0.91717000  0.92859000  1.0
  C  C74  1  0.87874000  0.58283000  0.42859000  1.0
  C  C75  1  0.12126000  0.08283000  0.07141000  1.0
  C  C76  1  0.18179000  0.31351000  0.67038000  1.0
  C  C77  1  0.81821000  0.81351000  0.82962000  1.0
  C  C78  1  0.81821000  0.68649000  0.32962000  1.0
  C  C79  1  0.18179000  0.18649000  0.17038000  1.0
  C  C80  1  0.28617000  0.81810000  0.36866000  1.0
  C  C81  1  0.71383000  0.31810000  0.13134000  1.0
  C  C82  1  0.71383000  0.18190000  0.63134000  1.0
  C  C83  1  0.28617000  0.68190000  0.86866000  1.0
  C  C84  1  0.17784000  0.29197000  0.60859000  1.0
  C  C85  1  0.82216000  0.79197000  0.89141000  1.0
  C  C86  1  0.82216000  0.70803000  0.39141000  1.0
  C  C87  1  0.17784000  0.20803000  0.10859000  1.0
  C  C88  1  0.26321000  0.91624000  0.41637000  1.0
  C  C89  1  0.73679000  0.41624000  0.08363000  1.0
  C  C90  1  0.73679000  0.08376000  0.58363000  1.0
  C  C91  1  0.26321000  0.58376000  0.91637000  1.0
  C  C92  1  0.29954000  0.85738000  0.47431000  1.0
  C  C93  1  0.70046000  0.35738000  0.02569000  1.0
  C  C94  1  0.70046000  0.14262000  0.52569000  1.0
  C  C95  1  0.29954000  0.64262000  0.97431000  1.0
  C  C96  1  0.06589000  0.58005000  0.65707000  1.0
  C  C97  1  0.93411000  0.08005000  0.84293000  1.0
  C  C98  1  0.93411000  0.41995000  0.34293000  1.0
  C  C99  1  0.06589000  0.91995000  0.15707000  1.0
  C  C100  1  0.06592000  0.55781000  0.59579000  1.0
  C  C101  1  0.93408000  0.05781000  0.90421000  1.0
  C  C102  1  0.93408000  0.44219000  0.40421000  1.0
  C  C103  1  0.06592000  0.94219000  0.09579000  1.0
  C  C104  1  0.99780000  0.73037000  0.68230000  1.0
  C  C105  1  0.00220000  0.23037000  0.81770000  1.0
  C  C106  1  0.00220000  0.26963000  0.31770000  1.0
  C  C107  1  0.99780000  0.76963000  0.18230000  1.0
  N  N108  1  0.29218000  0.94281000  0.52574000  1.0
  N  N109  1  0.70782000  0.44281000  0.97426000  1.0
  N  N110  1  0.70783000  0.05719000  0.47426000  1.0
  N  N111  1  0.29217000  0.55719000  0.02574000  1.0
  N  N112  1  0.23536000  0.14634000  0.58816000  1.0
  N  N113  1  0.76463000  0.64634000  0.91184000  1.0
  N  N114  1  0.76464000  0.85366000  0.41184000  1.0
  N  N115  1  0.23537000  0.35366000  0.08816000  1.0
  N  N116  1  0.33922000  0.66742000  0.37403000  1.0
  N  N117  1  0.66078000  0.16743000  0.12597000  1.0
  N  N118  1  0.66078000  0.33257000  0.62597000  1.0
  N  N119  1  0.33922000  0.83258000  0.87403000  1.0
  N  N120  1  0.45044000  0.68482000  0.17940000  1.0
  N  N121  1  0.54956000  0.18482000  0.32060000  1.0
  N  N122  1  0.54956000  0.31518000  0.82060000  1.0
  N  N123  1  0.45044000  0.81518000  0.67940000  1.0
  O  O124  1  0.39763000  0.54586000  0.18964000  1.0
  O  O125  1  0.60237000  0.04586000  0.31036000  1.0
  O  O126  1  0.60237000  0.45414000  0.81036000  1.0
  O  O127  1  0.39763000  0.95414000  0.68964000  1.0
  O  O128  1  0.46403000  0.73216000  0.12734000  1.0
  O  O129  1  0.53596000  0.23216000  0.37266000  1.0
  O  O130  1  0.53596000  0.26784000  0.87266000  1.0
  O  O131  1  0.46404000  0.76784000  0.62734000  1.0
  O  O132  1  0.15217000  0.16855000  0.48748000  1.0
  O  O133  1  0.84782000  0.66855000  0.01252000  1.0
  O  O134  1  0.84783000  0.83145000  0.51252000  1.0
  O  O135  1  0.15217000  0.33145000  0.98748000  1.0
  O  O136  1  0.49022000  0.77454000  0.22379000  1.0
  O  O137  1  0.50978000  0.27454000  0.27621000  1.0
  O  O138  1  0.50978000  0.22546000  0.77621000  1.0
  O  O139  1  0.49022000  0.72546000  0.72379000  1.0
