# generated using pymatgen
data_CdH10C10N6(ClO2)2
_symmetry_space_group_name_H-M   'P 1'
_cell_length_a   3.71839000
_cell_length_b   13.17280000
_cell_length_c   15.38950000
_cell_angle_alpha   90.00200000
_cell_angle_beta   90.00450000
_cell_angle_gamma   89.99970000
_symmetry_Int_Tables_number   1
_chemical_formula_structural   CdH10C10N6(ClO2)2
_chemical_formula_sum   'Cd2 H20 C20 N12 Cl4 O8'
_cell_volume   753.80245032
_cell_formula_units_Z   2
loop_
 _symmetry_equiv_pos_site_id
 _symmetry_equiv_pos_as_xyz
  1  'x, y, z'
loop_
 _atom_site_type_symbol
 _atom_site_label
 _atom_site_symmetry_multiplicity
 _atom_site_fract_x
 _atom_site_fract_y
 _atom_site_fract_z
 _atom_site_occupancy
  Cd  Cd0  1  0.92306000  0.00001000  0.00000000  1.0
  Cd  Cd1  1  0.07694000  0.50001000  0.50000000  1.0
  H  H2  1  0.76153000  0.22907000  0.99585000  1.0
  H  H3  1  0.76150000  0.77095000  0.00416000  1.0
  H  H4  1  0.23849000  0.72906000  0.50416000  1.0
  H  H5  1  0.23850000  0.27095000  0.49582000  1.0
  H  H6  1  0.91963000  0.34457000  0.03601000  1.0
  H  H7  1  0.91960000  0.65545000  0.96402000  1.0
  H  H8  1  0.08038000  0.84456000  0.46401000  1.0
  H  H9  1  0.08041000  0.15545000  0.53596000  1.0
  H  H10  1  0.00778000  0.99235000  0.20009000  1.0
  H  H11  1  0.00772000  0.00765000  0.79991000  1.0
  H  H12  1  0.99221000  0.49235000  0.29991000  1.0
  H  H13  1  0.99224000  0.50765000  0.70008000  1.0
  H  H14  1  0.43464000  0.26998000  0.30751000  1.0
  H  H15  1  0.43449000  0.73001000  0.69251000  1.0
  H  H16  1  0.56539000  0.76997000  0.19250000  1.0
  H  H17  1  0.56555000  0.23002000  0.80747000  1.0
  H  H18  1  0.25793000  0.35769000  0.17004000  1.0
  H  H19  1  0.25784000  0.64231000  0.82999000  1.0
  H  H20  1  0.74209000  0.85769000  0.32998000  1.0
  H  H21  1  0.74221000  0.14231000  0.67000000  1.0
  C  C22  1  0.02353000  0.22168000  0.11340000  1.0
  C  C23  1  0.02347000  0.77833000  0.88662000  1.0
  C  C24  1  0.97648000  0.72168000  0.38662000  1.0
  C  C25  1  0.97652000  0.27833000  0.61336000  1.0
  C  C26  1  0.21746000  0.12533000  0.26441000  1.0
  C  C27  1  0.21736000  0.87466000  0.73561000  1.0
  C  C28  1  0.78251000  0.62533000  0.23561000  1.0
  C  C29  1  0.78264000  0.37467000  0.76438000  1.0
  C  C30  1  0.05839000  0.07357000  0.19549000  1.0
  C  C31  1  0.05832000  0.92643000  0.80452000  1.0
  C  C32  1  0.94160000  0.57357000  0.30452000  1.0
  C  C33  1  0.94165000  0.42643000  0.69548000  1.0
  C  C34  1  0.29897000  0.22929000  0.25536000  1.0
  C  C35  1  0.29886000  0.77070000  0.74466000  1.0
  C  C36  1  0.70103000  0.72928000  0.24466000  1.0
  C  C37  1  0.70116000  0.27070000  0.75532000  1.0
  C  C38  1  0.20158000  0.27747000  0.18008000  1.0
  C  C39  1  0.20149000  0.72253000  0.81994000  1.0
  C  C40  1  0.79843000  0.77746000  0.31994000  1.0
  C  C41  1  0.79853000  0.22254000  0.68004000  1.0
  N  N42  1  0.97047000  0.11919000  0.12095000  1.0
  N  N43  1  0.97042000  0.88081000  0.87906000  1.0
  N  N44  1  0.02953000  0.61919000  0.37906000  1.0
  N  N45  1  0.02955000  0.38082000  0.62093000  1.0
  N  N46  1  0.90458000  0.26793000  0.04169000  1.0
  N  N47  1  0.90454000  0.73208000  0.95833000  1.0
  N  N48  1  0.09543000  0.76793000  0.45833000  1.0
  N  N49  1  0.09545000  0.23208000  0.54165000  1.0
  N  N50  1  0.30995000  0.07176000  0.34253000  1.0
  N  N51  1  0.30985000  0.92822000  0.65747000  1.0
  N  N52  1  0.69004000  0.57175000  0.15747000  1.0
  N  N53  1  0.69015000  0.42824000  0.84252000  1.0
  Cl  Cl54  1  0.43244000  0.89485000  0.07971000  1.0
  Cl  Cl55  1  0.43238000  0.10518000  0.92029000  1.0
  Cl  Cl56  1  0.56757000  0.39485000  0.42029000  1.0
  Cl  Cl57  1  0.56763000  0.60518000  0.57971000  1.0
  O  O58  1  0.47352000  0.11896000  0.40081000  1.0
  O  O59  1  0.47338000  0.88101000  0.59921000  1.0
  O  O60  1  0.52651000  0.61896000  0.09920000  1.0
  O  O61  1  0.52662000  0.38102000  0.90078000  1.0
  O  O62  1  0.22546000  0.97997000  0.34868000  1.0
  O  O63  1  0.22539000  0.02001000  0.65132000  1.0
  O  O64  1  0.77447000  0.47996000  0.15132000  1.0
  O  O65  1  0.77458000  0.52002000  0.84868000  1.0
