# generated using pymatgen
data_Zr3H16C25O16
_symmetry_space_group_name_H-M   'P 1'
_cell_length_a   9.34098000
_cell_length_b   17.79910000
_cell_length_c   28.99830000
_cell_angle_alpha   93.41180000
_cell_angle_beta   96.86420000
_cell_angle_gamma   90.98720000
_symmetry_Int_Tables_number   1
_chemical_formula_structural   Zr3H16C25O16
_chemical_formula_sum   'Zr6 H32 C50 O32'
_cell_volume   4776.80400231
_cell_formula_units_Z   2
loop_
 _symmetry_equiv_pos_site_id
 _symmetry_equiv_pos_as_xyz
  1  'x, y, z'
loop_
 _atom_site_type_symbol
 _atom_site_label
 _atom_site_symmetry_multiplicity
 _atom_site_fract_x
 _atom_site_fract_y
 _atom_site_fract_z
 _atom_site_occupancy
  Zr  Zr0  1  0.03248000  0.88552000  0.04712000  1.0
  Zr  Zr1  1  0.97273000  0.10467000  0.95605000  1.0
  Zr  Zr2  1  0.87411000  0.05529000  0.06087000  1.0
  Zr  Zr3  1  0.13773000  0.92820000  0.93816000  1.0
  Zr  Zr4  1  0.76156000  0.93602000  0.95923000  1.0
  Zr  Zr5  1  0.25618000  0.05151000  0.04088000  1.0
  H  H6  1  0.95051000  0.81153000  0.95713000  1.0
  H  H7  1  0.68418000  0.09156000  0.97930000  1.0
  H  H8  1  0.26737000  0.07841000  0.94649000  1.0
  H  H9  1  0.13173000  0.00548000  0.11877000  1.0
  H  H10  1  0.46523000  0.92677000  0.97110000  1.0
  H  H11  1  0.97331000  0.19681000  0.08824000  1.0
  H  H12  1  0.30579000  0.15574000  0.10771000  1.0
  H  H13  1  0.71965000  0.81699000  0.88872000  1.0
  H  H14  1  0.88437000  0.85750000  0.88439000  1.0
  H  H15  1  0.41752000  0.95344000  0.91300000  1.0
  H  H16  1  0.53995000  0.10131000  0.03206000  1.0
  H  H17  1  0.62627000  0.96719000  0.88101000  1.0
  H  H18  1  0.84275000  0.15769000  0.87438000  1.0
  H  H19  1  0.20597000  0.79262000  0.10032000  1.0
  H  H20  1  0.46389000  0.99152000  0.09412000  1.0
  H  H21  1  0.05249000  0.86750000  0.85274000  1.0
  H  H22  1  0.76874000  0.19462000  0.91715000  1.0
  H  H23  1  0.64817000  0.11486000  0.09917000  1.0
  H  H24  1  0.51484000  0.94188000  0.02726000  1.0
  H  H25  1  0.49933000  0.03179000  0.99731000  1.0
  H  H26  1  0.92441000  0.17039000  0.13572000  1.0
  H  H27  1  0.09881000  0.83162000  0.13336000  1.0
  H  H28  1  0.76178000  0.50750000  0.01247000  1.0
  H  H29  1  0.22539000  0.48886000  0.98816000  1.0
  H  H30  1  0.13714000  0.94509000  0.29043000  1.0
  H  H31  1  0.94921000  0.96560000  0.41924000  1.0
  H  H32  1  0.67366000  0.94823000  0.28845000  1.0
  H  H33  1  0.30007000  0.05310000  0.71294000  1.0
  H  H34  1  0.02794000  0.03436000  0.58145000  1.0
  H  H35  1  0.83631000  0.05634000  0.70951000  1.0
  H  H36  1  0.75171000  0.00111000  0.49829000  1.0
  H  H37  1  0.22274000  0.99891000  0.50250000  1.0
  C  C38  1  0.75659000  0.77696000  0.00982000  1.0
  C  C39  1  0.21626000  0.76693000  0.99191000  1.0
  C  C40  1  0.87556000  0.94385000  0.14309000  1.0
  C  C41  1  0.85155000  0.25724000  0.01559000  1.0
  C  C42  1  0.22509000  0.22073000  0.99591000  1.0
  C  C43  1  0.09014000  0.05260000  0.85721000  1.0
  C  C44  1  0.56529000  0.56920000  0.00336000  1.0
  C  C45  1  0.41121000  0.56416000  0.99613000  1.0
  C  C46  1  0.34275000  0.49313000  0.99314000  1.0
  C  C47  1  0.42219000  0.42698000  0.99672000  1.0
  C  C48  1  0.57619000  0.43216000  0.00329000  1.0
  C  C49  1  0.64447000  0.50340000  0.00688000  1.0
  C  C50  1  0.90360000  0.94503000  0.28436000  1.0
  C  C51  1  0.04296000  0.94782000  0.30919000  1.0
  C  C52  1  0.05989000  0.95583000  0.35806000  1.0
  C  C53  1  0.93650000  0.95947000  0.38139000  1.0
  C  C54  1  0.79708000  0.95665000  0.35690000  1.0
  C  C55  1  0.78067000  0.94952000  0.30805000  1.0
  C  C56  1  0.06970000  0.05650000  0.71633000  1.0
  C  C57  1  0.19350000  0.05167000  0.69304000  1.0
  C  C58  1  0.17842000  0.04391000  0.64418000  1.0
  C  C59  1  0.03951000  0.04088000  0.61928000  1.0
  C  C60  1  0.91550000  0.04484000  0.64226000  1.0
  C  C61  1  0.93108000  0.05342000  0.69106000  1.0
  C  C62  1  0.54404000  0.98620000  0.45746000  1.0
  C  C63  1  0.39197000  0.98566000  0.45863000  1.0
  C  C64  1  0.33894000  0.99944000  0.50157000  1.0
  C  C65  1  0.43043000  0.01385000  0.54335000  1.0
  C  C66  1  0.58246000  0.01445000  0.54212000  1.0
  C  C67  1  0.63550000  0.00060000  0.49922000  1.0
  C  C68  1  0.68258000  0.02797000  0.58221000  1.0
  C  C69  1  0.78179000  0.03765000  0.61354000  1.0
  C  C70  1  0.29311000  0.03640000  0.61652000  1.0
  C  C71  1  0.36660000  0.02694000  0.58465000  1.0
  C  C72  1  0.29214000  0.97231000  0.41840000  1.0
  C  C73  1  0.19383000  0.96274000  0.38673000  1.0
  C  C74  1  0.68277000  0.96382000  0.38467000  1.0
  C  C75  1  0.60830000  0.97310000  0.41627000  1.0
  C  C76  1  0.27886000  0.69316000  0.99154000  1.0
  C  C77  1  0.33390000  0.63166000  0.99317000  1.0
  C  C78  1  0.66316000  0.36801000  0.00650000  1.0
  C  C79  1  0.74821000  0.31687000  0.00986000  1.0
  C  C80  1  0.29010000  0.29486000  0.99505000  1.0
  C  C81  1  0.35044000  0.35611000  0.99511000  1.0
  C  C82  1  0.69135000  0.70314000  0.00972000  1.0
  C  C83  1  0.63563000  0.64045000  0.00705000  1.0
  C  C84  1  0.08217000  0.06123000  0.76569000  1.0
  C  C85  1  0.08853000  0.06216000  0.80792000  1.0
  C  C86  1  0.88749000  0.94036000  0.23497000  1.0
  C  C87  1  0.87450000  0.93902000  0.19262000  1.0
  O  O88  1  0.17088000  0.84066000  0.11218000  1.0
  O  O89  1  0.86500000  0.79288000  0.04030000  1.0
  O  O90  1  0.92329000  0.88851000  0.12053000  1.0
  O  O91  1  0.22129000  0.80540000  0.95728000  1.0
  O  O92  1  0.83274000  0.00611000  0.12661000  1.0
  O  O93  1  0.15872000  0.78574000  0.02923000  1.0
  O  O94  1  0.70147000  0.81873000  0.97843000  1.0
  O  O95  1  0.85386000  0.94943000  0.03087000  1.0
  O  O96  1  0.96362000  0.86314000  0.96995000  1.0
  O  O97  1  0.08911000  0.99739000  0.08653000  1.0
  O  O98  1  0.16453000  0.94359000  0.01122000  1.0
  O  O99  1  0.34894000  0.92635000  0.92998000  1.0
  O  O100  1  0.55273000  0.94255000  0.99568000  1.0
  O  O101  1  0.93916000  0.99220000  0.93740000  1.0
  O  O102  1  0.77138000  0.06299000  0.98635000  1.0
  O  O103  1  0.03177000  0.09220000  0.02468000  1.0
  O  O104  1  0.19459000  0.05348000  0.96191000  1.0
  O  O105  1  0.68447000  0.10922000  0.06912000  1.0
  O  O106  1  0.93510000  0.25883000  0.05293000  1.0
  O  O107  1  0.84670000  0.20830000  0.98079000  1.0
  O  O108  1  0.40570000  0.97078000  0.06602000  1.0
  O  O109  1  0.12569000  0.20149000  0.96248000  1.0
  O  O110  1  0.97718000  0.15379000  0.11018000  1.0
  O  O111  1  0.31845000  0.10165000  0.10459000  1.0
  O  O112  1  0.46157000  0.08241000  0.00637000  1.0
  O  O113  1  0.27314000  0.18124000  0.02881000  1.0
  O  O114  1  0.79071000  0.14700000  0.90069000  1.0
  O  O115  1  0.02759000  0.85524000  0.88306000  1.0
  O  O116  1  0.03799000  0.10527000  0.88173000  1.0
  O  O117  1  0.14177000  0.99155000  0.87123000  1.0
  O  O118  1  0.77089000  0.86531000  0.89112000  1.0
  O  O119  1  0.60638000  0.97989000  0.91268000  1.0
