# generated using pymatgen
data_Ga2H22(C3N2)7
_symmetry_space_group_name_H-M   'P 1'
_cell_length_a   10.84560000
_cell_length_b   12.24120000
_cell_length_c   12.25660000
_cell_angle_alpha   119.54700000
_cell_angle_beta   116.25100000
_cell_angle_gamma   90.00340000
_symmetry_Int_Tables_number   1
_chemical_formula_structural   Ga2H22(C3N2)7
_chemical_formula_sum   'Ga4 H44 C42 N28'
_cell_volume   1218.96040890
_cell_formula_units_Z   2
loop_
 _symmetry_equiv_pos_site_id
 _symmetry_equiv_pos_as_xyz
  1  'x, y, z'
loop_
 _atom_site_type_symbol
 _atom_site_label
 _atom_site_symmetry_multiplicity
 _atom_site_fract_x
 _atom_site_fract_y
 _atom_site_fract_z
 _atom_site_occupancy
  Ga  Ga0  1  0.50384000  0.99979000  0.50054000  1.0
  Ga  Ga1  1  0.00322000  0.50018000  0.49941000  1.0
  Ga  Ga2  1  0.49988000  0.00029000  0.99999000  1.0
  Ga  Ga3  1  0.49992000  0.49973000  0.00002000  1.0
  H  H4  1  0.51370000  0.90518000  0.21191000  1.0
  H  H5  1  0.46283000  0.26160000  0.47958000  1.0
  H  H6  1  0.45412000  0.26017000  0.25078000  1.0
  H  H7  1  0.38245000  0.24588000  0.66608000  1.0
  H  H8  1  0.80441000  0.21763000  0.79077000  1.0
  H  H9  1  0.80650000  0.44107000  0.01788000  1.0
  H  H10  1  0.74757000  0.05200000  0.42809000  1.0
  H  H11  1  0.77409000  0.94032000  0.71080000  1.0
  H  H12  1  0.03119000  0.95869000  0.71723000  1.0
  H  H13  1  0.77512000  0.86956000  0.01420000  1.0
  H  H14  1  0.52784000  0.50681000  0.51693000  1.0
  H  H15  1  0.30166000  0.59482000  0.78792000  1.0
  H  H16  1  0.98323000  0.23836000  0.52034000  1.0
  H  H17  1  0.20330000  0.23987000  0.74919000  1.0
  H  H18  1  0.71629000  0.25418000  0.33385000  1.0
  H  H19  1  0.01364000  0.28228000  0.20910000  1.0
  H  H20  1  0.78866000  0.05885000  0.98202000  1.0
  H  H21  1  0.31922000  0.44795000  0.57184000  1.0
  H  H22  1  0.06340000  0.55966000  0.28906000  1.0
  H  H23  1  0.31428000  0.54143000  0.28300000  1.0
  H  H24  1  0.76106000  0.63049000  0.98592000  1.0
  H  H25  1  0.01109000  0.99316000  0.48309000  1.0
  H  H26  1  0.48902000  0.09684000  0.78952000  1.0
  H  H27  1  0.53085000  0.73715000  0.51730000  1.0
  H  H28  1  0.54042000  0.73954000  0.74744000  1.0
  H  H29  1  0.61785000  0.75504000  0.33380000  1.0
  H  H30  1  0.19532000  0.78135000  0.20802000  1.0
  H  H31  1  0.19377000  0.55827000  0.98180000  1.0
  H  H32  1  0.25410000  0.94758000  0.57226000  1.0
  H  H33  1  0.22489000  0.05873000  0.28795000  1.0
  H  H34  1  0.96796000  0.04263000  0.28409000  1.0
  H  H35  1  0.22423000  0.13014000  0.98461000  1.0
  H  H36  1  0.69966000  0.40325000  0.21066000  1.0
  H  H37  1  0.01366000  0.76292000  0.48282000  1.0
  H  H38  1  0.79316000  0.76054000  0.25269000  1.0
  H  H39  1  0.28409000  0.74493000  0.66622000  1.0
  H  H40  1  0.98728000  0.71866000  0.79200000  1.0
  H  H41  1  0.21193000  0.94171000  0.01825000  1.0
  H  H42  1  0.68177000  0.55241000  0.42781000  1.0
  H  H43  1  0.93671000  0.44118000  0.71204000  1.0
  H  H44  1  0.68361000  0.45726000  0.71586000  1.0
  H  H45  1  0.23946000  0.36983000  0.01521000  1.0
  H  H46  1  0.40167000  0.74993000  0.00009000  1.0
  H  H47  1  0.59846000  0.25008000  0.99995000  1.0
  C  C48  1  0.49746000  0.00128000  0.25143000  1.0
  C  C49  1  0.46863000  0.18589000  0.27538000  1.0
  C  C50  1  0.47248000  0.18685000  0.38967000  1.0
  C  C51  1  0.49782000  0.26939000  0.73055000  1.0
  C  C52  1  0.71778000  0.36861000  0.91041000  1.0
  C  C53  1  0.71677000  0.25699000  0.79762000  1.0
  C  C54  1  0.78978000  0.02324000  0.50539000  1.0
  C  C55  1  0.93427000  0.97614000  0.65555000  1.0
  C  C56  1  0.80598000  0.96641000  0.65264000  1.0
  C  C57  1  0.69513000  0.80966000  0.00742000  1.0
  C  C58  1  0.24593000  0.49873000  0.74846000  1.0
  C  C59  1  0.19318000  0.31412000  0.72453000  1.0
  C  C60  1  0.08275000  0.31316000  0.61026000  1.0
  C  C61  1  0.76722000  0.23064000  0.26938000  1.0
  C  C62  1  0.80736000  0.13136000  0.08950000  1.0
  C  C63  1  0.91911000  0.24296000  0.20226000  1.0
  C  C64  1  0.28428000  0.47672000  0.49457000  1.0
  C  C65  1  0.27887000  0.52396000  0.34458000  1.0
  C  C66  1  0.15341000  0.53362000  0.34734000  1.0
  C  C67  1  0.68783000  0.69036000  0.99272000  1.0
  C  C68  1  0.50342000  0.00006000  0.74912000  1.0
  C  C69  1  0.52896000  0.81443000  0.72378000  1.0
  C  C70  1  0.52449000  0.81293000  0.60901000  1.0
  C  C71  1  0.50241000  0.73070000  0.26894000  1.0
  C  C72  1  0.28250000  0.63119000  0.08902000  1.0
  C  C73  1  0.28346000  0.74285000  0.20161000  1.0
  C  C74  1  0.21316000  0.97561000  0.49447000  1.0
  C  C75  1  0.06520000  0.02415000  0.34315000  1.0
  C  C76  1  0.19321000  0.03240000  0.34604000  1.0
  C  C77  1  0.30477000  0.19027000  0.99230000  1.0
  C  C78  1  0.75441000  0.50004000  0.25103000  1.0
  C  C79  1  0.80533000  0.68564000  0.27635000  1.0
  C  C80  1  0.91561000  0.68713000  0.39109000  1.0
  C  C81  1  0.23348000  0.76928000  0.73108000  1.0
  C  C82  1  0.19346000  0.86880000  0.91103000  1.0
  C  C83  1  0.08188000  0.75716000  0.79848000  1.0
  C  C84  1  0.71858000  0.52436000  0.50557000  1.0
  C  C85  1  0.72188000  0.47572000  0.65683000  1.0
  C  C86  1  0.84697000  0.46746000  0.65389000  1.0
  C  C87  1  0.31234000  0.30972000  0.00750000  1.0
  C  C88  1  0.50164000  0.74997000  0.00009000  1.0
  C  C89  1  0.49849000  0.25004000  0.99993000  1.0
  N  N90  1  0.49006000  0.06897000  0.37312000  1.0
  N  N91  1  0.48560000  0.06745000  0.18792000  1.0
  N  N92  1  0.57676000  0.19403000  0.68407000  1.0
  N  N93  1  0.57841000  0.37613000  0.86746000  1.0
  N  N94  1  0.71329000  0.99627000  0.55603000  1.0
  N  N95  1  0.92305000  0.01178000  0.56166000  1.0
  N  N96  1  0.57545000  0.84629000  0.01045000  1.0
  N  N97  1  0.11686000  0.43102000  0.62678000  1.0
  N  N98  1  0.29760000  0.43259000  0.81201000  1.0
  N  N99  1  0.89264000  0.30595000  0.31582000  1.0
  N  N100  1  0.71093000  0.12388000  0.13247000  1.0
  N  N101  1  0.15718000  0.50369000  0.44385000  1.0
  N  N102  1  0.36140000  0.48827000  0.43844000  1.0
  N  N103  1  0.56513000  0.65369000  0.98970000  1.0
  N  N104  1  0.50906000  0.93141000  0.62644000  1.0
  N  N105  1  0.51445000  0.93377000  0.81240000  1.0
  N  N106  1  0.42335000  0.80603000  0.31519000  1.0
  N  N107  1  0.42187000  0.62383000  0.13212000  1.0
  N  N108  1  0.28627000  0.00217000  0.44224000  1.0
  N  N109  1  0.07991000  0.98786000  0.43718000  1.0
  N  N110  1  0.42447000  0.15364000  0.98926000  1.0
  N  N111  1  0.88270000  0.56868000  0.37370000  1.0
  N  N112  1  0.70219000  0.56630000  0.18772000  1.0
  N  N113  1  0.10818000  0.69398000  0.68486000  1.0
  N  N114  1  0.28976000  0.87614000  0.86792000  1.0
  N  N115  1  0.84391000  0.49779000  0.55778000  1.0
  N  N116  1  0.64262000  0.51208000  0.56286000  1.0
  N  N117  1  0.43510000  0.34641000  0.01062000  1.0
