# generated using pymatgen
data_AgH17C15O11
_symmetry_space_group_name_H-M   'P 1'
_cell_length_a   8.14868000
_cell_length_b   10.66970000
_cell_length_c   11.15060000
_cell_angle_alpha   109.69900000
_cell_angle_beta   100.38300000
_cell_angle_gamma   102.71700000
_symmetry_Int_Tables_number   1
_chemical_formula_structural   AgH17C15O11
_chemical_formula_sum   'Ag2 H34 C30 O22'
_cell_volume   855.49968287
_cell_formula_units_Z   2
loop_
 _symmetry_equiv_pos_site_id
 _symmetry_equiv_pos_as_xyz
  1  'x, y, z'
loop_
 _atom_site_type_symbol
 _atom_site_label
 _atom_site_symmetry_multiplicity
 _atom_site_fract_x
 _atom_site_fract_y
 _atom_site_fract_z
 _atom_site_occupancy
  Ag  Ag0  1  0.88958000  0.44195000  0.28286000  1.0
  Ag  Ag1  1  0.11042000  0.55806000  0.71713000  1.0
  H  H2  1  0.89017000  0.19929000  0.29950000  1.0
  H  H3  1  0.10982000  0.80070000  0.70049000  1.0
  H  H4  1  0.94299000  0.19129000  0.16706000  1.0
  H  H5  1  0.05700000  0.80871000  0.83294000  1.0
  H  H6  1  0.66675000  0.01978000  0.29627000  1.0
  H  H7  1  0.33325000  0.98023000  0.70372000  1.0
  H  H8  1  0.57467000  0.91649000  0.37906000  1.0
  H  H9  1  0.42533000  0.08351000  0.62094000  1.0
  H  H10  1  0.80959000  0.98319000  0.41480000  1.0
  H  H11  1  0.19042000  0.01681000  0.58520000  1.0
  H  H12  1  0.79768000  0.95080000  0.72619000  1.0
  H  H13  1  0.20232000  0.04920000  0.27381000  1.0
  H  H14  1  0.95870000  0.05398000  0.88179000  1.0
  H  H15  1  0.04130000  0.94602000  0.11820000  1.0
  H  H16  1  0.02514000  0.00481000  0.73170000  1.0
  H  H17  1  0.97486000  0.99519000  0.26829000  1.0
  H  H18  1  0.61418000  0.54461000  0.19172000  1.0
  H  H19  1  0.38583000  0.45540000  0.80828000  1.0
  H  H20  1  0.62433000  0.71683000  0.19860000  1.0
  H  H21  1  0.37568000  0.28318000  0.80140000  1.0
  H  H22  1  0.82380000  0.67855000  0.24985000  1.0
  H  H23  1  0.17621000  0.32146000  0.75015000  1.0
  H  H24  1  0.61621000  0.90908000  0.86739000  1.0
  H  H25  1  0.38380000  0.09092000  0.13260000  1.0
  H  H26  1  0.64874000  0.88727000  0.02095000  1.0
  H  H27  1  0.35127000  0.11273000  0.97905000  1.0
  H  H28  1  0.43113000  0.82343000  0.90900000  1.0
  H  H29  1  0.56888000  0.17658000  0.09100000  1.0
  H  H30  1  0.57325000  0.61493000  0.39992000  1.0
  H  H31  1  0.42674000  0.38507000  0.60008000  1.0
  H  H32  1  0.77875000  0.75147000  0.46332000  1.0
  H  H33  1  0.22123000  0.24853000  0.53669000  1.0
  H  H34  1  0.59693000  0.77883000  0.52927000  1.0
  H  H35  1  0.40306000  0.22117000  0.47073000  1.0
  C  C36  1  0.78738000  0.48896000  0.66605000  1.0
  C  C37  1  0.21262000  0.51103000  0.33395000  1.0
  C  C38  1  0.75920000  0.55307000  0.79282000  1.0
  C  C39  1  0.24079000  0.44692000  0.20718000  1.0
  C  C40  1  0.75721000  0.45972000  0.85726000  1.0
  C  C41  1  0.24280000  0.54027000  0.14275000  1.0
  C  C42  1  0.77860000  0.33448000  0.77024000  1.0
  C  C43  1  0.22141000  0.66552000  0.22976000  1.0
  C  C44  1  0.79776000  0.35136000  0.65346000  1.0
  C  C45  1  0.20223000  0.64863000  0.34655000  1.0
  C  C46  1  0.80879000  0.24181000  0.53508000  1.0
  C  C47  1  0.19120000  0.75818000  0.46493000  1.0
  C  C48  1  0.68395000  0.00284000  0.38880000  1.0
  C  C49  1  0.31606000  0.99716000  0.61120000  1.0
  C  C50  1  0.77954000  0.20751000  0.79545000  1.0
  C  C51  1  0.22048000  0.79250000  0.20455000  1.0
  C  C52  1  0.92283000  0.03375000  0.77610000  1.0
  C  C53  1  0.07718000  0.96625000  0.22390000  1.0
  C  C54  1  0.75879000  0.49037000  0.99553000  1.0
  C  C55  1  0.24121000  0.50963000  0.00447000  1.0
  C  C56  1  0.69145000  0.63671000  0.18147000  1.0
  C  C57  1  0.30856000  0.36330000  0.81854000  1.0
  C  C58  1  0.74901000  0.69780000  0.85073000  1.0
  C  C59  1  0.25097000  0.30219000  0.14926000  1.0
  C  C60  1  0.57049000  0.84090000  0.91706000  1.0
  C  C61  1  0.42952000  0.15910000  0.08294000  1.0
  C  C62  1  0.74558000  0.52919000  0.55372000  1.0
  C  C63  1  0.25441000  0.47080000  0.44624000  1.0
  C  C64  1  0.66355000  0.70280000  0.48804000  1.0
  C  C65  1  0.33643000  0.29721000  0.51197000  1.0
  O  O66  1  0.92538000  0.25327000  0.47884000  1.0
  O  O67  1  0.07463000  0.74674000  0.52115000  1.0
  O  O68  1  0.67618000  0.12275000  0.49578000  1.0
  O  O69  1  0.32382000  0.87725000  0.50422000  1.0
  O  O70  1  0.91197000  0.15994000  0.75803000  1.0
  O  O71  1  0.08802000  0.84005000  0.24197000  1.0
  O  O72  1  0.67446000  0.14807000  0.83949000  1.0
  O  O73  1  0.32557000  0.85193000  0.16051000  1.0
  O  O74  1  0.80659000  0.42301000  0.05850000  1.0
  O  O75  1  0.19339000  0.57699000  0.94150000  1.0
  O  O76  1  0.70139000  0.60109000  0.04707000  1.0
  O  O77  1  0.29863000  0.39891000  0.95294000  1.0
  O  O78  1  0.58750000  0.70260000  0.85218000  1.0
  O  O79  1  0.41249000  0.29740000  0.14783000  1.0
  O  O80  1  0.87750000  0.80316000  0.89492000  1.0
  O  O81  1  0.12250000  0.19684000  0.10508000  1.0
  O  O82  1  0.72002000  0.65625000  0.59128000  1.0
  O  O83  1  0.27996000  0.34376000  0.40874000  1.0
  O  O84  1  0.72567000  0.45407000  0.43647000  1.0
  O  O85  1  0.27433000  0.54593000  0.56354000  1.0
  O  O86  1  0.84615000  0.19565000  0.20978000  1.0
  O  O87  1  0.15385000  0.80436000  0.79021000  1.0
