# generated using pymatgen
data_NaHoH16(C3O2)6
_symmetry_space_group_name_H-M   'P 1'
_cell_length_a   6.78817000
_cell_length_b   7.45638000
_cell_length_c   19.84333320
_cell_angle_alpha   89.99916309
_cell_angle_beta   80.16917569
_cell_angle_gamma   89.99960000
_symmetry_Int_Tables_number   1
_chemical_formula_structural   NaHoH16(C3O2)6
_chemical_formula_sum   'Na2 Ho2 H32 C36 O24'
_cell_volume   989.62574466
_cell_formula_units_Z   2
loop_
 _symmetry_equiv_pos_site_id
 _symmetry_equiv_pos_as_xyz
  1  'x, y, z'
loop_
 _atom_site_type_symbol
 _atom_site_label
 _atom_site_symmetry_multiplicity
 _atom_site_fract_x
 _atom_site_fract_y
 _atom_site_fract_z
 _atom_site_occupancy
  Na  Na0  1  0.83579000  0.24997000  0.32774000  1.0
  Na  Na1  1  0.16421000  0.74996000  0.67226000  1.0
  Ho  Ho2  1  0.70753000  0.74997000  0.58529000  1.0
  Ho  Ho3  1  0.29246000  0.24996000  0.41471000  1.0
  H  H4  1  0.17129000  0.14795000  0.06274000  1.0
  H  H5  1  0.82871000  0.64794000  0.93726000  1.0
  H  H6  1  0.76530000  0.35234000  0.06295000  1.0
  H  H7  1  0.23471000  0.85233000  0.93705000  1.0
  H  H8  1  0.10606000  0.15141000  0.18970000  1.0
  H  H9  1  0.89395000  0.65142000  0.81030000  1.0
  H  H10  1  0.70299000  0.34889000  0.18992000  1.0
  H  H11  1  0.29702000  0.84889000  0.81008000  1.0
  H  H12  1  0.87513000  0.14627000  0.84277000  1.0
  H  H13  1  0.12488000  0.64626000  0.15723000  1.0
  H  H14  1  0.28258000  0.35348000  0.84260000  1.0
  H  H15  1  0.71742000  0.85347000  0.15740000  1.0
  H  H16  1  0.94175000  0.26830000  0.56451000  1.0
  H  H17  1  0.05824000  0.76829000  0.43548000  1.0
  H  H18  1  0.49371000  0.23170000  0.56445000  1.0
  H  H19  1  0.50628000  0.73167000  0.43555000  1.0
  H  H20  1  0.78006000  0.11513000  0.65569000  1.0
  H  H21  1  0.21993000  0.61512000  0.34431000  1.0
  H  H22  1  0.56431000  0.38488000  0.65565000  1.0
  H  H23  1  0.43569000  0.88487000  0.34435000  1.0
  H  H24  1  0.75493000  0.90894000  0.26433000  1.0
  H  H25  1  0.24506000  0.40895000  0.73568000  1.0
  H  H26  1  0.98036000  0.59097000  0.26441000  1.0
  H  H27  1  0.01964000  0.09097000  0.73559000  1.0
  H  H28  1  0.98148000  0.89713000  0.27287000  1.0
  H  H29  1  0.01852000  0.39714000  0.72713000  1.0
  H  H30  1  0.74533000  0.60319000  0.27299000  1.0
  H  H31  1  0.25468000  0.10318000  0.72701000  1.0
  H  H32  1  0.81235000  0.14836000  0.96931000  1.0
  H  H33  1  0.18765000  0.64834000  0.03069000  1.0
  H  H34  1  0.21845000  0.35155000  0.96911000  1.0
  H  H35  1  0.78154000  0.85154000  0.03089000  1.0
  C  C36  1  0.28655000  0.19584000  0.09052000  1.0
  C  C37  1  0.71346000  0.69584000  0.90948000  1.0
  C  C38  1  0.62222000  0.30435000  0.09064000  1.0
  C  C39  1  0.37779000  0.80435000  0.90936000  1.0
  C  C40  1  0.24976000  0.19643000  0.16160000  1.0
  C  C41  1  0.75026000  0.69644000  0.83840000  1.0
  C  C42  1  0.58762000  0.30378000  0.16171000  1.0
  C  C43  1  0.41239000  0.80377000  0.83829000  1.0
  C  C44  1  0.73218000  0.19367000  0.87049000  1.0
  C  C45  1  0.26783000  0.69366000  0.12951000  1.0
  C  C46  1  0.39770000  0.30612000  0.87039000  1.0
  C  C47  1  0.60230000  0.80611000  0.12961000  1.0
  C  C48  1  0.86484000  0.08637000  0.48949000  1.0
  C  C49  1  0.13514000  0.58635000  0.51051000  1.0
  C  C50  1  0.64556000  0.41376000  0.48946000  1.0
  C  C51  1  0.35442000  0.91376000  0.51054000  1.0
  C  C52  1  0.36280000  0.24983000  0.27345000  1.0
  C  C53  1  0.63719000  0.74983000  0.72656000  1.0
  C  C54  1  0.40069000  0.25001000  0.19761000  1.0
  C  C55  1  0.59932000  0.75001000  0.80239000  1.0
  C  C56  1  0.81225000  0.18662000  0.55700000  1.0
  C  C57  1  0.18773000  0.68660000  0.44300000  1.0
  C  C58  1  0.63070000  0.31342000  0.55697000  1.0
  C  C59  1  0.36929000  0.81340000  0.44303000  1.0
  C  C60  1  0.58316000  0.24991000  0.83408000  1.0
  C  C61  1  0.41685000  0.74990000  0.16592000  1.0
  C  C62  1  0.62124000  0.24992000  0.75793000  1.0
  C  C63  1  0.37877000  0.74990000  0.24207000  1.0
  C  C64  1  0.51078000  0.24996000  0.97842000  1.0
  C  C65  1  0.48923000  0.74996000  0.02158000  1.0
  C  C66  1  0.47286000  0.25003000  0.05382000  1.0
  C  C67  1  0.52714000  0.75002000  0.94618000  1.0
  C  C68  1  0.69665000  0.19524000  0.94154000  1.0
  C  C69  1  0.30336000  0.69523000  0.05846000  1.0
  C  C70  1  0.36198000  0.30468000  0.94143000  1.0
  C  C71  1  0.63803000  0.80466000  0.05856000  1.0
  O  O72  1  0.79541000  0.20766000  0.72585000  1.0
  O  O73  1  0.20460000  0.70764000  0.27415000  1.0
  O  O74  1  0.47912000  0.29220000  0.72583000  1.0
  O  O75  1  0.52088000  0.79218000  0.27417000  1.0
  O  O76  1  0.87595000  0.98081000  0.26574000  1.0
  O  O77  1  0.12405000  0.48082000  0.73427000  1.0
  O  O78  1  0.85776000  0.51929000  0.26589000  1.0
  O  O79  1  0.14224000  0.01929000  0.73411000  1.0
  O  O80  1  0.96527000  0.16786000  0.43840000  1.0
  O  O81  1  0.03472000  0.66786000  0.56160000  1.0
  O  O82  1  0.59600000  0.33243000  0.43837000  1.0
  O  O83  1  0.40399000  0.83240000  0.56163000  1.0
  O  O84  1  0.80496000  0.92649000  0.48781000  1.0
  O  O85  1  0.19501000  0.42648000  0.51219000  1.0
  O  O86  1  0.70727000  0.57358000  0.48782000  1.0
  O  O87  1  0.29273000  0.07357000  0.51218000  1.0
  O  O88  1  0.18433000  0.23578000  0.30680000  1.0
  O  O89  1  0.81567000  0.73577000  0.69320000  1.0
  O  O90  1  0.50808000  0.26370000  0.30678000  1.0
  O  O91  1  0.49193000  0.76369000  0.69322000  1.0
  O  O92  1  0.76974000  0.05546000  0.61008000  1.0
  O  O93  1  0.23024000  0.55544000  0.38992000  1.0
  O  O94  1  0.62008000  0.44456000  0.61005000  1.0
  O  O95  1  0.37992000  0.94456000  0.38995000  1.0
