# generated using pymatgen
data_FeH28C22(SN5)2
_symmetry_space_group_name_H-M   'P 1'
_cell_length_a   10.61930000
_cell_length_b   14.61170000
_cell_length_c   14.61094903
_cell_angle_alpha   114.32744920
_cell_angle_beta   104.00709598
_cell_angle_gamma   104.02200000
_symmetry_Int_Tables_number   1
_chemical_formula_structural   FeH28C22(SN5)2
_chemical_formula_sum   'Fe3 H84 C66 S6 N30'
_cell_volume   1848.34813892
_cell_formula_units_Z   3
loop_
 _symmetry_equiv_pos_site_id
 _symmetry_equiv_pos_as_xyz
  1  'x, y, z'
loop_
 _atom_site_type_symbol
 _atom_site_label
 _atom_site_symmetry_multiplicity
 _atom_site_fract_x
 _atom_site_fract_y
 _atom_site_fract_z
 _atom_site_occupancy
  Fe  Fe0  1  0.50000000  0.50000000  0.50000000  1.0
  Fe  Fe1  1  0.00000000  0.50000000  0.00000000  1.0
  Fe  Fe2  1  0.00001000  0.00000000  0.50000000  1.0
  H  H3  1  0.77101000  0.67031000  0.55716000  1.0
  H  H4  1  0.21413000  0.44316000  0.11336000  1.0
  H  H5  1  0.10093000  0.88703000  0.32984000  1.0
  H  H6  1  0.78588000  0.55685000  0.88665000  1.0
  H  H7  1  0.89906000  0.11297000  0.67016000  1.0
  H  H8  1  0.22899000  0.32969000  0.44284000  1.0
  H  H9  1  0.48035000  0.30384000  0.25537000  1.0
  H  H10  1  0.22508000  0.74478000  0.04834000  1.0
  H  H11  1  0.17642000  0.95150000  0.69631000  1.0
  H  H12  1  0.77492000  0.25521000  0.95165000  1.0
  H  H13  1  0.82359000  0.04851000  0.30370000  1.0
  H  H14  1  0.51965000  0.69616000  0.74463000  1.0
  H  H15  1  0.62808000  0.27855000  0.30890000  1.0
  H  H16  1  0.31922000  0.69124000  0.96941000  1.0
  H  H17  1  0.34947000  0.03041000  0.72165000  1.0
  H  H18  1  0.68078000  0.30876000  0.03058000  1.0
  H  H19  1  0.65054000  0.96960000  0.27835000  1.0
  H  H20  1  0.37192000  0.72146000  0.69110000  1.0
  H  H21  1  0.60975000  0.30217000  0.19751000  1.0
  H  H22  1  0.41231000  0.80255000  0.10442000  1.0
  H  H23  1  0.30756000  0.89536000  0.69793000  1.0
  H  H24  1  0.58768000  0.19744000  0.89557000  1.0
  H  H25  1  0.69245000  0.10464000  0.30207000  1.0
  H  H26  1  0.39024000  0.69783000  0.80249000  1.0
  H  H27  1  0.02668000  0.75010000  0.55394000  1.0
  H  H28  1  0.47305000  0.44624000  0.19597000  1.0
  H  H29  1  0.27728000  0.80423000  0.25018000  1.0
  H  H30  1  0.52696000  0.55377000  0.80404000  1.0
  H  H31  1  0.72272000  0.19577000  0.74982000  1.0
  H  H32  1  0.97332000  0.24989000  0.44606000  1.0
  H  H33  1  0.93070000  0.77272000  0.45426000  1.0
  H  H34  1  0.47635000  0.54572000  0.31819000  1.0
  H  H35  1  0.15844000  0.68195000  0.22741000  1.0
  H  H36  1  0.52365000  0.45428000  0.68181000  1.0
  H  H37  1  0.84156000  0.31805000  0.77259000  1.0
  H  H38  1  0.06931000  0.22729000  0.54575000  1.0
  H  H39  1  0.03105000  0.69211000  0.42150000  1.0
  H  H40  1  0.60970000  0.57867000  0.27062000  1.0
  H  H41  1  0.33928000  0.72964000  0.30808000  1.0
  H  H42  1  0.39030000  0.42133000  0.72938000  1.0
  H  H43  1  0.66072000  0.27036000  0.69192000  1.0
  H  H44  1  0.96894000  0.30788000  0.57849000  1.0
  H  H45  1  0.00793000  0.29285000  0.25788000  1.0
  H  H46  1  0.75054000  0.74216000  0.03481000  1.0
  H  H47  1  0.71528000  0.96500000  0.70726000  1.0
  H  H48  1  0.24945000  0.25784000  0.96518000  1.0
  H  H49  1  0.28473000  0.03501000  0.29274000  1.0
  H  H50  1  0.99207000  0.70715000  0.74212000  1.0
  H  H51  1  0.82673000  0.25134000  0.23298000  1.0
  H  H52  1  0.59403000  0.76674000  0.01791000  1.0
  H  H53  1  0.57549000  0.98178000  0.74861000  1.0
  H  H54  1  0.40596000  0.23326000  0.98209000  1.0
  H  H55  1  0.42452000  0.01822000  0.25139000  1.0
  H  H56  1  0.17327000  0.74865000  0.76702000  1.0
  H  H57  1  0.94949000  0.36489000  0.36005000  1.0
  H  H58  1  0.59019000  0.63990000  0.00478000  1.0
  H  H59  1  0.58509000  0.99520000  0.63507000  1.0
  H  H60  1  0.40981000  0.36011000  0.99522000  1.0
  H  H61  1  0.41491000  0.00480000  0.36493000  1.0
  H  H62  1  0.05052000  0.63511000  0.63995000  1.0
  H  H63  1  0.84392000  0.62470000  0.12299000  1.0
  H  H64  1  0.72124000  0.87672000  0.50143000  1.0
  H  H65  1  0.21943000  0.49845000  0.37506000  1.0
  H  H66  1  0.27876000  0.12327000  0.49856000  1.0
  H  H67  1  0.78057000  0.50155000  0.62495000  1.0
  H  H68  1  0.15607000  0.37530000  0.87701000  1.0
  H  H69  1  0.87328000  0.68636000  0.26347000  1.0
  H  H70  1  0.60944000  0.73641000  0.42239000  1.0
  H  H71  1  0.18673000  0.57752000  0.31379000  1.0
  H  H72  1  0.39056000  0.26358000  0.57760000  1.0
  H  H73  1  0.81328000  0.42248000  0.68621000  1.0
  H  H74  1  0.12669000  0.31363000  0.73652000  1.0
  H  H75  1  0.71072000  0.57978000  0.16588000  1.0
  H  H76  1  0.54527000  0.83458000  0.41395000  1.0
  H  H77  1  0.13114000  0.58610000  0.42050000  1.0
  H  H78  1  0.45474000  0.16541000  0.58605000  1.0
  H  H79  1  0.86885000  0.41390000  0.57949000  1.0
  H  H80  1  0.28927000  0.42021000  0.83411000  1.0
  H  H81  1  0.02421000  0.36152000  0.12548000  1.0
  H  H82  1  0.89902000  0.87447000  0.23583000  1.0
  H  H83  1  0.66277000  0.76398000  0.63843000  1.0
  H  H84  1  0.10097000  0.12553000  0.76416000  1.0
  H  H85  1  0.33723000  0.23601000  0.36157000  1.0
  H  H86  1  0.97579000  0.63848000  0.87452000  1.0
  C  C87  1  0.71787000  0.64840000  0.73455000  1.0
  C  C88  1  0.98318000  0.26538000  0.91392000  1.0
  C  C89  1  0.06951000  0.08610000  0.35152000  1.0
  C  C90  1  0.01682000  0.73462000  0.08608000  1.0
  C  C91  1  0.93049000  0.91389000  0.64849000  1.0
  C  C92  1  0.28213000  0.35160000  0.26545000  1.0
  C  C93  1  0.67638000  0.44490000  0.34918000  1.0
  C  C94  1  0.32739000  0.65091000  0.09553000  1.0
  C  C95  1  0.23162000  0.90437000  0.55523000  1.0
  C  C96  1  0.67260000  0.34908000  0.90446000  1.0
  C  C97  1  0.76839000  0.09563000  0.44477000  1.0
  C  C98  1  0.32362000  0.55511000  0.65082000  1.0
  C  C99  1  0.79423000  0.50751000  0.34041000  1.0
  C  C100  1  0.45404000  0.65968000  0.16687000  1.0
  C  C101  1  0.28694000  0.83307000  0.49260000  1.0
  C  C102  1  0.54596000  0.34031000  0.83312000  1.0
  C  C103  1  0.71306000  0.16693000  0.50740000  1.0
  C  C104  1  0.20576000  0.49249000  0.65959000  1.0
  C  C105  1  0.84290000  0.61234000  0.42923000  1.0
  C  C106  1  0.41388000  0.57091000  0.18293000  1.0
  C  C107  1  0.23087000  0.81716000  0.38782000  1.0
  C  C108  1  0.58611000  0.42909000  0.81706000  1.0
  C  C109  1  0.76913000  0.18284000  0.61218000  1.0
  C  C110  1  0.15711000  0.38767000  0.57078000  1.0
  C  C111  1  0.59297000  0.32621000  0.27394000  1.0
  C  C112  1  0.31910000  0.72614000  0.05206000  1.0
  C  C113  1  0.26671000  0.94776000  0.67393000  1.0
  C  C114  1  0.68089000  0.27385000  0.94793000  1.0
  C  C115  1  0.73329000  0.05224000  0.32607000  1.0
  C  C116  1  0.40703000  0.67379000  0.72606000  1.0
  C  C117  1  0.96404000  0.71187000  0.46660000  1.0
  C  C118  1  0.49760000  0.53353000  0.24512000  1.0
  C  C119  1  0.25264000  0.75507000  0.28832000  1.0
  C  C120  1  0.50240000  0.46647000  0.75488000  1.0
  C  C121  1  0.74736000  0.24493000  0.71168000  1.0
  C  C122  1  0.03596000  0.28813000  0.53340000  1.0
  C  C123  1  0.91420000  0.39865000  0.23011000  1.0
  C  C124  1  0.68432000  0.76996000  0.16830000  1.0
  C  C125  1  0.51568000  0.83154000  0.60138000  1.0
  C  C126  1  0.31568000  0.23004000  0.83170000  1.0
  C  C127  1  0.48433000  0.16846000  0.39862000  1.0
  C  C128  1  0.08580000  0.60135000  0.76989000  1.0
  C  C129  1  0.85462000  0.47659000  0.25688000  1.0
  C  C130  1  0.59789000  0.74323000  0.21945000  1.0
  C  C131  1  0.37817000  0.78043000  0.52349000  1.0
  C  C132  1  0.40211000  0.25677000  0.78055000  1.0
  C  C133  1  0.62183000  0.21957000  0.47651000  1.0
  C  C134  1  0.14537000  0.52341000  0.74311000  1.0
  C  C135  1  0.87803000  0.52698333  0.19365000  1.0
  C  C136  1  0.68445000  0.80641000  0.33300000  1.0
  C  C137  1  0.35118000  0.66686000  0.47312000  1.0
  C  C138  1  0.31555000  0.19359000  0.66700000  1.0
  C  C139  1  0.64882000  0.33314000  0.52688000  1.0
  C  C140  1  0.12197000  0.47308000  0.80635000  1.0
  C  C141  1  0.92572000  0.32296000  0.27215000  1.0
  C  C142  1  0.65402000  0.72781000  0.05059000  1.0
  C  C143  1  0.60300000  0.94925000  0.67706000  1.0
  C  C144  1  0.34597000  0.27219000  0.94941000  1.0
  C  C145  1  0.39701000  0.05075000  0.32294000  1.0
  C  C146  1  0.07428000  0.67704000  0.72785000  1.0
  C  C147  1  0.82443000  0.60915000  0.18600000  1.0
  C  C148  1  0.63851000  0.81401000  0.42290000  1.0
  C  C149  1  0.21536000  0.57704000  0.39090000  1.0
  C  C150  1  0.36149000  0.18598000  0.57710000  1.0
  C  C151  1  0.78464000  0.42296000  0.60910000  1.0
  C  C152  1  0.17557000  0.39085000  0.81400000  1.0
  S  S153  1  0.81922000  0.72573000  0.86289000  1.0
  S  S154  1  0.95602000  0.13699000  0.86300000  1.0
  S  S155  1  0.09344000  0.13714000  0.27415000  1.0
  S  S156  1  0.04398000  0.86301000  0.13701000  1.0
  S  S157  1  0.90656000  0.86285000  0.72585000  1.0
  S  S158  1  0.18079000  0.27427000  0.13712000  1.0
  N  N159  1  0.64092000  0.59265000  0.64134000  1.0
  N  N160  1  0.99963000  0.35864000  0.95135000  1.0
  N  N161  1  0.04839000  0.04869000  0.40733000  1.0
  N  N162  1  0.00037000  0.64136000  0.04865000  1.0
  N  N163  1  0.95161000  0.95132000  0.59267000  1.0
  N  N164  1  0.35909000  0.40736000  0.35867000  1.0
  N  N165  1  0.65268000  0.50955000  0.43595000  1.0
  N  N166  1  0.21694000  0.56422000  0.07354000  1.0
  N  N167  1  0.14326000  0.92649000  0.49061000  1.0
  N  N168  1  0.78306000  0.43578000  0.92646000  1.0
  N  N169  1  0.85673000  0.07350000  0.50939000  1.0
  N  N170  1  0.34732000  0.49045000  0.56405000  1.0
  N  N171  1  0.75552000  0.60989000  0.48243000  1.0
  N  N172  1  0.27332000  0.51776000  0.12741000  1.0
  N  N173  1  0.14588000  0.87274000  0.39027000  1.0
  N  N174  1  0.72667000  0.48224000  0.87259000  1.0
  N  N175  1  0.85411000  0.12725000  0.60973000  1.0
  N  N176  1  0.24448000  0.39011000  0.51757000  1.0
  N  N177  1  0.95036000  0.48424000  0.13443000  1.0
  N  N178  1  0.81605000  0.86557000  0.34958000  1.0
  N  N179  1  0.46618000  0.65028000  0.51571000  1.0
  N  N180  1  0.18395000  0.13442000  0.65041000  1.0
  N  N181  1  0.53382000  0.34972000  0.48429000  1.0
  N  N182  1  0.04964000  0.51577000  0.86557000  1.0
  N  N183  1  0.96886000  0.40595000  0.15760000  1.0
  N  N184  1  0.81145000  0.84244000  0.24812000  1.0
  N  N185  1  0.56299000  0.75171000  0.59402000  1.0
  N  N186  1  0.18854000  0.15756000  0.75187000  1.0
  N  N187  1  0.43701000  0.24829000  0.40598000  1.0
  N  N188  1  0.03113000  0.59404000  0.84239000  1.0
