# generated using pymatgen
data_CuAg2H14(C8N3)2
_symmetry_space_group_name_H-M   'P 1'
_cell_length_a   9.53755000
_cell_length_b   10.50520000
_cell_length_c   10.50520000
_cell_angle_alpha   113.81900000
_cell_angle_beta   99.20910000
_cell_angle_gamma   99.20970000
_symmetry_Int_Tables_number   1
_chemical_formula_structural   CuAg2H14(C8N3)2
_chemical_formula_sum   'Cu2 Ag4 H28 C32 N12'
_cell_volume   920.60531360
_cell_formula_units_Z   2
loop_
 _symmetry_equiv_pos_site_id
 _symmetry_equiv_pos_as_xyz
  1  'x, y, z'
loop_
 _atom_site_type_symbol
 _atom_site_label
 _atom_site_symmetry_multiplicity
 _atom_site_fract_x
 _atom_site_fract_y
 _atom_site_fract_z
 _atom_site_occupancy
  Cu  Cu0  1  0.25000000  0.92305000  0.07695000  1.0
  Cu  Cu1  1  0.75000000  0.07695000  0.92305000  1.0
  Ag  Ag2  1  0.25000000  0.21628000  0.78372000  1.0
  Ag  Ag3  1  0.75000000  0.78372000  0.21628000  1.0
  Ag  Ag4  1  0.00000000  0.99999000  0.50000000  1.0
  Ag  Ag5  1  0.50000000  0.50001000  0.00001000  1.0
  H  H6  1  0.05353000  0.67613000  0.07198000  1.0
  H  H7  1  0.55352000  0.07198000  0.67613000  1.0
  H  H8  1  0.94647000  0.32387000  0.92802000  1.0
  H  H9  1  0.44647000  0.92803000  0.32387000  1.0
  H  H10  1  0.81460000  0.50034000  0.92781000  1.0
  H  H11  1  0.31460000  0.92781000  0.50034000  1.0
  H  H12  1  0.18540000  0.49966000  0.07219000  1.0
  H  H13  1  0.68540000  0.07220000  0.49966000  1.0
  H  H14  1  0.78842000  0.71583000  0.65443000  1.0
  H  H15  1  0.28842000  0.65443000  0.71583000  1.0
  H  H16  1  0.21158000  0.28417000  0.34556000  1.0
  H  H17  1  0.71158000  0.34557000  0.28417000  1.0
  H  H18  1  0.02682000  0.88392000  0.81114000  1.0
  H  H19  1  0.52682000  0.81114000  0.88392000  1.0
  H  H20  1  0.97317000  0.11608000  0.18886000  1.0
  H  H21  1  0.47318000  0.18886000  0.11608000  1.0
  H  H22  1  0.62086000  0.38830000  0.68977000  1.0
  H  H23  1  0.12086000  0.68976000  0.38831000  1.0
  H  H24  1  0.37914000  0.61169000  0.31024000  1.0
  H  H25  1  0.87913000  0.31023000  0.61169000  1.0
  H  H26  1  0.54346000  0.53735000  0.73173000  1.0
  H  H27  1  0.04346000  0.73172000  0.53735000  1.0
  H  H28  1  0.45654000  0.46264000  0.26828000  1.0
  H  H29  1  0.95654000  0.26827000  0.46265000  1.0
  H  H30  1  0.61442000  0.47982000  0.57833000  1.0
  H  H31  1  0.11442000  0.57833000  0.47983000  1.0
  H  H32  1  0.38558000  0.52017000  0.42167000  1.0
  H  H33  1  0.88558000  0.42167000  0.52018000  1.0
  C  C34  1  0.10582000  0.97448000  0.34169000  1.0
  C  C35  1  0.60583000  0.34169000  0.97449000  1.0
  C  C36  1  0.89417000  0.02552000  0.65831000  1.0
  C  C37  1  0.39417000  0.65832000  0.02552000  1.0
  C  C38  1  0.25000000  0.10073000  0.89927000  1.0
  C  C39  1  0.75000000  0.89927000  0.10073000  1.0
  C  C40  1  0.25000000  0.33146000  0.66853000  1.0
  C  C41  1  0.75000000  0.66855000  0.33147000  1.0
  C  C42  1  0.99109000  0.68087000  0.97838000  1.0
  C  C43  1  0.49109000  0.97838000  0.68086000  1.0
  C  C44  1  0.00891000  0.31914000  0.02162000  1.0
  C  C45  1  0.50890000  0.02162000  0.31914000  1.0
  C  C46  1  0.85752000  0.58342000  0.89713000  1.0
  C  C47  1  0.35752000  0.89713000  0.58341000  1.0
  C  C48  1  0.14248000  0.41659000  0.10287000  1.0
  C  C49  1  0.64247000  0.10287000  0.41658000  1.0
  C  C50  1  0.77873000  0.59350000  0.77824000  1.0
  C  C51  1  0.27873000  0.77823000  0.59350000  1.0
  C  C52  1  0.22127000  0.40650000  0.22176000  1.0
  C  C53  1  0.72127000  0.22177000  0.40649000  1.0
  C  C54  1  0.84190000  0.70386000  0.74726000  1.0
  C  C55  1  0.34190000  0.74726000  0.70386000  1.0
  C  C56  1  0.15810000  0.29614000  0.25274000  1.0
  C  C57  1  0.65810000  0.25274000  0.29614000  1.0
  C  C58  1  0.97617000  0.79721000  0.83293000  1.0
  C  C59  1  0.47617000  0.83293000  0.79721000  1.0
  C  C60  1  0.02383000  0.20279000  0.16706000  1.0
  C  C61  1  0.52383000  0.16707000  0.20279000  1.0
  C  C62  1  0.63266000  0.49376000  0.68947000  1.0
  C  C63  1  0.13266000  0.68946000  0.49376000  1.0
  C  C64  1  0.36734000  0.50623000  0.31054000  1.0
  C  C65  1  0.86734000  0.31053000  0.50624000  1.0
  N  N66  1  0.16567000  0.95857000  0.24945000  1.0
  N  N67  1  0.66567000  0.24945000  0.95857000  1.0
  N  N68  1  0.83433000  0.04144000  0.75056000  1.0
  N  N69  1  0.33432000  0.75056000  0.04144000  1.0
  N  N70  1  0.25000000  0.03423000  0.96577000  1.0
  N  N71  1  0.75000000  0.96577000  0.03423000  1.0
  N  N72  1  0.25000000  0.39813000  0.60187000  1.0
  N  N73  1  0.75000000  0.60188000  0.39813000  1.0
  N  N74  1  0.04998000  0.78630000  0.94681000  1.0
  N  N75  1  0.54998000  0.94681000  0.78630000  1.0
  N  N76  1  0.95002000  0.21370000  0.05319000  1.0
  N  N77  1  0.45002000  0.05319000  0.21370000  1.0
