# generated using pymatgen
data_CdH9C11N2ClO4
_symmetry_space_group_name_H-M   'P 1'
_cell_length_a   7.05507000
_cell_length_b   13.04990000
_cell_length_c   13.42470000
_cell_angle_alpha   90.00000000
_cell_angle_beta   90.00000000
_cell_angle_gamma   89.52230000
_symmetry_Int_Tables_number   1
_chemical_formula_structural   CdH9C11N2ClO4
_chemical_formula_sum   'Cd4 H36 C44 N8 Cl4 O16'
_cell_volume   1235.94175750
_cell_formula_units_Z   4
loop_
 _symmetry_equiv_pos_site_id
 _symmetry_equiv_pos_as_xyz
  1  'x, y, z'
loop_
 _atom_site_type_symbol
 _atom_site_label
 _atom_site_symmetry_multiplicity
 _atom_site_fract_x
 _atom_site_fract_y
 _atom_site_fract_z
 _atom_site_occupancy
  Cd  Cd0  1  0.13858000  0.41292000  0.44133000  1.0
  Cd  Cd1  1  0.36143000  0.08708000  0.94133000  1.0
  Cd  Cd2  1  0.86142000  0.58708000  0.55867000  1.0
  Cd  Cd3  1  0.63858000  0.91292000  0.05867000  1.0
  H  H4  1  0.49178000  0.74155000  0.48196000  1.0
  H  H5  1  0.00822000  0.75845000  0.98196000  1.0
  H  H6  1  0.50821000  0.25844000  0.51804000  1.0
  H  H7  1  0.99178000  0.24156000  0.01804000  1.0
  H  H8  1  0.45304000  0.71680000  0.35466000  1.0
  H  H9  1  0.04696000  0.78320000  0.85466000  1.0
  H  H10  1  0.54696000  0.28320000  0.64534000  1.0
  H  H11  1  0.95304000  0.21680000  0.14534000  1.0
  H  H12  1  0.23890000  0.83940000  0.25466000  1.0
  H  H13  1  0.26110000  0.66060000  0.75466000  1.0
  H  H14  1  0.76110000  0.16060000  0.74534000  1.0
  H  H15  1  0.73890000  0.33940000  0.24534000  1.0
  H  H16  1  0.39415000  0.85132000  0.62151000  1.0
  H  H17  1  0.10585000  0.64868000  0.12151000  1.0
  H  H18  1  0.60585000  0.14868000  0.37849000  1.0
  H  H19  1  0.89415000  0.35132000  0.87849000  1.0
  H  H20  1  0.33518000  0.01481000  0.71486000  1.0
  H  H21  1  0.16482000  0.48520000  0.21486000  1.0
  H  H22  1  0.66482000  0.98519000  0.28514000  1.0
  H  H23  1  0.83518000  0.51481000  0.78514000  1.0
  H  H24  1  0.19857000  0.16653000  0.63181000  1.0
  H  H25  1  0.30143000  0.33347000  0.13181000  1.0
  H  H26  1  0.80144000  0.83347000  0.36819000  1.0
  H  H27  1  0.69856000  0.66653000  0.86819000  1.0
  H  H28  1  0.12067000  0.16480000  0.45081000  1.0
  H  H29  1  0.37933000  0.33520000  0.95081000  1.0
  H  H30  1  0.87933000  0.83520000  0.54919000  1.0
  H  H31  1  0.62067000  0.66480000  0.04919000  1.0
  H  H32  1  0.13966000  0.12652000  0.28291000  1.0
  H  H33  1  0.36034000  0.37348000  0.78291000  1.0
  H  H34  1  0.86034000  0.87348000  0.71709000  1.0
  H  H35  1  0.63965000  0.62652000  0.21709000  1.0
  H  H36  1  0.99854000  0.02944000  0.22587000  1.0
  H  H37  1  0.50146000  0.47056000  0.72587000  1.0
  H  H38  1  0.00147000  0.97056000  0.77413000  1.0
  H  H39  1  0.49853000  0.52943000  0.27413000  1.0
  C  C40  1  0.23495000  0.66039000  0.45429000  1.0
  C  C41  1  0.26505000  0.83961000  0.95429000  1.0
  C  C42  1  0.76504000  0.33961000  0.54571000  1.0
  C  C43  1  0.73496000  0.16039000  0.04571000  1.0
  C  C44  1  0.38249000  0.73993000  0.42362000  1.0
  C  C45  1  0.11751000  0.76007000  0.92362000  1.0
  C  C46  1  0.61751000  0.26007000  0.57638000  1.0
  C  C47  1  0.88249000  0.23993000  0.07638000  1.0
  C  C48  1  0.24461000  0.88118000  0.32421000  1.0
  C  C49  1  0.25539000  0.61882000  0.82421000  1.0
  C  C50  1  0.75539000  0.11882000  0.67579000  1.0
  C  C51  1  0.74461000  0.38118000  0.17579000  1.0
  C  C52  1  0.28974000  0.91871000  0.48385000  1.0
  C  C53  1  0.21025000  0.58129000  0.98384000  1.0
  C  C54  1  0.71026000  0.08129000  0.51615000  1.0
  C  C55  1  0.78974000  0.41871000  0.01615000  1.0
  C  C56  1  0.33387000  0.91879000  0.58507000  1.0
  C  C57  1  0.16614000  0.58121000  0.08507000  1.0
  C  C58  1  0.66613000  0.08121000  0.41493000  1.0
  C  C59  1  0.83387000  0.41879000  0.91493000  1.0
  C  C60  1  0.30028000  0.01017000  0.63599000  1.0
  C  C61  1  0.19972000  0.48983000  0.13599000  1.0
  C  C62  1  0.69972000  0.98983000  0.36401000  1.0
  C  C63  1  0.80028000  0.51017000  0.86401000  1.0
  C  C64  1  0.22450000  0.09747000  0.58799000  1.0
  C  C65  1  0.27550000  0.40253000  0.08799000  1.0
  C  C66  1  0.77550000  0.90253000  0.41201000  1.0
  C  C67  1  0.72450000  0.59747000  0.91201000  1.0
  C  C68  1  0.18104000  0.09743000  0.48683000  1.0
  C  C69  1  0.31896000  0.40257000  0.98683000  1.0
  C  C70  1  0.81897000  0.90257000  0.51317000  1.0
  C  C71  1  0.68103000  0.59743000  0.01317000  1.0
  C  C72  1  0.21679000  0.00649000  0.43543000  1.0
  C  C73  1  0.28320000  0.49350000  0.93543000  1.0
  C  C74  1  0.78321000  0.99351000  0.56457000  1.0
  C  C75  1  0.71679000  0.50650000  0.06457000  1.0
  C  C76  1  0.14054000  0.04777000  0.25427000  1.0
  C  C77  1  0.35946000  0.45223000  0.75427000  1.0
  C  C78  1  0.85947000  0.95223000  0.74573000  1.0
  C  C79  1  0.64053000  0.54777000  0.24573000  1.0
  C  C80  1  0.27826000  0.04157000  0.16550000  1.0
  C  C81  1  0.22174000  0.45842000  0.66551000  1.0
  C  C82  1  0.72175000  0.95843000  0.83450000  1.0
  C  C83  1  0.77825000  0.54158000  0.33450000  1.0
  N  N84  1  0.30512000  0.84274000  0.41134000  1.0
  N  N85  1  0.19488000  0.65726000  0.91134000  1.0
  N  N86  1  0.69489000  0.15726000  0.58866000  1.0
  N  N87  1  0.80512000  0.34274000  0.08866000  1.0
  N  N88  1  0.19219000  0.97958000  0.33566000  1.0
  N  N89  1  0.30781000  0.52041000  0.83566000  1.0
  N  N90  1  0.80781000  0.02042000  0.66434000  1.0
  N  N91  1  0.69219000  0.47958000  0.16434000  1.0
  Cl  Cl92  1  0.34921000  0.30545000  0.33593000  1.0
  Cl  Cl93  1  0.15079000  0.19455000  0.83593000  1.0
  Cl  Cl94  1  0.65079000  0.69455000  0.66407000  1.0
  Cl  Cl95  1  0.84921000  0.80545000  0.16407000  1.0
  O  O96  1  0.26973000  0.57041000  0.42383000  1.0
  O  O97  1  0.23027000  0.92959000  0.92384000  1.0
  O  O98  1  0.73027000  0.42959000  0.57617000  1.0
  O  O99  1  0.76973000  0.07041000  0.07617000  1.0
  O  O100  1  0.09922000  0.69211000  0.50807000  1.0
  O  O101  1  0.40079000  0.80788000  0.00807000  1.0
  O  O102  1  0.90077000  0.30789000  0.49192000  1.0
  O  O103  1  0.59922000  0.19211000  0.99192000  1.0
  O  O104  1  0.40689000  0.97368000  0.16735000  1.0
  O  O105  1  0.09312000  0.52631000  0.66735000  1.0
  O  O106  1  0.59311000  0.02632000  0.83266000  1.0
  O  O107  1  0.90689000  0.47368000  0.33265000  1.0
  O  O108  1  0.24255000  0.10625000  0.09777000  1.0
  O  O109  1  0.25746000  0.39374000  0.59776000  1.0
  O  O110  1  0.75747000  0.89375000  0.90224000  1.0
  O  O111  1  0.74254000  0.60625000  0.40223000  1.0
