# generated using pymatgen
data_ZnH20C27(N2O3)2
_symmetry_space_group_name_H-M   'P 1'
_cell_length_a   14.36800000
_cell_length_b   14.41670000
_cell_length_c   17.48850000
_cell_angle_alpha   109.62700000
_cell_angle_beta   109.56600000
_cell_angle_gamma   100.63500000
_symmetry_Int_Tables_number   1
_chemical_formula_structural   ZnH20C27(N2O3)2
_chemical_formula_sum   'Zn4 H80 C108 N16 O24'
_cell_volume   3029.63672225
_cell_formula_units_Z   4
loop_
 _symmetry_equiv_pos_site_id
 _symmetry_equiv_pos_as_xyz
  1  'x, y, z'
loop_
 _atom_site_type_symbol
 _atom_site_label
 _atom_site_symmetry_multiplicity
 _atom_site_fract_x
 _atom_site_fract_y
 _atom_site_fract_z
 _atom_site_occupancy
  Zn  Zn0  1  0.81047000  0.86897000  0.63469000  1.0
  Zn  Zn1  1  0.32340000  0.76593000  0.63460000  1.0
  Zn  Zn2  1  0.18953000  0.13104000  0.36532000  1.0
  Zn  Zn3  1  0.67659000  0.23407000  0.36540000  1.0
  H  H4  1  0.57269000  0.04018000  0.76645000  1.0
  H  H5  1  0.69307000  0.72632000  0.76666000  1.0
  H  H6  1  0.42731000  0.95983000  0.23355000  1.0
  H  H7  1  0.30693000  0.27368000  0.23335000  1.0
  H  H8  1  0.26626000  0.99454000  0.67537000  1.0
  H  H9  1  0.90838000  0.68074000  0.67537000  1.0
  H  H10  1  0.73373000  0.00546000  0.32464000  1.0
  H  H11  1  0.09161000  0.31926000  0.32462000  1.0
  H  H12  1  0.86673000  0.06563000  0.61285000  1.0
  H  H13  1  0.24534000  0.54740000  0.61266000  1.0
  H  H14  1  0.13327000  0.93438000  0.38717000  1.0
  H  H15  1  0.75465000  0.45259000  0.38735000  1.0
  H  H16  1  0.82785000  0.23414000  0.65388000  1.0
  H  H17  1  0.32520000  0.41965000  0.65333000  1.0
  H  H18  1  0.17215000  0.76587000  0.34613000  1.0
  H  H19  1  0.67481000  0.58034000  0.34668000  1.0
  H  H20  1  0.70792000  0.25776000  0.72946000  1.0
  H  H21  1  0.52071000  0.47157000  0.72912000  1.0
  H  H22  1  0.29207000  0.74224000  0.27053000  1.0
  H  H23  1  0.47929000  0.52843000  0.27089000  1.0
  H  H24  1  0.66932000  0.94427000  0.70832000  1.0
  H  H25  1  0.53831000  0.76425000  0.70855000  1.0
  H  H26  1  0.33068000  0.05573000  0.29167000  1.0
  H  H27  1  0.46169000  0.23574000  0.29145000  1.0
  H  H28  1  0.65047000  0.29660000  0.00144000  1.0
  H  H29  1  0.85016000  0.70435000  0.00126000  1.0
  H  H30  1  0.34953000  0.70340000  0.99856000  1.0
  H  H31  1  0.14985000  0.29565000  0.99874000  1.0
  H  H32  1  0.61047000  0.35377000  0.12879000  1.0
  H  H33  1  0.01747000  0.77473000  0.12870000  1.0
  H  H34  1  0.38953000  0.64622000  0.87121000  1.0
  H  H35  1  0.98254000  0.22527000  0.87131000  1.0
  H  H36  1  0.51868000  0.24863000  0.12401000  1.0
  H  H37  1  0.10441000  0.87520000  0.12398000  1.0
  H  H38  1  0.48131000  0.75136000  0.87599000  1.0
  H  H39  1  0.89560000  0.12479000  0.87602000  1.0
  H  H40  1  0.47917000  0.35192000  0.10616000  1.0
  H  H41  1  0.12624000  0.75416000  0.10614000  1.0
  H  H42  1  0.52083000  0.64807000  0.89384000  1.0
  H  H43  1  0.87376000  0.24583000  0.89385000  1.0
  H  H44  1  0.33113000  0.18071000  0.96223000  1.0
  H  H45  1  0.13037000  0.78139000  0.96225000  1.0
  H  H46  1  0.66887000  0.81929000  0.03776000  1.0
  H  H47  1  0.86963000  0.21861000  0.03775000  1.0
  H  H48  1  0.41154000  0.08544000  0.73792000  1.0
  H  H49  1  0.82567000  0.65229000  0.73779000  1.0
  H  H50  1  0.58846000  0.91455000  0.26208000  1.0
  H  H51  1  0.17433000  0.34772000  0.26222000  1.0
  H  H52  1  0.03029000  0.96773000  0.72264000  1.0
  H  H53  1  0.19150000  0.75505000  0.72254000  1.0
  H  H54  1  0.96970000  0.03228000  0.27736000  1.0
  H  H55  1  0.80849000  0.24495000  0.27746000  1.0
  H  H56  1  0.82246000  0.81121000  0.45217000  1.0
  H  H57  1  0.12867000  0.64093000  0.45201000  1.0
  H  H58  1  0.17754000  0.18880000  0.54783000  1.0
  H  H59  1  0.87132000  0.35907000  0.54798000  1.0
  H  H60  1  0.97019000  0.82926000  0.40539000  1.0
  H  H61  1  0.93421000  0.57580000  0.40531000  1.0
  H  H62  1  0.02981000  0.17074000  0.59462000  1.0
  H  H63  1  0.06578000  0.42421000  0.59468000  1.0
  H  H64  1  0.15553000  0.92154000  0.52559000  1.0
  H  H65  1  0.86919000  0.60359000  0.52560000  1.0
  H  H66  1  0.84447000  0.07846000  0.47442000  1.0
  H  H67  1  0.13080000  0.39642000  0.47439000  1.0
  H  H68  1  0.48941000  0.66875000  0.49590000  1.0
  H  H69  1  0.50617000  0.82708000  0.49588000  1.0
  H  H70  1  0.51060000  0.33126000  0.50410000  1.0
  H  H71  1  0.49383000  0.17291000  0.50412000  1.0
  H  H72  1  0.32554000  0.52067000  0.44135000  1.0
  H  H73  1  0.61586000  0.92060000  0.44159000  1.0
  H  H74  1  0.67446000  0.47934000  0.55866000  1.0
  H  H75  1  0.38413000  0.07940000  0.55841000  1.0
  H  H76  1  0.19160000  0.07944000  0.05069000  1.0
  H  H77  1  0.35953000  0.97178000  0.05122000  1.0
  H  H78  1  0.80840000  0.92056000  0.94932000  1.0
  H  H79  1  0.64050000  0.02822000  0.94878000  1.0
  H  H80  1  0.07082000  0.98987000  0.88677000  1.0
  H  H81  1  0.31570000  0.89723000  0.88715000  1.0
  H  H82  1  0.92918000  0.01014000  0.11324000  1.0
  H  H83  1  0.68432000  0.10278000  0.11285000  1.0
  C  C84  1  0.81293000  0.07881000  0.64362000  1.0
  C  C85  1  0.32990000  0.56488000  0.64338000  1.0
  C  C86  1  0.18707000  0.92120000  0.35639000  1.0
  C  C87  1  0.67011000  0.43511000  0.35663000  1.0
  C  C88  1  0.79186000  0.17197000  0.66768000  1.0
  C  C89  1  0.37497000  0.49566000  0.66727000  1.0
  C  C90  1  0.20814000  0.82804000  0.33233000  1.0
  C  C91  1  0.62503000  0.50434000  0.33274000  1.0
  C  C92  1  0.72449000  0.18510000  0.70888000  1.0
  C  C93  1  0.48356000  0.52367000  0.70855000  1.0
  C  C94  1  0.27551000  0.81490000  0.29112000  1.0
  C  C95  1  0.51645000  0.47633000  0.29145000  1.0
  C  C96  1  0.67889000  0.10286000  0.72513000  1.0
  C  C97  1  0.54547000  0.62221000  0.72501000  1.0
  C  C98  1  0.32111000  0.89714000  0.27487000  1.0
  C  C99  1  0.45453000  0.37779000  0.27500000  1.0
  C  C100  1  0.70191000  0.01020000  0.69679000  1.0
  C  C101  1  0.49414000  0.68670000  0.69680000  1.0
  C  C102  1  0.29809000  0.98980000  0.30321000  1.0
  C  C103  1  0.50586000  0.31330000  0.30320000  1.0
  C  C104  1  0.61959000  0.20111000  0.83237000  1.0
  C  C105  1  0.71203000  0.63069000  0.83206000  1.0
  C  C106  1  0.38040000  0.79889000  0.16763000  1.0
  C  C107  1  0.28797000  0.36931000  0.16794000  1.0
  C  C108  1  0.53779000  0.19087000  0.86666000  1.0
  C  C109  1  0.82810000  0.67545000  0.86650000  1.0
  C  C110  1  0.46221000  0.80913000  0.13334000  1.0
  C  C111  1  0.17191000  0.32455000  0.13350000  1.0
  C  C112  1  0.56825000  0.24880000  0.95850000  1.0
  C  C113  1  0.88942000  0.70937000  0.95835000  1.0
  C  C114  1  0.43175000  0.75120000  0.04150000  1.0
  C  C115  1  0.11059000  0.29064000  0.04165000  1.0
  C  C116  1  0.49544000  0.24471000  0.99493000  1.0
  C  C117  1  0.99866000  0.75004000  0.99487000  1.0
  C  C118  1  0.50456000  0.75528000  0.00507000  1.0
  C  C119  1  0.00135000  0.24995000  0.00513000  1.0
  C  C120  1  0.52798000  0.30345000  0.09381000  1.0
  C  C121  1  0.06499000  0.79019000  0.09376000  1.0
  C  C122  1  0.47202000  0.69654000  0.90619000  1.0
  C  C123  1  0.93502000  0.20980000  0.90624000  1.0
  C  C124  1  0.39059000  0.18422000  0.93659000  1.0
  C  C125  1  0.04524000  0.75225000  0.93658000  1.0
  C  C126  1  0.60941000  0.81577000  0.06341000  1.0
  C  C127  1  0.95477000  0.24775000  0.06342000  1.0
  C  C128  1  0.35818000  0.12713000  0.84421000  1.0
  C  C129  1  0.98530000  0.71694000  0.84417000  1.0
  C  C130  1  0.64182000  0.87286000  0.15579000  1.0
  C  C131  1  0.01470000  0.28306000  0.15582000  1.0
  C  C132  1  0.43301000  0.12927000  0.80922000  1.0
  C  C133  1  0.87548000  0.67973000  0.80911000  1.0
  C  C134  1  0.56699000  0.87072000  0.19078000  1.0
  C  C135  1  0.12453000  0.32028000  0.19089000  1.0
  C  C136  1  0.24302000  0.06950000  0.78918000  1.0
  C  C137  1  0.04550000  0.71958000  0.78917000  1.0
  C  C138  1  0.75699000  0.93049000  0.21083000  1.0
  C  C139  1  0.95450000  0.28043000  0.21083000  1.0
  C  C140  1  0.10819000  0.95456000  0.63384000  1.0
  C  C141  1  0.02484000  0.67912000  0.63380000  1.0
  C  C142  1  0.89181000  0.04544000  0.36617000  1.0
  C  C143  1  0.97515000  0.32088000  0.36620000  1.0
  C  C144  1  0.02094000  0.93988000  0.65372000  1.0
  C  C145  1  0.13195000  0.71389000  0.65364000  1.0
  C  C146  1  0.97906000  0.06012000  0.34628000  1.0
  C  C147  1  0.86805000  0.28611000  0.34635000  1.0
  C  C148  1  0.90412000  0.85089000  0.50127000  1.0
  C  C149  1  0.09620000  0.65032000  0.50118000  1.0
  C  C150  1  0.09587000  0.14912000  0.49873000  1.0
  C  C151  1  0.90380000  0.34968000  0.49881000  1.0
  C  C152  1  0.98654000  0.86131000  0.47637000  1.0
  C  C153  1  0.98888000  0.61481000  0.47630000  1.0
  C  C154  1  0.01345000  0.13869000  0.52364000  1.0
  C  C155  1  0.01112000  0.38520000  0.52369000  1.0
  C  C156  1  0.08887000  0.91275000  0.54241000  1.0
  C  C157  1  0.95267000  0.62935000  0.54239000  1.0
  C  C158  1  0.91113000  0.08725000  0.45759000  1.0
  C  C159  1  0.04733000  0.37065000  0.45761000  1.0
  C  C160  1  0.68937000  0.66909000  0.56292000  1.0
  C  C161  1  0.37312000  0.89397000  0.56276000  1.0
  C  C162  1  0.31063000  0.33092000  0.43708000  1.0
  C  C163  1  0.62687000  0.10603000  0.43723000  1.0
  C  C164  1  0.59116000  0.58183000  0.52956000  1.0
  C  C165  1  0.43819000  0.94776000  0.52946000  1.0
  C  C166  1  0.40885000  0.41816000  0.47044000  1.0
  C  C167  1  0.56180000  0.05223000  0.47054000  1.0
  C  C168  1  0.49322000  0.59434000  0.49670000  1.0
  C  C169  1  0.50326000  0.90231000  0.49670000  1.0
  C  C170  1  0.50678000  0.40566000  0.50331000  1.0
  C  C171  1  0.49674000  0.09769000  0.50330000  1.0
  C  C172  1  0.40245000  0.51259000  0.46706000  1.0
  C  C173  1  0.56460000  0.95440000  0.46718000  1.0
  C  C174  1  0.59755000  0.48741000  0.53295000  1.0
  C  C175  1  0.43539000  0.04560000  0.53282000  1.0
  C  C176  1  0.10751000  0.04451000  0.02777000  1.0
  C  C177  1  0.42050000  0.98356000  0.02806000  1.0
  C  C178  1  0.89249000  0.95550000  0.97224000  1.0
  C  C179  1  0.57951000  0.01645000  0.97194000  1.0
  C  C180  1  0.04031000  0.99405000  0.93661000  1.0
  C  C181  1  0.39616000  0.94273000  0.93683000  1.0
  C  C182  1  0.95970000  0.00595000  0.06340000  1.0
  C  C183  1  0.60386000  0.05727000  0.06318000  1.0
  C  C184  1  0.93227000  0.94907000  0.90828000  1.0
  C  C185  1  0.47565000  0.95912000  0.90822000  1.0
  C  C186  1  0.06774000  0.05093000  0.09172000  1.0
  C  C187  1  0.52436000  0.04088000  0.09178000  1.0
  C  C188  1  0.85963000  0.89582000  0.81033000  1.0
  C  C189  1  0.45001000  0.91441000  0.81019000  1.0
  C  C190  1  0.14037000  0.10418000  0.18967000  1.0
  C  C191  1  0.55001000  0.08559000  0.18981000  1.0
  N  N192  1  0.76773000  0.99948000  0.65768000  1.0
  N  N193  1  0.38919000  0.65835000  0.65764000  1.0
  N  N194  1  0.23227000  0.00053000  0.34233000  1.0
  N  N195  1  0.61082000  0.34164000  0.34236000  1.0
  N  N196  1  0.61196000  0.10873000  0.76709000  1.0
  N  N197  1  0.65438000  0.65830000  0.76712000  1.0
  N  N198  1  0.38803000  0.89127000  0.23291000  1.0
  N  N199  1  0.34562000  0.34170000  0.23288000  1.0
  N  N200  1  0.21091000  0.00699000  0.69885000  1.0
  N  N201  1  0.98722000  0.69171000  0.69883000  1.0
  N  N202  1  0.78908000  0.99300000  0.30115000  1.0
  N  N203  1  0.01277000  0.30830000  0.30116000  1.0
  N  N204  1  0.92241000  0.88918000  0.58846000  1.0
  N  N205  1  0.16516000  0.69935000  0.58836000  1.0
  N  N206  1  0.07759000  0.11083000  0.41155000  1.0
  N  N207  1  0.83484000  0.30065000  0.41164000  1.0
  O  O208  1  0.67891000  0.75285000  0.55420000  1.0
  O  O209  1  0.37480000  0.80153000  0.55424000  1.0
  O  O210  1  0.32109000  0.24715000  0.44580000  1.0
  O  O211  1  0.62519000  0.19846000  0.44575000  1.0
  O  O212  1  0.77680000  0.65927000  0.59831000  1.0
  O  O213  1  0.32098000  0.93923000  0.59797000  1.0
  O  O214  1  0.22320000  0.34073000  0.40170000  1.0
  O  O215  1  0.67902000  0.06076000  0.40203000  1.0
  O  O216  1  0.90396000  0.89852000  0.75724000  1.0
  O  O217  1  0.35254000  0.85866000  0.75724000  1.0
  O  O218  1  0.09604000  0.10147000  0.24277000  1.0
  O  O219  1  0.64747000  0.14133000  0.24276000  1.0
  O  O220  1  0.76253000  0.85407000  0.78316000  1.0
  O  O221  1  0.51979000  0.92892000  0.78285000  1.0
  O  O222  1  0.23747000  0.14593000  0.21685000  1.0
  O  O223  1  0.48022000  0.07108000  0.21714000  1.0
  O  O224  1  0.68855000  0.28539000  0.86083000  1.0
  O  O225  1  0.67152000  0.57436000  0.86014000  1.0
  O  O226  1  0.31144000  0.71463000  0.13917000  1.0
  O  O227  1  0.32849000  0.42565000  0.13987000  1.0
  O  O228  1  0.17985000  0.07990000  0.82258000  1.0
  O  O229  1  0.14205000  0.74257000  0.82259000  1.0
  O  O230  1  0.82015000  0.92009000  0.17743000  1.0
  O  O231  1  0.85795000  0.25743000  0.17741000  1.0
