# generated using pymatgen
data_KCuH24C12(ClO3)2
_symmetry_space_group_name_H-M   'P 1'
_cell_length_a   7.82946000
_cell_length_b   8.65038000
_cell_length_c   13.74660000
_cell_angle_alpha   77.03100000
_cell_angle_beta   89.99980000
_cell_angle_gamma   89.99970000
_symmetry_Int_Tables_number   1
_chemical_formula_structural   KCuH24C12(ClO3)2
_chemical_formula_sum   'K2 Cu2 H48 C24 Cl4 O12'
_cell_volume   907.27805332
_cell_formula_units_Z   2
loop_
 _symmetry_equiv_pos_site_id
 _symmetry_equiv_pos_as_xyz
  1  'x, y, z'
loop_
 _atom_site_type_symbol
 _atom_site_label
 _atom_site_symmetry_multiplicity
 _atom_site_fract_x
 _atom_site_fract_y
 _atom_site_fract_z
 _atom_site_occupancy
  K  K0  1  0.50000000  0.00000000  0.50000000  1.0
  K  K1  1  0.00000000  0.50000000  0.00000000  1.0
  Cu  Cu2  1  0.00000000  0.00000000  0.50000000  1.0
  Cu  Cu3  1  0.50000000  0.50000000  0.00000000  1.0
  H  H4  1  0.59063000  0.83032000  0.20496000  1.0
  H  H5  1  0.09063000  0.66968000  0.29504000  1.0
  H  H6  1  0.40937000  0.16968000  0.79504000  1.0
  H  H7  1  0.90936000  0.33032000  0.70496000  1.0
  H  H8  1  0.42464000  0.78543000  0.29664000  1.0
  H  H9  1  0.92464000  0.71457000  0.20336000  1.0
  H  H10  1  0.57536000  0.21457000  0.70336000  1.0
  H  H11  1  0.07536000  0.28543000  0.79664000  1.0
  H  H12  1  0.69939000  0.62384000  0.33542000  1.0
  H  H13  1  0.19940000  0.87616000  0.16458000  1.0
  H  H14  1  0.30060000  0.37616000  0.66458000  1.0
  H  H15  1  0.80061000  0.12384000  0.83542000  1.0
  H  H16  1  0.80216000  0.79934000  0.35390000  1.0
  H  H17  1  0.30216000  0.70065000  0.14610000  1.0
  H  H18  1  0.19784000  0.20065000  0.64610000  1.0
  H  H19  1  0.69784000  0.29935000  0.85390000  1.0
  H  H20  1  0.83696000  0.66312000  0.52639000  1.0
  H  H21  1  0.33696000  0.83688000  0.97361000  1.0
  H  H22  1  0.16304000  0.33688000  0.47361000  1.0
  H  H23  1  0.66304000  0.16312000  0.02639000  1.0
  H  H24  1  0.71735000  0.49347000  0.51043000  1.0
  H  H25  1  0.21735000  0.00653000  0.98957000  1.0
  H  H26  1  0.28265000  0.50653000  0.48957000  1.0
  H  H27  1  0.78265000  0.99347000  0.01043000  1.0
  H  H28  1  0.48923000  0.56124000  0.62376000  1.0
  H  H29  1  0.98923000  0.93876000  0.87624000  1.0
  H  H30  1  0.51077000  0.43876000  0.37624000  1.0
  H  H31  1  0.01077000  0.06124000  0.12376000  1.0
  H  H32  1  0.69122000  0.50971000  0.68345000  1.0
  H  H33  1  0.19122000  0.99029000  0.81655000  1.0
  H  H34  1  0.30879000  0.49029000  0.31655000  1.0
  H  H35  1  0.80878000  0.00971000  0.18345000  1.0
  H  H36  1  0.64255000  0.66373000  0.80739000  1.0
  H  H37  1  0.14255000  0.83627000  0.69261000  1.0
  H  H38  1  0.35745000  0.33627000  0.19261000  1.0
  H  H39  1  0.85745000  0.16373000  0.30739000  1.0
  H  H40  1  0.43185000  0.69637000  0.75733000  1.0
  H  H41  1  0.93185000  0.80364000  0.74267000  1.0
  H  H42  1  0.56815000  0.30363000  0.24267000  1.0
  H  H43  1  0.06815000  0.19637000  0.25733000  1.0
  H  H44  1  0.30425000  0.04021000  0.24773000  1.0
  H  H45  1  0.80425000  0.45979000  0.25227000  1.0
  H  H46  1  0.69575000  0.95979000  0.75227000  1.0
  H  H47  1  0.19575000  0.54020000  0.74773000  1.0
  H  H48  1  0.46125000  0.09756000  0.15124000  1.0
  H  H49  1  0.96125000  0.40244000  0.34876000  1.0
  H  H50  1  0.53875000  0.90245000  0.84876000  1.0
  H  H51  1  0.03875000  0.59756000  0.65124000  1.0
  C  C52  1  0.55443000  0.83555000  0.28198000  1.0
  C  C53  1  0.05443000  0.66445000  0.21802000  1.0
  C  C54  1  0.44557000  0.16445000  0.71802000  1.0
  C  C55  1  0.94557000  0.33555000  0.78198000  1.0
  C  C56  1  0.67733000  0.73886000  0.35555000  1.0
  C  C57  1  0.17734000  0.76114000  0.14444000  1.0
  C  C58  1  0.32267000  0.26114000  0.64444000  1.0
  C  C59  1  0.82267000  0.23886000  0.85556000  1.0
  C  C60  1  0.70723000  0.61264000  0.52665000  1.0
  C  C61  1  0.20723000  0.88736000  0.97335000  1.0
  C  C62  1  0.29277000  0.38736000  0.47335000  1.0
  C  C63  1  0.79277000  0.11264000  0.02665000  1.0
  C  C64  1  0.62358000  0.59914000  0.62677000  1.0
  C  C65  1  0.12359000  0.90086000  0.87323000  1.0
  C  C66  1  0.37642000  0.40086000  0.37323000  1.0
  C  C67  1  0.87642000  0.09914000  0.12677000  1.0
  C  C68  1  0.56366000  0.74314000  0.75061000  1.0
  C  C69  1  0.06366000  0.75686000  0.74939000  1.0
  C  C70  1  0.43634000  0.25686000  0.24939000  1.0
  C  C71  1  0.93635000  0.24314000  0.25061000  1.0
  C  C72  1  0.43291000  0.09204000  0.23067000  1.0
  C  C73  1  0.93292000  0.40796000  0.26933000  1.0
  C  C74  1  0.56709000  0.90797000  0.76933000  1.0
  C  C75  1  0.06708000  0.59203000  0.73067000  1.0
  Cl  Cl76  1  0.15109000  0.82587000  0.45660000  1.0
  Cl  Cl77  1  0.65109000  0.67413000  0.04341000  1.0
  Cl  Cl78  1  0.84891000  0.17413000  0.54340000  1.0
  Cl  Cl79  1  0.34890000  0.32587000  0.95659000  1.0
  O  O80  1  0.55561000  0.99563000  0.29401000  1.0
  O  O81  1  0.05561000  0.50437000  0.20599000  1.0
  O  O82  1  0.44439000  0.00438000  0.70599000  1.0
  O  O83  1  0.94438000  0.49563000  0.79401000  1.0
  O  O84  1  0.60419000  0.71409000  0.45283000  1.0
  O  O85  1  0.10419000  0.78591000  0.04717000  1.0
  O  O86  1  0.39581000  0.28591000  0.54717000  1.0
  O  O87  1  0.89581000  0.21409000  0.95283000  1.0
  O  O88  1  0.62998000  0.74984000  0.65279000  1.0
  O  O89  1  0.12999000  0.75016000  0.84721000  1.0
  O  O90  1  0.37001000  0.25016000  0.34721000  1.0
  O  O91  1  0.87002000  0.24984000  0.15279000  1.0
