# generated using pymatgen
data_TbH13C18N3O8
_symmetry_space_group_name_H-M   'P 1'
_cell_length_a   5.88648000
_cell_length_b   10.47720000
_cell_length_c   14.32550562
_cell_angle_alpha   70.74303324
_cell_angle_beta   87.96838861
_cell_angle_gamma   83.10960000
_symmetry_Int_Tables_number   1
_chemical_formula_structural   TbH13C18N3O8
_chemical_formula_sum   'Tb2 H26 C36 N6 O16'
_cell_volume   828.04337625
_cell_formula_units_Z   2
loop_
 _symmetry_equiv_pos_site_id
 _symmetry_equiv_pos_as_xyz
  1  'x, y, z'
loop_
 _atom_site_type_symbol
 _atom_site_label
 _atom_site_symmetry_multiplicity
 _atom_site_fract_x
 _atom_site_fract_y
 _atom_site_fract_z
 _atom_site_occupancy
  Tb  Tb0  1  0.38337000  0.26021000  0.48697000  1.0
  Tb  Tb1  1  0.61664000  0.73979000  0.51303000  1.0
  H  H2  1  0.86767000  0.16018000  0.52172000  1.0
  H  H3  1  0.13235000  0.83982000  0.47828000  1.0
  H  H4  1  0.74146000  0.03425000  0.52730000  1.0
  H  H5  1  0.25855000  0.96574000  0.47271000  1.0
  H  H6  1  0.12982000  0.56047000  0.41803000  1.0
  H  H7  1  0.87019000  0.43953000  0.58197000  1.0
  H  H8  1  0.39194000  0.56205000  0.39367000  1.0
  H  H9  1  0.60807000  0.43795000  0.60633000  1.0
  H  H10  1  0.51566000  0.14491000  0.83864000  1.0
  H  H11  1  0.48432000  0.85510000  0.16135000  1.0
  H  H12  1  0.36404000  0.07751000  0.01361000  1.0
  H  H13  1  0.63594000  0.92248000  0.98639000  1.0
  H  H14  1  0.83527000  0.33717000  0.74262000  1.0
  H  H15  1  0.16471000  0.66285000  0.25737000  1.0
  H  H16  1  0.60209000  0.25463000  0.01289000  1.0
  H  H17  1  0.39791000  0.74536000  0.98712000  1.0
  H  H18  1  0.42808000  0.20230000  0.18106000  1.0
  H  H19  1  0.57193000  0.79768000  0.81895000  1.0
  H  H20  1  0.07343000  0.97158000  0.29845000  1.0
  H  H21  1  0.92658000  0.02842000  0.70155000  1.0
  H  H22  1  0.55085000  0.49564000  0.21830000  1.0
  H  H23  1  0.44914000  0.50436000  0.78170000  1.0
  H  H24  1  0.62346000  0.56829000  0.03498000  1.0
  H  H25  1  0.37653000  0.43172000  0.96502000  1.0
  H  H26  1  0.24849000  0.30815000  0.26046000  1.0
  H  H27  1  0.75150000  0.69186000  0.73953000  1.0
  C  C28  1  0.25538000  0.28622000  0.67131000  1.0
  C  C29  1  0.74460000  0.71379000  0.32869000  1.0
  C  C30  1  0.18643000  0.24819000  0.77680000  1.0
  C  C31  1  0.81358000  0.75182000  0.22320000  1.0
  C  C32  1  0.33790000  0.17399000  0.85422000  1.0
  C  C33  1  0.66209000  0.82601000  0.14577000  1.0
  C  C34  1  0.25536000  0.13666000  0.95069000  1.0
  C  C35  1  0.74463000  0.86334000  0.04931000  1.0
  C  C36  1  0.02607000  0.17670000  0.96765000  1.0
  C  C37  1  0.97393000  0.82329000  0.03236000  1.0
  C  C38  1  0.95867000  0.28144000  0.80104000  1.0
  C  C39  1  0.04132000  0.71857000  0.19896000  1.0
  C  C40  1  0.92621000  0.14235000  0.06824000  1.0
  C  C41  1  0.07376000  0.85765000  0.93177000  1.0
  C  C42  1  0.69860000  0.19279000  0.07873000  1.0
  C  C43  1  0.30139000  0.80722000  0.92127000  1.0
  C  C44  1  0.60406000  0.16360000  0.17210000  1.0
  C  C45  1  0.39593000  0.83639000  0.82790000  1.0
  C  C46  1  0.73814000  0.08330000  0.25375000  1.0
  C  C47  1  0.26185000  0.91671000  0.74623000  1.0
  C  C48  1  0.96364000  0.03444000  0.23639000  1.0
  C  C49  1  0.03637000  0.96555000  0.76361000  1.0
  C  C50  1  0.64577000  0.05915000  0.35559000  1.0
  C  C51  1  0.35424000  0.94084000  0.64442000  1.0
  C  C52  1  0.86566000  0.34530000  0.36230000  1.0
  C  C53  1  0.13435000  0.65469000  0.63770000  1.0
  C  C54  1  0.89727000  0.39767000  0.25343000  1.0
  C  C55  1  0.10274000  0.60233000  0.74657000  1.0
  C  C56  1  0.71822000  0.47190000  0.18916000  1.0
  C  C57  1  0.28179000  0.52810000  0.81084000  1.0
  C  C58  1  0.75753000  0.51268000  0.08812000  1.0
  C  C59  1  0.24248000  0.48733000  0.91187000  1.0
  C  C60  1  0.97547000  0.47951000  0.05361000  1.0
  C  C61  1  0.02453000  0.52049000  0.94639000  1.0
  C  C62  1  0.10813000  0.36870000  0.21197000  1.0
  C  C63  1  0.89187000  0.63131000  0.78802000  1.0
  N  N64  1  0.88039000  0.24914000  0.89300000  1.0
  N  N65  1  0.11959000  0.75087000  0.10700000  1.0
  N  N66  1  0.05737000  0.06386000  0.14625000  1.0
  N  N67  1  0.94263000  0.93614000  0.85375000  1.0
  N  N68  1  0.14872000  0.40826000  0.11514000  1.0
  N  N69  1  0.85127000  0.59174000  0.88486000  1.0
  O  O70  1  0.10212000  0.31911000  0.60341000  1.0
  O  O71  1  0.89787000  0.68090000  0.39658000  1.0
  O  O72  1  0.46783000  0.27875000  0.64738000  1.0
  O  O73  1  0.53215000  0.72127000  0.35261000  1.0
  O  O74  1  0.49233000  0.14742000  0.36917000  1.0
  O  O75  1  0.50768000  0.85259000  0.63083000  1.0
  O  O76  1  0.72961000  0.95285000  0.42564000  1.0
  O  O77  1  0.27040000  0.04714000  0.57437000  1.0
  O  O78  1  0.67295000  0.37497000  0.39730000  1.0
  O  O79  1  0.32708000  0.62503000  0.60270000  1.0
  O  O80  1  0.03065000  0.26920000  0.41657000  1.0
  O  O81  1  0.96935000  0.73080000  0.58342000  1.0
  O  O82  1  0.73294000  0.11331000  0.55078000  1.0
  O  O83  1  0.26707000  0.88669000  0.44922000  1.0
  O  O84  1  0.27424000  0.49982000  0.41921000  1.0
  O  O85  1  0.72577000  0.50018000  0.58079000  1.0
