# generated using pymatgen
data_Zn8H31C56(BrO11)3
_symmetry_space_group_name_H-M   'P 1'
_cell_length_a   18.41499265
_cell_length_b   18.41790000
_cell_length_c   18.46100000
_cell_angle_alpha   90.38820000
_cell_angle_beta   119.53236053
_cell_angle_gamma   119.87762803
_symmetry_Int_Tables_number   1
_chemical_formula_structural   Zn8H31C56(BrO11)3
_chemical_formula_sum   'Zn8 H31 C56 Br3 O33'
_cell_volume   4451.75537691
_cell_formula_units_Z   1
loop_
 _symmetry_equiv_pos_site_id
 _symmetry_equiv_pos_as_xyz
  1  'x, y, z'
loop_
 _atom_site_type_symbol
 _atom_site_label
 _atom_site_symmetry_multiplicity
 _atom_site_fract_x
 _atom_site_fract_y
 _atom_site_fract_z
 _atom_site_occupancy
  Zn  Zn0  1  0.42099000  0.46455000  0.55201000  1.0
  Zn  Zn1  1  0.58813000  0.45887000  0.54678000  1.0
  Zn  Zn2  1  0.58574000  0.62986000  0.53867000  1.0
  Zn  Zn3  1  0.40688000  0.45270000  0.37107000  1.0
  Zn  Zn4  1  0.59368000  0.05207000  0.96380000  1.0
  Zn  Zn5  1  0.41122000  0.86940000  0.95321000  1.0
  Zn  Zn6  1  0.41357000  0.04436000  0.95813000  1.0
  Zn  Zn7  1  0.58311000  0.04112000  0.12923000  1.0
  H  H8  1  0.90174000  0.20904000  0.32164000  1.0
  H  H9  1  0.39133000  0.35563000  0.13415000  1.0
  H  H10  1  0.29232000  0.26193000  0.13412000  1.0
  H  H11  1  0.09683000  0.91394000  0.78382000  1.0
  H  H12  1  0.08821000  0.65116000  0.90308000  1.0
  H  H13  1  0.90354000  0.52899000  0.71292000  1.0
  H  H14  1  0.89657000  0.55166000  0.80310000  1.0
  H  H15  1  0.39504000  0.30874000  0.71616000  1.0
  H  H16  1  0.39567000  0.21313000  0.81038000  1.0
  H  H17  1  0.70859000  0.23767000  0.83227000  1.0
  H  H18  1  0.60450000  0.14213000  0.73560000  1.0
  H  H19  1  0.25782000  0.64743000  0.05190000  1.0
  H  H20  1  0.70875000  0.33611000  0.73758000  1.0
  H  H21  1  0.60563000  0.24027000  0.64114000  1.0
  H  H22  1  0.07853000  0.27659000  0.25639000  1.0
  H  H23  1  0.58270000  0.82926000  0.66241000  1.0
  H  H24  1  0.33879000  0.63604000  0.80290000  1.0
  H  H25  1  0.65610000  0.77056000  0.44438000  1.0
  H  H26  1  0.64936000  0.94725000  0.27246000  1.0
  H  H27  1  0.82930000  0.78960000  0.65987000  1.0
  H  H28  1  0.11544000  0.57408000  0.83891000  1.0
  H  H29  1  0.03962000  0.32143000  0.44356000  1.0
  H  H30  1  0.31424000  0.61090000  0.01904000  1.0
  H  H31  1  0.44922000  0.62053000  0.92627000  1.0
  H  H32  1  0.47018000  0.53929000  0.74846000  1.0
  H  H33  1  0.25755000  0.55050000  0.14921000  1.0
  H  H34  1  0.61814000  0.29952000  0.41682000  1.0
  H  H35  1  0.61054000  0.19648000  0.32124000  1.0
  H  H36  1  0.38681000  0.25344000  0.03754000  1.0
  H  H37  1  0.92553000  0.25180000  0.17030000  1.0
  H  H38  1  0.28674000  0.15965000  0.03654000  1.0
  C  C39  1  0.50874000  0.37017000  0.36658000  1.0
  C  C40  1  0.40847000  0.59445000  0.75360000  1.0
  C  C41  1  0.42218000  0.65467000  0.20858000  1.0
  C  C42  1  0.50982000  0.65248000  0.63492000  1.0
  C  C43  1  0.50252000  0.68673000  0.29849000  1.0
  C  C44  1  0.58520000  0.77733000  0.33235000  1.0
  C  C45  1  0.58384000  0.83277000  0.27804000  1.0
  C  C46  1  0.50144000  0.79811000  0.18794000  1.0
  C  C47  1  0.42203000  0.70742000  0.15574000  1.0
  C  C48  1  0.31685000  0.63481000  0.07546000  1.0
  C  C49  1  0.31696000  0.57610000  0.13705000  1.0
  C  C50  1  0.11609000  0.31212000  0.32488000  1.0
  C  C51  1  0.44244000  0.28252000  0.21713000  1.0
  C  C52  1  0.50626000  0.31088000  0.30905000  1.0
  C  C53  1  0.56731000  0.27855000  0.34515000  1.0
  C  C54  1  0.50050000  0.36413000  0.64124000  1.0
  C  C55  1  0.56314000  0.22091000  0.29160000  1.0
  C  C56  1  0.49837000  0.19258000  0.19848000  1.0
  C  C57  1  0.43905000  0.22540000  0.16338000  1.0
  C  C58  1  0.36029000  0.22468000  0.07860000  1.0
  C  C59  1  0.36368000  0.28887000  0.13940000  1.0
  C  C60  1  0.94662000  0.66508000  0.75403000  1.0
  C  C61  1  0.46193000  0.67640000  0.73379000  1.0
  C  C62  1  0.88988000  0.69972000  0.71291000  1.0
  C  C63  1  0.94843000  0.79270000  0.72668000  1.0
  C  C64  1  0.05582000  0.84374000  0.77657000  1.0
  C  C65  1  0.11007000  0.80683000  0.81595000  1.0
  C  C66  1  0.50040000  0.63157000  0.35560000  1.0
  C  C67  1  0.05261000  0.71601000  0.80411000  1.0
  C  C68  1  0.05723000  0.64020000  0.83227000  1.0
  C  C69  1  0.93576000  0.58105000  0.77075000  1.0
  C  C70  1  0.56005000  0.27390000  0.71997000  1.0
  C  C71  1  0.50125000  0.30722000  0.69781000  1.0
  C  C72  1  0.50554000  0.70956000  0.68764000  1.0
  C  C73  1  0.44193000  0.28387000  0.73208000  1.0
  C  C74  1  0.44222000  0.23020000  0.78487000  1.0
  C  C75  1  0.50177000  0.19649000  0.80680000  1.0
  C  C76  1  0.56030000  0.22005000  0.77290000  1.0
  C  C77  1  0.63523000  0.21021000  0.76868000  1.0
  C  C78  1  0.77764000  0.64319000  0.65483000  1.0
  C  C79  1  0.63532000  0.27154000  0.70913000  1.0
  C  C80  1  0.50060000  0.85457000  0.13185000  1.0
  C  C81  1  0.50163000  0.13962000  0.86351000  1.0
  C  C82  1  0.51019000  0.87310000  0.86624000  1.0
  C  C83  1  0.54849000  0.79994000  0.69778000  1.0
  C  C84  1  0.49524000  0.13213000  0.14158000  1.0
  C  C85  1  0.22384000  0.86370000  0.86766000  1.0
  C  C86  1  0.77697000  0.15723000  0.14675000  1.0
  C  C87  1  0.22737000  0.36843000  0.37713000  1.0
  C  C88  1  0.94389000  0.23999000  0.29220000  1.0
  C  C89  1  0.88939000  0.22153000  0.20411000  1.0
  C  C90  1  0.05525000  0.29853000  0.35246000  1.0
  C  C91  1  0.54926000  0.85336000  0.75313000  1.0
  C  C92  1  0.50866000  0.82016000  0.80298000  1.0
  C  C93  1  0.46453000  0.72961000  0.78983000  1.0
  C  C94  1  0.41436000  0.65591000  0.82124000  1.0
  Br  Br95  1  0.26052000  0.50934000  0.64581000  1.0
  Br  Br96  1  0.30489000  0.46854000  0.09488000  1.0
  Br  Br97  1  0.60552000  0.97297000  0.75466000  1.0
  O  O98  1  0.50077000  0.50152000  0.50137000  1.0
  O  O99  1  0.43852000  0.11480000  0.05842000  1.0
  O  O100  1  0.26724000  0.82366000  0.89298000  1.0
  O  O101  1  0.44406000  0.38905000  0.32715000  1.0
  O  O102  1  0.73052000  0.12399000  0.18372000  1.0
  O  O103  1  0.26804000  0.94725000  0.88223000  1.0
  O  O104  1  0.73627000  0.14030000  0.06372000  1.0
  O  O105  1  0.58530000  0.95416000  0.90823000  1.0
  O  O106  1  0.54949000  0.10274000  0.18013000  1.0
  O  O107  1  0.43198000  0.81762000  0.04933000  1.0
  O  O108  1  0.44677000  0.12364000  0.89240000  1.0
  O  O109  1  0.44799000  0.39502000  0.62816000  1.0
  O  O110  1  0.47761000  0.57426000  0.64006000  1.0
  O  O111  1  0.55292000  0.37742000  0.61015000  1.0
  O  O112  1  0.57946000  0.66913000  0.43756000  1.0
  O  O113  1  0.73143000  0.55955000  0.63616000  1.0
  O  O114  1  0.26593000  0.37335000  0.33356000  1.0
  O  O115  1  0.73266000  0.68317000  0.62492000  1.0
  O  O116  1  0.27790000  0.40785000  0.46006000  1.0
  O  O117  1  0.66836000  0.81759000  0.41604000  1.0
  O  O118  1  0.66494000  0.91802000  0.31809000  1.0
  O  O119  1  0.90431000  0.83541000  0.69199000  1.0
  O  O120  1  0.42262000  0.55190000  0.32315000  1.0
  O  O121  1  0.10595000  0.61482000  0.80863000  1.0
  O  O122  1  0.09482000  0.33666000  0.43758000  1.0
  O  O123  1  0.48166000  0.67283000  0.91157000  1.0
  O  O124  1  0.45149000  0.54981000  0.78697000  1.0
  O  O125  1  0.57447000  0.39665000  0.45000000  1.0
  O  O126  1  0.54610000  0.68503000  0.59044000  1.0
  O  O127  1  0.50010000  0.00025000  0.00061000  1.0
  O  O128  1  0.57134000  0.93935000  0.17127000  1.0
  O  O129  1  0.55731000  0.11163000  0.87887000  1.0
  O  O130  1  0.43510000  0.82996000  0.87278000  1.0
