# generated using pymatgen
data_LiH4C5SNO3
_symmetry_space_group_name_H-M   'P 1'
_cell_length_a   7.64709000
_cell_length_b   8.77154000
_cell_length_c   10.36190000
_cell_angle_alpha   80.77920000
_cell_angle_beta   71.76240000
_cell_angle_gamma   82.38560000
_symmetry_Int_Tables_number   1
_chemical_formula_structural   LiH4C5SNO3
_chemical_formula_sum   'Li4 H16 C20 S4 N4 O12'
_cell_volume   649.07923520
_cell_formula_units_Z   4
loop_
 _symmetry_equiv_pos_site_id
 _symmetry_equiv_pos_as_xyz
  1  'x, y, z'
loop_
 _atom_site_type_symbol
 _atom_site_label
 _atom_site_symmetry_multiplicity
 _atom_site_fract_x
 _atom_site_fract_y
 _atom_site_fract_z
 _atom_site_occupancy
  Li  Li0  1  0.44635000  0.82609000  0.88943000  1.0
  Li  Li1  1  0.55366000  0.17391000  0.11057000  1.0
  Li  Li2  1  0.62400000  0.31932000  0.62416000  1.0
  Li  Li3  1  0.37600000  0.68068000  0.37585000  1.0
  H  H4  1  0.63040000  0.99666000  0.41064000  1.0
  H  H5  1  0.36960000  0.00334000  0.58936000  1.0
  H  H6  1  0.90762000  0.13288000  0.27188000  1.0
  H  H7  1  0.09238000  0.86712000  0.72812000  1.0
  H  H8  1  0.00102000  0.61600000  0.51646000  1.0
  H  H9  1  0.99898000  0.38401000  0.48354000  1.0
  H  H10  1  0.22688000  0.48522000  0.76087000  1.0
  H  H11  1  0.77312000  0.51478000  0.23913000  1.0
  H  H12  1  0.90787000  0.61578000  0.76714000  1.0
  H  H13  1  0.09213000  0.38422000  0.23286000  1.0
  H  H14  1  0.63288000  0.48218000  0.90828000  1.0
  H  H15  1  0.36711000  0.51783000  0.09173000  1.0
  H  H16  1  0.95342000  0.11123000  0.04414000  1.0
  H  H17  1  0.04658000  0.88878000  0.95587000  1.0
  H  H18  1  0.22264000  0.99893000  0.25594000  1.0
  H  H19  1  0.77736000  0.00108000  0.74406000  1.0
  C  C20  1  0.79551000  0.79667000  0.47628000  1.0
  C  C21  1  0.20449000  0.20333000  0.52372000  1.0
  C  C22  1  0.76822000  0.94282000  0.40596000  1.0
  C  C23  1  0.23178000  0.05718000  0.59403000  1.0
  C  C24  1  0.92348000  0.01802000  0.32722000  1.0
  C  C25  1  0.07652000  0.98198000  0.67278000  1.0
  C  C26  1  0.09876000  0.94394000  0.31900000  1.0
  C  C27  1  0.90124000  0.05606000  0.68100000  1.0
  C  C28  1  0.97555000  0.73075000  0.46369000  1.0
  C  C29  1  0.02445000  0.26925000  0.53631000  1.0
  C  C30  1  0.11209000  0.28897000  0.90255000  1.0
  C  C31  1  0.88791000  0.71104000  0.09745000  1.0
  C  C32  1  0.10123000  0.43221000  0.82292000  1.0
  C  C33  1  0.89877000  0.56778000  0.17708000  1.0
  C  C34  1  0.92621000  0.50358000  0.82591000  1.0
  C  C35  1  0.07379000  0.49642000  0.17409000  1.0
  C  C36  1  0.77071000  0.42971000  0.90674000  1.0
  C  C37  1  0.22929000  0.57029000  0.09326000  1.0
  C  C38  1  0.94948000  0.22321000  0.98127000  1.0
  C  C39  1  0.05052000  0.77679000  0.01873000  1.0
  S  S40  1  0.60563000  0.69423000  0.58349000  1.0
  S  S41  1  0.39438000  0.30576000  0.41651000  1.0
  S  S42  1  0.32995000  0.18965000  0.90619000  1.0
  S  S43  1  0.67005000  0.81035000  0.09381000  1.0
  N  N44  1  0.12485000  0.80205000  0.38588000  1.0
  N  N45  1  0.87515000  0.19795000  0.61413000  1.0
  N  N46  1  0.78075000  0.29193000  0.98412000  1.0
  N  N47  1  0.21925000  0.70807000  0.01589000  1.0
  O  O48  1  0.67830000  0.53110000  0.58974000  1.0
  O  O49  1  0.32171000  0.46890000  0.41025000  1.0
  O  O50  1  0.55450000  0.75360000  0.71593000  1.0
  O  O51  1  0.44551000  0.24639000  0.28407000  1.0
  O  O52  1  0.45770000  0.73116000  0.51849000  1.0
  O  O53  1  0.54230000  0.26883000  0.48152000  1.0
  O  O54  1  0.46861000  0.28212000  0.80527000  1.0
  O  O55  1  0.53138000  0.71789000  0.19474000  1.0
  O  O56  1  0.32771000  0.03440000  0.87128000  1.0
  O  O57  1  0.67229000  0.96560000  0.12872000  1.0
  O  O58  1  0.33779000  0.18665000  0.04658000  1.0
  O  O59  1  0.66220000  0.81334000  0.95343000  1.0
