# generated using pymatgen
data_Er2CuH18C22(NO9)2
_symmetry_space_group_name_H-M   'P 1'
_cell_length_a   6.60376000
_cell_length_b   7.96715000
_cell_length_c   13.06710000
_cell_angle_alpha   100.96900000
_cell_angle_beta   92.29830000
_cell_angle_gamma   102.40600000
_symmetry_Int_Tables_number   1
_chemical_formula_structural   Er2CuH18C22(NO9)2
_chemical_formula_sum   'Er2 Cu1 H18 C22 N2 O18'
_cell_volume   656.82542910
_cell_formula_units_Z   1
loop_
 _symmetry_equiv_pos_site_id
 _symmetry_equiv_pos_as_xyz
  1  'x, y, z'
loop_
 _atom_site_type_symbol
 _atom_site_label
 _atom_site_symmetry_multiplicity
 _atom_site_fract_x
 _atom_site_fract_y
 _atom_site_fract_z
 _atom_site_occupancy
  Er  Er0  1  0.43960000  0.57094000  0.14742000  1.0
  Er  Er1  1  0.56040000  0.42906000  0.85258000  1.0
  Cu  Cu2  1  0.00000000  0.00000000  0.50000000  1.0
  H  H3  1  0.84388000  0.70316000  0.07542000  1.0
  H  H4  1  0.15611000  0.29683000  0.92458000  1.0
  H  H5  1  0.90296000  0.77273000  0.20004000  1.0
  H  H6  1  0.09704000  0.22727000  0.79996000  1.0
  H  H7  1  0.32778000  0.25307000  0.33014000  1.0
  H  H8  1  0.67223000  0.74694000  0.66986000  1.0
  H  H9  1  0.62642000  0.47089000  0.43598000  1.0
  H  H10  1  0.37360000  0.52912000  0.56402000  1.0
  H  H11  1  0.91662000  0.35952000  0.51386000  1.0
  H  H12  1  0.08339000  0.64047000  0.48614000  1.0
  H  H13  1  0.78700000  0.12275000  0.98480000  1.0
  H  H14  1  0.21299000  0.87726000  0.01520000  1.0
  H  H15  1  0.62428000  0.01060000  0.06785000  1.0
  H  H16  1  0.37572000  0.98940000  0.93215000  1.0
  H  H17  1  0.85925000  0.17088000  0.22548000  1.0
  H  H18  1  0.14074000  0.82912000  0.77452000  1.0
  H  H19  1  0.98775000  0.04785000  0.13340000  1.0
  H  H20  1  0.01224000  0.95215000  0.86660000  1.0
  C  C21  1  0.62807000  0.98034000  0.38587000  1.0
  C  C22  1  0.37194000  0.01966000  0.61413000  1.0
  C  C23  1  0.45869000  0.02979000  0.34148000  1.0
  C  C24  1  0.54132000  0.97021000  0.65852000  1.0
  C  C25  1  0.45714000  0.20907000  0.36252000  1.0
  C  C26  1  0.54287000  0.79093000  0.63749000  1.0
  C  C27  1  0.62196000  0.33113000  0.42266000  1.0
  C  C28  1  0.37806000  0.66888000  0.57735000  1.0
  C  C29  1  0.78453000  0.27237000  0.46427000  1.0
  C  C30  1  0.21548000  0.72763000  0.53573000  1.0
  C  C31  1  0.65407000  0.79567000  0.38083000  1.0
  C  C32  1  0.34593000  0.20432000  0.61917000  1.0
  C  C33  1  0.27815000  0.90560000  0.27144000  1.0
  C  C34  1  0.72186000  0.09441000  0.72856000  1.0
  C  C35  1  0.62224000  0.28050000  0.08586000  1.0
  C  C36  1  0.37775000  0.71950000  0.91414000  1.0
  C  C37  1  0.73531000  0.13345000  0.06396000  1.0
  C  C38  1  0.26468000  0.86655000  0.93603000  1.0
  C  C39  1  0.91515000  0.16134000  0.14725000  1.0
  C  C40  1  0.08484000  0.83866000  0.85275000  1.0
  C  C41  1  0.08311000  0.32261000  0.14722000  1.0
  C  C42  1  0.91689000  0.67739000  0.85278000  1.0
  N  N43  1  0.78430000  0.10128000  0.44619000  1.0
  N  N44  1  0.21571000  0.89871000  0.55381000  1.0
  O  O45  1  0.78655000  0.71461000  0.14488000  1.0
  O  O46  1  0.21345000  0.28538000  0.85512000  1.0
  O  O47  1  0.80022000  0.77729000  0.44228000  1.0
  O  O48  1  0.19978000  0.22270000  0.55772000  1.0
  O  O49  1  0.53384000  0.66732000  0.32127000  1.0
  O  O50  1  0.46616000  0.33268000  0.67873000  1.0
  O  O51  1  0.09742000  0.90762000  0.29734000  1.0
  O  O52  1  0.90258000  0.09239000  0.70266000  1.0
  O  O53  1  0.32023000  0.81539000  0.18607000  1.0
  O  O54  1  0.67977000  0.18461000  0.81393000  1.0
  O  O55  1  0.57415000  0.35705000  0.01284000  1.0
  O  O56  1  0.42585000  0.64296000  0.98716000  1.0
  O  O57  1  0.57518000  0.33193000  0.17764000  1.0
  O  O58  1  0.42480000  0.66806000  0.82236000  1.0
  O  O59  1  0.17144000  0.41947000  0.23298000  1.0
  O  O60  1  0.82855000  0.58053000  0.76702000  1.0
  O  O61  1  0.14384000  0.36025000  0.05994000  1.0
  O  O62  1  0.85615000  0.63975000  0.94006000  1.0
