# generated using pymatgen
data_CuH16C18SN5
_symmetry_space_group_name_H-M   'P 1'
_cell_length_a   9.13265000
_cell_length_b   9.54406287
_cell_length_c   12.21650000
_cell_angle_alpha   70.75849283
_cell_angle_beta   78.70100000
_cell_angle_gamma   61.76473229
_symmetry_Int_Tables_number   1
_chemical_formula_structural   CuH16C18SN5
_chemical_formula_sum   'Cu2 H32 C36 S2 N10'
_cell_volume   884.68994402
_cell_formula_units_Z   2
loop_
 _symmetry_equiv_pos_site_id
 _symmetry_equiv_pos_as_xyz
  1  'x, y, z'
loop_
 _atom_site_type_symbol
 _atom_site_label
 _atom_site_symmetry_multiplicity
 _atom_site_fract_x
 _atom_site_fract_y
 _atom_site_fract_z
 _atom_site_occupancy
  Cu  Cu0  1  0.65255000  0.38738000  0.68769000  1.0
  Cu  Cu1  1  0.34742000  0.61264000  0.31230000  1.0
  H  H2  1  0.50502000  0.76174000  0.66985000  1.0
  H  H3  1  0.49500000  0.23826000  0.33015000  1.0
  H  H4  1  0.42109000  0.02146000  0.72671000  1.0
  H  H5  1  0.57892000  0.97855000  0.27329000  1.0
  H  H6  1  0.48417000  0.00617000  0.91718000  1.0
  H  H7  1  0.51583000  0.99383000  0.08282000  1.0
  H  H8  1  0.63278000  0.73424000  0.06250000  1.0
  H  H9  1  0.36723000  0.26576000  0.93750000  1.0
  H  H10  1  0.78443000  0.21254000  0.95235000  1.0
  H  H11  1  0.21556000  0.78747000  0.04765000  1.0
  H  H12  1  0.79752000  0.22929000  0.14727000  1.0
  H  H13  1  0.20249000  0.77071000  0.85273000  1.0
  H  H14  1  0.68072000  0.42314000  0.17762000  1.0
  H  H15  1  0.31928000  0.57687000  0.82238000  1.0
  H  H16  1  0.92105000  0.49291000  0.10771000  1.0
  H  H17  1  0.07897000  0.50708000  0.89228000  1.0
  H  H18  1  0.04053000  0.30091000  0.07421000  1.0
  H  H19  1  0.95946000  0.69908000  0.92579000  1.0
  H  H20  1  0.11088000  0.29247000  0.26466000  1.0
  H  H21  1  0.88912000  0.70753000  0.73534000  1.0
  H  H22  1  0.90113000  0.35032000  0.31664000  1.0
  H  H23  1  0.09888000  0.64967000  0.68336000  1.0
  H  H24  1  0.71274000  0.24424000  0.42869000  1.0
  H  H25  1  0.28726000  0.75576000  0.57132000  1.0
  H  H26  1  0.58945000  0.05507000  0.54451000  1.0
  H  H27  1  0.41055000  0.94493000  0.45550000  1.0
  H  H28  1  0.72582000  0.75815000  0.54791000  1.0
  H  H29  1  0.27417000  0.24185000  0.45209000  1.0
  H  H30  1  0.99969000  0.63781000  0.44237000  1.0
  H  H31  1  0.00029000  0.36220000  0.55763000  1.0
  H  H32  1  0.26924000  0.00182000  0.21379000  1.0
  H  H33  1  0.73075000  0.99818000  0.78622000  1.0
  C  C34  1  0.61605000  0.60544000  0.83397000  1.0
  C  C35  1  0.38395000  0.39456000  0.16603000  1.0
  C  C36  1  0.53359000  0.75739000  0.75360000  1.0
  C  C37  1  0.46643000  0.24261000  0.24640000  1.0
  C  C38  1  0.48650000  0.89995000  0.78630000  1.0
  C  C39  1  0.51353000  0.10005000  0.21369000  1.0
  C  C40  1  0.52292000  0.89076000  0.89619000  1.0
  C  C41  1  0.47709000  0.10925000  0.10381000  1.0
  C  C42  1  0.60615000  0.74025000  0.97740000  1.0
  C  C43  1  0.39386000  0.25975000  0.02260000  1.0
  C  C44  1  0.65114000  0.59747000  0.94448000  1.0
  C  C45  1  0.34886000  0.40253000  0.05553000  1.0
  C  C46  1  0.73358000  0.34643000  0.92785000  1.0
  C  C47  1  0.26642000  0.65357000  0.07214000  1.0
  C  C48  1  0.78121000  0.35727000  0.12081000  1.0
  C  C49  1  0.21879000  0.64273000  0.87919000  1.0
  C  C50  1  0.94103000  0.36366000  0.13299000  1.0
  C  C51  1  0.05899000  0.63633000  0.86701000  1.0
  C  C52  1  0.99695000  0.28479000  0.25785000  1.0
  C  C53  1  0.00306000  0.71521000  0.74215000  1.0
  C  C54  1  0.92544000  0.04512000  0.36884000  1.0
  C  C55  1  0.07456000  0.95488000  0.63116000  1.0
  C  C56  1  0.77461000  0.11401000  0.43005000  1.0
  C  C57  1  0.22539000  0.88599000  0.56995000  1.0
  C  C58  1  0.70634000  0.00649000  0.49473000  1.0
  C  C59  1  0.29364000  0.99352000  0.50527000  1.0
  C  C60  1  0.78454000  0.83755000  0.49784000  1.0
  C  C61  1  0.21545000  0.16245000  0.50217000  1.0
  C  C62  1  0.93632000  0.76886000  0.43842000  1.0
  C  C63  1  0.06367000  0.23114000  0.56158000  1.0
  C  C64  1  0.00743000  0.87452000  0.37382000  1.0
  C  C65  1  0.99257000  0.12547000  0.62618000  1.0
  C  C66  1  0.16531000  0.98443000  0.26602000  1.0
  C  C67  1  0.83469000  0.01556000  0.73398000  1.0
  C  C68  1  0.37789000  0.41122000  0.56599000  1.0
  C  C69  1  0.62210000  0.58880000  0.43398000  1.0
  S  S70  1  0.41261000  0.34291000  0.70487000  1.0
  S  S71  1  0.58737000  0.65710000  0.29513000  1.0
  N  N72  1  0.66949000  0.44590000  0.82643000  1.0
  N  N73  1  0.33051000  0.55410000  0.17357000  1.0
  N  N74  1  0.72611000  0.43019000  0.00227000  1.0
  N  N75  1  0.27389000  0.56981000  0.99773000  1.0
  N  N76  1  0.02935000  0.11151000  0.29844000  1.0
  N  N77  1  0.97065000  0.88849000  0.70156000  1.0
  N  N78  1  0.15785000  0.84089000  0.30917000  1.0
  N  N79  1  0.84214000  0.15911000  0.69083000  1.0
  N  N80  1  0.35528000  0.46295000  0.46517000  1.0
  N  N81  1  0.64472000  0.53704000  0.53484000  1.0
