# generated using pymatgen
data_AgH3C3N2
_symmetry_space_group_name_H-M   'P 1'
_cell_length_a   6.03592000
_cell_length_b   6.50408000
_cell_length_c   20.52340000
_cell_angle_alpha   90.00670000
_cell_angle_beta   90.00040000
_cell_angle_gamma   89.99950000
_symmetry_Int_Tables_number   1
_chemical_formula_structural   AgH3C3N2
_chemical_formula_sum   'Ag8 H24 C24 N16'
_cell_volume   805.70981848
_cell_formula_units_Z   8
loop_
 _symmetry_equiv_pos_site_id
 _symmetry_equiv_pos_as_xyz
  1  'x, y, z'
loop_
 _atom_site_type_symbol
 _atom_site_label
 _atom_site_symmetry_multiplicity
 _atom_site_fract_x
 _atom_site_fract_y
 _atom_site_fract_z
 _atom_site_occupancy
  Ag  Ag0  1  0.22662000  0.32602000  0.00289000  1.0
  Ag  Ag1  1  0.27335000  0.67396000  0.50289000  1.0
  Ag  Ag2  1  0.77335000  0.82603000  0.49712000  1.0
  Ag  Ag3  1  0.72663000  0.17399000  0.99711000  1.0
  Ag  Ag4  1  0.77334000  0.67399000  0.99711000  1.0
  Ag  Ag5  1  0.72668000  0.32601000  0.49711000  1.0
  Ag  Ag6  1  0.22668000  0.17395000  0.50288000  1.0
  Ag  Ag7  1  0.27335000  0.82602000  0.00289000  1.0
  H  H8  1  0.16306000  0.48175000  0.84455000  1.0
  H  H9  1  0.33688000  0.51813000  0.34455000  1.0
  H  H10  1  0.83687000  0.98185000  0.65546000  1.0
  H  H11  1  0.66307000  0.01826000  0.15544000  1.0
  H  H12  1  0.83690000  0.51825000  0.15545000  1.0
  H  H13  1  0.66316000  0.48185000  0.65545000  1.0
  H  H14  1  0.16315000  0.01813000  0.34454000  1.0
  H  H15  1  0.33689000  0.98175000  0.84456000  1.0
  H  H16  1  0.48601000  0.37121000  0.75585000  1.0
  H  H17  1  0.01398000  0.62872000  0.25584000  1.0
  H  H18  1  0.51398000  0.87127000  0.74415000  1.0
  H  H19  1  0.98599000  0.12881000  0.24414000  1.0
  H  H20  1  0.51398000  0.62882000  0.24415000  1.0
  H  H21  1  0.98606000  0.37126000  0.74416000  1.0
  H  H22  1  0.48605000  0.12872000  0.25584000  1.0
  H  H23  1  0.01400000  0.87120000  0.75585000  1.0
  H  H24  1  0.80343000  0.17966000  0.83192000  1.0
  H  H25  1  0.69659000  0.82034000  0.33192000  1.0
  H  H26  1  0.19659000  0.67966000  0.66809000  1.0
  H  H27  1  0.30340000  0.32036000  0.16808000  1.0
  H  H28  1  0.19657000  0.82037000  0.16809000  1.0
  H  H29  1  0.30344000  0.17963000  0.66808000  1.0
  H  H30  1  0.80342000  0.32035000  0.33192000  1.0
  H  H31  1  0.69658000  0.67966000  0.83191000  1.0
  C  C32  1  0.31909000  0.40282000  0.85230000  1.0
  C  C33  1  0.18087000  0.59712000  0.35229000  1.0
  C  C34  1  0.68087000  0.90287000  0.64770000  1.0
  C  C35  1  0.81907000  0.09718000  0.14769000  1.0
  C  C36  1  0.68089000  0.59719000  0.14770000  1.0
  C  C37  1  0.81915000  0.40286000  0.64771000  1.0
  C  C38  1  0.31914000  0.09712000  0.35229000  1.0
  C  C39  1  0.18091000  0.90284000  0.85230000  1.0
  C  C40  1  0.48400000  0.34528000  0.80796000  1.0
  C  C41  1  0.01599000  0.65466000  0.30795000  1.0
  C  C42  1  0.51599000  0.84533000  0.69206000  1.0
  C  C43  1  0.98396000  0.15472000  0.19205000  1.0
  C  C44  1  0.51599000  0.65474000  0.19206000  1.0
  C  C45  1  0.98404000  0.34533000  0.69205000  1.0
  C  C46  1  0.48403000  0.15466000  0.30794000  1.0
  C  C47  1  0.01601000  0.84529000  0.80794000  1.0
  C  C48  1  0.64667000  0.24876000  0.84574000  1.0
  C  C49  1  0.85332000  0.75121000  0.34574000  1.0
  C  C50  1  0.35330000  0.74878000  0.65426000  1.0
  C  C51  1  0.14667000  0.25126000  0.15425000  1.0
  C  C52  1  0.35330000  0.75126000  0.15427000  1.0
  C  C53  1  0.14673000  0.24877000  0.65426000  1.0
  C  C54  1  0.64671000  0.25121000  0.34574000  1.0
  C  C55  1  0.85330000  0.74876000  0.84574000  1.0
  N  N56  1  0.37997000  0.34434000  0.91268000  1.0
  N  N57  1  0.12000000  0.65562000  0.41268000  1.0
  N  N58  1  0.61999000  0.84436000  0.58731000  1.0
  N  N59  1  0.87998000  0.15567000  0.08731000  1.0
  N  N60  1  0.62000000  0.65568000  0.08732000  1.0
  N  N61  1  0.88004000  0.34435000  0.58732000  1.0
  N  N62  1  0.38002000  0.15562000  0.41268000  1.0
  N  N63  1  0.11999000  0.84435000  0.91269000  1.0
  N  N64  1  0.58149000  0.24801000  0.90867000  1.0
  N  N65  1  0.91849000  0.75196000  0.40867000  1.0
  N  N66  1  0.41848000  0.74803000  0.59134000  1.0
  N  N67  1  0.08150000  0.25200000  0.09132000  1.0
  N  N68  1  0.41848000  0.75201000  0.09134000  1.0
  N  N69  1  0.08155000  0.24801000  0.59133000  1.0
  N  N70  1  0.58153000  0.25195000  0.40866000  1.0
  N  N71  1  0.91847000  0.74802000  0.90867000  1.0
