# generated using pymatgen
data_KPH3C2N3O4
_symmetry_space_group_name_H-M   'P 1'
_cell_length_a   5.37052000
_cell_length_b   7.62283000
_cell_length_c   16.64390000
_cell_angle_alpha   89.99990000
_cell_angle_beta   89.99950000
_cell_angle_gamma   99.93230000
_symmetry_Int_Tables_number   1
_chemical_formula_structural   KPH3C2N3O4
_chemical_formula_sum   'K4 P4 H12 C8 N12 O16'
_cell_volume   671.16499940
_cell_formula_units_Z   4
loop_
 _symmetry_equiv_pos_site_id
 _symmetry_equiv_pos_as_xyz
  1  'x, y, z'
loop_
 _atom_site_type_symbol
 _atom_site_label
 _atom_site_symmetry_multiplicity
 _atom_site_fract_x
 _atom_site_fract_y
 _atom_site_fract_z
 _atom_site_occupancy
  K  K0  1  0.45651000  0.13004000  0.31814000  1.0
  K  K1  1  0.54346000  0.36997000  0.81814000  1.0
  K  K2  1  0.54348000  0.86997000  0.68186000  1.0
  K  K3  1  0.45651000  0.63004000  0.18186000  1.0
  P  P4  1  0.96013000  0.73425000  0.33539000  1.0
  P  P5  1  0.03988000  0.76574000  0.83539000  1.0
  P  P6  1  0.03988000  0.26575000  0.66461000  1.0
  P  P7  1  0.96013000  0.23425000  0.16461000  1.0
  H  H8  1  0.05816000  0.44865000  0.31004000  1.0
  H  H9  1  0.94188000  0.05135000  0.81004000  1.0
  H  H10  1  0.94186000  0.55135000  0.68996000  1.0
  H  H11  1  0.05815000  0.94865000  0.18996000  1.0
  H  H12  1  0.42393000  0.62774000  0.51598000  1.0
  H  H13  1  0.57607000  0.87227000  0.01598000  1.0
  H  H14  1  0.57606000  0.37227000  0.48402000  1.0
  H  H15  1  0.42393000  0.12774000  0.98401000  1.0
  H  H16  1  0.92535000  0.94165000  0.43871000  1.0
  H  H17  1  0.07464000  0.55834000  0.93871000  1.0
  H  H18  1  0.07465000  0.05834000  0.56129000  1.0
  H  H19  1  0.92534000  0.44166000  0.06129000  1.0
  C  C20  1  0.18110000  0.79690000  0.48400000  1.0
  C  C21  1  0.81891000  0.70312000  0.98400000  1.0
  C  C22  1  0.81891000  0.20312000  0.51600000  1.0
  C  C23  1  0.18110000  0.29690000  0.01600000  1.0
  C  C24  1  0.23291000  0.51792000  0.41504000  1.0
  C  C25  1  0.76710000  0.98208000  0.91503000  1.0
  C  C26  1  0.76711000  0.48207000  0.58496000  1.0
  C  C27  1  0.23291000  0.01792000  0.08496000  1.0
  N  N28  1  0.28572000  0.64590000  0.47414000  1.0
  N  N29  1  0.71429000  0.85410000  0.97414000  1.0
  N  N30  1  0.71428000  0.35409000  0.52586000  1.0
  N  N31  1  0.28572000  0.14591000  0.02586000  1.0
  N  N32  1  0.06326000  0.54064000  0.35715000  1.0
  N  N33  1  0.93675000  0.95936000  0.85715000  1.0
  N  N34  1  0.93674000  0.45936000  0.64285000  1.0
  N  N35  1  0.06326000  0.04063000  0.14284000  1.0
  N  N36  1  0.02530000  0.83819000  0.42543000  1.0
  N  N37  1  0.97469000  0.66180000  0.92543000  1.0
  N  N38  1  0.97470000  0.16181000  0.57457000  1.0
  N  N39  1  0.02529000  0.33819000  0.07457000  1.0
  O  O40  1  0.68195000  0.70653000  0.32022000  1.0
  O  O41  1  0.31805000  0.79344000  0.82021000  1.0
  O  O42  1  0.31806000  0.29346000  0.67978000  1.0
  O  O43  1  0.68195000  0.20653000  0.17979000  1.0
  O  O44  1  0.13079000  0.83058000  0.27091000  1.0
  O  O45  1  0.86920000  0.66941000  0.77092000  1.0
  O  O46  1  0.86920000  0.16942000  0.72908000  1.0
  O  O47  1  0.13078000  0.33058000  0.22909000  1.0
  O  O48  1  0.23207000  0.88881000  0.54643000  1.0
  O  O49  1  0.76792000  0.61120000  0.04643000  1.0
  O  O50  1  0.76793000  0.11120000  0.45357000  1.0
  O  O51  1  0.23206000  0.38881000  0.95357000  1.0
  O  O52  1  0.33571000  0.38244000  0.41792000  1.0
  O  O53  1  0.66427000  0.11755000  0.91791000  1.0
  O  O54  1  0.66429000  0.61755000  0.58208000  1.0
  O  O55  1  0.33571000  0.88244000  0.08207000  1.0
