# generated using pymatgen
data_Zn2H11C27N9(ClO)2
_symmetry_space_group_name_H-M   'P 1'
_cell_length_a   19.46420000
_cell_length_b   19.56770000
_cell_length_c   19.56650000
_cell_angle_alpha   105.22800000
_cell_angle_beta   111.37400000
_cell_angle_gamma   111.36500000
_symmetry_Int_Tables_number   1
_chemical_formula_structural   Zn2H11C27N9(ClO)2
_chemical_formula_sum   'Zn4 H22 C54 N18 Cl4 O4'
_cell_volume   5751.85784261
_cell_formula_units_Z   2
loop_
 _symmetry_equiv_pos_site_id
 _symmetry_equiv_pos_as_xyz
  1  'x, y, z'
loop_
 _atom_site_type_symbol
 _atom_site_label
 _atom_site_symmetry_multiplicity
 _atom_site_fract_x
 _atom_site_fract_y
 _atom_site_fract_z
 _atom_site_occupancy
  Zn  Zn0  1  0.88639000  0.52728000  0.41162000  1.0
  Zn  Zn1  1  0.88636000  0.41167000  0.52727000  1.0
  Zn  Zn2  1  0.08421000  0.47255000  0.58872000  1.0
  Zn  Zn3  1  0.08425000  0.58871000  0.47252000  1.0
  H  H4  1  0.84392000  0.50617000  0.20353000  1.0
  H  H5  1  0.84390000  0.20364000  0.50634000  1.0
  H  H6  1  0.07331000  0.30943000  0.49162000  1.0
  H  H7  1  0.07331000  0.49143000  0.30943000  1.0
  H  H8  1  0.76217000  0.23311000  0.37241000  1.0
  H  H9  1  0.76215000  0.37239000  0.23305000  1.0
  H  H10  1  0.77413000  0.60138000  0.46223000  1.0
  H  H11  1  0.77411000  0.46238000  0.60133000  1.0
  H  H12  1  0.16769000  0.62252000  0.76183000  1.0
  H  H13  1  0.16801000  0.76188000  0.62253000  1.0
  H  H14  1  0.12967000  0.78834000  0.47094000  1.0
  H  H15  1  0.12960000  0.47094000  0.78832000  1.0
  H  H16  1  0.90282000  0.49217000  0.70029000  1.0
  H  H17  1  0.90292000  0.70030000  0.49221000  1.0
  H  H18  1  0.44307000  0.86695000  0.95240000  1.0
  H  H19  1  0.44309000  0.95240000  0.86694000  1.0
  H  H20  1  0.57428000  0.98572000  0.05715000  1.0
  H  H21  1  0.57428000  0.05716000  0.98572000  1.0
  H  H22  1  0.39705000  0.01523000  0.87680000  1.0
  H  H23  1  0.39705000  0.87683000  0.01523000  1.0
  H  H24  1  0.44329000  0.06473000  0.12167000  1.0
  H  H25  1  0.44329000  0.12169000  0.06471000  1.0
  C  C26  1  0.89990000  0.50553000  0.24257000  1.0
  C  C27  1  0.89987000  0.24265000  0.50568000  1.0
  C  C28  1  0.01694000  0.29612000  0.49725000  1.0
  C  C29  1  0.01696000  0.49708000  0.29612000  1.0
  C  C30  1  0.24344000  0.57412000  0.50360000  1.0
  C  C31  1  0.24346000  0.50363000  0.57426000  1.0
  C  C32  1  0.77235000  0.28012000  0.35153000  1.0
  C  C33  1  0.77233000  0.35152000  0.28008000  1.0
  C  C34  1  0.95911000  0.49233000  0.22347000  1.0
  C  C35  1  0.95910000  0.22351000  0.49255000  1.0
  C  C36  1  0.29646000  0.55036000  0.55043000  1.0
  C  C37  1  0.73177000  0.27103000  0.27102000  1.0
  C  C38  1  0.78407000  0.56380000  0.49253000  1.0
  C  C39  1  0.78405000  0.49264000  0.56373000  1.0
  C  C40  1  0.15958000  0.64379000  0.71512000  1.0
  C  C41  1  0.15976000  0.71516000  0.64377000  1.0
  C  C42  1  0.07339000  0.75350000  0.47340000  1.0
  C  C43  1  0.07331000  0.47339000  0.75348000  1.0
  C  C44  1  0.95703000  0.48411000  0.70831000  1.0
  C  C45  1  0.95712000  0.70833000  0.48414000  1.0
  C  C46  1  0.75396000  0.54454000  0.54443000  1.0
  C  C47  1  0.19192000  0.72501000  0.72500000  1.0
  C  C48  1  0.01630000  0.77732000  0.48507000  1.0
  C  C49  1  0.01622000  0.48503000  0.77729000  1.0
  C  C50  1  0.51979000  0.98462000  0.06235000  1.0
  C  C51  1  0.51980000  0.06236000  0.98461000  1.0
  C  C52  1  0.43311000  0.99109000  0.90967000  1.0
  C  C53  1  0.43311000  0.90969000  0.99109000  1.0
  C  C54  1  0.24999000  0.79903000  0.79903000  1.0
  C  C55  1  0.52158000  0.06616000  0.06615000  1.0
  C  C56  1  0.37821000  0.93594000  0.93592000  1.0
  C  C57  1  0.35616000  0.98919000  0.98916000  1.0
  C  C58  1  0.44081000  0.06494000  0.06492000  1.0
  C  C59  1  0.30347000  0.86263000  0.86262000  1.0
  C  C60  1  0.59908000  0.13794000  0.13794000  1.0
  C  C61  1  0.66200000  0.19914000  0.19914000  1.0
  C  C62  1  0.96357000  0.15225000  0.48417000  1.0
  C  C63  1  0.96361000  0.48390000  0.15222000  1.0
  C  C64  1  0.97148000  0.09239000  0.48299000  1.0
  C  C65  1  0.97147000  0.48269000  0.09233000  1.0
  C  C66  1  0.98212000  0.02879000  0.48462000  1.0
  C  C67  1  0.98205000  0.48434000  0.02871000  1.0
  C  C68  1  0.99333000  0.97117000  0.48793000  1.0
  C  C69  1  0.99324000  0.48774000  0.97110000  1.0
  C  C70  1  0.00446000  0.90795000  0.49025000  1.0
  C  C71  1  0.00437000  0.49013000  0.90790000  1.0
  C  C72  1  0.01342000  0.84888000  0.49048000  1.0
  C  C73  1  0.01332000  0.49039000  0.84883000  1.0
  C  C74  1  0.70153000  0.56651000  0.56635000  1.0
  C  C75  1  0.65030000  0.58077000  0.58056000  1.0
  C  C76  1  0.58758000  0.58851000  0.58828000  1.0
  C  C77  1  0.52405000  0.58845000  0.58828000  1.0
  C  C78  1  0.45002000  0.58066000  0.58059000  1.0
  C  C79  1  0.37869000  0.56782000  0.56787000  1.0
  N  N80  1  0.92198000  0.51830000  0.31985000  1.0
  N  N81  1  0.92193000  0.31989000  0.51835000  1.0
  N  N82  1  0.99396000  0.35319000  0.51281000  1.0
  N  N83  1  0.99401000  0.51276000  0.35320000  1.0
  N  N84  1  0.16782000  0.54473000  0.50041000  1.0
  N  N85  1  0.16783000  0.50043000  0.54482000  1.0
  N  N86  1  0.83077000  0.36028000  0.40392000  1.0
  N  N87  1  0.83076000  0.40393000  0.36024000  1.0
  N  N88  1  0.82761000  0.52627000  0.48192000  1.0
  N  N89  1  0.82760000  0.48200000  0.52621000  1.0
  N  N90  1  0.11326000  0.59054000  0.63417000  1.0
  N  N91  1  0.11337000  0.63422000  0.59051000  1.0
  N  N92  1  0.04870000  0.67684000  0.46490000  1.0
  N  N93  1  0.04863000  0.46495000  0.67683000  1.0
  N  N94  1  0.97686000  0.47156000  0.64884000  1.0
  N  N95  1  0.97694000  0.64885000  0.47153000  1.0
  N  N96  1  0.54005000  0.14534000  0.98457000  1.0
  N  N97  1  0.54005000  0.98459000  0.14533000  1.0
  Cl  Cl98  1  0.29207000  0.92853000  0.02100000  1.0
  Cl  Cl99  1  0.29208000  0.02102000  0.92850000  1.0
  Cl  Cl100  1  0.26607000  0.63316000  0.45595000  1.0
  Cl  Cl101  1  0.26611000  0.45609000  0.63342000  1.0
  O  O102  1  0.61359000  0.19006000  0.00077000  1.0
  O  O103  1  0.48304000  0.16285000  0.97034000  1.0
  O  O104  1  0.61359000  0.00077000  0.19004000  1.0
  O  O105  1  0.48304000  0.97036000  0.16285000  1.0
