# generated using pymatgen
data_Mn2H18C28N8O9
_symmetry_space_group_name_H-M   'P 1'
_cell_length_a   12.78080000
_cell_length_b   12.78090000
_cell_length_c   13.78800000
_cell_angle_alpha   66.62210000
_cell_angle_beta   66.62200000
_cell_angle_gamma   63.79390000
_symmetry_Int_Tables_number   1
_chemical_formula_structural   Mn2H18C28N8O9
_chemical_formula_sum   'Mn4 H36 C56 N16 O18'
_cell_volume   1786.48293025
_cell_formula_units_Z   2
loop_
 _symmetry_equiv_pos_site_id
 _symmetry_equiv_pos_as_xyz
  1  'x, y, z'
loop_
 _atom_site_type_symbol
 _atom_site_label
 _atom_site_symmetry_multiplicity
 _atom_site_fract_x
 _atom_site_fract_y
 _atom_site_fract_z
 _atom_site_occupancy
  Mn  Mn0  1  0.70969000  0.25776000  0.89685000  1.0
  Mn  Mn1  1  0.74223000  0.29031000  0.60315000  1.0
  Mn  Mn2  1  0.29031000  0.74224000  0.10314000  1.0
  Mn  Mn3  1  0.25776000  0.70969000  0.39686000  1.0
  H  H4  1  0.81111000  0.09991000  0.78233000  1.0
  H  H5  1  0.90009000  0.18889000  0.71767000  1.0
  H  H6  1  0.18889000  0.90009000  0.21767000  1.0
  H  H7  1  0.09991000  0.81111000  0.28233000  1.0
  H  H8  1  0.44184000  0.09622000  0.96150000  1.0
  H  H9  1  0.90378000  0.55816000  0.53850000  1.0
  H  H10  1  0.55816000  0.90378000  0.03850000  1.0
  H  H11  1  0.09622000  0.44184000  0.46150000  1.0
  H  H12  1  0.10872000  0.38946000  0.79123000  1.0
  H  H13  1  0.61055000  0.89128000  0.70877000  1.0
  H  H14  1  0.89128000  0.61055000  0.20877000  1.0
  H  H15  1  0.38946000  0.10872000  0.29123000  1.0
  H  H16  1  0.24655000  0.44768000  0.57672000  1.0
  H  H17  1  0.55232000  0.75345000  0.92328000  1.0
  H  H18  1  0.75345000  0.55232000  0.42328000  1.0
  H  H19  1  0.44768000  0.24655000  0.07672000  1.0
  H  H20  1  0.38656000  0.68762000  0.58187000  1.0
  H  H21  1  0.31238000  0.61344000  0.91813000  1.0
  H  H22  1  0.61344000  0.31238000  0.41813000  1.0
  H  H23  1  0.68762000  0.38656000  0.08187000  1.0
  H  H24  1  0.38695000  0.50109000  0.77788000  1.0
  H  H25  1  0.49891000  0.61305000  0.72212000  1.0
  H  H26  1  0.61305000  0.49891000  0.22212000  1.0
  H  H27  1  0.50109000  0.38695000  0.27788000  1.0
  H  H28  1  0.00374000  0.26890000  0.79390000  1.0
  H  H29  1  0.73111000  0.99626000  0.70609000  1.0
  H  H30  1  0.99626000  0.73110000  0.20609000  1.0
  H  H31  1  0.26889000  0.00374000  0.29391000  1.0
  H  H32  1  0.81747000  0.12424000  0.11520000  1.0
  H  H33  1  0.87576000  0.18253000  0.38480000  1.0
  H  H34  1  0.18253000  0.87576000  0.88480000  1.0
  H  H35  1  0.12424000  0.81747000  0.61520000  1.0
  H  H36  1  0.03393000  0.12255000  0.12089000  1.0
  H  H37  1  0.87744000  0.96607000  0.37911000  1.0
  H  H38  1  0.96607000  0.87745000  0.87911000  1.0
  H  H39  1  0.12256000  0.03393000  0.62089000  1.0
  C  C40  1  0.38953000  0.25742000  0.83526000  1.0
  C  C41  1  0.74258000  0.61047000  0.66474000  1.0
  C  C42  1  0.61047000  0.74258000  0.16474000  1.0
  C  C43  1  0.25742000  0.38953000  0.33526000  1.0
  C  C44  1  0.36900000  0.15891000  0.92277000  1.0
  C  C45  1  0.84109000  0.63100000  0.57723000  1.0
  C  C46  1  0.63100000  0.84109000  0.07723000  1.0
  C  C47  1  0.15891000  0.36900000  0.42277000  1.0
  C  C48  1  0.26046000  0.13605000  0.95940000  1.0
  C  C49  1  0.86395000  0.73954000  0.54059000  1.0
  C  C50  1  0.73954000  0.86395000  0.04059000  1.0
  C  C51  1  0.13605000  0.26047000  0.45941000  1.0
  C  C52  1  0.16649000  0.21899000  0.91020000  1.0
  C  C53  1  0.78102000  0.83351000  0.58980000  1.0
  C  C54  1  0.83351000  0.78102000  0.08980000  1.0
  C  C55  1  0.21898000  0.16649000  0.41020000  1.0
  C  C56  1  0.18349000  0.32109000  0.82512000  1.0
  C  C57  1  0.67891000  0.81651000  0.67488000  1.0
  C  C58  1  0.81651000  0.67891000  0.17488000  1.0
  C  C59  1  0.32109000  0.18349000  0.32512000  1.0
  C  C60  1  0.29498000  0.33848000  0.78663000  1.0
  C  C61  1  0.66152000  0.70502000  0.71337000  1.0
  C  C62  1  0.70502000  0.66152000  0.21337000  1.0
  C  C63  1  0.33848000  0.29498000  0.28663000  1.0
  C  C64  1  0.28311000  0.48975000  0.60418000  1.0
  C  C65  1  0.51025000  0.71689000  0.89582000  1.0
  C  C66  1  0.71689000  0.51025000  0.39582000  1.0
  C  C67  1  0.48975000  0.28311000  0.10418000  1.0
  C  C68  1  0.35776000  0.60990000  0.61022000  1.0
  C  C69  1  0.39010000  0.64225000  0.88978000  1.0
  C  C70  1  0.64225000  0.39010000  0.38978000  1.0
  C  C71  1  0.60991000  0.35775000  0.11022000  1.0
  C  C72  1  0.35797000  0.52029000  0.70695000  1.0
  C  C73  1  0.47971000  0.64203000  0.79305000  1.0
  C  C74  1  0.64204000  0.47971000  0.29305000  1.0
  C  C75  1  0.52030000  0.35796000  0.20695000  1.0
  C  C76  1  0.97905000  0.23319000  0.88247000  1.0
  C  C77  1  0.76681000  0.02095000  0.61753000  1.0
  C  C78  1  0.02095000  0.76681000  0.11753000  1.0
  C  C79  1  0.23319000  0.97905000  0.38247000  1.0
  C  C80  1  0.88812000  0.15523000  0.04948000  1.0
  C  C81  1  0.84476000  0.11187000  0.45051000  1.0
  C  C82  1  0.11187000  0.84476000  0.95052000  1.0
  C  C83  1  0.15524000  0.88813000  0.54949000  1.0
  C  C84  1  0.99434000  0.15273000  0.05398000  1.0
  C  C85  1  0.84727000  0.00566000  0.44602000  1.0
  C  C86  1  0.00566000  0.84727000  0.94602000  1.0
  C  C87  1  0.15273000  0.99434000  0.55398000  1.0
  C  C88  1  0.25318000  0.01937000  0.04601000  1.0
  C  C89  1  0.98063000  0.74682000  0.45399000  1.0
  C  C90  1  0.74682000  0.98063000  0.95399000  1.0
  C  C91  1  0.01937000  0.25318000  0.54601000  1.0
  C  C92  1  0.51231000  0.27093000  0.79610000  1.0
  C  C93  1  0.72907000  0.48769000  0.70390000  1.0
  C  C94  1  0.48769000  0.72907000  0.20390000  1.0
  C  C95  1  0.27093000  0.51231000  0.29610000  1.0
  N  N96  1  0.31009000  0.44444000  0.70243000  1.0
  N  N97  1  0.55556000  0.68991000  0.79757000  1.0
  N  N98  1  0.68991000  0.55556000  0.29757000  1.0
  N  N99  1  0.44445000  0.31009000  0.20243000  1.0
  N  N100  1  0.31096000  0.58982000  0.54704000  1.0
  N  N101  1  0.41018000  0.68904000  0.95296000  1.0
  N  N102  1  0.68904000  0.41018000  0.45296000  1.0
  N  N103  1  0.58982000  0.31096000  0.04704000  1.0
  N  N104  1  0.05254000  0.20228000  0.94679000  1.0
  N  N105  1  0.79772000  0.94745000  0.55320000  1.0
  N  N106  1  0.94745000  0.79772000  0.05321000  1.0
  N  N107  1  0.20228000  0.05255000  0.44680000  1.0
  N  N108  1  0.87922000  0.20600000  0.94257000  1.0
  N  N109  1  0.79400000  0.12077000  0.55743000  1.0
  N  N110  1  0.12077000  0.79400000  0.05743000  1.0
  N  N111  1  0.20600000  0.87923000  0.44257000  1.0
  O  O112  1  0.54552000  0.28034000  0.86663000  1.0
  O  O113  1  0.71966000  0.45448000  0.63338000  1.0
  O  O114  1  0.45448000  0.71967000  0.13338000  1.0
  O  O115  1  0.28034000  0.54552000  0.36662000  1.0
  O  O116  1  0.57064000  0.26982000  0.69742000  1.0
  O  O117  1  0.73018000  0.42937000  0.80258000  1.0
  O  O118  1  0.42937000  0.73018000  0.30258000  1.0
  O  O119  1  0.26982000  0.57063000  0.19742000  1.0
  O  O120  1  0.28313000  0.93066000  0.00954000  1.0
  O  O121  1  0.06934000  0.71687000  0.49046000  1.0
  O  O122  1  0.71687000  0.06934000  0.99046000  1.0
  O  O123  1  0.93066000  0.28313000  0.50954000  1.0
  O  O124  1  0.22033000  0.01945000  0.14601000  1.0
  O  O125  1  0.98055000  0.77967000  0.35399000  1.0
  O  O126  1  0.77967000  0.98055000  0.85399000  1.0
  O  O127  1  0.01945000  0.22033000  0.64601000  1.0
  O  O128  1  0.81410000  0.18590000  0.75000000  1.0
  O  O129  1  0.18590000  0.81410000  0.25000000  1.0
