# generated using pymatgen
data_TbH4C6N9O2
_symmetry_space_group_name_H-M   'P 1'
_cell_length_a   7.36667000
_cell_length_b   11.15050000
_cell_length_c   14.11530000
_cell_angle_alpha   89.99980000
_cell_angle_beta   86.49920000
_cell_angle_gamma   89.99930000
_symmetry_Int_Tables_number   1
_chemical_formula_structural   TbH4C6N9O2
_chemical_formula_sum   'Tb4 H16 C24 N36 O8'
_cell_volume   1157.29611785
_cell_formula_units_Z   4
loop_
 _symmetry_equiv_pos_site_id
 _symmetry_equiv_pos_as_xyz
  1  'x, y, z'
loop_
 _atom_site_type_symbol
 _atom_site_label
 _atom_site_symmetry_multiplicity
 _atom_site_fract_x
 _atom_site_fract_y
 _atom_site_fract_z
 _atom_site_occupancy
  Tb  Tb0  1  0.93730000  0.74825000  0.43468000  1.0
  Tb  Tb1  1  0.56269000  0.24825000  0.06532000  1.0
  Tb  Tb2  1  0.06270000  0.25175000  0.56532000  1.0
  Tb  Tb3  1  0.43731000  0.75175000  0.93469000  1.0
  H  H4  1  0.67342000  0.55408000  0.39994000  1.0
  H  H5  1  0.82658000  0.05408000  0.10007000  1.0
  H  H6  1  0.32657000  0.44592000  0.60007000  1.0
  H  H7  1  0.17342000  0.94592000  0.89994000  1.0
  H  H8  1  0.83389000  0.49072000  0.45038000  1.0
  H  H9  1  0.66611000  0.99071000  0.04962000  1.0
  H  H10  1  0.16611000  0.50929000  0.54962000  1.0
  H  H11  1  0.33389000  0.00929000  0.95038000  1.0
  H  H12  1  0.67951000  0.89028000  0.56336000  1.0
  H  H13  1  0.82048000  0.39028000  0.93664000  1.0
  H  H14  1  0.32049000  0.10972000  0.43664000  1.0
  H  H15  1  0.17952000  0.60972000  0.06336000  1.0
  H  H16  1  0.87344000  0.94953000  0.57540000  1.0
  H  H17  1  0.62655000  0.44953000  0.92460000  1.0
  H  H18  1  0.12656000  0.05047000  0.42460000  1.0
  H  H19  1  0.37345000  0.55046000  0.07540000  1.0
  C  C20  1  0.80672000  0.63153000  0.04735000  1.0
  C  C21  1  0.69328000  0.13152000  0.45266000  1.0
  C  C22  1  0.19328000  0.36847000  0.95265000  1.0
  C  C23  1  0.30673000  0.86847000  0.54734000  1.0
  C  C24  1  0.48535000  0.85835000  0.16893000  1.0
  C  C25  1  0.01465000  0.35835000  0.33107000  1.0
  C  C26  1  0.51465000  0.14165000  0.83107000  1.0
  C  C27  1  0.98535000  0.64166000  0.66893000  1.0
  C  C28  1  0.92569000  0.65179000  0.19060000  1.0
  C  C29  1  0.57431000  0.15179000  0.30940000  1.0
  C  C30  1  0.07432000  0.34821000  0.80940000  1.0
  C  C31  1  0.42570000  0.84820000  0.69061000  1.0
  C  C32  1  0.54959000  0.82994000  0.32490000  1.0
  C  C33  1  0.95040000  0.32994000  0.17510000  1.0
  C  C34  1  0.45041000  0.17006000  0.67510000  1.0
  C  C35  1  0.04960000  0.67007000  0.82489000  1.0
  C  C36  1  0.17028000  0.07917000  0.14557000  1.0
  C  C37  1  0.32972000  0.57918000  0.35443000  1.0
  C  C38  1  0.82972000  0.92083000  0.85443000  1.0
  C  C39  1  0.67028000  0.42083000  0.64558000  1.0
  C  C40  1  0.00684000  0.97686000  0.26222000  1.0
  C  C41  1  0.49317000  0.47686000  0.23778000  1.0
  C  C42  1  0.99316000  0.02314000  0.73779000  1.0
  C  C43  1  0.50683000  0.52314000  0.76222000  1.0
  N  N44  1  0.45169000  0.86931000  0.25890000  1.0
  N  N45  1  0.04831000  0.36931000  0.24111000  1.0
  N  N46  1  0.54831000  0.13069000  0.74110000  1.0
  N  N47  1  0.95169000  0.63070000  0.75889000  1.0
  N  N48  1  0.63020000  0.79770000  0.38991000  1.0
  N  N49  1  0.86980000  0.29769000  0.11009000  1.0
  N  N50  1  0.36980000  0.20230000  0.61008000  1.0
  N  N51  1  0.13021000  0.70231000  0.88990000  1.0
  N  N52  1  0.93983000  0.61712000  0.10230000  1.0
  N  N53  1  0.56018000  0.11711000  0.39770000  1.0
  N  N54  1  0.06017000  0.38288000  0.89770000  1.0
  N  N55  1  0.43983000  0.88288000  0.60230000  1.0
  N  N56  1  0.92618000  0.68133000  0.27039000  1.0
  N  N57  1  0.57383000  0.18133000  0.22962000  1.0
  N  N58  1  0.07383000  0.31867000  0.72961000  1.0
  N  N59  1  0.42618000  0.81867000  0.77038000  1.0
  N  N60  1  0.50466000  0.85599000  0.08505000  1.0
  N  N61  1  0.99533000  0.35599000  0.41495000  1.0
  N  N62  1  0.49533000  0.14401000  0.91495000  1.0
  N  N63  1  0.00467000  0.64401000  0.58504000  1.0
  N  N64  1  0.97769000  0.93047000  0.33669000  1.0
  N  N65  1  0.52231000  0.43048000  0.16331000  1.0
  N  N66  1  0.02231000  0.06953000  0.66331000  1.0
  N  N67  1  0.47769000  0.56952000  0.83669000  1.0
  N  N68  1  0.69138000  0.64133000  0.99390000  1.0
  N  N69  1  0.80863000  0.14133000  0.50610000  1.0
  N  N70  1  0.30862000  0.35867000  0.00610000  1.0
  N  N71  1  0.19137000  0.85867000  0.49391000  1.0
  N  N72  1  0.29592000  0.12957000  0.10927000  1.0
  N  N73  1  0.20407000  0.62958000  0.39073000  1.0
  N  N74  1  0.70407000  0.87043000  0.89073000  1.0
  N  N75  1  0.79593000  0.37043000  0.60927000  1.0
  N  N76  1  0.02247000  0.02679000  0.17930000  1.0
  N  N77  1  0.47752000  0.52680000  0.32070000  1.0
  N  N78  1  0.97752000  0.97321000  0.82070000  1.0
  N  N79  1  0.52248000  0.47321000  0.67930000  1.0
  O  O80  1  0.76637000  0.56693000  0.44657000  1.0
  O  O81  1  0.73363000  0.06692000  0.05344000  1.0
  O  O82  1  0.23364000  0.43308000  0.55343000  1.0
  O  O83  1  0.26637000  0.93308000  0.94657000  1.0
  O  O84  1  0.81257000  0.87584000  0.55662000  1.0
  O  O85  1  0.68742000  0.37584000  0.94339000  1.0
  O  O86  1  0.18743000  0.12416000  0.44339000  1.0
  O  O87  1  0.31258000  0.62416000  0.05661000  1.0
