# generated using pymatgen
data_NiH10C16(NO)4
_symmetry_space_group_name_H-M   'P 1'
_cell_length_a   8.41409000
_cell_length_b   15.01780000
_cell_length_c   15.01780000
_cell_angle_alpha   89.99990000
_cell_angle_beta   89.99990000
_cell_angle_gamma   89.99990000
_symmetry_Int_Tables_number   1
_chemical_formula_structural   NiH10C16(NO)4
_chemical_formula_sum   'Ni4 H40 C64 N16 O16'
_cell_volume   1897.66603997
_cell_formula_units_Z   4
loop_
 _symmetry_equiv_pos_site_id
 _symmetry_equiv_pos_as_xyz
  1  'x, y, z'
loop_
 _atom_site_type_symbol
 _atom_site_label
 _atom_site_symmetry_multiplicity
 _atom_site_fract_x
 _atom_site_fract_y
 _atom_site_fract_z
 _atom_site_occupancy
  Ni  Ni0  1  0.00000000  0.74451000  0.74451000  1.0
  Ni  Ni1  1  0.50000000  0.25549000  0.25549000  1.0
  Ni  Ni2  1  0.75000000  0.75549000  0.24451000  1.0
  Ni  Ni3  1  0.25000000  0.24451000  0.75549000  1.0
  H  H4  1  0.80297000  0.72000000  0.92115000  1.0
  H  H5  1  0.30297000  0.28000000  0.07885000  1.0
  H  H6  1  0.55297000  0.57885000  0.22000000  1.0
  H  H7  1  0.05297000  0.42115000  0.78001000  1.0
  H  H8  1  0.94703000  0.78000000  0.42115000  1.0
  H  H9  1  0.44703000  0.22000000  0.57885000  1.0
  H  H10  1  0.19703000  0.92115000  0.72000000  1.0
  H  H11  1  0.69703000  0.07885000  0.28000000  1.0
  H  H12  1  0.91138000  0.72965000  0.07544000  1.0
  H  H13  1  0.41139000  0.27035000  0.92456000  1.0
  H  H14  1  0.66138000  0.42456000  0.22965000  1.0
  H  H15  1  0.16139000  0.57544000  0.77035000  1.0
  H  H16  1  0.83861000  0.77035000  0.57544000  1.0
  H  H17  1  0.33862000  0.22965000  0.42456000  1.0
  H  H18  1  0.08862000  0.07544000  0.72965000  1.0
  H  H19  1  0.58862000  0.92456000  0.27035000  1.0
  H  H20  1  0.23444000  0.73826000  0.15253000  1.0
  H  H21  1  0.73445000  0.26174000  0.84747000  1.0
  H  H22  1  0.98444000  0.34747000  0.23827000  1.0
  H  H23  1  0.48444000  0.65253000  0.76173000  1.0
  H  H24  1  0.51555000  0.76174000  0.65253000  1.0
  H  H25  1  0.01556000  0.23826000  0.34747000  1.0
  H  H26  1  0.76556000  0.15253000  0.73826000  1.0
  H  H27  1  0.26556000  0.84747000  0.26174000  1.0
  H  H28  1  0.57884000  0.78244000  0.94424000  1.0
  H  H29  1  0.07885000  0.21757000  0.05576000  1.0
  H  H30  1  0.32884000  0.55576000  0.28244000  1.0
  H  H31  1  0.82885000  0.44424000  0.71756000  1.0
  H  H32  1  0.17115000  0.71756000  0.44424000  1.0
  H  H33  1  0.67116000  0.28243000  0.55576000  1.0
  H  H34  1  0.42115000  0.94424000  0.78244000  1.0
  H  H35  1  0.92115000  0.05576000  0.21757000  1.0
  H  H36  1  0.36727000  0.77285000  0.82703000  1.0
  H  H37  1  0.86727000  0.22715000  0.17297000  1.0
  H  H38  1  0.11727000  0.67297000  0.27285000  1.0
  H  H39  1  0.61728000  0.32703000  0.72715000  1.0
  H  H40  1  0.38273000  0.72715000  0.32703000  1.0
  H  H41  1  0.88273000  0.27285000  0.67297000  1.0
  H  H42  1  0.63273000  0.82703000  0.77285000  1.0
  H  H43  1  0.13273000  0.17297000  0.22715000  1.0
  C  C44  1  0.54960000  0.75834000  0.12130000  1.0
  C  C45  1  0.04961000  0.24166000  0.87870000  1.0
  C  C46  1  0.29961000  0.37870000  0.25834000  1.0
  C  C47  1  0.79961000  0.62130000  0.74166000  1.0
  C  C48  1  0.20039000  0.74166000  0.62130000  1.0
  C  C49  1  0.70039000  0.25834000  0.37870000  1.0
  C  C50  1  0.45040000  0.12130000  0.75834000  1.0
  C  C51  1  0.95039000  0.87870000  0.24166000  1.0
  C  C52  1  0.42010000  0.75817000  0.05410000  1.0
  C  C53  1  0.92010000  0.24183000  0.94590000  1.0
  C  C54  1  0.17010000  0.44590000  0.25817000  1.0
  C  C55  1  0.67010000  0.55410000  0.74183000  1.0
  C  C56  1  0.32990000  0.74183000  0.55410000  1.0
  C  C57  1  0.82990000  0.25817000  0.44590000  1.0
  C  C58  1  0.57990000  0.05410000  0.75817000  1.0
  C  C59  1  0.07990000  0.94590000  0.24183000  1.0
  C  C60  1  0.45601000  0.76914000  0.96268000  1.0
  C  C61  1  0.95602000  0.23087000  0.03732000  1.0
  C  C62  1  0.20602000  0.53732000  0.26914000  1.0
  C  C63  1  0.70602000  0.46268000  0.73086000  1.0
  C  C64  1  0.29398000  0.73086000  0.46268000  1.0
  C  C65  1  0.79398000  0.26913000  0.53733000  1.0
  C  C66  1  0.54398000  0.96268000  0.76914000  1.0
  C  C67  1  0.04398000  0.03732000  0.23086000  1.0
  C  C68  1  0.33979000  0.76464000  0.89726000  1.0
  C  C69  1  0.83979000  0.23537000  0.10274000  1.0
  C  C70  1  0.08979000  0.60274000  0.26464000  1.0
  C  C71  1  0.58979000  0.39726000  0.73536000  1.0
  C  C72  1  0.41021000  0.73537000  0.39726000  1.0
  C  C73  1  0.91021000  0.26463000  0.60274000  1.0
  C  C74  1  0.66021000  0.89726000  0.76464000  1.0
  C  C75  1  0.16021000  0.10274000  0.23536000  1.0
  C  C76  1  0.18285000  0.74890000  0.92459000  1.0
  C  C77  1  0.68285000  0.25110000  0.07541000  1.0
  C  C78  1  0.93285000  0.57541000  0.24890000  1.0
  C  C79  1  0.43285000  0.42459000  0.75110000  1.0
  C  C80  1  0.56714000  0.75110000  0.42459000  1.0
  C  C81  1  0.06715000  0.24890000  0.57541000  1.0
  C  C82  1  0.81715000  0.92459000  0.74890000  1.0
  C  C83  1  0.31715000  0.07541000  0.25110000  1.0
  C  C84  1  0.14691000  0.74148000  0.01674000  1.0
  C  C85  1  0.64691000  0.25852000  0.98326000  1.0
  C  C86  1  0.89691000  0.48326000  0.24148000  1.0
  C  C87  1  0.39691000  0.51674000  0.75852000  1.0
  C  C88  1  0.60309000  0.75852000  0.51674000  1.0
  C  C89  1  0.10309000  0.24148000  0.48326000  1.0
  C  C90  1  0.85309000  0.01674000  0.74148000  1.0
  C  C91  1  0.35309000  0.98326000  0.25852000  1.0
  C  C92  1  0.26331000  0.74537000  0.08236000  1.0
  C  C93  1  0.76332000  0.25463000  0.91764000  1.0
  C  C94  1  0.01332000  0.41764000  0.24537000  1.0
  C  C95  1  0.51332000  0.58237000  0.75463000  1.0
  C  C96  1  0.48668000  0.75463000  0.58236000  1.0
  C  C97  1  0.98668000  0.24537000  0.41764000  1.0
  C  C98  1  0.73668000  0.08236000  0.74537000  1.0
  C  C99  1  0.23668000  0.91764000  0.25463000  1.0
  C  C100  1  0.92776000  0.72856000  0.93674000  1.0
  C  C101  1  0.42777000  0.27144000  0.06326000  1.0
  C  C102  1  0.67777000  0.56326000  0.22856000  1.0
  C  C103  1  0.17777000  0.43674000  0.77144000  1.0
  C  C104  1  0.82223000  0.77144000  0.43674000  1.0
  C  C105  1  0.32223000  0.22856000  0.56326000  1.0
  C  C106  1  0.07224000  0.93674000  0.72856000  1.0
  C  C107  1  0.57223000  0.06326000  0.27144000  1.0
  N  N108  1  0.04207000  0.73944000  0.87648000  1.0
  N  N109  1  0.54207000  0.26055000  0.12352000  1.0
  N  N110  1  0.79207000  0.62352000  0.23945000  1.0
  N  N111  1  0.29208000  0.37648000  0.76055000  1.0
  N  N112  1  0.70792000  0.76055000  0.37648000  1.0
  N  N113  1  0.20793000  0.23945000  0.62352000  1.0
  N  N114  1  0.95793000  0.87648000  0.73945000  1.0
  N  N115  1  0.45793000  0.12352000  0.26055000  1.0
  N  N116  1  0.98430000  0.72902000  0.02104000  1.0
  N  N117  1  0.48430000  0.27098000  0.97896000  1.0
  N  N118  1  0.73430000  0.47896000  0.22902000  1.0
  N  N119  1  0.23430000  0.52104000  0.77098000  1.0
  N  N120  1  0.76570000  0.77098000  0.52104000  1.0
  N  N121  1  0.26570000  0.22902000  0.47896000  1.0
  N  N122  1  0.01570000  0.02104000  0.72902000  1.0
  N  N123  1  0.51570000  0.97896000  0.27098000  1.0
  O  O124  1  0.69545000  0.76146000  0.09819000  1.0
  O  O125  1  0.19546000  0.23854000  0.90180000  1.0
  O  O126  1  0.44545000  0.40180000  0.26146000  1.0
  O  O127  1  0.94545000  0.59820000  0.73854000  1.0
  O  O128  1  0.05454000  0.73854000  0.59820000  1.0
  O  O129  1  0.55455000  0.26146000  0.40180000  1.0
  O  O130  1  0.30455000  0.09820000  0.76146000  1.0
  O  O131  1  0.80455000  0.90180000  0.23854000  1.0
  O  O132  1  0.51429000  0.75385000  0.20461000  1.0
  O  O133  1  0.01430000  0.24615000  0.79539000  1.0
  O  O134  1  0.26429000  0.29539000  0.25385000  1.0
  O  O135  1  0.76430000  0.70461000  0.74615000  1.0
  O  O136  1  0.23570000  0.74615000  0.70461000  1.0
  O  O137  1  0.73570000  0.25385000  0.29539000  1.0
  O  O138  1  0.48571000  0.20461000  0.75385000  1.0
  O  O139  1  0.98571000  0.79539000  0.24615000  1.0
