# generated using pymatgen
data_HoH16C15O11
_symmetry_space_group_name_H-M   'P 1'
_cell_length_a   8.04924000
_cell_length_b   9.30445000
_cell_length_c   12.74260000
_cell_angle_alpha   104.59100000
_cell_angle_beta   94.95110000
_cell_angle_gamma   110.06900000
_symmetry_Int_Tables_number   1
_chemical_formula_structural   HoH16C15O11
_chemical_formula_sum   'Ho2 H32 C30 O22'
_cell_volume   851.67366971
_cell_formula_units_Z   2
loop_
 _symmetry_equiv_pos_site_id
 _symmetry_equiv_pos_as_xyz
  1  'x, y, z'
loop_
 _atom_site_type_symbol
 _atom_site_label
 _atom_site_symmetry_multiplicity
 _atom_site_fract_x
 _atom_site_fract_y
 _atom_site_fract_z
 _atom_site_occupancy
  Ho  Ho0  1  0.36519000  0.77807000  0.98791000  1.0
  Ho  Ho1  1  0.63481000  0.22193000  0.01209000  1.0
  H  H2  1  0.49320000  0.46837000  0.19658000  1.0
  H  H3  1  0.50679000  0.53162000  0.80342000  1.0
  H  H4  1  0.64344000  0.66300000  0.27975000  1.0
  H  H5  1  0.35656000  0.33700000  0.72025000  1.0
  H  H6  1  0.25358000  0.60294000  0.49470000  1.0
  H  H7  1  0.74644000  0.39707000  0.50531000  1.0
  H  H8  1  0.65589000  0.46404000  0.34091000  1.0
  H  H9  1  0.34412000  0.53597000  0.65910000  1.0
  H  H10  1  0.53954000  0.00953000  0.30562000  1.0
  H  H11  1  0.46047000  0.99047000  0.69438000  1.0
  H  H12  1  0.71688000  0.94125000  0.27485000  1.0
  H  H13  1  0.28312000  0.05873000  0.72515000  1.0
  H  H14  1  0.59250000  0.88514000  0.42794000  1.0
  H  H15  1  0.40749000  0.11489000  0.57208000  1.0
  H  H16  1  0.65781000  0.80772000  0.58985000  1.0
  H  H17  1  0.34214000  0.19229000  0.41016000  1.0
  H  H18  1  0.03472000  0.34203000  0.56400000  1.0
  H  H19  1  0.96532000  0.65796000  0.43598000  1.0
  H  H20  1  0.09085000  0.26860000  0.73537000  1.0
  H  H21  1  0.90918000  0.73139000  0.26462000  1.0
  H  H22  1  0.74919000  0.76143000  0.71745000  1.0
  H  H23  1  0.25081000  0.23857000  0.28253000  1.0
  H  H24  1  0.93007000  0.81123000  0.82545000  1.0
  H  H25  1  0.06995000  0.18877000  0.17454000  1.0
  H  H26  1  0.31827000  0.43263000  0.91926000  1.0
  H  H27  1  0.68172000  0.56736000  0.08074000  1.0
  H  H28  1  0.13402000  0.44660000  0.94377000  1.0
  H  H29  1  0.86597000  0.55339000  0.05624000  1.0
  H  H30  1  0.95366000  0.63510000  0.90713000  1.0
  H  H31  1  0.04633000  0.36489000  0.09288000  1.0
  H  H32  1  0.03729000  0.77635000  0.02169000  1.0
  H  H33  1  0.96271000  0.22364000  0.97832000  1.0
  C  C34  1  0.45102000  0.66075000  0.15453000  1.0
  C  C35  1  0.54899000  0.33925000  0.84547000  1.0
  C  C36  1  0.50150000  0.58985000  0.24002000  1.0
  C  C37  1  0.49850000  0.41017000  0.75999000  1.0
  C  C38  1  0.44716000  0.53918000  0.40704000  1.0
  C  C39  1  0.55286000  0.46082000  0.59296000  1.0
  C  C40  1  0.36005000  0.55612000  0.49678000  1.0
  C  C41  1  0.63996000  0.44388000  0.50323000  1.0
  C  C42  1  0.58729000  0.48189000  0.41010000  1.0
  C  C43  1  0.41272000  0.51811000  0.58991000  1.0
  C  C44  1  0.69053000  0.10774000  0.19459000  1.0
  C  C45  1  0.30946000  0.89224000  0.80540000  1.0
  C  C46  1  0.68147000  0.04830000  0.29472000  1.0
  C  C47  1  0.31853000  0.95171000  0.70528000  1.0
  C  C48  1  0.81616000  0.11643000  0.48238000  1.0
  C  C49  1  0.18383000  0.88358000  0.51762000  1.0
  C  C50  1  0.70697000  0.96900000  0.49228000  1.0
  C  C51  1  0.29303000  0.03101000  0.50771000  1.0
  C  C52  1  0.74300000  0.92565000  0.58698000  1.0
  C  C53  1  0.25700000  0.07436000  0.41302000  1.0
  C  C54  1  0.95320000  0.22545000  0.57102000  1.0
  C  C55  1  0.04681000  0.77456000  0.42896000  1.0
  C  C56  1  0.98669000  0.18344000  0.66531000  1.0
  C  C57  1  0.01332000  0.81656000  0.33467000  1.0
  C  C58  1  0.72712000  0.90148000  0.87502000  1.0
  C  C59  1  0.27287000  0.09851000  0.12497000  1.0
  C  C60  1  0.83846000  0.85871000  0.78982000  1.0
  C  C61  1  0.16152000  0.14129000  0.21017000  1.0
  C  C62  1  0.88693000  0.03058000  0.67199000  1.0
  C  C63  1  0.11308000  0.96942000  0.32800000  1.0
  O  O64  1  0.31783000  0.70327000  0.15147000  1.0
  O  O65  1  0.68217000  0.29673000  0.84853000  1.0
  O  O66  1  0.55291000  0.67458000  0.08194000  1.0
  O  O67  1  0.44709000  0.32541000  0.91806000  1.0
  O  O68  1  0.38939000  0.58426000  0.31993000  1.0
  O  O69  1  0.61062000  0.41574000  0.68008000  1.0
  O  O70  1  0.58861000  0.00519000  0.10389000  1.0
  O  O71  1  0.41138000  0.99479000  0.89611000  1.0
  O  O72  1  0.78501000  0.24832000  0.19603000  1.0
  O  O73  1  0.21498000  0.75167000  0.80397000  1.0
  O  O74  1  0.79952000  0.16668000  0.39007000  1.0
  O  O75  1  0.20048000  0.83332000  0.60993000  1.0
  O  O76  1  0.24121000  0.49675000  0.91356000  1.0
  O  O77  1  0.75879000  0.50324000  0.08644000  1.0
  O  O78  1  0.01791000  0.66323000  0.98241000  1.0
  O  O79  1  0.98207000  0.33676000  0.01759000  1.0
  O  O80  1  0.77409000  0.04869000  0.92881000  1.0
  O  O81  1  0.22591000  0.95131000  0.07118000  1.0
  O  O82  1  0.59638000  0.78670000  0.88717000  1.0
  O  O83  1  0.40363000  0.21329000  0.11284000  1.0
  O  O84  1  0.94961000  0.99461000  0.76315000  1.0
  O  O85  1  0.05037000  0.00539000  0.23686000  1.0
