# generated using pymatgen
data_AgH5C5IN
_symmetry_space_group_name_H-M   'P 1'
_cell_length_a   9.10350000
_cell_length_b   9.29179000
_cell_length_c   16.74110000
_cell_angle_alpha   89.99950000
_cell_angle_beta   89.99990000
_cell_angle_gamma   73.62100000
_symmetry_Int_Tables_number   1
_chemical_formula_structural   AgH5C5IN
_chemical_formula_sum   'Ag8 H40 C40 I8 N8'
_cell_volume   1358.62424599
_cell_formula_units_Z   8
loop_
 _symmetry_equiv_pos_site_id
 _symmetry_equiv_pos_as_xyz
  1  'x, y, z'
loop_
 _atom_site_type_symbol
 _atom_site_label
 _atom_site_symmetry_multiplicity
 _atom_site_fract_x
 _atom_site_fract_y
 _atom_site_fract_z
 _atom_site_occupancy
  Ag  Ag0  1  0.64524000  0.93007000  0.04402000  1.0
  Ag  Ag1  1  0.85477000  0.56993000  0.54402000  1.0
  Ag  Ag2  1  0.35477000  0.06995000  0.95598000  1.0
  Ag  Ag3  1  0.14523000  0.43005000  0.45598000  1.0
  Ag  Ag4  1  0.14570000  0.93446000  0.04267000  1.0
  Ag  Ag5  1  0.35429000  0.56554000  0.54268000  1.0
  Ag  Ag6  1  0.85431000  0.06554000  0.95732000  1.0
  Ag  Ag7  1  0.64570000  0.43446000  0.45732000  1.0
  H  H8  1  0.94632000  0.04971000  0.19925000  1.0
  H  H9  1  0.55367000  0.45030000  0.69926000  1.0
  H  H10  1  0.05368000  0.95029000  0.80074000  1.0
  H  H11  1  0.44632000  0.54972000  0.30074000  1.0
  H  H12  1  0.40995000  0.84124000  0.17490000  1.0
  H  H13  1  0.09003000  0.65876000  0.67490000  1.0
  H  H14  1  0.59005000  0.15876000  0.82510000  1.0
  H  H15  1  0.90996000  0.34124000  0.32510000  1.0
  H  H16  1  0.22597000  0.95632000  0.41173000  1.0
  H  H17  1  0.27402000  0.54368000  0.91173000  1.0
  H  H18  1  0.77401000  0.04369000  0.58827000  1.0
  H  H19  1  0.72598000  0.45631000  0.08827000  1.0
  H  H20  1  0.45097000  0.84243000  0.32359000  1.0
  H  H21  1  0.04903000  0.65758000  0.82359000  1.0
  H  H22  1  0.54903000  0.15757000  0.67641000  1.0
  H  H23  1  0.95097000  0.34243000  0.17641000  1.0
  H  H24  1  0.58536000  0.17155000  0.18469000  1.0
  H  H25  1  0.91464000  0.32845000  0.68469000  1.0
  H  H26  1  0.41465000  0.82846000  0.81532000  1.0
  H  H27  1  0.08536000  0.67154000  0.31531000  1.0
  H  H28  1  0.96857000  0.06154000  0.34837000  1.0
  H  H29  1  0.53142000  0.43847000  0.84837000  1.0
  H  H30  1  0.03142000  0.93846000  0.65163000  1.0
  H  H31  1  0.46857000  0.56154000  0.15163000  1.0
  H  H32  1  0.78099000  0.71202000  0.19077000  1.0
  H  H33  1  0.71901000  0.78798000  0.69077000  1.0
  H  H34  1  0.21901000  0.28799000  0.80923000  1.0
  H  H35  1  0.28099000  0.21201000  0.30923000  1.0
  H  H36  1  0.60576000  0.19171000  0.33378000  1.0
  H  H37  1  0.89424000  0.30829000  0.83378000  1.0
  H  H38  1  0.39425000  0.80829000  0.66622000  1.0
  H  H39  1  0.10576000  0.69171000  0.16622000  1.0
  H  H40  1  0.80829000  0.71290000  0.34010000  1.0
  H  H41  1  0.69171000  0.78710000  0.84009000  1.0
  H  H42  1  0.19171000  0.28709000  0.65990000  1.0
  H  H43  1  0.30829000  0.21290000  0.15990000  1.0
  H  H44  1  0.72027000  0.95795000  0.41277000  1.0
  H  H45  1  0.77973000  0.54205000  0.91276000  1.0
  H  H46  1  0.27974000  0.04204000  0.58724000  1.0
  H  H47  1  0.22026000  0.45795000  0.08723000  1.0
  C  C48  1  0.05631000  0.00546000  0.22918000  1.0
  C  C49  1  0.44368000  0.49456000  0.72919000  1.0
  C  C50  1  0.94368000  0.99455000  0.77081000  1.0
  C  C51  1  0.55632000  0.50545000  0.27081000  1.0
  C  C52  1  0.31526000  0.88890000  0.21575000  1.0
  C  C53  1  0.18474000  0.61111000  0.71575000  1.0
  C  C54  1  0.68474000  0.11110000  0.78425000  1.0
  C  C55  1  0.81526000  0.38890000  0.28425000  1.0
  C  C56  1  0.21229000  0.95303000  0.34713000  1.0
  C  C57  1  0.28771000  0.54698000  0.84713000  1.0
  C  C58  1  0.78771000  0.04698000  0.65287000  1.0
  C  C59  1  0.71229000  0.45302000  0.15287000  1.0
  C  C60  1  0.33763000  0.89008000  0.29808000  1.0
  C  C61  1  0.16236000  0.60993000  0.79808000  1.0
  C  C62  1  0.66236000  0.10992000  0.70192000  1.0
  C  C63  1  0.83763000  0.39008000  0.20192000  1.0
  C  C64  1  0.63376000  0.07258000  0.22154000  1.0
  C  C65  1  0.86624000  0.42742000  0.72154000  1.0
  C  C66  1  0.36624000  0.92743000  0.77846000  1.0
  C  C67  1  0.13377000  0.57257000  0.27846000  1.0
  C  C68  1  0.06897000  0.01162000  0.31191000  1.0
  C  C69  1  0.43102000  0.48840000  0.81192000  1.0
  C  C70  1  0.93102000  0.98839000  0.68808000  1.0
  C  C71  1  0.56898000  0.51161000  0.18808000  1.0
  C  C72  1  0.74307000  0.81587000  0.22490000  1.0
  C  C73  1  0.75693000  0.68412000  0.72489000  1.0
  C  C74  1  0.25693000  0.18413000  0.77510000  1.0
  C  C75  1  0.24308000  0.31587000  0.27510000  1.0
  C  C76  1  0.64625000  0.08346000  0.30410000  1.0
  C  C77  1  0.85375000  0.41654000  0.80410000  1.0
  C  C78  1  0.35376000  0.91654000  0.69590000  1.0
  C  C79  1  0.14625000  0.58346000  0.19590000  1.0
  C  C80  1  0.75936000  0.81694000  0.30762000  1.0
  C  C81  1  0.74064000  0.68306000  0.80762000  1.0
  C  C82  1  0.24064000  0.18306000  0.69238000  1.0
  C  C83  1  0.25936000  0.31693000  0.19238000  1.0
  C  C84  1  0.70992000  0.95336000  0.34801000  1.0
  C  C85  1  0.79009000  0.54664000  0.84801000  1.0
  C  C86  1  0.29009000  0.04664000  0.65199000  1.0
  C  C87  1  0.20991000  0.45336000  0.15199000  1.0
  I  I88  1  0.45122000  0.75502000  0.99694000  1.0
  I  I89  1  0.04878000  0.74499000  0.49693000  1.0
  I  I90  1  0.54878000  0.24500000  0.00306000  1.0
  I  I91  1  0.95122000  0.25499000  0.50306000  1.0
  I  I92  1  0.95226000  0.75324000  0.00199000  1.0
  I  I93  1  0.54774000  0.74676000  0.50199000  1.0
  I  I94  1  0.04774000  0.24677000  0.99801000  1.0
  I  I95  1  0.45226000  0.25323000  0.49802000  1.0
  N  N96  1  0.68047000  0.94122000  0.18230000  1.0
  N  N97  1  0.81954000  0.55877000  0.68229000  1.0
  N  N98  1  0.31954000  0.05878000  0.81771000  1.0
  N  N99  1  0.18047000  0.44122000  0.31771000  1.0
  N  N100  1  0.17726000  0.94529000  0.18151000  1.0
  N  N101  1  0.32273000  0.55473000  0.68151000  1.0
  N  N102  1  0.82274000  0.05471000  0.81849000  1.0
  N  N103  1  0.67727000  0.44528000  0.31849000  1.0
