# generated using pymatgen
data_ZnH24C20N2O9
_symmetry_space_group_name_H-M   'P 1'
_cell_length_a   9.76848000
_cell_length_b   10.98810000
_cell_length_c   15.84360000
_cell_angle_alpha   93.46640000
_cell_angle_beta   102.44220000
_cell_angle_gamma   91.11030000
_symmetry_Int_Tables_number   1
_chemical_formula_structural   ZnH24C20N2O9
_chemical_formula_sum   'Zn2 H48 C40 N4 O18'
_cell_volume   1656.70983503
_cell_formula_units_Z   2
loop_
 _symmetry_equiv_pos_site_id
 _symmetry_equiv_pos_as_xyz
  1  'x, y, z'
loop_
 _atom_site_type_symbol
 _atom_site_label
 _atom_site_symmetry_multiplicity
 _atom_site_fract_x
 _atom_site_fract_y
 _atom_site_fract_z
 _atom_site_occupancy
  Zn  Zn0  1  0.65437000  0.48557000  0.53235000  1.0
  Zn  Zn1  1  0.35614000  0.53141000  0.47612000  1.0
  H  H2  1  0.37640000  0.28245000  0.94560000  1.0
  H  H3  1  0.58763000  0.68762000  0.05534000  1.0
  H  H4  1  0.39930000  0.89751000  0.48780000  1.0
  H  H5  1  0.62264000  0.11600000  0.52892000  1.0
  H  H6  1  0.86276000  0.52410000  0.44287000  1.0
  H  H7  1  0.14846000  0.46285000  0.56841000  1.0
  H  H8  1  0.80978000  0.20798000  0.05766000  1.0
  H  H9  1  0.68762000  0.24785000  0.96390000  1.0
  H  H10  1  0.62579000  0.07298000  0.09632000  1.0
  H  H11  1  0.50552000  0.10816000  0.00132000  1.0
  H  H12  1  0.66748000  0.01812000  0.90948000  1.0
  H  H13  1  0.61670000  0.90882000  0.97561000  1.0
  H  H14  1  0.78611000  0.98065000  0.00519000  1.0
  H  H15  1  0.37884000  0.80613000  0.00371000  1.0
  H  H16  1  0.22183000  0.72712000  0.01312000  1.0
  H  H17  1  0.25740000  0.86874000  0.85748000  1.0
  H  H18  1  0.10118000  0.79365000  0.86801000  1.0
  H  H19  1  0.09347000  0.93492000  0.99984000  1.0
  H  H20  1  0.09516000  0.01851000  0.90769000  1.0
  H  H21  1  0.25060000  0.01017000  0.98915000  1.0
  H  H22  1  0.09803000  0.41453000  0.11761000  1.0
  H  H23  1  0.27893000  0.42483000  0.16867000  1.0
  H  H24  1  0.14847000  0.23115000  0.02415000  1.0
  H  H25  1  0.32239000  0.23511000  0.08696000  1.0
  H  H26  1  0.22830000  0.21155000  0.22296000  1.0
  H  H27  1  0.17650000  0.08693000  0.14586000  1.0
  H  H28  1  0.05533000  0.20132000  0.15882000  1.0
  H  H29  1  0.94193000  0.48394000  0.99612000  1.0
  H  H30  1  0.84221000  0.50054000  0.07785000  1.0
  H  H31  1  0.92920000  0.69883000  0.96924000  1.0
  H  H32  1  0.80108000  0.72251000  0.03121000  1.0
  H  H33  1  0.97228000  0.67607000  0.16667000  1.0
  H  H34  1  0.03934000  0.79787000  0.11719000  1.0
  H  H35  1  0.10421000  0.64897000  0.10691000  1.0
  H  H36  1  0.88862000  0.21102000  0.64258000  1.0
  H  H37  1  0.75334000  0.31910000  0.64336000  1.0
  H  H38  1  0.03043000  0.32284000  0.77891000  1.0
  H  H39  1  0.88924000  0.42200000  0.77955000  1.0
  H  H40  1  0.73186000  0.24731000  0.79662000  1.0
  H  H41  1  0.88617000  0.25203000  0.87977000  1.0
  H  H42  1  0.86633000  0.14227000  0.79027000  1.0
  H  H43  1  0.12129000  0.70036000  0.30185000  1.0
  H  H44  1  0.15874000  0.75388000  0.41364000  1.0
  H  H45  1  0.86109000  0.70587000  0.30302000  1.0
  H  H46  1  0.90417000  0.76997000  0.41070000  1.0
  H  H47  1  0.00953000  0.95759000  0.36233000  1.0
  H  H48  1  0.83289000  0.93064000  0.30668000  1.0
  H  H49  1  0.97150000  0.89423000  0.25385000  1.0
  C  C50  1  0.44228000  0.27905000  0.46611000  1.0
  C  C51  1  0.58362000  0.73375000  0.54450000  1.0
  C  C52  1  0.48005000  0.47143000  0.65951000  1.0
  C  C53  1  0.51968000  0.54221000  0.34657000  1.0
  C  C54  1  0.56752000  0.39655000  0.03885000  1.0
  C  C55  1  0.39857000  0.57249000  0.96242000  1.0
  C  C56  1  0.42391000  0.37148000  0.97151000  1.0
  C  C57  1  0.54182000  0.59815000  0.02918000  1.0
  C  C58  1  0.46220000  0.45965000  0.74624000  1.0
  C  C59  1  0.52961000  0.53861000  0.25728000  1.0
  C  C60  1  0.61146000  0.49665000  0.97924000  1.0
  C  C61  1  0.35366000  0.47314000  0.02106000  1.0
  C  C62  1  0.46753000  0.46982000  0.91261000  1.0
  C  C63  1  0.50048000  0.49983000  0.08900000  1.0
  C  C64  1  0.45749000  0.45988000  0.82241000  1.0
  C  C65  1  0.51969000  0.52031000  0.17947000  1.0
  C  C66  1  0.41882000  0.14457000  0.46767000  1.0
  C  C67  1  0.60541000  0.86859000  0.54454000  1.0
  C  C68  1  0.52028000  0.07058000  0.50401000  1.0
  C  C69  1  0.50221000  0.94274000  0.51092000  1.0
  C  C70  1  0.07933000  0.49593000  0.51149000  1.0
  C  C71  1  0.92973000  0.48494000  0.49804000  1.0
  C  C72  1  0.69729000  0.21776000  0.02996000  1.0
  C  C73  1  0.61773000  0.09689000  0.02897000  1.0
  C  C74  1  0.67504000  0.99568000  0.97702000  1.0
  C  C75  1  0.28142000  0.75898000  0.96652000  1.0
  C  C76  1  0.19610000  0.84368000  0.90492000  1.0
  C  C77  1  0.15673000  0.95798000  0.95300000  1.0
  C  C78  1  0.20375000  0.39382000  0.10861000  1.0
  C  C79  1  0.21357000  0.25732000  0.08884000  1.0
  C  C80  1  0.16588000  0.18545000  0.15775000  1.0
  C  C81  1  0.85717000  0.53468000  0.01626000  1.0
  C  C82  1  0.89505000  0.67089000  0.02724000  1.0
  C  C83  1  0.00935000  0.70030000  0.10886000  1.0
  C  C84  1  0.86588000  0.30420000  0.66419000  1.0
  C  C85  1  0.91548000  0.32854000  0.76132000  1.0
  C  C86  1  0.84613000  0.23700000  0.80954000  1.0
  C  C87  1  0.07980000  0.70702000  0.36117000  1.0
  C  C88  1  0.93787000  0.76632000  0.34864000  1.0
  C  C89  1  0.93867000  0.89426000  0.31602000  1.0
  N  N90  1  0.14317000  0.55167000  0.46012000  1.0
  N  N91  1  0.86229000  0.43529000  0.55023000  1.0
  N  N92  1  0.74947000  0.91749000  0.57843000  1.0
  N  N93  1  0.27660000  0.09602000  0.42948000  1.0
  O  O94  1  0.56868000  0.31503000  0.49590000  1.0
  O  O95  1  0.45644000  0.69614000  0.52780000  1.0
  O  O96  1  0.33738000  0.34240000  0.43832000  1.0
  O  O97  1  0.69306000  0.67127000  0.55804000  1.0
  O  O98  1  0.60637000  0.47567000  0.64985000  1.0
  O  O99  1  0.39854000  0.56494000  0.36105000  1.0
  O  O100  1  0.37024000  0.47775000  0.59971000  1.0
  O  O101  1  0.62919000  0.51982000  0.40269000  1.0
  O  O102  1  0.65053000  0.31223000  0.08419000  1.0
  O  O103  1  0.31711000  0.65578000  0.91566000  1.0
  O  O104  1  0.22274000  0.46987000  0.03966000  1.0
  O  O105  1  0.73274000  0.50482000  0.94912000  1.0
  O  O106  1  0.82442000  0.93145000  0.52580000  1.0
  O  O107  1  0.78412000  0.94142000  0.65767000  1.0
  O  O108  1  0.19310000  0.08991000  0.47779000  1.0
  O  O109  1  0.25155000  0.06520000  0.35104000  1.0
  O  O110  1  0.94347000  0.38693000  0.62076000  1.0
  O  O111  1  0.05552000  0.58222000  0.38407000  1.0
