# generated using pymatgen
data_AlH12C27(NO4)3
_symmetry_space_group_name_H-M   'P 1'
_cell_length_a   4.11173000
_cell_length_b   27.78840000
_cell_length_c   27.80770000
_cell_angle_alpha   60.20280000
_cell_angle_beta   90.30890000
_cell_angle_gamma   90.08160000
_symmetry_Int_Tables_number   1
_chemical_formula_structural   AlH12C27(NO4)3
_chemical_formula_sum   'Al3 H36 C81 N9 O36'
_cell_volume   2757.15349481
_cell_formula_units_Z   3
loop_
 _symmetry_equiv_pos_site_id
 _symmetry_equiv_pos_as_xyz
  1  'x, y, z'
loop_
 _atom_site_type_symbol
 _atom_site_label
 _atom_site_symmetry_multiplicity
 _atom_site_fract_x
 _atom_site_fract_y
 _atom_site_fract_z
 _atom_site_occupancy
  Al  Al0  1  0.99143000  0.49958000  0.50064000  1.0
  Al  Al1  1  0.94850000  0.83239000  0.83250000  1.0
  Al  Al2  1  0.06409000  0.16638000  0.16787000  1.0
  H  H3  1  0.51259000  0.07686000  0.92237000  1.0
  H  H4  1  0.51580000  0.25507000  0.83436000  1.0
  H  H5  1  0.52296000  0.16626000  0.74429000  1.0
  H  H6  1  0.72879000  0.92699000  0.90418000  1.0
  H  H7  1  0.76542000  0.01368000  0.90777000  1.0
  H  H8  1  0.19674000  0.09700000  0.75686000  1.0
  H  H9  1  0.24625000  0.08955000  0.98248000  1.0
  H  H10  1  0.82186000  0.23761000  0.99904000  1.0
  H  H11  1  0.81383000  0.24037000  0.90907000  1.0
  H  H12  1  0.78005000  0.31567000  0.76333000  1.0
  H  H13  1  0.24133000  0.33109000  0.59675000  1.0
  H  H14  1  0.25000000  0.24048000  0.68323000  1.0
  H  H15  1  0.50740000  0.50156000  0.07707000  1.0
  H  H16  1  0.49806000  0.58940000  0.16792000  1.0
  H  H17  1  0.50140000  0.41096000  0.25511000  1.0
  H  H18  1  0.28656000  0.33415000  0.09302000  1.0
  H  H19  1  0.25232000  0.42385000  0.09066000  1.0
  H  H20  1  0.82732000  0.35562000  0.24108000  1.0
  H  H21  1  0.77733000  0.57373000  0.01903000  1.0
  H  H22  1  0.19364000  0.73724000  0.00265000  1.0
  H  H23  1  0.20005000  0.65029000  0.09241000  1.0
  H  H24  1  0.22935000  0.57715000  0.23885000  1.0
  H  H25  1  0.76698000  0.42638000  0.40487000  1.0
  H  H26  1  0.77225000  0.42381000  0.31727000  1.0
  H  H27  1  0.48597000  0.92313000  0.49818000  1.0
  H  H28  1  0.49001000  0.83239000  0.41024000  1.0
  H  H29  1  0.48851000  0.74494000  0.58855000  1.0
  H  H30  1  0.71633000  0.90639000  0.66589000  1.0
  H  H31  1  0.73806000  0.90963000  0.57574000  1.0
  H  H32  1  0.17197000  0.75869000  0.64429000  1.0
  H  H33  1  0.22462000  0.98245000  0.42529000  1.0
  H  H34  1  0.81530000  0.99659000  0.26360000  1.0
  H  H35  1  0.79386000  0.90658000  0.35026000  1.0
  H  H36  1  0.75844000  0.76200000  0.42218000  1.0
  H  H37  1  0.23401000  0.59484000  0.57261000  1.0
  H  H38  1  0.22675000  0.68200000  0.57601000  1.0
  C  C39  1  0.49225000  0.57368000  0.49830000  1.0
  C  C40  1  0.49368000  0.42718000  0.57537000  1.0
  C  C41  1  0.49228000  0.49818000  0.42794000  1.0
  C  C42  1  0.44336000  0.90818000  0.82891000  1.0
  C  C43  1  0.45879000  0.75909000  0.90605000  1.0
  C  C44  1  0.44295000  0.82950000  0.76093000  1.0
  C  C45  1  0.55724000  0.16348000  0.09530000  1.0
  C  C46  1  0.57111000  0.23964000  0.16849000  1.0
  C  C47  1  0.56042000  0.09456000  0.24179000  1.0
  C  C48  1  0.52467000  0.16600000  0.88443000  1.0
  C  C49  1  0.51503000  0.11606000  0.88339000  1.0
  C  C50  1  0.50573000  0.11557000  0.83328000  1.0
  C  C51  1  0.51411000  0.16632000  0.78344000  1.0
  C  C52  1  0.52195000  0.21695000  0.78306000  1.0
  C  C53  1  0.52478000  0.21606000  0.83398000  1.0
  C  C54  1  0.61104000  0.96448000  0.87211000  1.0
  C  C55  1  0.62954000  0.01349000  0.87410000  1.0
  C  C56  1  0.48607000  0.06277000  0.83257000  1.0
  C  C57  1  0.32057000  0.06082000  0.78948000  1.0
  C  C58  1  0.30685000  0.01183000  0.78758000  1.0
  C  C59  1  0.45086000  0.96270000  0.82839000  1.0
  C  C60  1  0.37903000  0.12239000  0.98451000  1.0
  C  C61  1  0.39217000  0.12070000  0.03525000  1.0
  C  C62  1  0.54762000  0.16187000  0.04190000  1.0
  C  C63  1  0.69450000  0.20534000  0.99500000  1.0
  C  C64  1  0.68732000  0.20695000  0.94416000  1.0
  C  C65  1  0.52921000  0.16543000  0.93790000  1.0
  C  C66  1  0.66465000  0.31750000  0.72712000  1.0
  C  C67  1  0.66236000  0.36792000  0.67787000  1.0
  C  C68  1  0.51492000  0.37397000  0.62946000  1.0
  C  C69  1  0.36796000  0.32655000  0.63330000  1.0
  C  C70  1  0.37392000  0.27574000  0.68203000  1.0
  C  C71  1  0.52315000  0.27015000  0.73019000  1.0
  C  C72  1  0.49318000  0.55156000  0.11656000  1.0
  C  C73  1  0.50470000  0.50115000  0.11646000  1.0
  C  C74  1  0.51568000  0.45034000  0.16597000  1.0
  C  C75  1  0.50820000  0.45037000  0.21638000  1.0
  C  C76  1  0.49718000  0.50004000  0.21781000  1.0
  C  C77  1  0.49190000  0.55039000  0.16748000  1.0
  C  C78  1  0.40741000  0.33935000  0.12513000  1.0
  C  C79  1  0.39010000  0.39005000  0.12381000  1.0
  C  C80  1  0.53574000  0.39746000  0.16556000  1.0
  C  C81  1  0.70223000  0.35250000  0.20816000  1.0
  C  C82  1  0.71344000  0.30201000  0.20945000  1.0
  C  C83  1  0.56787000  0.29391000  0.16846000  1.0
  C  C84  1  0.64311000  0.60833000  0.01716000  1.0
  C  C85  1  0.62986000  0.65708000  0.96661000  1.0
  C  C86  1  0.47239000  0.70468000  0.95983000  1.0
  C  C87  1  0.32370000  0.70124000  0.00668000  1.0
  C  C88  1  0.32989000  0.65212000  0.05746000  1.0
  C  C89  1  0.48958000  0.60463000  0.06363000  1.0
  C  C90  1  0.34438000  0.54283000  0.27496000  1.0
  C  C91  1  0.33848000  0.54325000  0.32467000  1.0
  C  C92  1  0.48417000  0.50067000  0.37301000  1.0
  C  C93  1  0.64014000  0.45822000  0.36841000  1.0
  C  C94  1  0.64233000  0.45700000  0.31910000  1.0
  C  C95  1  0.49254000  0.49947000  0.27120000  1.0
  C  C96  1  0.49785000  0.88365000  0.44815000  1.0
  C  C97  1  0.48666000  0.88372000  0.49855000  1.0
  C  C98  1  0.47505000  0.83418000  0.54930000  1.0
  C  C99  1  0.48108000  0.78374000  0.54920000  1.0
  C  C100  1  0.49145000  0.78233000  0.49955000  1.0
  C  C101  1  0.49658000  0.83273000  0.44926000  1.0
  C  C102  1  0.59731000  0.87409000  0.66081000  1.0
  C  C103  1  0.60650000  0.87597000  0.60981000  1.0
  C  C104  1  0.45982000  0.83437000  0.60231000  1.0
  C  C105  1  0.29878000  0.79140000  0.64745000  1.0
  C  C106  1  0.29618000  0.78945000  0.69825000  1.0
  C  C107  1  0.44458000  0.83012000  0.70647000  1.0
  C  C108  1  0.36133000  0.98386000  0.39122000  1.0
  C  C109  1  0.38434000  0.03451000  0.34281000  1.0
  C  C110  1  0.54568000  0.04069000  0.29588000  1.0
  C  C111  1  0.68664000  0.99317000  0.29936000  1.0
  C  C112  1  0.67067000  0.94225000  0.34827000  1.0
  C  C113  1  0.50858000  0.93668000  0.39521000  1.0
  C  C114  1  0.64552000  0.72570000  0.45629000  1.0
  C  C115  1  0.65188000  0.67622000  0.45535000  1.0
  C  C116  1  0.50809000  0.62773000  0.49755000  1.0
  C  C117  1  0.35641000  0.63160000  0.54066000  1.0
  C  C118  1  0.35373000  0.68071000  0.54237000  1.0
  C  C119  1  0.49863000  0.72897000  0.49993000  1.0
  N  N120  1  0.13696000  0.01345000  0.73993000  1.0
  N  N121  1  0.23921000  0.07278000  0.08293000  1.0
  N  N122  1  0.80037000  0.41482000  0.68290000  1.0
  N  N123  1  0.87655000  0.25557000  0.25731000  1.0
  N  N124  1  0.77882000  0.65644000  0.91879000  1.0
  N  N125  1  0.19035000  0.59449000  0.31972000  1.0
  N  N126  1  0.13865000  0.74139000  0.74486000  1.0
  N  N127  1  0.24137000  0.08304000  0.34290000  1.0
  N  N128  1  0.79732000  0.68133000  0.40406000  1.0
  O  O129  1  0.72873000  0.47223000  0.46062000  1.0
  O  O130  1  0.71910000  0.56262000  0.47446000  1.0
  O  O131  1  0.72121000  0.46196000  0.56414000  1.0
  O  O132  1  0.25896000  0.52118000  0.43852000  1.0
  O  O133  1  0.25052000  0.43292000  0.54432000  1.0
  O  O134  1  0.25275000  0.54197000  0.52376000  1.0
  O  O135  1  0.68606000  0.80817000  0.79260000  1.0
  O  O136  1  0.68344000  0.89779000  0.80735000  1.0
  O  O137  1  0.68760000  0.79333000  0.89805000  1.0
  O  O138  1  0.20836000  0.85480000  0.76845000  1.0
  O  O139  1  0.21015000  0.76818000  0.87591000  1.0
  O  O140  1  0.20921000  0.87586000  0.85516000  1.0
  O  O141  1  0.80809000  0.12494000  0.23227000  1.0
  O  O142  1  0.80334000  0.14234000  0.12618000  1.0
  O  O143  1  0.80340000  0.23210000  0.14269000  1.0
  O  O144  1  0.32948000  0.10268000  0.20794000  1.0
  O  O145  1  0.32818000  0.20849000  0.18979000  1.0
  O  O146  1  0.32660000  0.19006000  0.10196000  1.0
  O  O147  1  0.18374000  0.97424000  0.73166000  1.0
  O  O148  1  0.95973000  0.05404000  0.71114000  1.0
  O  O149  1  0.31399000  0.06418000  0.12964000  1.0
  O  O150  1  0.04831000  0.04403000  0.07311000  1.0
  O  O151  1  0.04640000  0.43845000  0.65670000  1.0
  O  O152  1  0.65826000  0.42489000  0.71609000  1.0
  O  O153  1  0.82110000  0.20880000  0.26472000  1.0
  O  O154  1  0.05302000  0.26655000  0.28697000  1.0
  O  O155  1  0.69846000  0.69412000  0.87258000  1.0
  O  O156  1  0.96782000  0.61783000  0.92830000  1.0
  O  O157  1  0.94124000  0.59062000  0.34574000  1.0
  O  O158  1  0.32570000  0.63822000  0.28632000  1.0
  O  O159  1  0.20265000  0.73330000  0.79168000  1.0
  O  O160  1  0.95763000  0.71211000  0.73414000  1.0
  O  O161  1  0.32975000  0.12892000  0.30569000  1.0
  O  O162  1  0.04917000  0.07464000  0.38056000  1.0
  O  O163  1  0.04741000  0.65535000  0.40781000  1.0
  O  O164  1  0.65918000  0.71463000  0.36039000  1.0
