# generated using pymatgen
data_AgH9C10(NO)2
_symmetry_space_group_name_H-M   'P 1'
_cell_length_a   9.07120000
_cell_length_b   10.44730000
_cell_length_c   11.00660000
_cell_angle_alpha   90.00000000
_cell_angle_beta   112.32300000
_cell_angle_gamma   89.99990000
_symmetry_Int_Tables_number   1
_chemical_formula_structural   AgH9C10(NO)2
_chemical_formula_sum   'Ag4 H36 C40 N8 O8'
_cell_volume   964.91850689
_cell_formula_units_Z   4
loop_
 _symmetry_equiv_pos_site_id
 _symmetry_equiv_pos_as_xyz
  1  'x, y, z'
loop_
 _atom_site_type_symbol
 _atom_site_label
 _atom_site_symmetry_multiplicity
 _atom_site_fract_x
 _atom_site_fract_y
 _atom_site_fract_z
 _atom_site_occupancy
  Ag  Ag0  1  0.34144000  0.61780000  0.42574000  1.0
  Ag  Ag1  1  0.34144000  0.88220000  0.92574000  1.0
  Ag  Ag2  1  0.65856000  0.38220000  0.57427000  1.0
  Ag  Ag3  1  0.65856000  0.11780000  0.07427000  1.0
  H  H4  1  0.09373000  0.42236000  0.25820000  1.0
  H  H5  1  0.09373000  0.07764000  0.75820000  1.0
  H  H6  1  0.90629000  0.57764000  0.74180000  1.0
  H  H7  1  0.90628000  0.92236000  0.24180000  1.0
  H  H8  1  0.92084000  0.25274000  0.29015000  1.0
  H  H9  1  0.92084000  0.24726000  0.79015000  1.0
  H  H10  1  0.07917000  0.74726000  0.70985000  1.0
  H  H11  1  0.07917000  0.75274000  0.20985000  1.0
  H  H12  1  0.13365000  0.33041000  0.70737000  1.0
  H  H13  1  0.13365000  0.16959000  0.20737000  1.0
  H  H14  1  0.86634000  0.66959000  0.29262000  1.0
  H  H15  1  0.86634000  0.83041000  0.79262000  1.0
  H  H16  1  0.29985000  0.49616000  0.65868000  1.0
  H  H17  1  0.29985000  0.00383000  0.15868000  1.0
  H  H18  1  0.70014000  0.50383000  0.34133000  1.0
  H  H19  1  0.70014000  0.99617000  0.84133000  1.0
  H  H20  1  0.40371000  0.31054000  0.89316000  1.0
  H  H21  1  0.40371000  0.18946000  0.39316000  1.0
  H  H22  1  0.59630000  0.68946000  0.10684000  1.0
  H  H23  1  0.59630000  0.81054000  0.60684000  1.0
  H  H24  1  0.23521000  0.48566000  0.92070000  1.0
  H  H25  1  0.23521000  0.01434000  0.42070000  1.0
  H  H26  1  0.76479000  0.51434000  0.07930000  1.0
  H  H27  1  0.76479000  0.98566000  0.57930000  1.0
  H  H28  1  0.44279000  0.41294000  0.33917000  1.0
  H  H29  1  0.44279000  0.08706000  0.83917000  1.0
  H  H30  1  0.55721000  0.58706000  0.66083000  1.0
  H  H31  1  0.55721000  0.91294000  0.16083000  1.0
  H  H32  1  0.60574000  0.24183000  0.29421000  1.0
  H  H33  1  0.60574000  0.25817000  0.79421000  1.0
  H  H34  1  0.39426000  0.75817000  0.70579000  1.0
  H  H35  1  0.39426000  0.74183000  0.20579000  1.0
  H  H36  1  0.85443000  0.13071000  0.44863000  1.0
  H  H37  1  0.85443000  0.36929000  0.94863000  1.0
  H  H38  1  0.14557000  0.86928000  0.55137000  1.0
  H  H39  1  0.14557000  0.63072000  0.05137000  1.0
  C  C40  1  0.10014000  0.39841000  0.35659000  1.0
  C  C41  1  0.10014000  0.10159000  0.85659000  1.0
  C  C42  1  0.89987000  0.60159000  0.64342000  1.0
  C  C43  1  0.89987000  0.89841000  0.14342000  1.0
  C  C44  1  0.00376000  0.30373000  0.37509000  1.0
  C  C45  1  0.00375000  0.19627000  0.87509000  1.0
  C  C46  1  0.99625000  0.69626000  0.62491000  1.0
  C  C47  1  0.99625000  0.80374000  0.12491000  1.0
  C  C48  1  0.01326000  0.27581000  0.50363000  1.0
  C  C49  1  0.01326000  0.22419000  0.00363000  1.0
  C  C50  1  0.98674000  0.72419000  0.49637000  1.0
  C  C51  1  0.98674000  0.77581000  0.99637000  1.0
  C  C52  1  0.12289000  0.34784000  0.60687000  1.0
  C  C53  1  0.12289000  0.15216000  0.10687000  1.0
  C  C54  1  0.87710000  0.65216000  0.39313000  1.0
  C  C55  1  0.87710000  0.84784000  0.89313000  1.0
  C  C56  1  0.21440000  0.44016000  0.57976000  1.0
  C  C57  1  0.21439000  0.05984000  0.07976000  1.0
  C  C58  1  0.78560000  0.55984000  0.42025000  1.0
  C  C59  1  0.78560000  0.94016000  0.92025000  1.0
  C  C60  1  0.40965000  0.33653000  0.99078000  1.0
  C  C61  1  0.40965000  0.16347000  0.49078000  1.0
  C  C62  1  0.59035000  0.66347000  0.00921000  1.0
  C  C63  1  0.59035000  0.83653000  0.50922000  1.0
  C  C64  1  0.31517000  0.43382000  0.00632000  1.0
  C  C65  1  0.31517000  0.06618000  0.50632000  1.0
  C  C66  1  0.68483000  0.56618000  0.99368000  1.0
  C  C67  1  0.68483000  0.93382000  0.49368000  1.0
  C  C68  1  0.32267000  0.46699000  0.13405000  1.0
  C  C69  1  0.32267000  0.03301000  0.63405000  1.0
  C  C70  1  0.67733000  0.53301000  0.86595000  1.0
  C  C71  1  0.67733000  0.96699000  0.36595000  1.0
  C  C72  1  0.43100000  0.39313000  0.23827000  1.0
  C  C73  1  0.43100000  0.10687000  0.73827000  1.0
  C  C74  1  0.56900000  0.60687000  0.76173000  1.0
  C  C75  1  0.56900000  0.89313000  0.26173000  1.0
  C  C76  1  0.52184000  0.29829000  0.21427000  1.0
  C  C77  1  0.52184000  0.20171000  0.71427000  1.0
  C  C78  1  0.47816000  0.70171000  0.78573000  1.0
  C  C79  1  0.47816000  0.79829000  0.28573000  1.0
  N  N80  1  0.20517000  0.46684000  0.45662000  1.0
  N  N81  1  0.20517000  0.03316000  0.95662000  1.0
  N  N82  1  0.79483000  0.53316000  0.54338000  1.0
  N  N83  1  0.79483000  0.96684000  0.04338000  1.0
  N  N84  1  0.51347000  0.26815000  0.09200000  1.0
  N  N85  1  0.51347000  0.23185000  0.59200000  1.0
  N  N86  1  0.48654000  0.73186000  0.90801000  1.0
  N  N87  1  0.48654000  0.76815000  0.40801000  1.0
  O  O88  1  0.92568000  0.18845000  0.53238000  1.0
  O  O89  1  0.92568000  0.31154000  0.03238000  1.0
  O  O90  1  0.07431000  0.81154000  0.46762000  1.0
  O  O91  1  0.07432000  0.68846000  0.96762000  1.0
  O  O92  1  0.23850000  0.55784000  0.15732000  1.0
  O  O93  1  0.23850000  0.94216000  0.65732000  1.0
  O  O94  1  0.76149000  0.44216000  0.84268000  1.0
  O  O95  1  0.76149000  0.05784000  0.34268000  1.0
