# generated using pymatgen
data_CuH24C22N7O4
_symmetry_space_group_name_H-M   'P 1'
_cell_length_a   8.06528000
_cell_length_b   9.86115000
_cell_length_c   14.85000000
_cell_angle_alpha   82.76810000
_cell_angle_beta   76.98430000
_cell_angle_gamma   89.21040000
_symmetry_Int_Tables_number   1
_chemical_formula_structural   CuH24C22N7O4
_chemical_formula_sum   'Cu2 H48 C44 N14 O8'
_cell_volume   1141.43668204
_cell_formula_units_Z   2
loop_
 _symmetry_equiv_pos_site_id
 _symmetry_equiv_pos_as_xyz
  1  'x, y, z'
loop_
 _atom_site_type_symbol
 _atom_site_label
 _atom_site_symmetry_multiplicity
 _atom_site_fract_x
 _atom_site_fract_y
 _atom_site_fract_z
 _atom_site_occupancy
  Cu  Cu0  1  0.67365000  0.78682000  0.72903000  1.0
  Cu  Cu1  1  0.32637000  0.21318000  0.27096000  1.0
  H  H2  1  0.10529000  0.57865000  0.73878000  1.0
  H  H3  1  0.89473000  0.42137000  0.26120000  1.0
  H  H4  1  0.09716000  0.67221000  0.57411000  1.0
  H  H5  1  0.90287000  0.32780000  0.42587000  1.0
  H  H6  1  0.34952000  0.80942000  0.47575000  1.0
  H  H7  1  0.65051000  0.19058000  0.52423000  1.0
  H  H8  1  0.76222000  0.49995000  0.84264000  1.0
  H  H9  1  0.23778000  0.50005000  0.15736000  1.0
  H  H10  1  0.79352000  0.60107000  0.55485000  1.0
  H  H11  1  0.20650000  0.39893000  0.44515000  1.0
  H  H12  1  0.90873000  0.33377000  0.58777000  1.0
  H  H13  1  0.09128000  0.66623000  0.41222000  1.0
  H  H14  1  0.51431000  0.06861000  0.63851000  1.0
  H  H15  1  0.48570000  0.93141000  0.36149000  1.0
  H  H16  1  0.57872000  0.95450000  0.91236000  1.0
  H  H17  1  0.42129000  0.04546000  0.08763000  1.0
  H  H18  1  0.45250000  0.22123000  0.89740000  1.0
  H  H19  1  0.54747000  0.77873000  0.10262000  1.0
  H  H20  1  0.90130000  0.17337000  0.73771000  1.0
  H  H21  1  0.09870000  0.82663000  0.26229000  1.0
  H  H22  1  0.81900000  0.23591000  0.84509000  1.0
  H  H23  1  0.18097000  0.76408000  0.15491000  1.0
  H  H24  1  0.09718000  0.36109000  0.83117000  1.0
  H  H25  1  0.90279000  0.63891000  0.16884000  1.0
  H  H26  1  0.11647000  0.18169000  0.83474000  1.0
  H  H27  1  0.88350000  0.81830000  0.16527000  1.0
  H  H28  1  0.20098000  0.38684000  0.65701000  1.0
  H  H29  1  0.79901000  0.61316000  0.34301000  1.0
  H  H30  1  0.22276000  0.20851000  0.65940000  1.0
  H  H31  1  0.77723000  0.79149000  0.34062000  1.0
  H  H32  1  0.49422000  0.34206000  0.64882000  1.0
  H  H33  1  0.50575000  0.65795000  0.35121000  1.0
  H  H34  1  0.40860000  0.38524000  0.76276000  1.0
  H  H35  1  0.59137000  0.61474000  0.23728000  1.0
  H  H36  1  0.81405000  0.71711000  0.91594000  1.0
  H  H37  1  0.18594000  0.28289000  0.08405000  1.0
  H  H38  1  0.02333000  0.95574000  0.65888000  1.0
  H  H39  1  0.97669000  0.04426000  0.34112000  1.0
  H  H40  1  0.23901000  0.97010000  0.77973000  1.0
  H  H41  1  0.76099000  0.02990000  0.22028000  1.0
  H  H42  1  0.23516000  0.79436000  0.94611000  1.0
  H  H43  1  0.76482000  0.20564000  0.05389000  1.0
  H  H44  1  0.02350000  0.75211000  0.00807000  1.0
  H  H45  1  0.97648000  0.24788000  0.99193000  1.0
  H  H46  1  0.12381000  0.95646000  0.06326000  1.0
  H  H47  1  0.87616000  0.04352000  0.93675000  1.0
  H  H48  1  0.18432000  0.04021000  0.94906000  1.0
  H  H49  1  0.81565000  0.95978000  0.05096000  1.0
  C  C50  1  0.35706000  0.62034000  0.83102000  1.0
  C  C51  1  0.64295000  0.37968000  0.16897000  1.0
  C  C52  1  0.34858000  0.66889000  0.72944000  1.0
  C  C53  1  0.65144000  0.33113000  0.27054000  1.0
  C  C54  1  0.21065000  0.63803000  0.69309000  1.0
  C  C55  1  0.78937000  0.36199000  0.30689000  1.0
  C  C56  1  0.20837000  0.68955000  0.60152000  1.0
  C  C57  1  0.79165000  0.31045000  0.39846000  1.0
  C  C58  1  0.34694000  0.76600000  0.54701000  1.0
  C  C59  1  0.65310000  0.23401000  0.45297000  1.0
  C  C60  1  0.48410000  0.79117000  0.58587000  1.0
  C  C61  1  0.51593000  0.20884000  0.41411000  1.0
  C  C62  1  0.64700000  0.86728000  0.53025000  1.0
  C  C63  1  0.35303000  0.13273000  0.46973000  1.0
  C  C64  1  0.78794000  0.49396000  0.76835000  1.0
  C  C65  1  0.21206000  0.50604000  0.23165000  1.0
  C  C66  1  0.80532000  0.54068000  0.61926000  1.0
  C  C67  1  0.19469000  0.45932000  0.38074000  1.0
  C  C68  1  0.86209000  0.40920000  0.63422000  1.0
  C  C69  1  0.13791000  0.59081000  0.36578000  1.0
  C  C70  1  0.52478000  0.07251000  0.70997000  1.0
  C  C71  1  0.47522000  0.92749000  0.29004000  1.0
  C  C72  1  0.54925000  0.01803000  0.85316000  1.0
  C  C73  1  0.45075000  0.98194000  0.14684000  1.0
  C  C74  1  0.48549000  0.14860000  0.84730000  1.0
  C  C75  1  0.51448000  0.85137000  0.15271000  1.0
  C  C76  1  0.90984000  0.25836000  0.77778000  1.0
  C  C77  1  0.09014000  0.74164000  0.22222000  1.0
  C  C78  1  0.09025000  0.27490000  0.79146000  1.0
  C  C79  1  0.90972000  0.72510000  0.20855000  1.0
  C  C80  1  0.22547000  0.29342000  0.70063000  1.0
  C  C81  1  0.77452000  0.70658000  0.29939000  1.0
  C  C82  1  0.40541000  0.30885000  0.71546000  1.0
  C  C83  1  0.59458000  0.69114000  0.28456000  1.0
  C  C84  1  0.89804000  0.78433000  0.86179000  1.0
  C  C85  1  0.10195000  0.21567000  0.13821000  1.0
  C  C86  1  0.00908000  0.91155000  0.73097000  1.0
  C  C87  1  0.99094000  0.08845000  0.26902000  1.0
  C  C88  1  0.11668000  0.91979000  0.78999000  1.0
  C  C89  1  0.88332000  0.08021000  0.21001000  1.0
  C  C90  1  0.10330000  0.83048000  0.95883000  1.0
  C  C91  1  0.89667000  0.16951000  0.04118000  1.0
  C  C92  1  0.08852000  0.96937000  0.99536000  1.0
  C  C93  1  0.91145000  0.03062000  0.00465000  1.0
  N  N94  1  0.47884000  0.74555000  0.67560000  1.0
  N  N95  1  0.52119000  0.25446000  0.32439000  1.0
  N  N96  1  0.85038000  0.38122000  0.72896000  1.0
  N  N97  1  0.14961000  0.61878000  0.27104000  1.0
  N  N98  1  0.76084000  0.59228000  0.70342000  1.0
  N  N99  1  0.23917000  0.40772000  0.29658000  1.0
  N  N100  1  0.47066000  0.18131000  0.75620000  1.0
  N  N101  1  0.52932000  0.81867000  0.24381000  1.0
  N  N102  1  0.57317000  0.97238000  0.76711000  1.0
  N  N103  1  0.42685000  0.02761000  0.23288000  1.0
  N  N104  1  0.04523000  0.83870000  0.87197000  1.0
  N  N105  1  0.95476000  0.16130000  0.12803000  1.0
  N  N106  1  0.87372000  0.82650000  0.77692000  1.0
  N  N107  1  0.12630000  0.17350000  0.22307000  1.0
  O  O108  1  0.47205000  0.67648000  0.86073000  1.0
  O  O109  1  0.52796000  0.32355000  0.13925000  1.0
  O  O110  1  0.24851000  0.53078000  0.87468000  1.0
  O  O111  1  0.75149000  0.46924000  0.12531000  1.0
  O  O112  1  0.76320000  0.87874000  0.57427000  1.0
  O  O113  1  0.23684000  0.12124000  0.42572000  1.0
  O  O114  1  0.65230000  0.90874000  0.44583000  1.0
  O  O115  1  0.34771000  0.09131000  0.55416000  1.0
