# generated using pymatgen
data_Al3H43C51O14
_symmetry_space_group_name_H-M   'P 1'
_cell_length_a   13.60110000
_cell_length_b   13.66650000
_cell_length_c   27.48770000
_cell_angle_alpha   89.49020000
_cell_angle_beta   89.92230000
_cell_angle_gamma   60.22530000
_symmetry_Int_Tables_number   1
_chemical_formula_structural   Al3H43C51O14
_chemical_formula_sum   'Al6 H86 C102 O28'
_cell_volume   4434.67681497
_cell_formula_units_Z   2
loop_
 _symmetry_equiv_pos_site_id
 _symmetry_equiv_pos_as_xyz
  1  'x, y, z'
loop_
 _atom_site_type_symbol
 _atom_site_label
 _atom_site_symmetry_multiplicity
 _atom_site_fract_x
 _atom_site_fract_y
 _atom_site_fract_z
 _atom_site_occupancy
  Al  Al0  1  0.41603000  0.16947000  0.49158000  1.0
  Al  Al1  1  0.43127000  0.92727000  0.49838000  1.0
  Al  Al2  1  0.64750000  0.93403000  0.49296000  1.0
  Al  Al3  1  0.92335000  0.17446000  0.97721000  1.0
  Al  Al4  1  0.69032000  0.40873000  0.97801000  1.0
  Al  Al5  1  0.90661000  0.41578000  0.98223000  1.0
  H  H6  1  0.13880000  0.01845000  0.28114000  1.0
  H  H7  1  0.01911000  0.44842000  0.16608000  1.0
  H  H8  1  0.25886000  0.35455000  0.20885000  1.0
  H  H9  1  0.22407000  0.31369000  0.15377000  1.0
  H  H10  1  0.09627000  0.05884000  0.19212000  1.0
  H  H11  1  0.59570000  0.63060000  0.60741000  1.0
  H  H12  1  0.02018000  0.49099000  0.80176000  1.0
  H  H13  1  0.05736000  0.58292000  0.77117000  1.0
  H  H14  1  0.98548000  0.62307000  0.82736000  1.0
  H  H15  1  0.88942000  0.59097000  0.73066000  1.0
  H  H16  1  0.85895000  0.72087000  0.75440000  1.0
  H  H17  1  0.87328000  0.57619000  0.86001000  1.0
  H  H18  1  0.62924000  0.57290000  0.69436000  1.0
  H  H19  1  0.38640000  0.88837000  0.78942000  1.0
  H  H20  1  0.44617000  0.85453000  0.73016000  1.0
  H  H21  1  0.31905000  0.85360000  0.74269000  1.0
  H  H22  1  0.48124000  0.65770000  0.74022000  1.0
  H  H23  1  0.42199000  0.68879000  0.79869000  1.0
  H  H24  1  0.53039000  0.64570000  0.86454000  1.0
  H  H25  1  0.69242000  0.84549000  0.72443000  1.0
  H  H26  1  0.48811000  0.75127000  0.18589000  1.0
  H  H27  1  0.67916000  0.89005000  0.63649000  1.0
  H  H28  1  0.83718000  0.06484000  0.69605000  1.0
  H  H29  1  0.79038000  0.20331000  0.56767000  1.0
  H  H30  1  0.87095000  0.17984000  0.62171000  1.0
  H  H31  1  0.94001000  0.11413000  0.56660000  1.0
  H  H32  1  0.92431000  0.97504000  0.62143000  1.0
  H  H33  1  0.84507000  0.99701000  0.56742000  1.0
  H  H34  1  0.68880000  0.40579000  0.73045000  1.0
  H  H35  1  0.71063000  0.29504000  0.69097000  1.0
  H  H36  1  0.60334000  0.43452000  0.67696000  1.0
  H  H37  1  0.51556000  0.32820000  0.71113000  1.0
  H  H38  1  0.49474000  0.43529000  0.75129000  1.0
  H  H39  1  0.48615000  0.17233000  0.71924000  1.0
  H  H40  1  0.39544000  0.45813000  0.81942000  1.0
  H  H41  1  0.43900000  0.42444000  0.88112000  1.0
  H  H42  1  0.39916000  0.56067000  0.85753000  1.0
  H  H43  1  0.60834000  0.44581000  0.86417000  1.0
  H  H44  1  0.56952000  0.47619000  0.80285000  1.0
  H  H45  1  0.97382000  0.91895000  0.79823000  1.0
  H  H46  1  0.92582000  0.87619000  0.84977000  1.0
  H  H47  1  0.96729000  0.79248000  0.79687000  1.0
  H  H48  1  0.75296000  0.90854000  0.80480000  1.0
  H  H49  1  0.80455000  0.93305000  0.75006000  1.0
  H  H50  1  0.43134000  0.98376000  0.64503000  1.0
  H  H51  1  0.81173000  0.04755000  0.87275000  1.0
  H  H52  1  0.46260000  0.16062000  0.63054000  1.0
  H  H53  1  0.84894000  0.53980000  0.20540000  1.0
  H  H54  1  0.91533000  0.14109000  0.77573000  1.0
  H  H55  1  0.95375000  0.17293000  0.71827000  1.0
  H  H56  1  0.96490000  0.03928000  0.72886000  1.0
  H  H57  1  0.15523000  0.02178000  0.73172000  1.0
  H  H58  1  0.11839000  0.98432000  0.78761000  1.0
  H  H59  1  0.03664000  0.12780000  0.85451000  1.0
  H  H60  1  0.38440000  0.03542000  0.73169000  1.0
  H  H61  1  0.09904000  0.24854000  0.60285000  1.0
  H  H62  1  0.25995000  0.31852000  0.69796000  1.0
  H  H63  1  0.16812000  0.43579000  0.73352000  1.0
  H  H64  1  0.31103000  0.40161000  0.72524000  1.0
  H  H65  1  0.31125000  0.33488000  0.80519000  1.0
  H  H66  1  0.37171000  0.21408000  0.76998000  1.0
  H  H67  1  0.31153000  0.21947000  0.92650000  1.0
  H  H68  1  0.38443000  0.23791000  0.87687000  1.0
  H  H69  1  0.33654000  0.33531000  0.92563000  1.0
  H  H70  1  0.20485000  0.42020000  0.85432000  1.0
  H  H71  1  0.13518000  0.40034000  0.90388000  1.0
  H  H72  1  0.46769000  0.79677000  0.27413000  1.0
  H  H73  1  0.04723000  0.28843000  0.69035000  1.0
  H  H74  1  0.82873000  0.58534000  0.29352000  1.0
  H  H75  1  0.71825000  0.97346000  0.26520000  1.0
  H  H76  1  0.83961000  0.82787000  0.21297000  1.0
  H  H77  1  0.69600000  0.86235000  0.20608000  1.0
  H  H78  1  0.79360000  0.79523000  0.15826000  1.0
  H  H79  1  0.67313000  0.99736000  0.13714000  1.0
  H  H80  1  0.81352000  0.96459000  0.14409000  1.0
  H  H81  1  0.61606000  0.35185000  0.19883000  1.0
  H  H82  1  0.60259000  0.32537000  0.28829000  1.0
  H  H83  1  0.04849000  0.48961000  0.22327000  1.0
  H  H84  1  0.40438000  0.15856000  0.31567000  1.0
  H  H85  1  0.40431000  0.23749000  0.26390000  1.0
  H  H86  1  0.39301000  0.29210000  0.32362000  1.0
  H  H87  1  0.20222000  0.38624000  0.28297000  1.0
  H  H88  1  0.20504000  0.30811000  0.33488000  1.0
  H  H89  1  0.09750000  0.52022000  0.16827000  1.0
  H  H90  1  0.29489000  0.35511000  0.51652000  1.0
  H  H91  1  0.06363000  0.99343000  0.95450000  1.0
  C  C92  1  0.29574000  0.08507000  0.42869000  1.0
  C  C93  1  0.69672000  0.05547000  0.24985000  1.0
  C  C94  1  0.76887000  0.85855000  0.18694000  1.0
  C  C95  1  0.23775000  0.30023000  0.29769000  1.0
  C  C96  1  0.36743000  0.24396000  0.30016000  1.0
  C  C97  1  0.70363000  0.06843000  0.19993000  1.0
  C  C98  1  0.59955000  0.79557000  0.43011000  1.0
  C  C99  1  0.63810000  0.26934000  0.21386000  1.0
  C  C100  1  0.63115000  0.25482000  0.26343000  1.0
  C  C101  1  0.66096000  0.14710000  0.28189000  1.0
  C  C102  1  0.67441000  0.17753000  0.18193000  1.0
  C  C103  1  0.68423000  0.19533000  0.13189000  1.0
  C  C104  1  0.65147000  0.13061000  0.33208000  1.0
  C  C105  1  0.69528000  0.21240000  0.08915000  1.0
  C  C106  1  0.76585000  0.59585000  0.22067000  1.0
  C  C107  1  0.24092000  0.10224000  0.38231000  1.0
  C  C108  1  0.19852000  0.23447000  0.26742000  1.0
  C  C109  1  0.17808000  0.25449000  0.21721000  1.0
  C  C110  1  0.61394000  0.09070000  0.42245000  1.0
  C  C111  1  0.12578000  0.10582000  0.21366000  1.0
  C  C112  1  0.14866000  0.08402000  0.26275000  1.0
  C  C113  1  0.18517000  0.14739000  0.28982000  1.0
  C  C114  1  0.14035000  0.19055000  0.19068000  1.0
  C  C115  1  0.11353000  0.21168000  0.14061000  1.0
  C  C116  1  0.21238000  0.12208000  0.33967000  1.0
  C  C117  1  0.75461000  0.62120000  0.26980000  1.0
  C  C118  1  0.08572000  0.22808000  0.09785000  1.0
  C  C119  1  0.63646000  0.76327000  0.61624000  1.0
  C  C120  1  0.61989000  0.67552000  0.63302000  1.0
  C  C121  1  0.63653000  0.64487000  0.68207000  1.0
  C  C122  1  0.30628000  0.08777000  0.56683000  1.0
  C  C123  1  0.66219000  0.70521000  0.71610000  1.0
  C  C124  1  0.67548000  0.79510000  0.69886000  1.0
  C  C125  1  0.66649000  0.82155000  0.64946000  1.0
  C  C126  1  0.77979000  0.64103000  0.79264000  1.0
  C  C127  1  0.79227000  0.60806000  0.84151000  1.0
  C  C128  1  0.64690000  0.69387000  0.28971000  1.0
  C  C129  1  0.59930000  0.64544000  0.84418000  1.0
  C  C130  1  0.58399000  0.67638000  0.79505000  1.0
  C  C131  1  0.67487000  0.67458000  0.76888000  1.0
  C  C132  1  0.70317000  0.60895000  0.86739000  1.0
  C  C133  1  0.63718000  0.10208000  0.61334000  1.0
  C  C134  1  0.61543000  0.80300000  0.56477000  1.0
  C  C135  1  0.74579000  0.07068000  0.63181000  1.0
  C  C136  1  0.75529000  0.08238000  0.68191000  1.0
  C  C137  1  0.66389000  0.12131000  0.71406000  1.0
  C  C138  1  0.55872000  0.14426000  0.69516000  1.0
  C  C139  1  0.66990000  0.64255000  0.18980000  1.0
  C  C140  1  0.54541000  0.13755000  0.64555000  1.0
  C  C141  1  0.61883000  0.26823000  0.77622000  1.0
  C  C142  1  0.62871000  0.30421000  0.82309000  1.0
  C  C143  1  0.75572000  0.10747000  0.84538000  1.0
  C  C144  1  0.74267000  0.07012000  0.80009000  1.0
  C  C145  1  0.67453000  0.15194000  0.76497000  1.0
  C  C146  1  0.60973000  0.09496000  0.56151000  1.0
  C  C147  1  0.70011000  0.22198000  0.85735000  1.0
  C  C148  1  0.26817000  0.11310000  0.61846000  1.0
  C  C149  1  0.34769000  0.05207000  0.65492000  1.0
  C  C150  1  0.68362000  0.61548000  0.13974000  1.0
  C  C151  1  0.32105000  0.08050000  0.70357000  1.0
  C  C152  1  0.21252000  0.16463000  0.71701000  1.0
  C  C153  1  0.13217000  0.22293000  0.68023000  1.0
  C  C154  1  0.16048000  0.20007000  0.63126000  1.0
  C  C155  1  0.12078000  0.13848000  0.78993000  1.0
  C  C156  1  0.08371000  0.16455000  0.83769000  1.0
  C  C157  1  0.16843000  0.28492000  0.84566000  1.0
  C  C158  1  0.62440000  0.74586000  0.38272000  1.0
  C  C159  1  0.20941000  0.25638000  0.79746000  1.0
  C  C160  1  0.18022000  0.18834000  0.76923000  1.0
  C  C161  1  0.63522000  0.72090000  0.33978000  1.0
  C  C162  1  0.10315000  0.23910000  0.86508000  1.0
  C  C163  1  0.72127000  0.24067000  0.04225000  1.0
  C  C164  1  0.72995000  0.53941000  0.04956000  1.0
  C  C165  1  0.03499000  0.24962000  0.05040000  1.0
  C  C166  1  0.73129000  0.24994000  0.90534000  1.0
  C  C167  1  0.72550000  0.55531000  0.91621000  1.0
  C  C168  1  0.04672000  0.26489000  0.91367000  1.0
  C  C169  1  0.55082000  0.74040000  0.25887000  1.0
  C  C170  1  0.56217000  0.71514000  0.20966000  1.0
  C  C171  1  0.19332000  0.34333000  0.19073000  1.0
  C  C172  1  0.69974000  0.58903000  0.09698000  1.0
  C  C173  1  0.08305000  0.45715000  0.18702000  1.0
  C  C174  1  0.87946000  0.63508000  0.76526000  1.0
  C  C175  1  0.99141000  0.57979000  0.79307000  1.0
  C  C176  1  0.47022000  0.70932000  0.77241000  1.0
  C  C177  1  0.40152000  0.83366000  0.75794000  1.0
  C  C178  1  0.84946000  0.03736000  0.60092000  1.0
  C  C179  1  0.86354000  0.13962000  0.58849000  1.0
  C  C180  1  0.55986000  0.35517000  0.73614000  1.0
  C  C181  1  0.64541000  0.37418000  0.70698000  1.0
  C  C182  1  0.56643000  0.42827000  0.83446000  1.0
  C  C183  1  0.63997000  0.11567000  0.37497000  1.0
  C  C184  1  0.44284000  0.47035000  0.84887000  1.0
  C  C185  1  0.80306000  0.94500000  0.78958000  1.0
  C  C186  1  0.92404000  0.87966000  0.80985000  1.0
  C  C187  1  0.09811000  0.05603000  0.76297000  1.0
  C  C188  1  0.97574000  0.10593000  0.74557000  1.0
  C  C189  1  0.29098000  0.29175000  0.77692000  1.0
  C  C190  1  0.25524000  0.36566000  0.73072000  1.0
  C  C191  1  0.20112000  0.35522000  0.87681000  1.0
  C  C192  1  0.31505000  0.28290000  0.90285000  1.0
  C  C193  1  0.74041000  0.97236000  0.16474000  1.0
  O  O194  1  0.52381000  0.16336000  0.44255000  1.0
  O  O195  1  0.82826000  0.51539000  0.03406000  1.0
  O  O196  1  0.02149000  0.33880000  0.02758000  1.0
  O  O197  1  0.32931000  0.15396000  0.43856000  1.0
  O  O198  1  0.03114000  0.18977000  0.93356000  1.0
  O  O199  1  0.83215000  0.18645000  0.91955000  1.0
  O  O200  1  0.65638000  0.33609000  0.92926000  1.0
  O  O201  1  0.65587000  0.52436000  0.93203000  1.0
  O  O202  1  0.81604000  0.53550000  0.93858000  1.0
  O  O203  1  0.00987000  0.36441000  0.93155000  1.0
  O  O204  1  0.83896000  0.33491000  0.97949000  1.0
  O  O205  1  0.52963000  0.80944000  0.54267000  1.0
  O  O206  1  0.30965000  0.00093000  0.45561000  1.0
  O  O207  1  0.50148000  0.82354000  0.44725000  1.0
  O  O208  1  0.67361000  0.81321000  0.45061000  1.0
  O  O209  1  0.68491000  0.99181000  0.43962000  1.0
  O  O210  1  0.51002000  0.16244000  0.54734000  1.0
  O  O211  1  0.30959000  0.16384000  0.54179000  1.0
  O  O212  1  0.33986000  0.98615000  0.55268000  1.0
  O  O213  1  0.68173000  0.83500000  0.54658000  1.0
  O  O214  1  0.68586000  0.01616000  0.53474000  1.0
  O  O215  1  0.49863000  0.00846000  0.49451000  1.0
  O  O216  1  0.00459000  0.18151000  0.03550000  1.0
  O  O217  1  0.81296000  0.17064000  0.02239000  1.0
  O  O218  1  0.64875000  0.33935000  0.02544000  1.0
  O  O219  1  0.65969000  0.51863000  0.02769000  1.0
  O  O220  1  0.34158000  0.31708000  0.48874000  1.0
  O  O221  1  0.99846000  0.02640000  0.97569000  1.0
