# generated using pymatgen
data_AlH15(C9O4)3
_symmetry_space_group_name_H-M   'P 1'
_cell_length_a   4.03513000
_cell_length_b   27.73500000
_cell_length_c   27.74428436
_cell_angle_alpha   60.04378573
_cell_angle_beta   89.85984986
_cell_angle_gamma   89.73640000
_symmetry_Int_Tables_number   1
_chemical_formula_structural   AlH15(C9O4)3
_chemical_formula_sum   'Al3 H45 C81 O36'
_cell_volume   2690.15129240
_cell_formula_units_Z   3
loop_
 _symmetry_equiv_pos_site_id
 _symmetry_equiv_pos_as_xyz
  1  'x, y, z'
loop_
 _atom_site_type_symbol
 _atom_site_label
 _atom_site_symmetry_multiplicity
 _atom_site_fract_x
 _atom_site_fract_y
 _atom_site_fract_z
 _atom_site_occupancy
  Al  Al0  1  0.00255000  0.00014000  0.49993000  1.0
  Al  Al1  1  0.04297000  0.33355000  0.83318000  1.0
  Al  Al2  1  0.95069000  0.66700000  0.16645000  1.0
  H  H3  1  0.49160000  0.00005000  0.92262000  1.0
  H  H4  1  0.47252000  0.91071000  0.83300000  1.0
  H  H5  1  0.51070000  0.08961000  0.74380000  1.0
  H  H6  1  0.20367000  0.07564000  0.90621000  1.0
  H  H7  1  0.84332000  0.14541000  0.76118000  1.0
  H  H8  1  0.78154000  0.92494000  0.98101000  1.0
  H  H9  1  0.14409000  0.85425000  0.90671000  1.0
  H  H10  1  0.17770000  0.92722000  0.75872000  1.0
  H  H11  1  0.80772000  0.07317000  0.68623000  1.0
  H  H12  1  0.49224000  0.42271000  0.07752000  1.0
  H  H13  1  0.50683000  0.24378000  0.16657000  1.0
  H  H14  1  0.47469000  0.33305000  0.25637000  1.0
  H  H15  1  0.78703000  0.48069000  0.09430000  1.0
  H  H16  1  0.14737000  0.40728000  0.23933000  1.0
  H  H17  1  0.19815000  0.40631000  0.01881000  1.0
  H  H18  1  0.84083000  0.26119000  0.09289000  1.0
  H  H19  1  0.80873000  0.18613000  0.24058000  1.0
  H  H20  1  0.17364000  0.25897000  0.31395000  1.0
  H  H21  1  0.50409000  0.57746000  0.49964000  1.0
  H  H22  1  0.49235000  0.75636000  0.41054000  1.0
  H  H23  1  0.52557000  0.66670000  0.58940000  1.0
  H  H24  1  0.21263000  0.51913000  0.57449000  1.0
  H  H25  1  0.84996000  0.59258000  0.64607000  1.0
  H  H26  1  0.79655000  0.59414000  0.42393000  1.0
  H  H27  1  0.15549000  0.73942000  0.35461000  1.0
  H  H28  1  0.19292000  0.81387000  0.42704000  1.0
  H  H29  1  0.82504000  0.74088000  0.57306000  1.0
  H  H30  1  0.01634000  0.26221000  0.76764000  1.0
  H  H31  1  0.06598000  0.19867000  0.90032000  1.0
  H  H32  1  0.92640000  0.80188000  0.09777000  1.0
  H  H33  1  0.97936000  0.73709000  0.02986000  1.0
  H  H34  1  0.14379000  0.92749000  0.63281000  1.0
  H  H35  1  0.85613000  0.07255000  0.56085000  1.0
  H  H36  1  0.98110000  0.53062000  0.23305000  1.0
  H  H37  1  0.93089000  0.59776000  0.10028000  1.0
  H  H38  1  0.06106000  0.40069000  0.90149000  1.0
  H  H39  1  0.01378000  0.26783000  0.96955000  1.0
  H  H40  1  0.85873000  0.06093000  0.36663000  1.0
  H  H41  1  0.13938000  0.13313000  0.43958000  1.0
  H  H42  1  0.01509000  0.46937000  0.76280000  1.0
  H  H43  1  0.06832000  0.40194000  0.69748000  1.0
  H  H44  1  0.93393000  0.60076000  0.30074000  1.0
  H  H45  1  0.98146000  0.73369000  0.23732000  1.0
  H  H46  1  0.14815000  0.93946000  0.42744000  1.0
  H  H47  1  0.86370000  0.86698000  0.57244000  1.0
  C  C48  1  0.50537000  0.92489000  0.49988000  1.0
  C  C49  1  0.50078000  0.00001000  0.57520000  1.0
  C  C50  1  0.50052000  0.07543000  0.42480000  1.0
  C  C51  1  0.54467000  0.25812000  0.83370000  1.0
  C  C52  1  0.54110000  0.33409000  0.90808000  1.0
  C  C53  1  0.54227000  0.40838000  0.75780000  1.0
  C  C54  1  0.44996000  0.74202000  0.09127000  1.0
  C  C55  1  0.45317000  0.59172000  0.16664000  1.0
  C  C56  1  0.45090000  0.66711000  0.24155000  1.0
  C  C57  1  0.47447000  0.94940000  0.88382000  1.0
  C  C58  1  0.49120000  0.00010000  0.88328000  1.0
  C  C59  1  0.50842000  0.05083000  0.83323000  1.0
  C  C60  1  0.50852000  0.05028000  0.78301000  1.0
  C  C61  1  0.49102000  0.00017000  0.78225000  1.0
  C  C62  1  0.47405000  0.95001000  0.83301000  1.0
  C  C63  1  0.35717000  0.15950000  0.87482000  1.0
  C  C64  1  0.35512000  0.10920000  0.87512000  1.0
  C  C65  1  0.52175000  0.10391000  0.83357000  1.0
  C  C66  1  0.70031000  0.14906000  0.79253000  1.0
  C  C67  1  0.71847000  0.19875000  0.79338000  1.0
  C  C68  1  0.54230000  0.20451000  0.83414000  1.0
  C  C69  1  0.63208000  0.89113000  0.98366000  1.0
  C  C70  1  0.63398000  0.84076000  0.03352000  1.0
  C  C71  1  0.45153000  0.79546000  0.03804000  1.0
  C  C72  1  0.27405000  0.80100000  0.99185000  1.0
  C  C73  1  0.28818000  0.85081000  0.94143000  1.0
  C  C74  1  0.46402000  0.89626000  0.93714000  1.0
  C  C75  1  0.32317000  0.95865000  0.72438000  1.0
  C  C76  1  0.31777000  0.95893000  0.67415000  1.0
  C  C77  1  0.49805000  0.00007000  0.62709000  1.0
  C  C78  1  0.67527000  0.04128000  0.63324000  1.0
  C  C79  1  0.66416000  0.04171000  0.68312000  1.0
  C  C80  1  0.49245000  0.00019000  0.72898000  1.0
  C  C81  1  0.50630000  0.33328000  0.11601000  1.0
  C  C82  1  0.49150000  0.38338000  0.11677000  1.0
  C  C83  1  0.47661000  0.38393000  0.16695000  1.0
  C  C84  1  0.47520000  0.33309000  0.21705000  1.0
  C  C85  1  0.49016000  0.28230000  0.21758000  1.0
  C  C86  1  0.50611000  0.28302000  0.16672000  1.0
  C  C87  1  0.63961000  0.53350000  0.12591000  1.0
  C  C88  1  0.63733000  0.48356000  0.12548000  1.0
  C  C89  1  0.46820000  0.43725000  0.16688000  1.0
  C  C90  1  0.29216000  0.44182000  0.20804000  1.0
  C  C91  1  0.27812000  0.49233000  0.20734000  1.0
  C  C92  1  0.45615000  0.53834000  0.16660000  1.0
  C  C93  1  0.35003000  0.37523000  0.01604000  1.0
  C  C94  1  0.35134000  0.37501000  0.96601000  1.0
  C  C95  1  0.53740000  0.33440000  0.96131000  1.0
  C  C96  1  0.71448000  0.29353000  0.00755000  1.0
  C  C97  1  0.69699000  0.29260000  0.05814000  1.0
  C  C98  1  0.51807000  0.33365000  0.06256000  1.0
  C  C99  1  0.66422000  0.18311000  0.27515000  1.0
  C  C100  1  0.67577000  0.13329000  0.32547000  1.0
  C  C101  1  0.49695000  0.12724000  0.37281000  1.0
  C  C102  1  0.31473000  0.17436000  0.36685000  1.0
  C  C103  1  0.32030000  0.22456000  0.31690000  1.0
  C  C104  1  0.49112000  0.22904000  0.27079000  1.0
  C  C105  1  0.49090000  0.66691000  0.44910000  1.0
  C  C106  1  0.50569000  0.61672000  0.49976000  1.0
  C  C107  1  0.52175000  0.61601000  0.55055000  1.0
  C  C108  1  0.52417000  0.66677000  0.55007000  1.0
  C  C109  1  0.50941000  0.71764000  0.49999000  1.0
  C  C110  1  0.49267000  0.71707000  0.44979000  1.0
  C  C111  1  0.35870000  0.46634000  0.65881000  1.0
  C  C112  1  0.36160000  0.51627000  0.60850000  1.0
  C  C113  1  0.53008000  0.56260000  0.60363000  1.0
  C  C114  1  0.70525000  0.55806000  0.64929000  1.0
  C  C115  1  0.71851000  0.50758000  0.69902000  1.0
  C  C116  1  0.54079000  0.46156000  0.70429000  1.0
  C  C117  1  0.64456000  0.62538000  0.39041000  1.0
  C  C118  1  0.64166000  0.62592000  0.34002000  1.0
  C  C119  1  0.45513000  0.66673000  0.29512000  1.0
  C  C120  1  0.27911000  0.70748000  0.30102000  1.0
  C  C121  1  0.29838000  0.70808000  0.35083000  1.0
  C  C122  1  0.47759000  0.66683000  0.39590000  1.0
  C  C123  1  0.33745000  0.81691000  0.45848000  1.0
  C  C124  1  0.32764000  0.86685000  0.45882000  1.0
  C  C125  1  0.50652000  0.87290000  0.49998000  1.0
  C  C126  1  0.68670000  0.82568000  0.54119000  1.0
  C  C127  1  0.67962000  0.77536000  0.54159000  1.0
  C  C128  1  0.50922000  0.77089000  0.50004000  1.0
  O  O129  1  0.27041000  0.06583000  0.46149000  1.0
  O  O130  1  0.27430000  0.96145000  0.47282000  1.0
  O  O131  1  0.27183000  0.97295000  0.56559000  1.0
  O  O132  1  0.73328000  0.03910000  0.43418000  1.0
  O  O133  1  0.73202000  0.02699000  0.53886000  1.0
  O  O134  1  0.73576000  0.93443000  0.52681000  1.0
  O  O135  1  0.30528000  0.39914000  0.79222000  1.0
  O  O136  1  0.30798000  0.29267000  0.80850000  1.0
  O  O137  1  0.30579000  0.30893000  0.89869000  1.0
  O  O138  1  0.77991000  0.37383000  0.76753000  1.0
  O  O139  1  0.77810000  0.35888000  0.87365000  1.0
  O  O140  1  0.78132000  0.26777000  0.85848000  1.0
  O  O141  1  0.21390000  0.64225000  0.23211000  1.0
  O  O142  1  0.21253000  0.73260000  0.12567000  1.0
  O  O143  1  0.21550000  0.62615000  0.14167000  1.0
  O  O144  1  0.68602000  0.69222000  0.20685000  1.0
  O  O145  1  0.68881000  0.60130000  0.19161000  1.0
  O  O146  1  0.68698000  0.70743000  0.10081000  1.0
  O  O147  1  0.90111000  0.24131000  0.75287000  1.0
  O  O148  1  0.18395000  0.16300000  0.91557000  1.0
  O  O149  1  0.80808000  0.83750000  0.07744000  1.0
  O  O150  1  0.09376000  0.75817000  0.99407000  1.0
  O  O151  1  0.14294000  0.91857000  0.67211000  1.0
  O  O152  1  0.85263000  0.08158000  0.59116000  1.0
  O  O153  1  0.09728000  0.49486000  0.24790000  1.0
  O  O154  1  0.81479000  0.57718000  0.08520000  1.0
  O  O155  1  0.17657000  0.41579000  0.92211000  1.0
  O  O156  1  0.89727000  0.25297000  0.00520000  1.0
  O  O157  1  0.85506000  0.09116000  0.32730000  1.0
  O  O158  1  0.13795000  0.17240000  0.40919000  1.0
  O  O159  1  0.89768000  0.50502000  0.74216000  1.0
  O  O160  1  0.18370000  0.42269000  0.66173000  1.0
  O  O161  1  0.81488000  0.58527000  0.33626000  1.0
  O  O162  1  0.09512000  0.74814000  0.25863000  1.0
  O  O163  1  0.15013000  0.90908000  0.41849000  1.0
  O  O164  1  0.86310000  0.82764000  0.58148000  1.0
