# generated using pymatgen
data_CdH10C12(NO)6
_symmetry_space_group_name_H-M   'P 1'
_cell_length_a   6.97450000
_cell_length_b   10.41590000
_cell_length_c   10.75720960
_cell_angle_alpha   96.91174234
_cell_angle_beta   108.90283489
_cell_angle_gamma   90.01320000
_symmetry_Int_Tables_number   1
_chemical_formula_structural   CdH10C12(NO)6
_chemical_formula_sum   'Cd2 H20 C24 N12 O12'
_cell_volume   733.30707441
_cell_formula_units_Z   2
loop_
 _symmetry_equiv_pos_site_id
 _symmetry_equiv_pos_as_xyz
  1  'x, y, z'
loop_
 _atom_site_type_symbol
 _atom_site_label
 _atom_site_symmetry_multiplicity
 _atom_site_fract_x
 _atom_site_fract_y
 _atom_site_fract_z
 _atom_site_occupancy
  Cd  Cd0  1  0.13364000  0.75006000  0.00003000  1.0
  Cd  Cd1  1  0.86636000  0.24994000  0.99997000  1.0
  H  H2  1  0.80890000  0.55236000  0.85186000  1.0
  H  H3  1  0.95732000  0.94757000  0.14816000  1.0
  H  H4  1  0.19109000  0.44764000  0.14814000  1.0
  H  H5  1  0.04267000  0.05243000  0.85184000  1.0
  H  H6  1  0.84666000  0.67009000  0.77810000  1.0
  H  H7  1  0.06899000  0.82999000  0.22208000  1.0
  H  H8  1  0.15334000  0.32991000  0.22190000  1.0
  H  H9  1  0.93101000  0.17001000  0.77792000  1.0
  H  H10  1  0.70650000  0.85221000  0.47230000  1.0
  H  H11  1  0.23428000  0.64781000  0.52754000  1.0
  H  H12  1  0.29350000  0.14779000  0.52770000  1.0
  H  H13  1  0.76572000  0.35219000  0.47246000  1.0
  H  H14  1  0.38304000  0.22126000  0.78132000  1.0
  H  H15  1  0.60198000  0.27883000  0.21878000  1.0
  H  H16  1  0.61698000  0.77874000  0.21869000  1.0
  H  H17  1  0.39802000  0.72117000  0.78122000  1.0
  H  H18  1  0.72700000  0.90597000  0.92851000  1.0
  H  H19  1  0.79937000  0.59391000  0.07150000  1.0
  H  H20  1  0.27300000  0.09402000  0.07149000  1.0
  H  H21  1  0.20062000  0.40609000  0.92850000  1.0
  C  C22  1  0.16846000  0.00478000  0.61238000  1.0
  C  C23  1  0.55656000  0.49534000  0.38772000  1.0
  C  C24  1  0.83154000  0.99523000  0.38762000  1.0
  C  C25  1  0.44344000  0.50466000  0.61228000  1.0
  C  C26  1  0.00501000  0.91938000  0.59878000  1.0
  C  C27  1  0.40676000  0.58078000  0.40129000  1.0
  C  C28  1  0.99499000  0.08062000  0.40122000  1.0
  C  C29  1  0.59324000  0.41922000  0.59871000  1.0
  C  C30  1  0.83702000  0.91581000  0.48405000  1.0
  C  C31  1  0.35306000  0.58418000  0.51588000  1.0
  C  C32  1  0.16298000  0.08419000  0.51595000  1.0
  C  C33  1  0.64694000  0.41582000  0.48411000  1.0
  C  C34  1  0.99081000  0.83681000  0.70214000  1.0
  C  C35  1  0.28935000  0.66337000  0.29795000  1.0
  C  C36  1  0.00920000  0.16319000  0.29787000  1.0
  C  C37  1  0.71064000  0.33663000  0.70204000  1.0
  C  C38  1  0.43963000  0.12513000  0.79833000  1.0
  C  C39  1  0.64168000  0.37494000  0.20178000  1.0
  C  C40  1  0.56037000  0.87486000  0.20167000  1.0
  C  C41  1  0.35831000  0.62506000  0.79822000  1.0
  C  C42  1  0.61054000  0.96363000  0.87019000  1.0
  C  C43  1  0.74112000  0.53634000  0.12988000  1.0
  C  C44  1  0.38947000  0.03637000  0.12982000  1.0
  C  C45  1  0.25888000  0.46366000  0.87012000  1.0
  N  N46  1  0.34716000  0.01487000  0.72482000  1.0
  N  N47  1  0.62305000  0.48525000  0.27535000  1.0
  N  N48  1  0.65286000  0.98513000  0.27519000  1.0
  N  N49  1  0.37695000  0.51475000  0.72465000  1.0
  N  N50  1  0.45480000  0.91056000  0.76942000  1.0
  N  N51  1  0.68634000  0.58950000  0.23072000  1.0
  N  N52  1  0.54520000  0.08944000  0.23058000  1.0
  N  N53  1  0.31365000  0.41050000  0.76927000  1.0
  N  N54  1  0.60699000  0.09583000  0.89169000  1.0
  N  N55  1  0.71573000  0.40415000  0.10837000  1.0
  N  N56  1  0.39302000  0.90417000  0.10832000  1.0
  N  N57  1  0.28427000  0.59585000  0.89163000  1.0
  O  O58  1  0.05501000  0.88826000  0.82409000  1.0
  O  O59  1  0.23165000  0.61190000  0.17603000  1.0
  O  O60  1  0.94500000  0.11174000  0.17592000  1.0
  O  O61  1  0.76835000  0.38810000  0.82397000  1.0
  O  O62  1  0.91087000  0.72480000  0.66082000  1.0
  O  O63  1  0.25071000  0.77538000  0.33929000  1.0
  O  O64  1  0.08913000  0.27520000  0.33918000  1.0
  O  O65  1  0.74929000  0.22462000  0.66071000  1.0
  O  O66  1  0.82688000  0.64880000  0.86278000  1.0
  O  O67  1  0.96436000  0.85112000  0.13744000  1.0
  O  O68  1  0.17312000  0.35120000  0.13722000  1.0
  O  O69  1  0.03565000  0.14888000  0.86256000  1.0
