# generated using pymatgen
data_CuH12C12S2(NO3)2
_symmetry_space_group_name_H-M   'P 1'
_cell_length_a   4.93571000
_cell_length_b   7.81415000
_cell_length_c   18.45930000
_cell_angle_alpha   90.00050000
_cell_angle_beta   90.21510000
_cell_angle_gamma   89.99970000
_symmetry_Int_Tables_number   1
_chemical_formula_structural   CuH12C12S2(NO3)2
_chemical_formula_sum   'Cu2 H24 C24 S4 N4 O12'
_cell_volume   711.94024836
_cell_formula_units_Z   2
loop_
 _symmetry_equiv_pos_site_id
 _symmetry_equiv_pos_as_xyz
  1  'x, y, z'
loop_
 _atom_site_type_symbol
 _atom_site_label
 _atom_site_symmetry_multiplicity
 _atom_site_fract_x
 _atom_site_fract_y
 _atom_site_fract_z
 _atom_site_occupancy
  Cu  Cu0  1  0.00000000  0.00000000  0.00000000  1.0
  Cu  Cu1  1  0.50000000  0.50000000  0.50000000  1.0
  H  H2  1  0.57621000  0.50296000  0.20177000  1.0
  H  H3  1  0.07621000  0.99704000  0.70177000  1.0
  H  H4  1  0.42379000  0.49704000  0.79823000  1.0
  H  H5  1  0.92379000  0.00296000  0.29822000  1.0
  H  H6  1  0.93114000  0.58714000  0.11361000  1.0
  H  H7  1  0.43115000  0.91286000  0.61361000  1.0
  H  H8  1  0.06886000  0.41287000  0.88639000  1.0
  H  H9  1  0.56886000  0.08714000  0.38639000  1.0
  H  H10  1  0.11204000  0.36276000  0.02752000  1.0
  H  H11  1  0.61204000  0.13724000  0.52752000  1.0
  H  H12  1  0.88796000  0.63725000  0.97248000  1.0
  H  H13  1  0.38797000  0.86277000  0.47248000  1.0
  H  H14  1  0.27758000  0.05663000  0.21195000  1.0
  H  H15  1  0.77757000  0.44337000  0.71195000  1.0
  H  H16  1  0.72243000  0.94337000  0.78805000  1.0
  H  H17  1  0.22242000  0.55663000  0.28805000  1.0
  H  H18  1  0.16713000  0.27265000  0.21651000  1.0
  H  H19  1  0.66713000  0.22735000  0.71650000  1.0
  H  H20  1  0.83286000  0.72735000  0.78350000  1.0
  H  H21  1  0.33287000  0.77264000  0.28350000  1.0
  H  H22  1  0.43074000  0.20461000  0.27393000  1.0
  H  H23  1  0.93073000  0.29539000  0.77393000  1.0
  H  H24  1  0.56926000  0.79539000  0.72607000  1.0
  H  H25  1  0.06927000  0.70460000  0.22607000  1.0
  C  C26  1  0.66361000  0.12841000  0.11363000  1.0
  C  C27  1  0.16360000  0.37158000  0.61363000  1.0
  C  C28  1  0.33640000  0.87159000  0.88637000  1.0
  C  C29  1  0.83640000  0.62842000  0.38637000  1.0
  C  C30  1  0.55292000  0.24074000  0.16468000  1.0
  C  C31  1  0.05292000  0.25926000  0.66468000  1.0
  C  C32  1  0.44708000  0.75926000  0.83532000  1.0
  C  C33  1  0.94708000  0.74074000  0.33532000  1.0
  C  C34  1  0.65348000  0.40894000  0.16347000  1.0
  C  C35  1  0.15348000  0.09106000  0.66347000  1.0
  C  C36  1  0.34651000  0.59107000  0.83653000  1.0
  C  C37  1  0.84652000  0.90893000  0.33653000  1.0
  C  C38  1  0.85312000  0.45688000  0.11451000  1.0
  C  C39  1  0.35312000  0.04312000  0.61450000  1.0
  C  C40  1  0.14688000  0.54312000  0.88550000  1.0
  C  C41  1  0.64688000  0.95689000  0.38550000  1.0
  C  C42  1  0.95295000  0.33543000  0.06650000  1.0
  C  C43  1  0.45295000  0.16456000  0.56650000  1.0
  C  C44  1  0.04706000  0.66457000  0.93350000  1.0
  C  C45  1  0.54705000  0.83544000  0.43350000  1.0
  C  C46  1  0.34521000  0.18871000  0.21934000  1.0
  C  C47  1  0.84521000  0.31129000  0.71934000  1.0
  C  C48  1  0.65479000  0.81129000  0.78066000  1.0
  C  C49  1  0.15479000  0.68871000  0.28066000  1.0
  S  S50  1  0.56825000  0.90587000  0.10785000  1.0
  S  S51  1  0.06824000  0.59413000  0.60785000  1.0
  S  S52  1  0.43175000  0.09413000  0.89215000  1.0
  S  S53  1  0.93175000  0.40587000  0.39215000  1.0
  N  N54  1  0.85750000  0.17458000  0.06646000  1.0
  N  N55  1  0.35750000  0.32542000  0.56646000  1.0
  N  N56  1  0.14250000  0.82542000  0.93354000  1.0
  N  N57  1  0.64250000  0.67458000  0.43354000  1.0
  O  O58  1  0.70367000  0.84910000  0.03925000  1.0
  O  O59  1  0.20366000  0.65090000  0.53925000  1.0
  O  O60  1  0.29633000  0.15090000  0.96075000  1.0
  O  O61  1  0.79634000  0.34911000  0.46075000  1.0
  O  O62  1  0.67617000  0.82502000  0.17267000  1.0
  O  O63  1  0.17618000  0.67498000  0.67267000  1.0
  O  O64  1  0.32383000  0.17498000  0.82733000  1.0
  O  O65  1  0.82382000  0.32502000  0.32733000  1.0
  O  O66  1  0.27392000  0.89536000  0.10072000  1.0
  O  O67  1  0.77392000  0.60464000  0.60072000  1.0
  O  O68  1  0.72608000  0.10464000  0.89928000  1.0
  O  O69  1  0.22608000  0.39535000  0.39928000  1.0
