# generated using pymatgen
data_TbH5C9O7
_symmetry_space_group_name_H-M   'P 1'
_cell_length_a   6.88121000
_cell_length_b   7.96403000
_cell_length_c   8.96829000
_cell_angle_alpha   98.49860000
_cell_angle_beta   99.71900000
_cell_angle_gamma   97.52000000
_symmetry_Int_Tables_number   1
_chemical_formula_structural   TbH5C9O7
_chemical_formula_sum   'Tb2 H10 C18 O14'
_cell_volume   472.94813390
_cell_formula_units_Z   2
loop_
 _symmetry_equiv_pos_site_id
 _symmetry_equiv_pos_as_xyz
  1  'x, y, z'
loop_
 _atom_site_type_symbol
 _atom_site_label
 _atom_site_symmetry_multiplicity
 _atom_site_fract_x
 _atom_site_fract_y
 _atom_site_fract_z
 _atom_site_occupancy
  Tb  Tb0  1  0.69820000  0.20985000  0.97915000  1.0
  Tb  Tb1  1  0.30180000  0.79015000  0.02085000  1.0
  H  H2  1  0.33163000  0.37641000  0.01606000  1.0
  H  H3  1  0.66837000  0.62359000  0.98394000  1.0
  H  H4  1  0.33137000  0.20948000  0.09572000  1.0
  H  H5  1  0.66863000  0.79052000  0.90428000  1.0
  H  H6  1  0.33471000  0.12165000  0.46520000  1.0
  H  H7  1  0.66529000  0.87835000  0.53480000  1.0
  H  H8  1  0.71292000  0.35162000  0.59200000  1.0
  H  H9  1  0.28708000  0.64838000  0.40800000  1.0
  H  H10  1  0.33310000  0.57757000  0.67440000  1.0
  H  H11  1  0.66690000  0.42243000  0.32560000  1.0
  C  C12  1  0.07472000  0.09339000  0.21054000  1.0
  C  C13  1  0.92528000  0.90661000  0.78946000  1.0
  C  C14  1  0.65244000  0.92519000  0.25230000  1.0
  C  C15  1  0.34756000  0.07481000  0.74770000  1.0
  C  C16  1  0.02661000  0.04164000  0.35621000  1.0
  C  C17  1  0.97339000  0.95836000  0.64380000  1.0
  C  C18  1  0.83522000  0.97277000  0.37647000  1.0
  C  C19  1  0.16478000  0.02723000  0.62353000  1.0
  C  C20  1  0.18692000  0.06708000  0.47986000  1.0
  C  C21  1  0.81308000  0.93292000  0.52014000  1.0
  C  C22  1  0.04838000  0.42237000  0.80729000  1.0
  C  C23  1  0.95162000  0.57763000  0.19271000  1.0
  C  C24  1  0.02485000  0.46199000  0.64830000  1.0
  C  C25  1  0.97515000  0.53801000  0.35170000  1.0
  C  C26  1  0.83730000  0.41639000  0.55025000  1.0
  C  C27  1  0.16271000  0.58361000  0.44975000  1.0
  C  C28  1  0.18764000  0.54514000  0.59743000  1.0
  C  C29  1  0.81236000  0.45487000  0.40257000  1.0
  O  O30  1  0.98191000  0.19952000  0.14908000  1.0
  O  O31  1  0.01809000  0.80048000  0.85092000  1.0
  O  O32  1  0.42035000  0.30593000  0.07038000  1.0
  O  O33  1  0.57965000  0.69408000  0.92962000  1.0
  O  O34  1  0.22154000  0.03709000  0.16037000  1.0
  O  O35  1  0.77846000  0.96291000  0.83963000  1.0
  O  O36  1  0.62050000  0.00961000  0.14118000  1.0
  O  O37  1  0.37950000  0.99039000  0.85883000  1.0
  O  O38  1  0.52675000  0.79607000  0.25880000  1.0
  O  O39  1  0.47326000  0.20393000  0.74120000  1.0
  O  O40  1  0.20213000  0.50101000  0.90773000  1.0
  O  O41  1  0.79786000  0.49899000  0.09227000  1.0
  O  O42  1  0.91750000  0.31131000  0.83560000  1.0
  O  O43  1  0.08250000  0.68869000  0.16440000  1.0
